MODEL 1
REMARK VINA RESULT:      -6.3      0.000      0.000
REMARK  2 active torsions:
REMARK  status: ('A' for Active; 'I' for Inactive)
REMARK    1  A    between atoms: C_4  and  N_5 
REMARK       I    between atoms: N_5  and  C_6 
REMARK       I    between atoms: C_6  and  N_8 
REMARK    2  A    between atoms: N_8  and  C_9 
ROOT
HETATM    1  N   UNL     1     -41.509 -47.914  10.216  1.00  0.00    -0.293 N 
HETATM    2  C   UNL     1     -41.117 -48.808  11.175  1.00  0.00     0.322 C 
HETATM    3  O   UNL     1     -39.944 -48.839  11.538  1.00  0.00    -0.247 OA
HETATM    4  N   UNL     1     -42.071 -49.667  11.623  1.00  0.00    -0.338 N 
HETATM    5  H   UNL     1     -40.758 -47.349   9.847  1.00  0.00     0.172 HD
HETATM    6  H   UNL     1     -43.026 -49.463  11.340  1.00  0.00     0.164 HD
ENDROOT
BRANCH   1   7
HETATM    7  C   UNL     1     -42.744 -47.849   9.600  1.00  0.00     0.132 A 
HETATM    8  C   UNL     1     -43.936 -47.395  10.212  1.00  0.00     0.084 A 
HETATM    9  C   UNL     1     -44.862 -47.395   9.196  1.00  0.00     0.076 A 
HETATM   10  C   UNL     1     -46.261 -46.965   9.059  1.00  0.00     0.079 C 
HETATM   11  O   UNL     1     -44.290 -47.888   8.071  1.00  0.00    -0.241 OA
HETATM   12  N   UNL     1     -42.970 -48.176   8.320  1.00  0.00    -0.245 N 
ATOM     13  HN  UNL     1     -42.294 -48.563   7.661  1.00  0.00     0.196 HD
ENDBRANCH   1   7
BRANCH   4  14
HETATM   14  C   UNL     1     -41.841 -50.810  12.474  1.00  0.00     0.086 C 
HETATM   15  C   UNL     1     -43.122 -51.255  13.184  1.00  0.00     0.025 C 
HETATM   16  C   UNL     1     -42.860 -52.475  14.062  1.00  0.00     0.002 C 
HETATM   17  C   UNL     1     -42.240 -53.624  13.270  1.00  0.00     0.000 C 
HETATM   18  C   UNL     1     -40.994 -53.190  12.501  1.00  0.00     0.002 C 
HETATM   19  C   UNL     1     -41.271 -51.964  11.639  1.00  0.00     0.025 C 
ENDBRANCH   4  14
TORSDOF 2
ENDMDL
MODEL 2
REMARK VINA RESULT:      -5.8      3.700      5.712
REMARK  2 active torsions:
REMARK  status: ('A' for Active; 'I' for Inactive)
REMARK    1  A    between atoms: C_4  and  N_5 
REMARK       I    between atoms: N_5  and  C_6 
REMARK       I    between atoms: C_6  and  N_8 
REMARK    2  A    between atoms: N_8  and  C_9 
ROOT
HETATM    1  N   UNL     1     -42.606 -52.788  11.742  1.00  0.00    -0.293 N 
HETATM    2  C   UNL     1     -43.659 -53.077  12.566  1.00  0.00     0.322 C 
HETATM    3  O   UNL     1     -44.535 -53.851  12.189  1.00  0.00    -0.247 OA
HETATM    4  N   UNL     1     -43.693 -52.416  13.754  1.00  0.00    -0.338 N 
HETATM    5  H   UNL     1     -42.657 -53.231  10.836  1.00  0.00     0.172 HD
HETATM    6  H   UNL     1     -42.854 -51.901  14.004  1.00  0.00     0.164 HD
ENDROOT
BRANCH   1   7
HETATM    7  C   UNL     1     -41.625 -51.838  11.954  1.00  0.00     0.132 A 
HETATM    8  C   UNL     1     -40.359 -52.092  12.531  1.00  0.00     0.084 A 
HETATM    9  C   UNL     1     -39.691 -50.895  12.429  1.00  0.00     0.076 A 
HETATM   10  C   UNL     1     -38.327 -50.432  12.721  1.00  0.00     0.079 C 
HETATM   11  O   UNL     1     -40.522 -49.965  11.900  1.00  0.00    -0.241 OA
HETATM   12  N   UNL     1     -41.731 -50.549  11.606  1.00  0.00    -0.245 N 
ATOM     13  HN  UNL     1     -42.549 -50.091  11.203  1.00  0.00     0.196 HD
ENDBRANCH   1   7
BRANCH   4  14
HETATM   14  C   UNL     1     -44.799 -52.413  14.683  1.00  0.00     0.086 C 
HETATM   15  C   UNL     1     -44.343 -52.068  16.103  1.00  0.00     0.025 C 
HETATM   16  C   UNL     1     -45.529 -52.050  17.063  1.00  0.00     0.002 C 
HETATM   17  C   UNL     1     -46.631 -51.104  16.591  1.00  0.00     0.000 C 
HETATM   18  C   UNL     1     -47.059 -51.389  15.153  1.00  0.00     0.002 C 
HETATM   19  C   UNL     1     -45.862 -51.414  14.210  1.00  0.00     0.025 C 
ENDBRANCH   4  14
TORSDOF 2
ENDMDL
MODEL 3
REMARK VINA RESULT:      -5.7      2.549      3.746
REMARK  2 active torsions:
REMARK  status: ('A' for Active; 'I' for Inactive)
REMARK    1  A    between atoms: C_4  and  N_5 
REMARK       I    between atoms: N_5  and  C_6 
REMARK       I    between atoms: C_6  and  N_8 
REMARK    2  A    between atoms: N_8  and  C_9 
ROOT
HETATM    1  N   UNL     1     -39.778 -51.203  12.156  1.00  0.00    -0.293 N 
HETATM    2  C   UNL     1     -40.348 -52.340  12.659  1.00  0.00     0.322 C 
HETATM    3  O   UNL     1     -39.643 -53.306  12.936  1.00  0.00    -0.247 OA
HETATM    4  N   UNL     1     -41.705 -52.340  12.759  1.00  0.00    -0.338 N 
HETATM    5  H   UNL     1     -38.780 -51.267  12.018  1.00  0.00     0.172 HD
HETATM    6  H   UNL     1     -42.164 -51.444  12.618  1.00  0.00     0.164 HD
ENDROOT
BRANCH   1   7
HETATM    7  C   UNL     1     -40.438 -50.093  11.664  1.00  0.00     0.132 A 
HETATM    8  C   UNL     1     -40.969 -49.046  12.453  1.00  0.00     0.084 A 
HETATM    9  C   UNL     1     -41.415 -48.122  11.538  1.00  0.00     0.076 A 
HETATM   10  C   UNL     1     -41.984 -46.769  11.613  1.00  0.00     0.079 C 
HETATM   11  O   UNL     1     -41.238 -48.612  10.287  1.00  0.00    -0.241 OA
HETATM   12  N   UNL     1     -40.632 -49.843  10.362  1.00  0.00    -0.245 N 
ATOM     13  HN  UNL     1     -40.380 -50.448   9.580  1.00  0.00     0.196 HD
ENDBRANCH   1   7
BRANCH   4  14
HETATM   14  C   UNL     1     -42.525 -53.486  13.070  1.00  0.00     0.086 C 
HETATM   15  C   UNL     1     -42.492 -53.817  14.564  1.00  0.00     0.025 C 
HETATM   16  C   UNL     1     -43.381 -55.018  14.873  1.00  0.00     0.002 C 
HETATM   17  C   UNL     1     -44.812 -54.808  14.385  1.00  0.00     0.000 C 
HETATM   18  C   UNL     1     -44.868 -54.416  12.910  1.00  0.00     0.002 C 
HETATM   19  C   UNL     1     -43.967 -53.222  12.618  1.00  0.00     0.025 C 
ENDBRANCH   4  14
TORSDOF 2
ENDMDL
MODEL 4
REMARK VINA RESULT:      -5.7      2.640      3.798
REMARK  2 active torsions:
REMARK  status: ('A' for Active; 'I' for Inactive)
REMARK    1  A    between atoms: C_4  and  N_5 
REMARK       I    between atoms: N_5  and  C_6 
REMARK       I    between atoms: C_6  and  N_8 
REMARK    2  A    between atoms: N_8  and  C_9 
ROOT
HETATM    1  N   UNL     1     -41.155 -50.490  11.379  1.00  0.00    -0.293 N 
HETATM    2  C   UNL     1     -41.959 -51.265  12.169  1.00  0.00     0.322 C 
HETATM    3  O   UNL     1     -41.805 -52.483  12.188  1.00  0.00    -0.247 OA
HETATM    4  N   UNL     1     -42.941 -50.615  12.849  1.00  0.00    -0.338 N 
HETATM    5  H   UNL     1     -40.491 -51.014  10.826  1.00  0.00     0.172 HD
HETATM    6  H   UNL     1     -42.889 -49.601  12.850  1.00  0.00     0.164 HD
ENDROOT
BRANCH   1   7
HETATM    7  C   UNL     1     -41.289 -49.137  11.135  1.00  0.00     0.132 A 
HETATM    8  C   UNL     1     -40.527 -48.119  11.756  1.00  0.00     0.084 A 
HETATM    9  C   UNL     1     -40.920 -46.964  11.122  1.00  0.00     0.076 A 
HETATM   10  C   UNL     1     -40.503 -45.556  11.165  1.00  0.00     0.079 C 
HETATM   11  O   UNL     1     -41.905 -47.254  10.238  1.00  0.00    -0.241 OA
HETATM   12  N   UNL     1     -42.140 -48.608  10.246  1.00  0.00    -0.245 N 
ATOM     13  HN  UNL     1     -42.828 -49.112   9.686  1.00  0.00     0.196 HD
ENDBRANCH   1   7
BRANCH   4  14
HETATM   14  C   UNL     1     -44.018 -51.244  13.577  1.00  0.00     0.086 C 
HETATM   15  C   UNL     1     -44.281 -50.546  14.913  1.00  0.00     0.025 C 
HETATM   16  C   UNL     1     -45.435 -51.214  15.655  1.00  0.00     0.002 C 
HETATM   17  C   UNL     1     -46.701 -51.274  14.804  1.00  0.00     0.000 C 
HETATM   18  C   UNL     1     -46.450 -51.910  13.439  1.00  0.00     0.002 C 
HETATM   19  C   UNL     1     -45.289 -51.239  12.717  1.00  0.00     0.025 C 
ENDBRANCH   4  14
TORSDOF 2
ENDMDL
MODEL 5
REMARK VINA RESULT:      -5.7      3.507      5.750
REMARK  2 active torsions:
REMARK  status: ('A' for Active; 'I' for Inactive)
REMARK    1  A    between atoms: C_4  and  N_5 
REMARK       I    between atoms: N_5  and  C_6 
REMARK       I    between atoms: C_6  and  N_8 
REMARK    2  A    between atoms: N_8  and  C_9 
ROOT
HETATM    1  N   UNL     1     -41.390 -48.019  10.303  1.00  0.00    -0.293 N 
HETATM    2  C   UNL     1     -40.663 -47.067  10.961  1.00  0.00     0.322 C 
HETATM    3  O   UNL     1     -39.655 -47.390  11.585  1.00  0.00    -0.247 OA
HETATM    4  N   UNL     1     -41.159 -45.801  10.930  1.00  0.00    -0.338 N 
HETATM    5  H   UNL     1     -41.039 -48.959  10.416  1.00  0.00     0.172 HD
HETATM    6  H   UNL     1     -41.925 -45.637  10.283  1.00  0.00     0.164 HD
ENDROOT
BRANCH   1   7
HETATM    7  C   UNL     1     -42.613 -47.847   9.684  1.00  0.00     0.132 A 
HETATM    8  C   UNL     1     -43.832 -47.578  10.351  1.00  0.00     0.084 A 
HETATM    9  C   UNL     1     -44.737 -47.368   9.337  1.00  0.00     0.076 A 
HETATM   10  C   UNL     1     -46.145 -46.957   9.264  1.00  0.00     0.079 C 
HETATM   11  O   UNL     1     -44.126 -47.573   8.145  1.00  0.00    -0.241 OA
HETATM   12  N   UNL     1     -42.802 -47.875   8.358  1.00  0.00    -0.245 N 
ATOM     13  HN  UNL     1     -42.101 -48.081   7.646  1.00  0.00     0.196 HD
ENDBRANCH   1   7
BRANCH   4  14
HETATM   14  C   UNL     1     -40.674 -44.687  11.710  1.00  0.00     0.086 C 
HETATM   15  C   UNL     1     -40.997 -43.347  11.045  1.00  0.00     0.025 C 
HETATM   16  C   UNL     1     -40.494 -42.185  11.896  1.00  0.00     0.002 C 
HETATM   17  C   UNL     1     -41.042 -42.242  13.320  1.00  0.00     0.000 C 
HETATM   18  C   UNL     1     -40.787 -43.593  13.984  1.00  0.00     0.002 C 
HETATM   19  C   UNL     1     -41.285 -44.742  13.116  1.00  0.00     0.025 C 
ENDBRANCH   4  14
TORSDOF 2
ENDMDL
MODEL 6
REMARK VINA RESULT:      -5.6      1.750      2.132
REMARK  2 active torsions:
REMARK  status: ('A' for Active; 'I' for Inactive)
REMARK    1  A    between atoms: C_4  and  N_5 
REMARK       I    between atoms: N_5  and  C_6 
REMARK       I    between atoms: C_6  and  N_8 
REMARK    2  A    between atoms: N_8  and  C_9 
ROOT
HETATM    1  N   UNL     1     -41.639 -48.700  11.960  1.00  0.00    -0.293 N 
HETATM    2  C   UNL     1     -42.014 -49.701  12.814  1.00  0.00     0.322 C 
HETATM    3  O   UNL     1     -41.229 -50.100  13.670  1.00  0.00    -0.247 OA
HETATM    4  N   UNL     1     -43.244 -50.241  12.606  1.00  0.00    -0.338 N 
HETATM    5  H   UNL     1     -40.690 -48.380  12.091  1.00  0.00     0.172 HD
HETATM    6  H   UNL     1     -43.846 -49.747  11.953  1.00  0.00     0.164 HD
ENDROOT
BRANCH   1   7
HETATM    7  C   UNL     1     -42.341 -48.242  10.862  1.00  0.00     0.132 A 
HETATM    8  C   UNL     1     -43.478 -47.401  10.917  1.00  0.00     0.084 A 
HETATM    9  C   UNL     1     -43.755 -47.117   9.601  1.00  0.00     0.076 A 
HETATM   10  C   UNL     1     -44.712 -46.248   8.900  1.00  0.00     0.079 C 
HETATM   11  O   UNL     1     -42.896 -47.799   8.806  1.00  0.00    -0.241 OA
HETATM   12  N   UNL     1     -42.015 -48.505   9.590  1.00  0.00    -0.245 N 
ATOM     13  HN  UNL     1     -41.261 -49.112   9.267  1.00  0.00     0.196 HD
ENDBRANCH   1   7
BRANCH   4  14
HETATM   14  C   UNL     1     -43.763 -51.426  13.248  1.00  0.00     0.086 C 
HETATM   15  C   UNL     1     -45.290 -51.394  13.347  1.00  0.00     0.025 C 
HETATM   16  C   UNL     1     -45.816 -52.663  14.009  1.00  0.00     0.002 C 
HETATM   17  C   UNL     1     -45.335 -53.922  13.292  1.00  0.00     0.000 C 
HETATM   18  C   UNL     1     -43.818 -53.948  13.124  1.00  0.00     0.002 C 
HETATM   19  C   UNL     1     -43.308 -52.669  12.472  1.00  0.00     0.025 C 
ENDBRANCH   4  14
TORSDOF 2
ENDMDL
MODEL 7
REMARK VINA RESULT:      -5.5      3.216      5.339
REMARK  2 active torsions:
REMARK  status: ('A' for Active; 'I' for Inactive)
REMARK    1  A    between atoms: C_4  and  N_5 
REMARK       I    between atoms: N_5  and  C_6 
REMARK       I    between atoms: C_6  and  N_8 
REMARK    2  A    between atoms: N_8  and  C_9 
ROOT
HETATM    1  N   UNL     1     -42.814 -53.156  12.437  1.00  0.00    -0.293 N 
HETATM    2  C   UNL     1     -41.790 -52.331  12.058  1.00  0.00     0.322 C 
HETATM    3  O   UNL     1     -40.670 -52.796  11.868  1.00  0.00    -0.247 OA
HETATM    4  N   UNL     1     -42.083 -51.005  11.980  1.00  0.00    -0.338 N 
HETATM    5  H   UNL     1     -42.541 -54.120  12.565  1.00  0.00     0.172 HD
HETATM    6  H   UNL     1     -43.067 -50.760  12.039  1.00  0.00     0.164 HD
ENDROOT
BRANCH   1   7
HETATM    7  C   UNL     1     -44.083 -52.776  12.827  1.00  0.00     0.132 A 
HETATM    8  C   UNL     1     -44.457 -52.420  14.144  1.00  0.00     0.084 A 
HETATM    9  C   UNL     1     -45.763 -52.006  14.029  1.00  0.00     0.076 A 
HETATM   10  C   UNL     1     -46.756 -51.416  14.938  1.00  0.00     0.079 C 
HETATM   11  O   UNL     1     -46.172 -52.174  12.748  1.00  0.00    -0.241 OA
HETATM   12  N   UNL     1     -45.128 -52.658  11.996  1.00  0.00    -0.245 N 
ATOM     13  HN  UNL     1     -45.145 -52.884  11.002  1.00  0.00     0.196 HD
ENDBRANCH   1   7
BRANCH   4  14
HETATM   14  C   UNL     1     -41.124 -49.941  11.797  1.00  0.00     0.086 C 
HETATM   15  C   UNL     1     -41.780 -48.679  11.233  1.00  0.00     0.025 C 
HETATM   16  C   UNL     1     -40.753 -47.563  11.068  1.00  0.00     0.002 C 
HETATM   17  C   UNL     1     -40.017 -47.267  12.372  1.00  0.00     0.000 C 
HETATM   18  C   UNL     1     -39.407 -48.523  12.988  1.00  0.00     0.002 C 
HETATM   19  C   UNL     1     -40.442 -49.631  13.136  1.00  0.00     0.025 C 
ENDBRANCH   4  14
TORSDOF 2
ENDMDL
MODEL 8
REMARK VINA RESULT:      -5.4      4.899      6.860
REMARK  2 active torsions:
REMARK  status: ('A' for Active; 'I' for Inactive)
REMARK    1  A    between atoms: C_4  and  N_5 
REMARK       I    between atoms: N_5  and  C_6 
REMARK       I    between atoms: C_6  and  N_8 
REMARK    2  A    between atoms: N_8  and  C_9 
ROOT
HETATM    1  N   UNL     1     -41.781 -54.689  14.206  1.00  0.00    -0.293 N 
HETATM    2  C   UNL     1     -43.055 -54.588  14.695  1.00  0.00     0.322 C 
HETATM    3  O   UNL     1     -43.662 -55.601  15.033  1.00  0.00    -0.247 OA
HETATM    4  N   UNL     1     -43.597 -53.340  14.710  1.00  0.00    -0.338 N 
HETATM    5  H   UNL     1     -41.441 -55.637  14.131  1.00  0.00     0.172 HD
HETATM    6  H   UNL     1     -42.958 -52.573  14.524  1.00  0.00     0.164 HD
ENDROOT
BRANCH   1   7
HETATM    7  C   UNL     1     -41.023 -53.675  13.653  1.00  0.00     0.132 A 
HETATM    8  C   UNL     1     -40.114 -52.858  14.364  1.00  0.00     0.084 A 
HETATM    9  C   UNL     1     -39.515 -52.088  13.395  1.00  0.00     0.076 A 
HETATM   10  C   UNL     1     -38.426 -51.103  13.369  1.00  0.00     0.079 C 
HETATM   11  O   UNL     1     -40.079 -52.366  12.194  1.00  0.00    -0.241 OA
HETATM   12  N   UNL     1     -41.024 -53.353  12.352  1.00  0.00    -0.245 N 
ATOM     13  HN  UNL     1     -41.610 -53.759  11.623  1.00  0.00     0.196 HD
ENDBRANCH   1   7
BRANCH   4  14
HETATM   14  C   UNL     1     -44.978 -53.027  14.992  1.00  0.00     0.086 C 
HETATM   15  C   UNL     1     -45.218 -52.826  16.490  1.00  0.00     0.025 C 
HETATM   16  C   UNL     1     -46.678 -52.476  16.762  1.00  0.00     0.002 C 
HETATM   17  C   UNL     1     -47.130 -51.257  15.962  1.00  0.00     0.000 C 
HETATM   18  C   UNL     1     -46.843 -51.407  14.470  1.00  0.00     0.002 C 
HETATM   19  C   UNL     1     -45.385 -51.767  14.217  1.00  0.00     0.025 C 
ENDBRANCH   4  14
TORSDOF 2
ENDMDL
MODEL 9
REMARK VINA RESULT:      -5.3      4.240      5.569
REMARK  2 active torsions:
REMARK  status: ('A' for Active; 'I' for Inactive)
REMARK    1  A    between atoms: C_4  and  N_5 
REMARK       I    between atoms: N_5  and  C_6 
REMARK       I    between atoms: C_6  and  N_8 
REMARK    2  A    between atoms: N_8  and  C_9 
ROOT
HETATM    1  N   UNL     1     -42.024 -54.152  13.059  1.00  0.00    -0.293 N 
HETATM    2  C   UNL     1     -40.826 -53.502  12.944  1.00  0.00     0.322 C 
HETATM    3  O   UNL     1     -39.780 -54.102  13.180  1.00  0.00    -0.247 OA
HETATM    4  N   UNL     1     -40.886 -52.180  12.630  1.00  0.00    -0.338 N 
HETATM    5  H   UNL     1     -41.946 -55.109  13.374  1.00  0.00     0.172 HD
HETATM    6  H   UNL     1     -41.794 -51.830  12.339  1.00  0.00     0.164 HD
ENDROOT
BRANCH   1   7
HETATM    7  C   UNL     1     -43.283 -53.590  12.972  1.00  0.00     0.132 A 
HETATM    8  C   UNL     1     -43.976 -52.978  14.042  1.00  0.00     0.084 A 
HETATM    9  C   UNL     1     -45.114 -52.468  13.464  1.00  0.00     0.076 A 
HETATM   10  C   UNL     1     -46.237 -51.638  13.924  1.00  0.00     0.079 C 
HETATM   11  O   UNL     1     -45.143 -52.814  12.155  1.00  0.00    -0.241 OA
HETATM   12  N   UNL     1     -44.004 -53.519  11.845  1.00  0.00    -0.245 N 
ATOM     13  HN  UNL     1     -43.756 -53.910  10.936  1.00  0.00     0.196 HD
ENDBRANCH   1   7
BRANCH   4  14
HETATM   14  C   UNL     1     -39.774 -51.259  12.653  1.00  0.00     0.086 C 
HETATM   15  C   UNL     1     -39.997 -50.081  11.702  1.00  0.00     0.025 C 
HETATM   16  C   UNL     1     -38.820 -49.111  11.758  1.00  0.00     0.002 C 
HETATM   17  C   UNL     1     -38.544 -48.629  13.180  1.00  0.00     0.000 C 
HETATM   18  C   UNL     1     -38.381 -49.788  14.160  1.00  0.00     0.002 C 
HETATM   19  C   UNL     1     -39.558 -50.752  14.084  1.00  0.00     0.025 C 
ENDBRANCH   4  14
TORSDOF 2
ENDMDL
