MODEL 1
REMARK VINA RESULT:      -5.7      0.000      0.000
REMARK  4 active torsions:
REMARK  status: ('A' for Active; 'I' for Inactive)
REMARK    1  A    between atoms: N_5  and  C_6 
REMARK    2  A    between atoms: C_11  and  N_12 
REMARK    3  A    between atoms: C_14  and  C_15 
REMARK    4  A    between atoms: C_15  and  O_16 
ROOT
HETATM    1  C   UNL     3     -46.844 -53.819  14.877  1.00  0.00     0.242 C 
HETATM    2  C   UNL     3     -46.009 -53.581  16.154  1.00  0.00     0.037 C 
HETATM    3  C   UNL     3     -46.229 -52.151  16.670  1.00  0.00     0.002 C 
HETATM    4  C   UNL     3     -45.850 -51.114  15.602  1.00  0.00     0.002 C 
HETATM    5  C   UNL     3     -46.666 -51.344  14.318  1.00  0.00     0.029 C 
HETATM    6  C   UNL     3     -46.516 -52.783  13.771  1.00  0.00     0.138 C 
ENDROOT
BRANCH   6   7
HETATM    7  N   UNL     3     -45.185 -52.994  13.182  1.00  0.00    -0.278 N 
HETATM    8  C   UNL     3     -44.186 -52.096  13.177  1.00  0.00     0.136 A 
HETATM    9  C   UNL     3     -43.134 -52.692  12.525  1.00  0.00     0.064 A 
HETATM   10  N   UNL     3     -43.511 -53.931  12.155  1.00  0.00    -0.285 N 
HETATM   11  N   UNL     3     -44.761 -54.086  12.565  1.00  0.00    -0.020 NA
ATOM     12  HN  UNL     3     -42.943 -54.616  11.656  1.00  0.00     0.184 HD
BRANCH   9  13
HETATM   13  C   UNL     3     -41.796 -52.089  12.251  1.00  0.00     0.223 C 
BRANCH  13  14
HETATM   14  O   UNL     3     -41.271 -52.600  11.056  1.00  0.00    -0.395 OA
HETATM   15  H   UNL     3     -41.376 -53.587  11.101  1.00  0.00     0.209 HD
ENDBRANCH  13  14
ENDBRANCH   9  13
ENDBRANCH   6   7
BRANCH   1  16
HETATM   16  N   UNL     3     -46.675 -55.184  14.373  1.00  0.00     0.085 N 
HETATM   17  H   UNL     3     -47.603 -55.564  14.076  1.00  0.00     0.313 HD
HETATM   18  H   UNL     3     -46.292 -55.806  15.122  1.00  0.00     0.313 HD
ENDBRANCH   1  16
TORSDOF 4
ENDMDL
MODEL 2
REMARK VINA RESULT:      -5.3      1.285      1.335
REMARK  4 active torsions:
REMARK  status: ('A' for Active; 'I' for Inactive)
REMARK    1  A    between atoms: N_5  and  C_6 
REMARK    2  A    between atoms: C_11  and  N_12 
REMARK    3  A    between atoms: C_14  and  C_15 
REMARK    4  A    between atoms: C_15  and  O_16 
ROOT
HETATM    1  C   UNL     3     -46.485 -53.944  14.102  1.00  0.00     0.242 C 
HETATM    2  C   UNL     3     -46.416 -53.480  15.574  1.00  0.00     0.037 C 
HETATM    3  C   UNL     3     -46.845 -52.009  15.685  1.00  0.00     0.002 C 
HETATM    4  C   UNL     3     -45.955 -51.108  14.815  1.00  0.00     0.002 C 
HETATM    5  C   UNL     3     -46.005 -51.563  13.346  1.00  0.00     0.029 C 
HETATM    6  C   UNL     3     -45.621 -53.051  13.174  1.00  0.00     0.138 C 
ENDROOT
BRANCH   6   7
HETATM    7  N   UNL     3     -44.180 -53.259  13.383  1.00  0.00    -0.278 N 
HETATM    8  C   UNL     3     -43.204 -52.802  12.579  1.00  0.00     0.136 A 
HETATM    9  C   UNL     3     -42.020 -53.224  13.131  1.00  0.00     0.064 A 
HETATM   10  N   UNL     3     -42.297 -53.919  14.251  1.00  0.00    -0.285 N 
HETATM   11  N   UNL     3     -43.616 -53.925  14.377  1.00  0.00    -0.020 NA
ATOM     12  HN  UNL     3     -41.622 -54.354  14.880  1.00  0.00     0.184 HD
BRANCH   9  13
HETATM   13  C   UNL     3     -40.648 -52.978  12.596  1.00  0.00     0.223 C 
BRANCH  13  14
HETATM   14  O   UNL     3     -40.600 -53.285  11.230  1.00  0.00    -0.395 OA
HETATM   15  H   UNL     3     -41.426 -52.908  10.826  1.00  0.00     0.209 HD
ENDBRANCH  13  14
ENDBRANCH   9  13
ENDBRANCH   6   7
BRANCH   1  16
HETATM   16  N   UNL     3     -46.106 -55.352  13.966  1.00  0.00     0.085 N 
HETATM   17  H   UNL     3     -45.291 -55.556  14.589  1.00  0.00     0.313 HD
HETATM   18  H   UNL     3     -45.824 -55.561  12.981  1.00  0.00     0.313 HD
ENDBRANCH   1  16
TORSDOF 4
ENDMDL
MODEL 3
REMARK VINA RESULT:      -5.1      6.350      7.631
REMARK  4 active torsions:
REMARK  status: ('A' for Active; 'I' for Inactive)
REMARK    1  A    between atoms: N_5  and  C_6 
REMARK    2  A    between atoms: C_11  and  N_12 
REMARK    3  A    between atoms: C_14  and  C_15 
REMARK    4  A    between atoms: C_15  and  O_16 
ROOT
HETATM    1  C   UNL     3     -40.406 -49.604  11.724  1.00  0.00     0.242 C 
HETATM    2  C   UNL     3     -39.227 -48.691  12.128  1.00  0.00     0.037 C 
HETATM    3  C   UNL     3     -39.353 -48.289  13.606  1.00  0.00     0.002 C 
HETATM    4  C   UNL     3     -40.683 -47.567  13.869  1.00  0.00     0.002 C 
HETATM    5  C   UNL     3     -41.868 -48.460  13.463  1.00  0.00     0.029 C 
HETATM    6  C   UNL     3     -41.777 -48.931  11.992  1.00  0.00     0.138 C 
ENDROOT
BRANCH   6   7
HETATM    7  N   UNL     3     -42.050 -47.827  11.059  1.00  0.00    -0.278 N 
HETATM    8  C   UNL     3     -43.258 -47.509  10.563  1.00  0.00     0.136 A 
HETATM    9  C   UNL     3     -43.063 -46.432   9.735  1.00  0.00     0.064 A 
HETATM   10  N   UNL     3     -41.754 -46.116   9.747  1.00  0.00    -0.285 N 
HETATM   11  N   UNL     3     -41.163 -46.982  10.558  1.00  0.00    -0.020 NA
ATOM     12  HN  UNL     3     -41.305 -45.359   9.233  1.00  0.00     0.184 HD
BRANCH   9  13
HETATM   13  C   UNL     3     -44.105 -45.720   8.937  1.00  0.00     0.223 C 
BRANCH  13  14
HETATM   14  O   UNL     3     -44.187 -44.379   9.337  1.00  0.00    -0.395 OA
HETATM   15  H   UNL     3     -44.814 -43.934   8.708  1.00  0.00     0.209 HD
ENDBRANCH  13  14
ENDBRANCH   9  13
ENDBRANCH   6   7
BRANCH   1  16
HETATM   16  N   UNL     3     -40.301 -50.026  10.325  1.00  0.00     0.085 N 
HETATM   17  H   UNL     3     -41.148 -50.583  10.064  1.00  0.00     0.313 HD
HETATM   18  H   UNL     3     -39.459 -50.630  10.187  1.00  0.00     0.313 HD
ENDBRANCH   1  16
TORSDOF 4
ENDMDL
MODEL 4
REMARK VINA RESULT:      -5.0      7.510      8.370
REMARK  4 active torsions:
REMARK  status: ('A' for Active; 'I' for Inactive)
REMARK    1  A    between atoms: N_5  and  C_6 
REMARK    2  A    between atoms: C_11  and  N_12 
REMARK    3  A    between atoms: C_14  and  C_15 
REMARK    4  A    between atoms: C_15  and  O_16 
ROOT
HETATM    1  C   UNL     3     -42.227 -45.291  12.919  1.00  0.00     0.242 C 
HETATM    2  C   UNL     3     -40.950 -46.073  13.298  1.00  0.00     0.037 C 
HETATM    3  C   UNL     3     -39.702 -45.279  12.884  1.00  0.00     0.002 C 
HETATM    4  C   UNL     3     -39.706 -44.992  11.374  1.00  0.00     0.002 C 
HETATM    5  C   UNL     3     -40.977 -44.221  10.978  1.00  0.00     0.029 C 
HETATM    6  C   UNL     3     -42.270 -44.954  11.406  1.00  0.00     0.138 C 
ENDROOT
BRANCH   6   7
HETATM    7  N   UNL     3     -42.510 -46.144  10.574  1.00  0.00    -0.278 N 
HETATM    8  C   UNL     3     -43.082 -46.140   9.359  1.00  0.00     0.136 A 
HETATM    9  C   UNL     3     -43.120 -47.450   8.946  1.00  0.00     0.064 A 
HETATM   10  N   UNL     3     -42.570 -48.215   9.909  1.00  0.00    -0.285 N 
HETATM   11  N   UNL     3     -42.211 -47.395  10.886  1.00  0.00    -0.020 NA
ATOM     12  HN  UNL     3     -42.453 -49.228   9.888  1.00  0.00     0.184 HD
BRANCH   9  13
HETATM   13  C   UNL     3     -43.678 -47.965   7.661  1.00  0.00     0.223 C 
BRANCH  13  14
HETATM   14  O   UNL     3     -42.705 -48.703   6.973  1.00  0.00    -0.395 OA
HETATM   15  H   UNL     3     -42.949 -49.661   7.079  1.00  0.00     0.209 HD
ENDBRANCH  13  14
ENDBRANCH   9  13
ENDBRANCH   6   7
BRANCH   1  16
HETATM   16  N   UNL     3     -43.436 -46.011  13.324  1.00  0.00     0.085 N 
HETATM   17  H   UNL     3     -44.158 -45.934  12.570  1.00  0.00     0.313 HD
HETATM   18  H   UNL     3     -43.833 -45.597  14.198  1.00  0.00     0.313 HD
ENDBRANCH   1  16
TORSDOF 4
ENDMDL
MODEL 5
REMARK VINA RESULT:      -5.0      2.939      4.868
REMARK  4 active torsions:
REMARK  status: ('A' for Active; 'I' for Inactive)
REMARK    1  A    between atoms: N_5  and  C_6 
REMARK    2  A    between atoms: C_11  and  N_12 
REMARK    3  A    between atoms: C_14  and  C_15 
REMARK    4  A    between atoms: C_15  and  O_16 
ROOT
HETATM    1  C   UNL     3     -40.731 -53.578  12.776  1.00  0.00     0.242 C 
HETATM    2  C   UNL     3     -40.185 -52.463  13.694  1.00  0.00     0.037 C 
HETATM    3  C   UNL     3     -40.089 -52.970  15.141  1.00  0.00     0.002 C 
HETATM    4  C   UNL     3     -41.460 -53.439  15.654  1.00  0.00     0.002 C 
HETATM    5  C   UNL     3     -42.023 -54.544  14.743  1.00  0.00     0.029 C 
HETATM    6  C   UNL     3     -42.106 -54.106  13.262  1.00  0.00     0.138 C 
ENDROOT
BRANCH   6   7
HETATM    7  N   UNL     3     -43.186 -53.128  13.054  1.00  0.00    -0.278 N 
HETATM    8  C   UNL     3     -44.490 -53.426  12.922  1.00  0.00     0.136 A 
HETATM    9  C   UNL     3     -45.141 -52.231  12.739  1.00  0.00     0.064 A 
HETATM   10  N   UNL     3     -44.230 -51.241  12.769  1.00  0.00    -0.285 N 
HETATM   11  N   UNL     3     -43.051 -51.815  12.959  1.00  0.00    -0.020 NA
ATOM     12  HN  UNL     3     -44.412 -50.243  12.664  1.00  0.00     0.184 HD
BRANCH   9  13
HETATM   13  C   UNL     3     -46.607 -52.038  12.531  1.00  0.00     0.223 C 
BRANCH  13  14
HETATM   14  O   UNL     3     -46.961 -52.397  11.224  1.00  0.00    -0.395 OA
HETATM   15  H   UNL     3     -46.243 -52.997  10.891  1.00  0.00     0.209 HD
ENDBRANCH  13  14
ENDBRANCH   9  13
ENDBRANCH   6   7
BRANCH   1  16
HETATM   16  N   UNL     3     -40.811 -53.134  11.383  1.00  0.00     0.085 N 
HETATM   17  H   UNL     3     -39.862 -52.839  11.055  1.00  0.00     0.313 HD
HETATM   18  H   UNL     3     -41.455 -52.313  11.296  1.00  0.00     0.313 HD
ENDBRANCH   1  16
TORSDOF 4
ENDMDL
MODEL 6
REMARK VINA RESULT:      -5.0      6.913      8.146
REMARK  4 active torsions:
REMARK  status: ('A' for Active; 'I' for Inactive)
REMARK    1  A    between atoms: N_5  and  C_6 
REMARK    2  A    between atoms: C_11  and  N_12 
REMARK    3  A    between atoms: C_14  and  C_15 
REMARK    4  A    between atoms: C_15  and  O_16 
ROOT
HETATM    1  C   UNL     3     -42.140 -45.742  12.056  1.00  0.00     0.242 C 
HETATM    2  C   UNL     3     -42.912 -46.630  13.057  1.00  0.00     0.037 C 
HETATM    3  C   UNL     3     -42.246 -48.010  13.161  1.00  0.00     0.002 C 
HETATM    4  C   UNL     3     -42.192 -48.701  11.789  1.00  0.00     0.002 C 
HETATM    5  C   UNL     3     -41.434 -47.825  10.777  1.00  0.00     0.029 C 
HETATM    6  C   UNL     3     -42.034 -46.404  10.658  1.00  0.00     0.138 C 
ENDROOT
BRANCH   6   7
HETATM    7  N   UNL     3     -43.324 -46.427   9.951  1.00  0.00    -0.278 N 
HETATM    8  C   UNL     3     -44.144 -47.488   9.864  1.00  0.00     0.136 A 
HETATM    9  C   UNL     3     -45.222 -47.083   9.116  1.00  0.00     0.064 A 
HETATM   10  N   UNL     3     -45.039 -45.794   8.771  1.00  0.00    -0.285 N 
HETATM   11  N   UNL     3     -43.878 -45.423   9.290  1.00  0.00    -0.020 NA
ATOM     12  HN  UNL     3     -45.672 -45.216   8.218  1.00  0.00     0.184 HD
BRANCH   9  13
HETATM   13  C   UNL     3     -46.402 -47.911   8.728  1.00  0.00     0.223 C 
BRANCH  13  14
HETATM   14  O   UNL     3     -47.589 -47.254   9.077  1.00  0.00    -0.395 OA
HETATM   15  H   UNL     3     -48.216 -47.379   8.316  1.00  0.00     0.209 HD
ENDBRANCH  13  14
ENDBRANCH   9  13
ENDBRANCH   6   7
BRANCH   1  16
HETATM   16  N   UNL     3     -42.735 -44.408  11.953  1.00  0.00     0.085 N 
HETATM   17  H   UNL     3     -43.379 -44.375  11.129  1.00  0.00     0.313 HD
HETATM   18  H   UNL     3     -41.992 -43.685  11.816  1.00  0.00     0.313 HD
ENDBRANCH   1  16
TORSDOF 4
ENDMDL
MODEL 7
REMARK VINA RESULT:      -5.0      4.094      5.606
REMARK  4 active torsions:
REMARK  status: ('A' for Active; 'I' for Inactive)
REMARK    1  A    between atoms: N_5  and  C_6 
REMARK    2  A    between atoms: C_11  and  N_12 
REMARK    3  A    between atoms: C_14  and  C_15 
REMARK    4  A    between atoms: C_15  and  O_16 
ROOT
HETATM    1  C   UNL     3     -42.008 -52.969  13.052  1.00  0.00     0.242 C 
HETATM    2  C   UNL     3     -40.984 -54.110  12.860  1.00  0.00     0.037 C 
HETATM    3  C   UNL     3     -40.265 -54.404  14.185  1.00  0.00     0.002 C 
HETATM    4  C   UNL     3     -39.552 -53.151  14.715  1.00  0.00     0.002 C 
HETATM    5  C   UNL     3     -40.556 -52.000  14.904  1.00  0.00     0.029 C 
HETATM    6  C   UNL     3     -41.343 -51.684  13.610  1.00  0.00     0.138 C 
ENDROOT
BRANCH   6   7
HETATM    7  N   UNL     3     -40.487 -51.020  12.614  1.00  0.00    -0.278 N 
HETATM    8  C   UNL     3     -39.149 -50.921  12.681  1.00  0.00     0.136 A 
HETATM    9  C   UNL     3     -38.757 -50.224  11.565  1.00  0.00     0.064 A 
HETATM   10  N   UNL     3     -39.855 -49.920  10.846  1.00  0.00    -0.285 N 
HETATM   11  N   UNL     3     -40.891 -50.414  11.509  1.00  0.00    -0.020 NA
ATOM     12  HN  UNL     3     -39.883 -49.410   9.963  1.00  0.00     0.184 HD
BRANCH   9  13
HETATM   13  C   UNL     3     -37.362 -49.846  11.193  1.00  0.00     0.223 C 
BRANCH  13  14
HETATM   14  O   UNL     3     -37.061 -50.314   9.907  1.00  0.00    -0.395 OA
HETATM   15  H   UNL     3     -36.623 -51.199  10.023  1.00  0.00     0.209 HD
ENDBRANCH  13  14
ENDBRANCH   9  13
ENDBRANCH   6   7
BRANCH   1  16
HETATM   16  N   UNL     3     -42.729 -52.681  11.811  1.00  0.00     0.085 N 
HETATM   17  H   UNL     3     -42.971 -51.664  11.775  1.00  0.00     0.313 HD
HETATM   18  H   UNL     3     -43.620 -53.229  11.769  1.00  0.00     0.313 HD
ENDBRANCH   1  16
TORSDOF 4
ENDMDL
MODEL 8
REMARK VINA RESULT:      -4.8      7.571      8.849
REMARK  4 active torsions:
REMARK  status: ('A' for Active; 'I' for Inactive)
REMARK    1  A    between atoms: N_5  and  C_6 
REMARK    2  A    between atoms: C_11  and  N_12 
REMARK    3  A    between atoms: C_14  and  C_15 
REMARK    4  A    between atoms: C_15  and  O_16 
ROOT
HETATM    1  C   UNL     3     -40.157 -45.639  10.997  1.00  0.00     0.242 C 
HETATM    2  C   UNL     3     -40.664 -44.509  11.921  1.00  0.00     0.037 C 
HETATM    3  C   UNL     3     -40.840 -45.037  13.353  1.00  0.00     0.002 C 
HETATM    4  C   UNL     3     -41.824 -46.216  13.389  1.00  0.00     0.002 C 
HETATM    5  C   UNL     3     -41.339 -47.348  12.466  1.00  0.00     0.029 C 
HETATM    6  C   UNL     3     -41.104 -46.867  11.014  1.00  0.00     0.138 C 
ENDROOT
BRANCH   6   7
HETATM    7  N   UNL     3     -42.377 -46.602  10.326  1.00  0.00    -0.278 N 
HETATM    8  C   UNL     3     -43.314 -47.522  10.043  1.00  0.00     0.136 A 
HETATM    9  C   UNL     3     -44.326 -46.856   9.396  1.00  0.00     0.064 A 
HETATM   10  N   UNL     3     -43.988 -45.555   9.304  1.00  0.00    -0.285 N 
HETATM   11  N   UNL     3     -42.798 -45.431   9.875  1.00  0.00    -0.020 NA
ATOM     12  HN  UNL     3     -44.540 -44.812   8.877  1.00  0.00     0.184 HD
BRANCH   9  13
HETATM   13  C   UNL     3     -45.589 -47.449   8.866  1.00  0.00     0.223 C 
BRANCH  13  14
HETATM   14  O   UNL     3     -46.457 -46.435   8.438  1.00  0.00    -0.395 OA
HETATM   15  H   UNL     3     -45.900 -45.774   7.948  1.00  0.00     0.209 HD
ENDBRANCH  13  14
ENDBRANCH   9  13
ENDBRANCH   6   7
BRANCH   1  16
HETATM   16  N   UNL     3     -39.954 -45.161   9.628  1.00  0.00     0.085 N 
HETATM   17  H   UNL     3     -40.363 -45.849   8.954  1.00  0.00     0.313 HD
HETATM   18  H   UNL     3     -38.933 -45.068   9.420  1.00  0.00     0.313 HD
ENDBRANCH   1  16
TORSDOF 4
ENDMDL
MODEL 9
REMARK VINA RESULT:      -4.7      2.622      3.568
REMARK  4 active torsions:
REMARK  status: ('A' for Active; 'I' for Inactive)
REMARK    1  A    between atoms: N_5  and  C_6 
REMARK    2  A    between atoms: C_11  and  N_12 
REMARK    3  A    between atoms: C_14  and  C_15 
REMARK    4  A    between atoms: C_15  and  O_16 
ROOT
HETATM    1  C   UNL     3     -44.693 -52.432  13.675  1.00  0.00     0.242 C 
HETATM    2  C   UNL     3     -44.674 -53.847  13.054  1.00  0.00     0.037 C 
HETATM    3  C   UNL     3     -44.262 -54.882  14.112  1.00  0.00     0.002 C 
HETATM    4  C   UNL     3     -42.880 -54.553  14.697  1.00  0.00     0.002 C 
HETATM    5  C   UNL     3     -42.879 -53.142  15.311  1.00  0.00     0.029 C 
HETATM    6  C   UNL     3     -43.326 -52.058  14.302  1.00  0.00     0.138 C 
ENDROOT
BRANCH   6   7
HETATM    7  N   UNL     3     -42.291 -51.816  13.285  1.00  0.00    -0.278 N 
HETATM    8  C   UNL     3     -41.226 -51.009  13.435  1.00  0.00     0.136 A 
HETATM    9  C   UNL     3     -40.530 -51.067  12.253  1.00  0.00     0.064 A 
HETATM   10  N   UNL     3     -41.176 -51.903  11.418  1.00  0.00    -0.285 N 
HETATM   11  N   UNL     3     -42.243 -52.341  12.071  1.00  0.00    -0.020 NA
ATOM     12  HN  UNL     3     -40.898 -52.150  10.469  1.00  0.00     0.184 HD
BRANCH   9  13
HETATM   13  C   UNL     3     -39.274 -50.330  11.921  1.00  0.00     0.223 C 
BRANCH  13  14
HETATM   14  O   UNL     3     -38.203 -51.227  11.809  1.00  0.00    -0.395 OA
HETATM   15  H   UNL     3     -38.265 -51.840  12.589  1.00  0.00     0.209 HD
ENDBRANCH  13  14
ENDBRANCH   9  13
ENDBRANCH   6   7
BRANCH   1  16
HETATM   16  N   UNL     3     -45.107 -51.424  12.697  1.00  0.00     0.085 N 
HETATM   17  H   UNL     3     -44.275 -51.109  12.146  1.00  0.00     0.313 HD
HETATM   18  H   UNL     3     -45.513 -50.590  13.180  1.00  0.00     0.313 HD
ENDBRANCH   1  16
TORSDOF 4
ENDMDL
