MODEL 1
REMARK VINA RESULT:      -6.1      0.000      0.000
REMARK  3 active torsions:
REMARK  status: ('A' for Active; 'I' for Inactive)
REMARK    1  A    between atoms: N_7  and  C_8 
REMARK    2  A    between atoms: C_8  and  C_9 
REMARK       I    between atoms: C_9  and  N_11 
REMARK    3  A    between atoms: N_11  and  C_12 
ROOT
HETATM    1  C   UNL     1     -42.227 -51.851  12.912  1.00  0.00     0.236 C 
HETATM    2  O   UNL     1     -42.058 -51.508  14.078  1.00  0.00    -0.272 OA
HETATM    3  N   UNL     1     -43.398 -52.433  12.447  1.00  0.00    -0.355 N 
HETATM    4  H   UNL     1     -43.308 -53.055  11.641  1.00  0.00     0.162 HD
ENDROOT
BRANCH   1   5
HETATM    5  C   UNL     1     -41.140 -51.654  11.847  1.00  0.00     0.235 C 
BRANCH   5   6
HETATM    6  N   UNL     1     -40.203 -50.596  12.174  1.00  0.00    -0.303 N 
HETATM    7  C   UNL     1     -40.298 -49.270  11.757  1.00  0.00     0.018 A 
HETATM    8  C   UNL     1     -41.464 -48.735  10.992  1.00  0.00     0.069 C 
HETATM    9  C   UNL     1     -39.217 -48.544  12.073  1.00  0.00     0.080 A 
HETATM   10  S   UNL     1     -38.014 -49.476  12.901  1.00  0.00    -0.039 SA
HETATM   11  C   UNL     1     -38.997 -50.936  12.770  1.00  0.00     0.290 A 
HETATM   12  O   UNL     1     -38.629 -52.047  13.123  1.00  0.00    -0.259 OA
ENDBRANCH   5   6
ENDBRANCH   1   5
BRANCH   3  13
HETATM   13  C   UNL     1     -44.565 -52.598  13.319  1.00  0.00     0.084 C 
HETATM   14  C   UNL     1     -45.014 -54.064  13.354  1.00  0.00     0.025 C 
HETATM   15  C   UNL     1     -46.050 -54.428  14.425  1.00  0.00     0.002 C 
HETATM   16  C   UNL     1     -45.773 -53.841  15.811  1.00  0.00     0.000 C 
HETATM   17  C   UNL     1     -46.615 -52.614  16.178  1.00  0.00     0.000 C 
HETATM   18  C   UNL     1     -46.400 -51.327  15.375  1.00  0.00     0.000 C 
HETATM   19  C   UNL     1     -46.819 -51.406  13.904  1.00  0.00     0.002 C 
HETATM   20  C   UNL     1     -45.679 -51.628  12.899  1.00  0.00     0.025 C 
ENDBRANCH   3  13
TORSDOF 3
ENDMDL
MODEL 2
REMARK VINA RESULT:      -6.0      1.306      2.031
REMARK  3 active torsions:
REMARK  status: ('A' for Active; 'I' for Inactive)
REMARK    1  A    between atoms: N_7  and  C_8 
REMARK    2  A    between atoms: C_8  and  C_9 
REMARK       I    between atoms: C_9  and  N_11 
REMARK    3  A    between atoms: N_11  and  C_12 
ROOT
HETATM    1  C   UNL     1     -42.206 -52.249  12.778  1.00  0.00     0.236 C 
HETATM    2  O   UNL     1     -42.369 -51.317  13.561  1.00  0.00    -0.272 OA
HETATM    3  N   UNL     1     -43.158 -53.232  12.551  1.00  0.00    -0.355 N 
HETATM    4  H   UNL     1     -42.807 -54.146  12.257  1.00  0.00     0.162 HD
ENDROOT
BRANCH   1   5
HETATM    5  C   UNL     1     -40.915 -52.402  11.964  1.00  0.00     0.235 C 
BRANCH   5   6
HETATM    6  N   UNL     1     -39.841 -51.543  12.424  1.00  0.00    -0.303 N 
HETATM    7  C   UNL     1     -39.030 -51.779  13.532  1.00  0.00     0.018 A 
HETATM    8  C   UNL     1     -39.095 -53.033  14.341  1.00  0.00     0.069 C 
HETATM    9  C   UNL     1     -38.223 -50.749  13.819  1.00  0.00     0.080 A 
HETATM   10  S   UNL     1     -38.437 -49.419  12.729  1.00  0.00    -0.039 SA
HETATM   11  C   UNL     1     -39.718 -50.276  11.870  1.00  0.00     0.290 A 
HETATM   12  O   UNL     1     -40.387 -49.792  10.968  1.00  0.00    -0.259 OA
ENDBRANCH   5   6
ENDBRANCH   1   5
BRANCH   3  13
HETATM   13  C   UNL     1     -44.481 -53.171  13.179  1.00  0.00     0.084 C 
HETATM   14  C   UNL     1     -44.962 -54.574  13.572  1.00  0.00     0.025 C 
HETATM   15  C   UNL     1     -46.202 -54.636  14.472  1.00  0.00     0.002 C 
HETATM   16  C   UNL     1     -46.200 -53.644  15.637  1.00  0.00     0.000 C 
HETATM   17  C   UNL     1     -47.070 -52.399  15.434  1.00  0.00     0.000 C 
HETATM   18  C   UNL     1     -46.666 -51.410  14.334  1.00  0.00     0.000 C 
HETATM   19  C   UNL     1     -46.780 -51.951  12.906  1.00  0.00     0.002 C 
HETATM   20  C   UNL     1     -45.464 -52.422  12.267  1.00  0.00     0.025 C 
ENDBRANCH   3  13
TORSDOF 3
ENDMDL
MODEL 3
REMARK VINA RESULT:      -5.5      2.773      6.749
REMARK  3 active torsions:
REMARK  status: ('A' for Active; 'I' for Inactive)
REMARK    1  A    between atoms: N_7  and  C_8 
REMARK    2  A    between atoms: C_8  and  C_9 
REMARK       I    between atoms: C_9  and  N_11 
REMARK    3  A    between atoms: N_11  and  C_12 
ROOT
HETATM    1  C   UNL     1     -43.554 -50.883  13.389  1.00  0.00     0.236 C 
HETATM    2  O   UNL     1     -43.272 -50.561  14.540  1.00  0.00    -0.272 OA
HETATM    3  N   UNL     1     -42.616 -50.990  12.372  1.00  0.00    -0.355 N 
HETATM    4  H   UNL     1     -42.955 -50.832  11.422  1.00  0.00     0.162 HD
ENDROOT
BRANCH   1   5
HETATM    5  C   UNL     1     -44.995 -51.208  12.973  1.00  0.00     0.235 C 
BRANCH   5   6
HETATM    6  N   UNL     1     -45.486 -52.453  13.532  1.00  0.00    -0.303 N 
HETATM    7  C   UNL     1     -46.281 -52.575  14.669  1.00  0.00     0.018 A 
HETATM    8  C   UNL     1     -46.830 -51.401  15.413  1.00  0.00     0.069 C 
HETATM    9  C   UNL     1     -46.460 -53.847  15.049  1.00  0.00     0.080 A 
HETATM   10  S   UNL     1     -45.638 -54.966  14.013  1.00  0.00    -0.039 SA
HETATM   11  C   UNL     1     -44.975 -53.648  13.046  1.00  0.00     0.290 A 
HETATM   12  O   UNL     1     -44.176 -53.798  12.133  1.00  0.00    -0.259 OA
ENDBRANCH   5   6
ENDBRANCH   1   5
BRANCH   3  13
HETATM   13  C   UNL     1     -41.185 -50.808  12.634  1.00  0.00     0.084 C 
HETATM   14  C   UNL     1     -40.504 -50.095  11.458  1.00  0.00     0.025 C 
HETATM   15  C   UNL     1     -39.073 -49.603  11.704  1.00  0.00     0.002 C 
HETATM   16  C   UNL     1     -38.856 -48.905  13.048  1.00  0.00     0.000 C 
HETATM   17  C   UNL     1     -38.175 -49.758  14.123  1.00  0.00     0.000 C 
HETATM   18  C   UNL     1     -38.930 -50.981  14.657  1.00  0.00     0.000 C 
HETATM   19  C   UNL     1     -39.146 -52.103  13.638  1.00  0.00     0.002 C 
HETATM   20  C   UNL     1     -40.538 -52.154  12.990  1.00  0.00     0.025 C 
ENDBRANCH   3  13
TORSDOF 3
ENDMDL
MODEL 4
REMARK VINA RESULT:      -5.4      1.991      2.816
REMARK  3 active torsions:
REMARK  status: ('A' for Active; 'I' for Inactive)
REMARK    1  A    between atoms: N_7  and  C_8 
REMARK    2  A    between atoms: C_8  and  C_9 
REMARK       I    between atoms: C_9  and  N_11 
REMARK    3  A    between atoms: N_11  and  C_12 
ROOT
HETATM    1  C   UNL     1     -41.542 -52.691  13.825  1.00  0.00     0.236 C 
HETATM    2  O   UNL     1     -41.826 -51.500  13.916  1.00  0.00    -0.272 OA
HETATM    3  N   UNL     1     -42.484 -53.709  13.878  1.00  0.00    -0.355 N 
HETATM    4  H   UNL     1     -42.158 -54.613  14.223  1.00  0.00     0.162 HD
ENDROOT
BRANCH   1   5
HETATM    5  C   UNL     1     -40.095 -53.163  13.632  1.00  0.00     0.235 C 
BRANCH   5   6
HETATM    6  N   UNL     1     -39.118 -52.282  14.242  1.00  0.00    -0.303 N 
HETATM    7  C   UNL     1     -38.877 -52.159  15.609  1.00  0.00     0.018 A 
HETATM    8  C   UNL     1     -39.537 -53.020  16.637  1.00  0.00     0.069 C 
HETATM    9  C   UNL     1     -38.033 -51.161  15.904  1.00  0.00     0.080 A 
HETATM   10  S   UNL     1     -37.497 -50.312  14.493  1.00  0.00    -0.039 SA
HETATM   11  C   UNL     1     -38.503 -51.321  13.453  1.00  0.00     0.290 A 
HETATM   12  O   UNL     1     -38.639 -51.149  12.249  1.00  0.00    -0.259 OA
ENDBRANCH   5   6
ENDBRANCH   1   5
BRANCH   3  13
HETATM   13  C   UNL     1     -43.918 -53.415  13.960  1.00  0.00     0.084 C 
HETATM   14  C   UNL     1     -44.647 -54.490  14.777  1.00  0.00     0.025 C 
HETATM   15  C   UNL     1     -46.095 -54.175  15.169  1.00  0.00     0.002 C 
HETATM   16  C   UNL     1     -46.325 -52.754  15.688  1.00  0.00     0.000 C 
HETATM   17  C   UNL     1     -46.952 -51.785  14.679  1.00  0.00     0.000 C 
HETATM   18  C   UNL     1     -46.135 -51.410  13.438  1.00  0.00     0.000 C 
HETATM   19  C   UNL     1     -45.883 -52.560  12.459  1.00  0.00     0.002 C 
HETATM   20  C   UNL     1     -44.499 -53.221  12.552  1.00  0.00     0.025 C 
ENDBRANCH   3  13
TORSDOF 3
ENDMDL
MODEL 5
REMARK VINA RESULT:      -5.3      2.771      6.799
REMARK  3 active torsions:
REMARK  status: ('A' for Active; 'I' for Inactive)
REMARK    1  A    between atoms: N_7  and  C_8 
REMARK    2  A    between atoms: C_8  and  C_9 
REMARK       I    between atoms: C_9  and  N_11 
REMARK    3  A    between atoms: N_11  and  C_12 
ROOT
HETATM    1  C   UNL     1     -41.791 -52.564  13.782  1.00  0.00     0.236 C 
HETATM    2  O   UNL     1     -41.333 -53.071  12.762  1.00  0.00    -0.272 OA
HETATM    3  N   UNL     1     -41.221 -51.468  14.414  1.00  0.00    -0.355 N 
HETATM    4  H   UNL     1     -41.378 -51.390  15.420  1.00  0.00     0.162 HD
ENDROOT
BRANCH   1   5
HETATM    5  C   UNL     1     -43.060 -53.105  14.453  1.00  0.00     0.235 C 
BRANCH   5   6
HETATM    6  N   UNL     1     -44.281 -52.550  13.902  1.00  0.00    -0.303 N 
HETATM    7  C   UNL     1     -45.028 -51.516  14.461  1.00  0.00     0.018 A 
HETATM    8  C   UNL     1     -44.594 -50.757  15.673  1.00  0.00     0.069 C 
HETATM    9  C   UNL     1     -46.191 -51.308  13.828  1.00  0.00     0.080 A 
HETATM   10  S   UNL     1     -46.424 -52.398  12.503  1.00  0.00    -0.039 SA
HETATM   11  C   UNL     1     -44.898 -53.212  12.850  1.00  0.00     0.290 A 
HETATM   12  O   UNL     1     -44.501 -54.211  12.265  1.00  0.00    -0.259 OA
ENDBRANCH   5   6
ENDBRANCH   1   5
BRANCH   3  13
HETATM   13  C   UNL     1     -40.062 -50.776  13.841  1.00  0.00     0.084 C 
HETATM   14  C   UNL     1     -38.801 -51.051  14.671  1.00  0.00     0.025 C 
HETATM   15  C   UNL     1     -37.471 -50.613  14.044  1.00  0.00     0.002 C 
HETATM   16  C   UNL     1     -37.314 -50.962  12.563  1.00  0.00     0.000 C 
HETATM   17  C   UNL     1     -37.539 -49.798  11.592  1.00  0.00     0.000 C 
HETATM   18  C   UNL     1     -38.946 -49.197  11.503  1.00  0.00     0.000 C 
HETATM   19  C   UNL     1     -39.422 -48.478  12.768  1.00  0.00     0.002 C 
HETATM   20  C   UNL     1     -40.369 -49.281  13.673  1.00  0.00     0.025 C 
ENDBRANCH   3  13
TORSDOF 3
ENDMDL
MODEL 6
REMARK VINA RESULT:      -5.2      2.700      3.739
REMARK  3 active torsions:
REMARK  status: ('A' for Active; 'I' for Inactive)
REMARK    1  A    between atoms: N_7  and  C_8 
REMARK    2  A    between atoms: C_8  and  C_9 
REMARK       I    between atoms: C_9  and  N_11 
REMARK    3  A    between atoms: N_11  and  C_12 
ROOT
HETATM    1  C   UNL     1     -42.985 -49.765  13.279  1.00  0.00     0.236 C 
HETATM    2  O   UNL     1     -42.822 -49.898  14.488  1.00  0.00    -0.272 OA
HETATM    3  N   UNL     1     -42.971 -50.824  12.383  1.00  0.00    -0.355 N 
HETATM    4  H   UNL     1     -42.684 -50.608  11.427  1.00  0.00     0.162 HD
ENDROOT
BRANCH   1   5
HETATM    5  C   UNL     1     -43.231 -48.389  12.645  1.00  0.00     0.235 C 
BRANCH   5   6
HETATM    6  N   UNL     1     -42.017 -47.619  12.457  1.00  0.00    -0.303 N 
HETATM    7  C   UNL     1     -41.588 -46.569  13.267  1.00  0.00     0.018 A 
HETATM    8  C   UNL     1     -42.288 -46.167  14.524  1.00  0.00     0.069 C 
HETATM    9  C   UNL     1     -40.515 -45.934  12.775  1.00  0.00     0.080 A 
HETATM   10  S   UNL     1     -39.985 -46.604  11.268  1.00  0.00    -0.039 SA
HETATM   11  C   UNL     1     -41.309 -47.769  11.273  1.00  0.00     0.290 A 
HETATM   12  O   UNL     1     -41.552 -48.539  10.354  1.00  0.00    -0.259 OA
ENDBRANCH   5   6
ENDBRANCH   1   5
BRANCH   3  13
HETATM   13  C   UNL     1     -42.846 -52.210  12.845  1.00  0.00     0.084 C 
HETATM   14  C   UNL     1     -41.501 -52.807  12.412  1.00  0.00     0.025 C 
HETATM   15  C   UNL     1     -41.122 -54.150  13.048  1.00  0.00     0.002 C 
HETATM   16  C   UNL     1     -41.373 -54.240  14.555  1.00  0.00     0.000 C 
HETATM   17  C   UNL     1     -42.632 -55.013  14.961  1.00  0.00     0.000 C 
HETATM   18  C   UNL     1     -43.993 -54.426  14.571  1.00  0.00     0.000 C 
HETATM   19  C   UNL     1     -44.274 -54.391  13.067  1.00  0.00     0.002 C 
HETATM   20  C   UNL     1     -44.057 -53.032  12.382  1.00  0.00     0.025 C 
ENDBRANCH   3  13
TORSDOF 3
ENDMDL
MODEL 7
REMARK VINA RESULT:      -5.1      2.217      3.241
REMARK  3 active torsions:
REMARK  status: ('A' for Active; 'I' for Inactive)
REMARK    1  A    between atoms: N_7  and  C_8 
REMARK    2  A    between atoms: C_8  and  C_9 
REMARK       I    between atoms: C_9  and  N_11 
REMARK    3  A    between atoms: N_11  and  C_12 
ROOT
HETATM    1  C   UNL     1     -40.253 -51.997  13.439  1.00  0.00     0.236 C 
HETATM    2  O   UNL     1     -40.583 -52.120  12.263  1.00  0.00    -0.272 OA
HETATM    3  N   UNL     1     -41.150 -52.044  14.496  1.00  0.00    -0.355 N 
HETATM    4  H   UNL     1     -40.891 -51.525  15.337  1.00  0.00     0.162 HD
ENDROOT
BRANCH   1   5
HETATM    5  C   UNL     1     -38.789 -51.784  13.847  1.00  0.00     0.235 C 
BRANCH   5   6
HETATM    6  N   UNL     1     -38.493 -50.417  14.230  1.00  0.00    -0.303 N 
HETATM    7  C   UNL     1     -37.967 -49.435  13.393  1.00  0.00     0.018 A 
HETATM    8  C   UNL     1     -37.736 -49.643  11.931  1.00  0.00     0.069 C 
HETATM    9  C   UNL     1     -37.647 -48.309  14.044  1.00  0.00     0.080 A 
HETATM   10  S   UNL     1     -37.976 -48.412  15.742  1.00  0.00    -0.039 SA
HETATM   11  C   UNL     1     -38.526 -50.080  15.575  1.00  0.00     0.290 A 
HETATM   12  O   UNL     1     -38.841 -50.799  16.514  1.00  0.00    -0.259 OA
ENDBRANCH   5   6
ENDBRANCH   1   5
BRANCH   3  13
HETATM   13  C   UNL     1     -42.569 -52.339  14.277  1.00  0.00     0.084 C 
HETATM   14  C   UNL     1     -43.454 -51.392  15.099  1.00  0.00     0.025 C 
HETATM   15  C   UNL     1     -44.951 -51.408  14.767  1.00  0.00     0.002 C 
HETATM   16  C   UNL     1     -45.278 -51.404  13.272  1.00  0.00     0.000 C 
HETATM   17  C   UNL     1     -45.681 -52.763  12.689  1.00  0.00     0.000 C 
HETATM   18  C   UNL     1     -44.625 -53.873  12.656  1.00  0.00     0.000 C 
HETATM   19  C   UNL     1     -44.181 -54.385  14.029  1.00  0.00     0.002 C 
HETATM   20  C   UNL     1     -42.848 -53.825  14.548  1.00  0.00     0.025 C 
ENDBRANCH   3  13
TORSDOF 3
ENDMDL
MODEL 8
REMARK VINA RESULT:      -5.0      3.062      6.597
REMARK  3 active torsions:
REMARK  status: ('A' for Active; 'I' for Inactive)
REMARK    1  A    between atoms: N_7  and  C_8 
REMARK    2  A    between atoms: C_8  and  C_9 
REMARK       I    between atoms: C_9  and  N_11 
REMARK    3  A    between atoms: N_11  and  C_12 
ROOT
HETATM    1  C   UNL     1     -41.932 -51.298  12.649  1.00  0.00     0.236 C 
HETATM    2  O   UNL     1     -41.970 -50.889  13.806  1.00  0.00    -0.272 OA
HETATM    3  N   UNL     1     -41.819 -50.465  11.546  1.00  0.00    -0.355 N 
HETATM    4  H   UNL     1     -42.218 -50.810  10.671  1.00  0.00     0.162 HD
ENDROOT
BRANCH   1   5
HETATM    5  C   UNL     1     -42.001 -52.795  12.320  1.00  0.00     0.235 C 
BRANCH   5   6
HETATM    6  N   UNL     1     -42.815 -53.551  13.253  1.00  0.00    -0.303 N 
HETATM    7  C   UNL     1     -42.336 -54.308  14.320  1.00  0.00     0.018 A 
HETATM    8  C   UNL     1     -40.895 -54.351  14.711  1.00  0.00     0.069 C 
HETATM    9  C   UNL     1     -43.293 -55.026  14.923  1.00  0.00     0.080 A 
HETATM   10  S   UNL     1     -44.846 -54.805  14.188  1.00  0.00    -0.039 SA
HETATM   11  C   UNL     1     -44.162 -53.727  12.970  1.00  0.00     0.290 A 
HETATM   12  O   UNL     1     -44.791 -53.263  12.030  1.00  0.00    -0.259 OA
ENDBRANCH   5   6
ENDBRANCH   1   5
BRANCH   3  13
HETATM   13  C   UNL     1     -41.643 -49.017  11.700  1.00  0.00     0.084 C 
HETATM   14  C   UNL     1     -40.328 -48.703  12.426  1.00  0.00     0.025 C 
HETATM   15  C   UNL     1     -39.887 -47.235  12.421  1.00  0.00     0.002 C 
HETATM   16  C   UNL     1     -40.022 -46.529  11.070  1.00  0.00     0.000 C 
HETATM   17  C   UNL     1     -41.239 -45.607  10.935  1.00  0.00     0.000 C 
HETATM   18  C   UNL     1     -42.632 -46.245  10.962  1.00  0.00     0.000 C 
HETATM   19  C   UNL     1     -43.026 -46.878  12.298  1.00  0.00     0.002 C 
HETATM   20  C   UNL     1     -42.877 -48.405  12.380  1.00  0.00     0.025 C 
ENDBRANCH   3  13
TORSDOF 3
ENDMDL
MODEL 9
REMARK VINA RESULT:      -4.9      1.794      2.773
REMARK  3 active torsions:
REMARK  status: ('A' for Active; 'I' for Inactive)
REMARK    1  A    between atoms: N_7  and  C_8 
REMARK    2  A    between atoms: C_8  and  C_9 
REMARK       I    between atoms: C_9  and  N_11 
REMARK    3  A    between atoms: N_11  and  C_12 
ROOT
HETATM    1  C   UNL     1     -41.207 -51.072  12.335  1.00  0.00     0.236 C 
HETATM    2  O   UNL     1     -40.857 -52.072  12.956  1.00  0.00    -0.272 OA
HETATM    3  N   UNL     1     -42.514 -50.608  12.306  1.00  0.00    -0.355 N 
HETATM    4  H   UNL     1     -42.792 -50.083  11.474  1.00  0.00     0.162 HD
ENDROOT
BRANCH   1   5
HETATM    5  C   UNL     1     -40.207 -50.233  11.529  1.00  0.00     0.235 C 
BRANCH   5   6
HETATM    6  N   UNL     1     -39.433 -49.320  12.348  1.00  0.00    -0.303 N 
HETATM    7  C   UNL     1     -38.201 -49.601  12.935  1.00  0.00     0.018 A 
HETATM    8  C   UNL     1     -37.454 -50.873  12.700  1.00  0.00     0.069 C 
HETATM    9  C   UNL     1     -37.785 -48.635  13.765  1.00  0.00     0.080 A 
HETATM   10  S   UNL     1     -38.911 -47.322  13.868  1.00  0.00    -0.039 SA
HETATM   11  C   UNL     1     -40.028 -48.141  12.775  1.00  0.00     0.290 A 
HETATM   12  O   UNL     1     -41.143 -47.727  12.493  1.00  0.00    -0.259 OA
ENDBRANCH   5   6
ENDBRANCH   1   5
BRANCH   3  13
HETATM   13  C   UNL     1     -43.566 -51.244  13.104  1.00  0.00     0.084 C 
HETATM   14  C   UNL     1     -43.193 -51.245  14.592  1.00  0.00     0.025 C 
HETATM   15  C   UNL     1     -44.309 -51.635  15.569  1.00  0.00     0.002 C 
HETATM   16  C   UNL     1     -45.668 -50.991  15.281  1.00  0.00     0.000 C 
HETATM   17  C   UNL     1     -46.687 -51.902  14.589  1.00  0.00     0.000 C 
HETATM   18  C   UNL     1     -46.384 -52.367  13.160  1.00  0.00     0.000 C 
HETATM   19  C   UNL     1     -45.179 -53.302  13.027  1.00  0.00     0.002 C 
HETATM   20  C   UNL     1     -43.875 -52.643  12.551  1.00  0.00     0.025 C 
ENDBRANCH   3  13
TORSDOF 3
ENDMDL
