MODEL 1
REMARK VINA RESULT:      -6.6      0.000      0.000
REMARK  4 active torsions:
REMARK  status: ('A' for Active; 'I' for Inactive)
REMARK       I    between atoms: C_2  and  N_3 
REMARK       I    between atoms: C_2  and  N_10 
REMARK    1  A    between atoms: N_3  and  C_4 
REMARK    2  A    between atoms: C_4  and  C_5 
REMARK    3  A    between atoms: N_10  and  C_11 
REMARK    4  A    between atoms: C_17  and  N_18 
ROOT
HETATM    1  C   UNL     1     -42.057 -52.736  12.849  1.00  0.00     0.060 A 
HETATM    2  C   UNL     1     -40.928 -53.499  13.183  1.00  0.00     0.029 A 
HETATM    3  C   UNL     1     -40.972 -54.348  14.277  1.00  0.00     0.019 A 
HETATM    4  C   UNL     1     -42.155 -54.416  14.983  1.00  0.00     0.090 A 
HETATM    5  N   UNL     1     -43.266 -53.712  14.671  1.00  0.00    -0.351 N 
ATOM      6  HN  UNL     1     -44.114 -53.815  15.228  1.00  0.00     0.166 HD
HETATM    7  C   UNL     1     -43.243 -52.866  13.607  1.00  0.00     0.125 A 
ENDROOT
BRANCH   1   8
HETATM    8  N   UNL     1     -41.942 -51.810  11.779  1.00  0.00    -0.207 NA
HETATM    9  C   UNL     1     -41.626 -50.497  12.083  1.00  0.00     0.298 C 
HETATM   10  O   UNL     1     -41.495 -50.038  13.209  1.00  0.00    -0.254 OA
HETATM   11  N   UNL     1     -41.447 -49.752  10.941  1.00  0.00    -0.345 N 
HETATM   12  H   UNL     1     -41.867 -50.092  10.086  1.00  0.00     0.163 HD
HETATM   13  H   UNL     1     -41.325 -52.131  11.042  1.00  0.00     0.138 HD
BRANCH  11  14
HETATM   14  C   UNL     1     -41.201 -48.319  11.008  1.00  0.00     0.155 C 
BRANCH  14  15
HETATM   15  C   UNL     1     -42.293 -47.482  10.338  1.00  0.00     0.139 C 
HETATM   16  C   UNL     1     -43.654 -47.446  11.030  1.00  0.00     0.035 C 
HETATM   17  C   UNL     1     -44.659 -47.466   9.899  1.00  0.00     0.029 C 
HETATM   18  C   UNL     1     -43.825 -47.412   8.639  1.00  0.00     0.168 C 
HETATM   19  O   UNL     1     -42.554 -47.966   9.004  1.00  0.00    -0.384 OA
ENDBRANCH  14  15
ENDBRANCH  11  14
ENDBRANCH   1   8
BRANCH   7  20
HETATM   20  N   UNL     1     -44.402 -52.158  13.334  1.00  0.00    -0.366 N 
HETATM   21  C   UNL     1     -45.477 -52.718  12.524  1.00  0.00     0.124 C 
HETATM   22  C   UNL     1     -46.719 -51.917  12.912  1.00  0.00     0.021 C 
HETATM   23  C   UNL     1     -46.418 -51.404  14.308  1.00  0.00     0.021 C 
HETATM   24  C   UNL     1     -44.908 -51.190  14.303  1.00  0.00     0.124 C 
ENDBRANCH   7  20
TORSDOF 4
ENDMDL
MODEL 2
REMARK VINA RESULT:      -6.6      2.124      3.595
REMARK  4 active torsions:
REMARK  status: ('A' for Active; 'I' for Inactive)
REMARK       I    between atoms: C_2  and  N_3 
REMARK       I    between atoms: C_2  and  N_10 
REMARK    1  A    between atoms: N_3  and  C_4 
REMARK    2  A    between atoms: C_4  and  C_5 
REMARK    3  A    between atoms: N_10  and  C_11 
REMARK    4  A    between atoms: C_17  and  N_18 
ROOT
HETATM    1  C   UNL     1     -39.703 -50.177  11.378  1.00  0.00     0.060 A 
HETATM    2  C   UNL     1     -38.433 -49.579  11.406  1.00  0.00     0.029 A 
HETATM    3  C   UNL     1     -37.534 -49.925  12.401  1.00  0.00     0.019 A 
HETATM    4  C   UNL     1     -37.933 -50.874  13.319  1.00  0.00     0.090 A 
HETATM    5  N   UNL     1     -39.139 -51.484  13.303  1.00  0.00    -0.351 N 
ATOM      6  HN  UNL     1     -39.370 -52.186  14.006  1.00  0.00     0.166 HD
HETATM    7  C   UNL     1     -40.042 -51.154  12.342  1.00  0.00     0.125 A 
ENDROOT
BRANCH   1   8
HETATM    8  N   UNL     1     -40.629 -49.728  10.399  1.00  0.00    -0.207 NA
HETATM    9  C   UNL     1     -41.295 -48.537  10.628  1.00  0.00     0.298 C 
HETATM   10  O   UNL     1     -41.206 -47.853  11.638  1.00  0.00    -0.254 OA
HETATM   11  N   UNL     1     -42.071 -48.186   9.548  1.00  0.00    -0.345 N 
HETATM   12  H   UNL     1     -42.342 -48.918   8.906  1.00  0.00     0.163 HD
HETATM   13  H   UNL     1     -40.237 -49.709   9.464  1.00  0.00     0.138 HD
BRANCH  11  14
HETATM   14  C   UNL     1     -42.940 -47.019   9.593  1.00  0.00     0.155 C 
BRANCH  14  15
HETATM   15  C   UNL     1     -44.188 -47.156   8.720  1.00  0.00     0.139 C 
HETATM   16  C   UNL     1     -45.507 -47.423   9.443  1.00  0.00     0.035 C 
HETATM   17  C   UNL     1     -46.245 -48.393   8.546  1.00  0.00     0.029 C 
HETATM   18  C   UNL     1     -45.361 -48.543   7.328  1.00  0.00     0.168 C 
HETATM   19  O   UNL     1     -44.035 -48.244   7.785  1.00  0.00    -0.384 OA
ENDBRANCH  14  15
ENDBRANCH  11  14
ENDBRANCH   1   8
BRANCH   7  20
HETATM   20  N   UNL     1     -41.268 -51.798  12.374  1.00  0.00    -0.366 N 
HETATM   21  C   UNL     1     -41.377 -53.252  12.392  1.00  0.00     0.124 C 
HETATM   22  C   UNL     1     -42.764 -53.534  12.968  1.00  0.00     0.021 C 
HETATM   23  C   UNL     1     -43.091 -52.300  13.789  1.00  0.00     0.021 C 
HETATM   24  C   UNL     1     -42.404 -51.165  13.037  1.00  0.00     0.124 C 
ENDBRANCH   7  20
TORSDOF 4
ENDMDL
MODEL 3
REMARK VINA RESULT:      -6.3      2.741      7.148
REMARK  4 active torsions:
REMARK  status: ('A' for Active; 'I' for Inactive)
REMARK       I    between atoms: C_2  and  N_3 
REMARK       I    between atoms: C_2  and  N_10 
REMARK    1  A    between atoms: N_3  and  C_4 
REMARK    2  A    between atoms: C_4  and  C_5 
REMARK    3  A    between atoms: N_10  and  C_11 
REMARK    4  A    between atoms: C_17  and  N_18 
ROOT
HETATM    1  C   UNL     1     -40.661 -48.925  10.999  1.00  0.00     0.060 A 
HETATM    2  C   UNL     1     -41.697 -48.195  10.397  1.00  0.00     0.029 A 
HETATM    3  C   UNL     1     -41.749 -46.820  10.554  1.00  0.00     0.019 A 
HETATM    4  C   UNL     1     -40.746 -46.224  11.291  1.00  0.00     0.090 A 
HETATM    5  N   UNL     1     -39.722 -46.898  11.861  1.00  0.00    -0.351 N 
ATOM      6  HN  UNL     1     -39.006 -46.398  12.387  1.00  0.00     0.166 HD
HETATM    7  C   UNL     1     -39.656 -48.249  11.729  1.00  0.00     0.125 A 
ENDROOT
BRANCH   1   8
HETATM    8  N   UNL     1     -40.695 -50.341  10.893  1.00  0.00    -0.207 NA
HETATM    9  C   UNL     1     -41.420 -51.049  11.835  1.00  0.00     0.298 C 
HETATM   10  O   UNL     1     -41.994 -50.567  12.803  1.00  0.00    -0.254 OA
HETATM   11  N   UNL     1     -41.445 -52.391  11.538  1.00  0.00    -0.345 N 
HETATM   12  H   UNL     1     -40.718 -52.753  10.936  1.00  0.00     0.163 HD
HETATM   13  H   UNL     1     -40.960 -50.662   9.969  1.00  0.00     0.138 HD
BRANCH  11  14
HETATM   14  C   UNL     1     -42.067 -53.351  12.439  1.00  0.00     0.155 C 
BRANCH  14  15
HETATM   15  C   UNL     1     -41.059 -54.190  13.225  1.00  0.00     0.139 C 
HETATM   16  C   UNL     1     -41.354 -54.409  14.708  1.00  0.00     0.035 C 
HETATM   17  C   UNL     1     -40.001 -54.341  15.381  1.00  0.00     0.029 C 
HETATM   18  C   UNL     1     -39.011 -54.191  14.247  1.00  0.00     0.168 C 
HETATM   19  O   UNL     1     -39.751 -53.583  13.179  1.00  0.00    -0.384 OA
ENDBRANCH  14  15
ENDBRANCH  11  14
ENDBRANCH   1   8
BRANCH   7  20
HETATM   20  N   UNL     1     -38.595 -48.896  12.341  1.00  0.00    -0.366 N 
HETATM   21  C   UNL     1     -38.691 -49.425  13.697  1.00  0.00     0.124 C 
HETATM   22  C   UNL     1     -37.596 -50.487  13.782  1.00  0.00     0.021 C 
HETATM   23  C   UNL     1     -37.374 -50.918  12.343  1.00  0.00     0.021 C 
HETATM   24  C   UNL     1     -37.642 -49.653  11.535  1.00  0.00     0.124 C 
ENDBRANCH   7  20
TORSDOF 4
ENDMDL
MODEL 4
REMARK VINA RESULT:      -6.3      2.682      7.397
REMARK  4 active torsions:
REMARK  status: ('A' for Active; 'I' for Inactive)
REMARK       I    between atoms: C_2  and  N_3 
REMARK       I    between atoms: C_2  and  N_10 
REMARK    1  A    between atoms: N_3  and  C_4 
REMARK    2  A    between atoms: C_4  and  C_5 
REMARK    3  A    between atoms: N_10  and  C_11 
REMARK    4  A    between atoms: C_17  and  N_18 
ROOT
HETATM    1  C   UNL     1     -42.611 -47.321   9.594  1.00  0.00     0.060 A 
HETATM    2  C   UNL     1     -43.692 -47.704   8.785  1.00  0.00     0.029 A 
HETATM    3  C   UNL     1     -44.742 -46.824   8.581  1.00  0.00     0.019 A 
HETATM    4  C   UNL     1     -44.659 -45.583   9.178  1.00  0.00     0.090 A 
HETATM    5  N   UNL     1     -43.620 -45.178   9.943  1.00  0.00    -0.351 N 
ATOM      6  HN  UNL     1     -43.614 -44.243  10.349  1.00  0.00     0.166 HD
HETATM    7  C   UNL     1     -42.583 -46.028  10.165  1.00  0.00     0.125 A 
ENDROOT
BRANCH   1   8
HETATM    8  N   UNL     1     -41.600 -48.284   9.854  1.00  0.00    -0.207 NA
HETATM    9  C   UNL     1     -41.678 -49.010  11.030  1.00  0.00     0.298 C 
HETATM   10  O   UNL     1     -42.515 -48.857  11.909  1.00  0.00    -0.254 OA
HETATM   11  N   UNL     1     -40.694 -49.970  11.087  1.00  0.00    -0.345 N 
HETATM   12  H   UNL     1     -39.876 -49.840  10.508  1.00  0.00     0.163 HD
HETATM   13  H   UNL     1     -41.457 -48.926   9.083  1.00  0.00     0.138 HD
BRANCH  11  14
HETATM   14  C   UNL     1     -40.516 -50.796  12.272  1.00  0.00     0.155 C 
BRANCH  14  15
HETATM   15  C   UNL     1     -41.038 -52.224  12.103  1.00  0.00     0.139 C 
HETATM   16  C   UNL     1     -42.467 -52.493  12.571  1.00  0.00     0.035 C 
HETATM   17  C   UNL     1     -42.413 -53.874  13.189  1.00  0.00     0.029 C 
HETATM   18  C   UNL     1     -40.996 -54.349  12.952  1.00  0.00     0.168 C 
HETATM   19  O   UNL     1     -40.212 -53.154  12.835  1.00  0.00    -0.384 OA
ENDBRANCH  14  15
ENDBRANCH  11  14
ENDBRANCH   1   8
BRANCH   7  20
HETATM   20  N   UNL     1     -41.547 -45.571  10.963  1.00  0.00    -0.366 N 
HETATM   21  C   UNL     1     -40.269 -45.147  10.405  1.00  0.00     0.124 C 
HETATM   22  C   UNL     1     -39.656 -44.240  11.471  1.00  0.00     0.021 C 
HETATM   23  C   UNL     1     -40.847 -43.724  12.259  1.00  0.00     0.021 C 
HETATM   24  C   UNL     1     -41.845 -44.876  12.213  1.00  0.00     0.124 C 
ENDBRANCH   7  20
TORSDOF 4
ENDMDL
MODEL 5
REMARK VINA RESULT:      -6.1      2.632      4.679
REMARK  4 active torsions:
REMARK  status: ('A' for Active; 'I' for Inactive)
REMARK       I    between atoms: C_2  and  N_3 
REMARK       I    between atoms: C_2  and  N_10 
REMARK    1  A    between atoms: N_3  and  C_4 
REMARK    2  A    between atoms: C_4  and  C_5 
REMARK    3  A    between atoms: N_10  and  C_11 
REMARK    4  A    between atoms: C_17  and  N_18 
ROOT
HETATM    1  C   UNL     1     -42.917 -53.438  12.831  1.00  0.00     0.060 A 
HETATM    2  C   UNL     1     -44.265 -53.529  12.450  1.00  0.00     0.029 A 
HETATM    3  C   UNL     1     -45.153 -54.243  13.238  1.00  0.00     0.019 A 
HETATM    4  C   UNL     1     -44.662 -54.819  14.391  1.00  0.00     0.090 A 
HETATM    5  N   UNL     1     -43.375 -54.727  14.796  1.00  0.00    -0.351 N 
ATOM      6  HN  UNL     1     -43.077 -55.169  15.665  1.00  0.00     0.166 HD
HETATM    7  C   UNL     1     -42.483 -54.040  14.034  1.00  0.00     0.125 A 
ENDROOT
BRANCH   1   8
HETATM    8  N   UNL     1     -42.020 -52.777  11.951  1.00  0.00    -0.207 NA
HETATM    9  C   UNL     1     -41.788 -51.427  12.147  1.00  0.00     0.298 C 
HETATM   10  O   UNL     1     -42.340 -50.723  12.982  1.00  0.00    -0.254 OA
HETATM   11  N   UNL     1     -40.822 -50.958  11.288  1.00  0.00    -0.345 N 
HETATM   12  H   UNL     1     -40.645 -51.487  10.445  1.00  0.00     0.163 HD
HETATM   13  H   UNL     1     -41.128 -53.252  11.866  1.00  0.00     0.138 HD
BRANCH  11  14
HETATM   14  C   UNL     1     -40.476 -49.545  11.243  1.00  0.00     0.155 C 
BRANCH  14  15
HETATM   15  C   UNL     1     -39.133 -49.225  11.901  1.00  0.00     0.139 C 
HETATM   16  C   UNL     1     -38.015 -50.249  11.715  1.00  0.00     0.035 C 
HETATM   17  C   UNL     1     -37.293 -50.273  13.045  1.00  0.00     0.029 C 
HETATM   18  C   UNL     1     -37.968 -49.200  13.871  1.00  0.00     0.168 C 
HETATM   19  O   UNL     1     -39.290 -49.083  13.328  1.00  0.00    -0.384 OA
ENDBRANCH  14  15
ENDBRANCH  11  14
ENDBRANCH   1   8
BRANCH   7  20
HETATM   20  N   UNL     1     -41.175 -53.984  14.485  1.00  0.00    -0.366 N 
HETATM   21  C   UNL     1     -40.054 -54.424  13.662  1.00  0.00     0.124 C 
HETATM   22  C   UNL     1     -38.834 -53.716  14.249  1.00  0.00     0.021 C 
HETATM   23  C   UNL     1     -39.404 -52.487  14.935  1.00  0.00     0.021 C 
HETATM   24  C   UNL     1     -40.774 -52.942  15.426  1.00  0.00     0.124 C 
ENDBRANCH   7  20
TORSDOF 4
ENDMDL
MODEL 6
REMARK VINA RESULT:      -6.0      2.496      6.769
REMARK  4 active torsions:
REMARK  status: ('A' for Active; 'I' for Inactive)
REMARK       I    between atoms: C_2  and  N_3 
REMARK       I    between atoms: C_2  and  N_10 
REMARK    1  A    between atoms: N_3  and  C_4 
REMARK    2  A    between atoms: C_4  and  C_5 
REMARK    3  A    between atoms: N_10  and  C_11 
REMARK    4  A    between atoms: C_17  and  N_18 
ROOT
HETATM    1  C   UNL     1     -40.649 -49.103  11.066  1.00  0.00     0.060 A 
HETATM    2  C   UNL     1     -41.748 -48.414  10.533  1.00  0.00     0.029 A 
HETATM    3  C   UNL     1     -41.838 -47.040  10.688  1.00  0.00     0.019 A 
HETATM    4  C   UNL     1     -40.809 -46.406  11.353  1.00  0.00     0.090 A 
HETATM    5  N   UNL     1     -39.726 -47.040  11.855  1.00  0.00    -0.351 N 
ATOM      6  HN  UNL     1     -38.993 -46.511  12.328  1.00  0.00     0.166 HD
HETATM    7  C   UNL     1     -39.621 -48.389  11.723  1.00  0.00     0.125 A 
ENDROOT
BRANCH   1   8
HETATM    8  N   UNL     1     -40.639 -50.520  10.967  1.00  0.00    -0.207 NA
HETATM    9  C   UNL     1     -41.096 -51.252  12.049  1.00  0.00     0.298 C 
HETATM   10  O   UNL     1     -41.456 -50.789  13.123  1.00  0.00    -0.254 OA
HETATM   11  N   UNL     1     -41.125 -52.597  11.763  1.00  0.00    -0.345 N 
HETATM   12  H   UNL     1     -40.539 -52.930  11.010  1.00  0.00     0.163 HD
HETATM   13  H   UNL     1     -41.093 -50.861  10.128  1.00  0.00     0.138 HD
BRANCH  11  14
HETATM   14  C   UNL     1     -41.480 -53.576  12.780  1.00  0.00     0.155 C 
BRANCH  14  15
HETATM   15  C   UNL     1     -42.903 -53.409  13.315  1.00  0.00     0.139 C 
HETATM   16  C   UNL     1     -43.451 -54.544  14.178  1.00  0.00     0.035 C 
HETATM   17  C   UNL     1     -44.906 -54.659  13.778  1.00  0.00     0.029 C 
HETATM   18  C   UNL     1     -45.129 -53.530  12.796  1.00  0.00     0.168 C 
HETATM   19  O   UNL     1     -43.839 -53.267  12.227  1.00  0.00    -0.384 OA
ENDBRANCH  14  15
ENDBRANCH  11  14
ENDBRANCH   1   8
BRANCH   7  20
HETATM   20  N   UNL     1     -38.499 -48.994  12.264  1.00  0.00    -0.366 N 
HETATM   21  C   UNL     1     -38.446 -49.419  13.658  1.00  0.00     0.124 C 
HETATM   22  C   UNL     1     -37.346 -50.479  13.703  1.00  0.00     0.021 C 
HETATM   23  C   UNL     1     -37.280 -51.017  12.285  1.00  0.00     0.021 C 
HETATM   24  C   UNL     1     -37.636 -49.815  11.419  1.00  0.00     0.124 C 
ENDBRANCH   7  20
TORSDOF 4
ENDMDL
MODEL 7
REMARK VINA RESULT:      -6.0      3.400      7.436
REMARK  4 active torsions:
REMARK  status: ('A' for Active; 'I' for Inactive)
REMARK       I    between atoms: C_2  and  N_3 
REMARK       I    between atoms: C_2  and  N_10 
REMARK    1  A    between atoms: N_3  and  C_4 
REMARK    2  A    between atoms: C_4  and  C_5 
REMARK    3  A    between atoms: N_10  and  C_11 
REMARK    4  A    between atoms: C_17  and  N_18 
ROOT
HETATM    1  C   UNL     1     -42.467 -47.343   9.730  1.00  0.00     0.060 A 
HETATM    2  C   UNL     1     -43.529 -47.667   8.873  1.00  0.00     0.029 A 
HETATM    3  C   UNL     1     -44.499 -46.718   8.595  1.00  0.00     0.019 A 
HETATM    4  C   UNL     1     -44.355 -45.472   9.168  1.00  0.00     0.090 A 
HETATM    5  N   UNL     1     -43.329 -45.124   9.978  1.00  0.00    -0.351 N 
ATOM      6  HN  UNL     1     -43.275 -44.181  10.363  1.00  0.00     0.166 HD
HETATM    7  C   UNL     1     -42.371 -46.041  10.273  1.00  0.00     0.125 A 
ENDROOT
BRANCH   1   8
HETATM    8  N   UNL     1     -41.544 -48.370  10.064  1.00  0.00    -0.207 NA
HETATM    9  C   UNL     1     -41.801 -49.136  11.188  1.00  0.00     0.298 C 
HETATM   10  O   UNL     1     -42.728 -48.970  11.968  1.00  0.00    -0.254 OA
HETATM   11  N   UNL     1     -40.881 -50.151  11.319  1.00  0.00    -0.345 N 
HETATM   12  H   UNL     1     -39.993 -50.045  10.847  1.00  0.00     0.163 HD
HETATM   13  H   UNL     1     -41.343 -48.989   9.287  1.00  0.00     0.138 HD
BRANCH  11  14
HETATM   14  C   UNL     1     -40.889 -51.031  12.478  1.00  0.00     0.155 C 
BRANCH  14  15
HETATM   15  C   UNL     1     -39.494 -51.307  13.042  1.00  0.00     0.139 C 
HETATM   16  C   UNL     1     -39.042 -50.438  14.214  1.00  0.00     0.035 C 
HETATM   17  C   UNL     1     -37.571 -50.188  13.959  1.00  0.00     0.029 C 
HETATM   18  C   UNL     1     -37.248 -51.002  12.725  1.00  0.00     0.168 C 
HETATM   19  O   UNL     1     -38.491 -51.127  12.021  1.00  0.00    -0.384 OA
ENDBRANCH  14  15
ENDBRANCH  11  14
ENDBRANCH   1   8
BRANCH   7  20
HETATM   20  N   UNL     1     -41.347 -45.641  11.115  1.00  0.00    -0.366 N 
HETATM   21  C   UNL     1     -40.069 -45.161  10.604  1.00  0.00     0.124 C 
HETATM   22  C   UNL     1     -39.474 -44.338  11.746  1.00  0.00     0.021 C 
HETATM   23  C   UNL     1     -40.676 -43.899  12.562  1.00  0.00     0.021 C 
HETATM   24  C   UNL     1     -41.662 -45.052  12.414  1.00  0.00     0.124 C 
ENDBRANCH   7  20
TORSDOF 4
ENDMDL
MODEL 8
REMARK VINA RESULT:      -5.8      2.455      4.761
REMARK  4 active torsions:
REMARK  status: ('A' for Active; 'I' for Inactive)
REMARK       I    between atoms: C_2  and  N_3 
REMARK       I    between atoms: C_2  and  N_10 
REMARK    1  A    between atoms: N_3  and  C_4 
REMARK    2  A    between atoms: C_4  and  C_5 
REMARK    3  A    between atoms: N_10  and  C_11 
REMARK    4  A    between atoms: C_17  and  N_18 
ROOT
HETATM    1  C   UNL     1     -44.510 -51.980  13.520  1.00  0.00     0.060 A 
HETATM    2  C   UNL     1     -45.714 -51.282  13.347  1.00  0.00     0.029 A 
HETATM    3  C   UNL     1     -46.756 -51.480  14.237  1.00  0.00     0.019 A 
HETATM    4  C   UNL     1     -46.544 -52.354  15.282  1.00  0.00     0.090 A 
HETATM    5  N   UNL     1     -45.387 -53.022  15.489  1.00  0.00    -0.351 N 
ATOM      6  HN  UNL     1     -45.289 -53.648  16.288  1.00  0.00     0.166 HD
HETATM    7  C   UNL     1     -44.353 -52.851  14.623  1.00  0.00     0.125 A 
ENDROOT
BRANCH   1   8
HETATM    8  N   UNL     1     -43.499 -51.821  12.535  1.00  0.00    -0.207 NA
HETATM    9  C   UNL     1     -42.663 -50.722  12.629  1.00  0.00     0.298 C 
HETATM   10  O   UNL     1     -42.753 -49.827  13.458  1.00  0.00    -0.254 OA
HETATM   11  N   UNL     1     -41.677 -50.764  11.672  1.00  0.00    -0.345 N 
HETATM   12  H   UNL     1     -41.841 -51.332  10.852  1.00  0.00     0.163 HD
HETATM   13  H   UNL     1     -42.932 -52.652  12.412  1.00  0.00     0.138 HD
BRANCH  11  14
HETATM   14  C   UNL     1     -40.734 -49.666  11.512  1.00  0.00     0.155 C 
BRANCH  14  15
HETATM   15  C   UNL     1     -39.451 -49.842  12.327  1.00  0.00     0.139 C 
HETATM   16  C   UNL     1     -38.134 -49.788  11.556  1.00  0.00     0.035 C 
HETATM   17  C   UNL     1     -37.263 -50.836  12.213  1.00  0.00     0.029 C 
HETATM   18  C   UNL     1     -38.086 -51.352  13.373  1.00  0.00     0.168 C 
HETATM   19  O   UNL     1     -39.451 -51.119  12.999  1.00  0.00    -0.384 OA
ENDBRANCH  14  15
ENDBRANCH  11  14
ENDBRANCH   1   8
BRANCH   7  20
HETATM   20  N   UNL     1     -43.193 -53.565  14.871  1.00  0.00    -0.366 N 
HETATM   21  C   UNL     1     -42.172 -53.085  15.794  1.00  0.00     0.124 C 
HETATM   22  C   UNL     1     -41.388 -54.333  16.197  1.00  0.00     0.021 C 
HETATM   23  C   UNL     1     -42.363 -55.477  15.982  1.00  0.00     0.021 C 
HETATM   24  C   UNL     1     -43.206 -55.023  14.795  1.00  0.00     0.124 C 
ENDBRANCH   7  20
TORSDOF 4
ENDMDL
MODEL 9
REMARK VINA RESULT:      -5.7      1.608      3.426
REMARK  4 active torsions:
REMARK  status: ('A' for Active; 'I' for Inactive)
REMARK       I    between atoms: C_2  and  N_3 
REMARK       I    between atoms: C_2  and  N_10 
REMARK    1  A    between atoms: N_3  and  C_4 
REMARK    2  A    between atoms: C_4  and  C_5 
REMARK    3  A    between atoms: N_10  and  C_11 
REMARK    4  A    between atoms: C_17  and  N_18 
ROOT
HETATM    1  C   UNL     1     -43.144 -53.226  12.785  1.00  0.00     0.060 A 
HETATM    2  C   UNL     1     -44.499 -53.340  12.440  1.00  0.00     0.029 A 
HETATM    3  C   UNL     1     -45.323 -54.184  13.166  1.00  0.00     0.019 A 
HETATM    4  C   UNL     1     -44.763 -54.865  14.226  1.00  0.00     0.090 A 
HETATM    5  N   UNL     1     -43.467 -54.757  14.597  1.00  0.00    -0.351 N 
ATOM      6  HN  UNL     1     -43.115 -55.282  15.398  1.00  0.00     0.166 HD
HETATM    7  C   UNL     1     -42.637 -53.943  13.894  1.00  0.00     0.125 A 
ENDROOT
BRANCH   1   8
HETATM    8  N   UNL     1     -42.311 -52.424  11.960  1.00  0.00    -0.207 NA
HETATM    9  C   UNL     1     -42.089 -51.111  12.338  1.00  0.00     0.298 C 
HETATM   10  O   UNL     1     -42.600 -50.549  13.297  1.00  0.00    -0.254 OA
HETATM   11  N   UNL     1     -41.184 -50.500  11.502  1.00  0.00    -0.345 N 
HETATM   12  H   UNL     1     -41.050 -50.897  10.582  1.00  0.00     0.163 HD
HETATM   13  H   UNL     1     -41.419 -52.859  11.756  1.00  0.00     0.138 HD
BRANCH  11  14
HETATM   14  C   UNL     1     -40.864 -49.087  11.643  1.00  0.00     0.155 C 
BRANCH  14  15
HETATM   15  C   UNL     1     -41.569 -48.198  10.618  1.00  0.00     0.139 C 
HETATM   16  C   UNL     1     -41.188 -46.719  10.612  1.00  0.00     0.035 C 
HETATM   17  C   UNL     1     -42.487 -45.990  10.345  1.00  0.00     0.029 C 
HETATM   18  C   UNL     1     -43.506 -47.085  10.117  1.00  0.00     0.168 C 
HETATM   19  O   UNL     1     -42.998 -48.225  10.822  1.00  0.00    -0.384 OA
ENDBRANCH  14  15
ENDBRANCH  11  14
ENDBRANCH   1   8
BRANCH   7  20
HETATM   20  N   UNL     1     -41.316 -53.874  14.305  1.00  0.00    -0.366 N 
HETATM   21  C   UNL     1     -40.212 -54.228  13.421  1.00  0.00     0.124 C 
HETATM   22  C   UNL     1     -38.993 -53.520  14.012  1.00  0.00     0.021 C 
HETATM   23  C   UNL     1     -39.575 -52.354  14.791  1.00  0.00     0.021 C 
HETATM   24  C   UNL     1     -40.914 -52.880  15.296  1.00  0.00     0.124 C 
ENDBRANCH   7  20
TORSDOF 4
ENDMDL
