MODEL 1
REMARK VINA RESULT:      -6.7      0.000      0.000
REMARK  4 active torsions:
REMARK  status: ('A' for Active; 'I' for Inactive)
REMARK    1  A    between atoms: C_5  and  C_10 
REMARK       I    between atoms: C_10  and  N_12 
REMARK    2  A    between atoms: N_12  and  C_13 
REMARK    3  A    between atoms: C_13  and  C_14 
REMARK    4  A    between atoms: C_14  and  C_15 
ROOT
HETATM    1  C   UNL     1     -40.795 -49.123  11.454  1.00  0.00     0.265 C 
HETATM    2  O   UNL     1     -39.646 -48.846  11.775  1.00  0.00    -0.266 OA
HETATM    3  N   UNL     1     -41.406 -50.330  11.718  1.00  0.00    -0.356 N 
HETATM    4  H   UNL     1     -42.386 -50.428  11.471  1.00  0.00     0.162 HD
ENDROOT
BRANCH   1   5
HETATM    5  C   UNL     1     -41.628 -48.068  10.721  1.00  0.00     0.094 A 
HETATM    6  N   UNL     1     -42.242 -48.382   9.621  1.00  0.00    -0.295 N 
HETATM    7  N   UNL     1     -42.974 -47.413   8.970  1.00  0.00    -0.265 N 
ATOM      8  HN  UNL     1     -42.184 -49.329   9.246  1.00  0.00     0.187 HD
HETATM    9  C   UNL     1     -43.638 -47.811   7.741  1.00  0.00     0.181 C 
HETATM   10  C   UNL     1     -43.104 -46.089   9.361  1.00  0.00     0.238 A 
HETATM   11  C   UNL     1     -42.421 -45.661  10.627  1.00  0.00     0.111 A 
HETATM   12  O   UNL     1     -43.755 -45.262   8.717  1.00  0.00    -0.272 OA
HETATM   13  C   UNL     1     -41.654 -46.720  11.372  1.00  0.00     0.073 A 
ENDBRANCH   1   5
BRANCH   3  14
HETATM   14  C   UNL     1     -40.687 -51.357  12.462  1.00  0.00     0.129 C 
BRANCH  14  15
HETATM   15  C   UNL     1     -40.993 -52.777  11.997  1.00  0.00     0.076 C 
BRANCH  15  16
HETATM   16  C   UNL     1     -42.209 -53.357  12.680  1.00  0.00     0.010 A 
HETATM   17  C   UNL     1     -42.085 -54.077  13.867  1.00  0.00     0.025 A 
HETATM   18  C   UNL     1     -43.223 -54.648  14.437  1.00  0.00     0.003 A 
HETATM   19  C   UNL     1     -44.453 -54.477  13.816  1.00  0.00     0.017 A 
HETATM   20  C   UNL     1     -44.493 -53.727  12.653  1.00  0.00     0.088 A 
HETATM   21  N   UNL     1     -43.406 -53.167  12.075  1.00  0.00    -0.369 N 
ATOM     22  HN  UNL     1     -43.485 -52.623  11.217  1.00  0.00     0.165 HD
ENDBRANCH  15  16
ENDBRANCH  14  15
ENDBRANCH   3  14
TORSDOF 4
ENDMDL
MODEL 2
REMARK VINA RESULT:      -6.6      2.429      6.939
REMARK  4 active torsions:
REMARK  status: ('A' for Active; 'I' for Inactive)
REMARK    1  A    between atoms: C_5  and  C_10 
REMARK       I    between atoms: C_10  and  N_12 
REMARK    2  A    between atoms: N_12  and  C_13 
REMARK    3  A    between atoms: C_13  and  C_14 
REMARK    4  A    between atoms: C_14  and  C_15 
ROOT
HETATM    1  C   UNL     1     -41.384 -51.819  12.180  1.00  0.00     0.265 C 
HETATM    2  O   UNL     1     -40.238 -52.247  12.140  1.00  0.00    -0.266 OA
HETATM    3  N   UNL     1     -41.769 -50.583  11.707  1.00  0.00    -0.356 N 
HETATM    4  H   UNL     1     -42.759 -50.356  11.725  1.00  0.00     0.162 HD
ENDROOT
BRANCH   1   5
HETATM    5  C   UNL     1     -42.479 -52.704  12.783  1.00  0.00     0.094 A 
HETATM    6  N   UNL     1     -43.728 -52.405  12.591  1.00  0.00    -0.295 N 
HETATM    7  N   UNL     1     -44.696 -53.206  13.155  1.00  0.00    -0.265 N 
ATOM      8  HN  UNL     1     -43.988 -51.592  12.032  1.00  0.00     0.187 HD
HETATM    9  C   UNL     1     -46.078 -52.829  12.917  1.00  0.00     0.181 C 
HETATM   10  C   UNL     1     -44.471 -54.317  13.955  1.00  0.00     0.238 A 
HETATM   11  C   UNL     1     -43.049 -54.719  14.213  1.00  0.00     0.111 A 
HETATM   12  O   UNL     1     -45.386 -54.979  14.453  1.00  0.00    -0.272 OA
HETATM   13  C   UNL     1     -41.981 -53.877  13.567  1.00  0.00     0.073 A 
ENDBRANCH   1   5
BRANCH   3  14
HETATM   14  C   UNL     1     -40.786 -49.715  11.071  1.00  0.00     0.129 C 
BRANCH  14  15
HETATM   15  C   UNL     1     -41.173 -48.239  11.084  1.00  0.00     0.076 C 
BRANCH  15  16
HETATM   16  C   UNL     1     -42.392 -47.956  10.238  1.00  0.00     0.010 A 
HETATM   17  C   UNL     1     -43.609 -47.623  10.831  1.00  0.00     0.025 A 
HETATM   18  C   UNL     1     -44.727 -47.426  10.021  1.00  0.00     0.003 A 
HETATM   19  C   UNL     1     -44.600 -47.555   8.644  1.00  0.00     0.017 A 
HETATM   20  C   UNL     1     -43.351 -47.863   8.134  1.00  0.00     0.088 A 
HETATM   21  N   UNL     1     -42.252 -48.065   8.895  1.00  0.00    -0.369 N 
ATOM     22  HN  UNL     1     -41.351 -48.291   8.474  1.00  0.00     0.165 HD
ENDBRANCH  15  16
ENDBRANCH  14  15
ENDBRANCH   3  14
TORSDOF 4
ENDMDL
MODEL 3
REMARK VINA RESULT:      -6.5      1.443      1.721
REMARK  4 active torsions:
REMARK  status: ('A' for Active; 'I' for Inactive)
REMARK    1  A    between atoms: C_5  and  C_10 
REMARK       I    between atoms: C_10  and  N_12 
REMARK    2  A    between atoms: N_12  and  C_13 
REMARK    3  A    between atoms: C_13  and  C_14 
REMARK    4  A    between atoms: C_14  and  C_15 
ROOT
HETATM    1  C   UNL     1     -41.365 -49.347  11.821  1.00  0.00     0.265 C 
HETATM    2  O   UNL     1     -40.368 -49.105  12.490  1.00  0.00    -0.266 OA
HETATM    3  N   UNL     1     -41.982 -50.577  11.763  1.00  0.00    -0.356 N 
HETATM    4  H   UNL     1     -42.845 -50.650  11.232  1.00  0.00     0.162 HD
ENDROOT
BRANCH   1   5
HETATM    5  C   UNL     1     -41.988 -48.217  10.996  1.00  0.00     0.094 A 
HETATM    6  N   UNL     1     -42.432 -48.462   9.801  1.00  0.00    -0.295 N 
HETATM    7  N   UNL     1     -42.975 -47.427   9.070  1.00  0.00    -0.265 N 
ATOM      8  HN  UNL     1     -42.381 -49.402   9.410  1.00  0.00     0.187 HD
HETATM    9  C   UNL     1     -43.453 -47.749   7.738  1.00  0.00     0.181 C 
HETATM   10  C   UNL     1     -43.074 -46.105   9.478  1.00  0.00     0.238 A 
HETATM   11  C   UNL     1     -42.581 -45.755  10.852  1.00  0.00     0.111 A 
HETATM   12  O   UNL     1     -43.548 -45.218   8.763  1.00  0.00    -0.272 OA
HETATM   13  C   UNL     1     -42.025 -46.884  11.677  1.00  0.00     0.073 A 
ENDBRANCH   1   5
BRANCH   3  14
HETATM   14  C   UNL     1     -41.472 -51.680  12.568  1.00  0.00     0.129 C 
BRANCH  14  15
HETATM   15  C   UNL     1     -42.460 -52.832  12.725  1.00  0.00     0.076 C 
BRANCH  15  16
HETATM   16  C   UNL     1     -43.861 -52.353  13.023  1.00  0.00     0.010 A 
HETATM   17  C   UNL     1     -44.129 -51.601  14.166  1.00  0.00     0.025 A 
HETATM   18  C   UNL     1     -45.445 -51.227  14.439  1.00  0.00     0.003 A 
HETATM   19  C   UNL     1     -46.454 -51.602  13.562  1.00  0.00     0.017 A 
HETATM   20  C   UNL     1     -46.100 -52.326  12.437  1.00  0.00     0.088 A 
HETATM   21  N   UNL     1     -44.834 -52.708  12.151  1.00  0.00    -0.369 N 
ATOM     22  HN  UNL     1     -44.621 -53.243  11.309  1.00  0.00     0.165 HD
ENDBRANCH  15  16
ENDBRANCH  14  15
ENDBRANCH   3  14
TORSDOF 4
ENDMDL
MODEL 4
REMARK VINA RESULT:      -6.3      1.998      2.740
REMARK  4 active torsions:
REMARK  status: ('A' for Active; 'I' for Inactive)
REMARK    1  A    between atoms: C_5  and  C_10 
REMARK       I    between atoms: C_10  and  N_12 
REMARK    2  A    between atoms: N_12  and  C_13 
REMARK    3  A    between atoms: C_13  and  C_14 
REMARK    4  A    between atoms: C_14  and  C_15 
ROOT
HETATM    1  C   UNL     1     -41.228 -50.587  11.956  1.00  0.00     0.265 C 
HETATM    2  O   UNL     1     -40.155 -51.105  12.238  1.00  0.00    -0.266 OA
HETATM    3  N   UNL     1     -42.448 -51.219  12.065  1.00  0.00    -0.356 N 
HETATM    4  H   UNL     1     -43.283 -50.673  11.872  1.00  0.00     0.162 HD
ENDROOT
BRANCH   1   5
HETATM    5  C   UNL     1     -41.237 -49.139  11.458  1.00  0.00     0.094 A 
HETATM    6  N   UNL     1     -42.188 -48.734  10.673  1.00  0.00    -0.295 N 
HETATM    7  N   UNL     1     -42.168 -47.431  10.225  1.00  0.00    -0.265 N 
ATOM      8  HN  UNL     1     -42.937 -49.368  10.393  1.00  0.00     0.187 HD
HETATM    9  C   UNL     1     -43.250 -47.025   9.345  1.00  0.00     0.181 C 
HETATM   10  C   UNL     1     -41.194 -46.485  10.509  1.00  0.00     0.238 A 
HETATM   11  C   UNL     1     -40.068 -46.889  11.415  1.00  0.00     0.111 A 
HETATM   12  O   UNL     1     -41.221 -45.339  10.053  1.00  0.00    -0.272 OA
HETATM   13  C   UNL     1     -40.100 -48.297  11.946  1.00  0.00     0.073 A 
ENDBRANCH   1   5
BRANCH   3  14
HETATM   14  C   UNL     1     -42.514 -52.579  12.585  1.00  0.00     0.129 C 
BRANCH  14  15
HETATM   15  C   UNL     1     -43.867 -53.251  12.374  1.00  0.00     0.076 C 
BRANCH  15  16
HETATM   16  C   UNL     1     -44.902 -52.787  13.371  1.00  0.00     0.010 A 
HETATM   17  C   UNL     1     -45.838 -51.811  13.026  1.00  0.00     0.025 A 
HETATM   18  C   UNL     1     -46.741 -51.366  13.991  1.00  0.00     0.003 A 
HETATM   19  C   UNL     1     -46.696 -51.911  15.267  1.00  0.00     0.017 A 
HETATM   20  C   UNL     1     -45.753 -52.892  15.521  1.00  0.00     0.088 A 
HETATM   21  N   UNL     1     -44.862 -53.339  14.607  1.00  0.00    -0.369 N 
ATOM     22  HN  UNL     1     -44.185 -54.065  14.840  1.00  0.00     0.165 HD
ENDBRANCH  15  16
ENDBRANCH  14  15
ENDBRANCH   3  14
TORSDOF 4
ENDMDL
MODEL 5
REMARK VINA RESULT:      -6.2      2.452      6.919
REMARK  4 active torsions:
REMARK  status: ('A' for Active; 'I' for Inactive)
REMARK    1  A    between atoms: C_5  and  C_10 
REMARK       I    between atoms: C_10  and  N_12 
REMARK    2  A    between atoms: N_12  and  C_13 
REMARK    3  A    between atoms: C_13  and  C_14 
REMARK    4  A    between atoms: C_14  and  C_15 
ROOT
HETATM    1  C   UNL     1     -41.431 -52.234  12.164  1.00  0.00     0.265 C 
HETATM    2  O   UNL     1     -40.420 -52.920  12.069  1.00  0.00    -0.266 OA
HETATM    3  N   UNL     1     -41.502 -50.904  11.812  1.00  0.00    -0.356 N 
HETATM    4  H   UNL     1     -42.408 -50.448  11.864  1.00  0.00     0.162 HD
ENDROOT
BRANCH   1   5
HETATM    5  C   UNL     1     -42.712 -52.882  12.696  1.00  0.00     0.094 A 
HETATM    6  N   UNL     1     -43.868 -52.397  12.358  1.00  0.00    -0.295 N 
HETATM    7  N   UNL     1     -45.007 -52.986  12.860  1.00  0.00    -0.265 N 
ATOM      8  HN  UNL     1     -43.931 -51.594  11.731  1.00  0.00     0.187 HD
HETATM    9  C   UNL     1     -46.276 -52.405  12.458  1.00  0.00     0.181 C 
HETATM   10  C   UNL     1     -45.051 -54.059  13.739  1.00  0.00     0.238 A 
HETATM   11  C   UNL     1     -43.749 -54.669  14.167  1.00  0.00     0.111 A 
HETATM   12  O   UNL     1     -46.108 -54.524  14.174  1.00  0.00    -0.272 OA
HETATM   13  C   UNL     1     -42.498 -54.062  13.591  1.00  0.00     0.073 A 
ENDBRANCH   1   5
BRANCH   3  14
HETATM   14  C   UNL     1     -40.332 -50.242  11.247  1.00  0.00     0.129 C 
BRANCH  14  15
HETATM   15  C   UNL     1     -40.216 -48.770  11.631  1.00  0.00     0.076 C 
BRANCH  15  16
HETATM   16  C   UNL     1     -41.276 -47.918  10.974  1.00  0.00     0.010 A 
HETATM   17  C   UNL     1     -41.713 -46.737  11.572  1.00  0.00     0.025 A 
HETATM   18  C   UNL     1     -42.735 -46.007  10.965  1.00  0.00     0.003 A 
HETATM   19  C   UNL     1     -43.285 -46.466   9.775  1.00  0.00     0.017 A 
HETATM   20  C   UNL     1     -42.777 -47.634   9.235  1.00  0.00     0.088 A 
HETATM   21  N   UNL     1     -41.791 -48.366   9.803  1.00  0.00    -0.369 N 
ATOM     22  HN  UNL     1     -41.449 -49.222   9.368  1.00  0.00     0.165 HD
ENDBRANCH  15  16
ENDBRANCH  14  15
ENDBRANCH   3  14
TORSDOF 4
ENDMDL
MODEL 6
REMARK VINA RESULT:      -5.8      2.418      3.017
REMARK  4 active torsions:
REMARK  status: ('A' for Active; 'I' for Inactive)
REMARK    1  A    between atoms: C_5  and  C_10 
REMARK       I    between atoms: C_10  and  N_12 
REMARK    2  A    between atoms: N_12  and  C_13 
REMARK    3  A    between atoms: C_13  and  C_14 
REMARK    4  A    between atoms: C_14  and  C_15 
ROOT
HETATM    1  C   UNL     1     -40.674 -49.198  11.203  1.00  0.00     0.265 C 
HETATM    2  O   UNL     1     -41.223 -50.244  11.528  1.00  0.00    -0.266 OA
HETATM    3  N   UNL     1     -39.320 -48.965  11.312  1.00  0.00    -0.356 N 
HETATM    4  H   UNL     1     -38.959 -48.089  10.948  1.00  0.00     0.162 HD
ENDROOT
BRANCH   1   5
HETATM    5  C   UNL     1     -41.530 -48.066  10.627  1.00  0.00     0.094 A 
HETATM    6  N   UNL     1     -42.591 -48.349   9.935  1.00  0.00    -0.295 N 
HETATM    7  N   UNL     1     -43.337 -47.316   9.413  1.00  0.00    -0.265 N 
ATOM      8  HN  UNL     1     -42.868 -49.319   9.781  1.00  0.00     0.187 HD
HETATM    9  C   UNL     1     -44.513 -47.681   8.643  1.00  0.00     0.181 C 
HETATM   10  C   UNL     1     -43.050 -45.963   9.527  1.00  0.00     0.238 A 
HETATM   11  C   UNL     1     -41.837 -45.568  10.318  1.00  0.00     0.111 A 
HETATM   12  O   UNL     1     -43.748 -45.085   9.012  1.00  0.00    -0.272 OA
HETATM   13  C   UNL     1     -41.037 -46.686  10.930  1.00  0.00     0.073 A 
ENDBRANCH   1   5
BRANCH   3  14
HETATM   14  C   UNL     1     -38.442 -50.021  11.802  1.00  0.00     0.129 C 
BRANCH  14  15
HETATM   15  C   UNL     1     -38.175 -49.950  13.302  1.00  0.00     0.076 C 
BRANCH  15  16
HETATM   16  C   UNL     1     -38.737 -51.139  14.044  1.00  0.00     0.010 A 
HETATM   17  C   UNL     1     -38.380 -51.385  15.370  1.00  0.00     0.025 A 
HETATM   18  C   UNL     1     -38.873 -52.525  16.004  1.00  0.00     0.003 A 
HETATM   19  C   UNL     1     -39.715 -53.381  15.307  1.00  0.00     0.017 A 
HETATM   20  C   UNL     1     -40.041 -53.051  14.003  1.00  0.00     0.088 A 
HETATM   21  N   UNL     1     -39.573 -51.956  13.361  1.00  0.00    -0.369 N 
ATOM     22  HN  UNL     1     -39.841 -51.753  12.398  1.00  0.00     0.165 HD
ENDBRANCH  15  16
ENDBRANCH  14  15
ENDBRANCH   3  14
TORSDOF 4
ENDMDL
MODEL 7
REMARK VINA RESULT:      -5.7      1.826      2.709
REMARK  4 active torsions:
REMARK  status: ('A' for Active; 'I' for Inactive)
REMARK    1  A    between atoms: C_5  and  C_10 
REMARK       I    between atoms: C_10  and  N_12 
REMARK    2  A    between atoms: N_12  and  C_13 
REMARK    3  A    between atoms: C_13  and  C_14 
REMARK    4  A    between atoms: C_14  and  C_15 
ROOT
HETATM    1  C   UNL     1     -40.588 -51.323  12.227  1.00  0.00     0.265 C 
HETATM    2  O   UNL     1     -39.488 -51.807  12.466  1.00  0.00    -0.266 OA
HETATM    3  N   UNL     1     -41.779 -52.007  12.341  1.00  0.00    -0.356 N 
HETATM    4  H   UNL     1     -42.639 -51.489  12.187  1.00  0.00     0.162 HD
ENDROOT
BRANCH   1   5
HETATM    5  C   UNL     1     -40.666 -49.860  11.782  1.00  0.00     0.094 A 
HETATM    6  N   UNL     1     -41.628 -49.475  10.999  1.00  0.00    -0.295 N 
HETATM    7  N   UNL     1     -41.670 -48.158  10.599  1.00  0.00    -0.265 N 
ATOM      8  HN  UNL     1     -42.339 -50.136  10.686  1.00  0.00     0.187 HD
HETATM    9  C   UNL     1     -42.761 -47.776   9.719  1.00  0.00     0.181 C 
HETATM   10  C   UNL     1     -40.750 -47.174  10.930  1.00  0.00     0.238 A 
HETATM   11  C   UNL     1     -39.614 -47.553  11.836  1.00  0.00     0.111 A 
HETATM   12  O   UNL     1     -40.831 -46.015  10.516  1.00  0.00    -0.272 OA
HETATM   13  C   UNL     1     -39.580 -48.979  12.316  1.00  0.00     0.073 A 
ENDBRANCH   1   5
BRANCH   3  14
HETATM   14  C   UNL     1     -41.778 -53.386  12.813  1.00  0.00     0.129 C 
BRANCH  14  15
HETATM   15  C   UNL     1     -42.115 -53.526  14.294  1.00  0.00     0.076 C 
BRANCH  15  16
HETATM   16  C   UNL     1     -43.562 -53.894  14.524  1.00  0.00     0.010 A 
HETATM   17  C   UNL     1     -44.258 -54.666  13.594  1.00  0.00     0.025 A 
HETATM   18  C   UNL     1     -45.608 -54.935  13.812  1.00  0.00     0.003 A 
HETATM   19  C   UNL     1     -46.226 -54.440  14.953  1.00  0.00     0.017 A 
HETATM   20  C   UNL     1     -45.458 -53.704  15.838  1.00  0.00     0.088 A 
HETATM   21  N   UNL     1     -44.148 -53.422  15.650  1.00  0.00    -0.369 N 
ATOM     22  HN  UNL     1     -43.622 -52.874  16.330  1.00  0.00     0.165 HD
ENDBRANCH  15  16
ENDBRANCH  14  15
ENDBRANCH   3  14
TORSDOF 4
ENDMDL
MODEL 8
REMARK VINA RESULT:      -5.6      2.843      4.483
REMARK  4 active torsions:
REMARK  status: ('A' for Active; 'I' for Inactive)
REMARK    1  A    between atoms: C_5  and  C_10 
REMARK       I    between atoms: C_10  and  N_12 
REMARK    2  A    between atoms: N_12  and  C_13 
REMARK    3  A    between atoms: C_13  and  C_14 
REMARK    4  A    between atoms: C_14  and  C_15 
ROOT
HETATM    1  C   UNL     1     -41.362 -52.705  12.722  1.00  0.00     0.265 C 
HETATM    2  O   UNL     1     -40.549 -53.589  12.959  1.00  0.00    -0.266 OA
HETATM    3  N   UNL     1     -42.729 -52.871  12.782  1.00  0.00    -0.356 N 
HETATM    4  H   UNL     1     -43.312 -52.052  12.635  1.00  0.00     0.162 HD
ENDROOT
BRANCH   1   5
HETATM    5  C   UNL     1     -40.847 -51.314  12.343  1.00  0.00     0.094 A 
HETATM    6  N   UNL     1     -39.592 -51.148  12.054  1.00  0.00    -0.295 N 
HETATM    7  N   UNL     1     -39.147 -49.885  11.730  1.00  0.00    -0.265 N 
ATOM      8  HN  UNL     1     -38.947 -51.938  12.067  1.00  0.00     0.187 HD
HETATM    9  C   UNL     1     -37.735 -49.749  11.420  1.00  0.00     0.181 C 
HETATM   10  C   UNL     1     -39.916 -48.731  11.707  1.00  0.00     0.238 A 
HETATM   11  C   UNL     1     -41.377 -48.854  12.027  1.00  0.00     0.111 A 
HETATM   12  O   UNL     1     -39.450 -47.622  11.432  1.00  0.00    -0.272 OA
HETATM   13  C   UNL     1     -41.885 -50.236  12.341  1.00  0.00     0.073 A 
ENDBRANCH   1   5
BRANCH   3  14
HETATM   14  C   UNL     1     -43.284 -54.156  13.191  1.00  0.00     0.129 C 
BRANCH  14  15
HETATM   15  C   UNL     1     -44.791 -54.265  12.986  1.00  0.00     0.076 C 
BRANCH  15  16
HETATM   16  C   UNL     1     -45.566 -53.361  13.915  1.00  0.00     0.010 A 
HETATM   17  C   UNL     1     -46.170 -52.197  13.439  1.00  0.00     0.025 A 
HETATM   18  C   UNL     1     -46.827 -51.357  14.338  1.00  0.00     0.003 A 
HETATM   19  C   UNL     1     -46.874 -51.704  15.682  1.00  0.00     0.017 A 
HETATM   20  C   UNL     1     -46.272 -52.888  16.068  1.00  0.00     0.088 A 
HETATM   21  N   UNL     1     -45.623 -53.719  15.220  1.00  0.00    -0.369 N 
ATOM     22  HN  UNL     1     -45.193 -54.582  15.551  1.00  0.00     0.165 HD
ENDBRANCH  15  16
ENDBRANCH  14  15
ENDBRANCH   3  14
TORSDOF 4
ENDMDL
MODEL 9
REMARK VINA RESULT:      -5.5      3.535      4.543
REMARK  4 active torsions:
REMARK  status: ('A' for Active; 'I' for Inactive)
REMARK    1  A    between atoms: C_5  and  C_10 
REMARK       I    between atoms: C_10  and  N_12 
REMARK    2  A    between atoms: N_12  and  C_13 
REMARK    3  A    between atoms: C_13  and  C_14 
REMARK    4  A    between atoms: C_14  and  C_15 
ROOT
HETATM    1  C   UNL     1     -41.104 -49.132  11.263  1.00  0.00     0.265 C 
HETATM    2  O   UNL     1     -41.715 -50.016  11.850  1.00  0.00    -0.266 OA
HETATM    3  N   UNL     1     -39.736 -49.111  11.098  1.00  0.00    -0.356 N 
HETATM    4  H   UNL     1     -39.339 -48.366  10.533  1.00  0.00     0.162 HD
ENDROOT
BRANCH   1   5
HETATM    5  C   UNL     1     -41.895 -47.969  10.656  1.00  0.00     0.094 A 
HETATM    6  N   UNL     1     -42.964 -48.211   9.960  1.00  0.00    -0.295 N 
HETATM    7  N   UNL     1     -43.651 -47.151   9.411  1.00  0.00    -0.265 N 
ATOM      8  HN  UNL     1     -43.289 -49.168   9.822  1.00  0.00     0.187 HD
HETATM    9  C   UNL     1     -44.837 -47.471   8.637  1.00  0.00     0.181 C 
HETATM   10  C   UNL     1     -43.296 -45.813   9.502  1.00  0.00     0.238 A 
HETATM   11  C   UNL     1     -42.071 -45.465  10.297  1.00  0.00     0.111 A 
HETATM   12  O   UNL     1     -43.942 -44.911   8.964  1.00  0.00    -0.272 OA
HETATM   13  C   UNL     1     -41.335 -46.610  10.938  1.00  0.00     0.073 A 
ENDBRANCH   1   5
BRANCH   3  14
HETATM   14  C   UNL     1     -38.930 -50.216  11.604  1.00  0.00     0.129 C 
BRANCH  14  15
HETATM   15  C   UNL     1     -37.585 -49.781  12.176  1.00  0.00     0.076 C 
BRANCH  15  16
HETATM   16  C   UNL     1     -37.671 -49.420  13.639  1.00  0.00     0.010 A 
HETATM   17  C   UNL     1     -37.602 -50.407  14.623  1.00  0.00     0.025 A 
HETATM   18  C   UNL     1     -37.744 -50.041  15.961  1.00  0.00     0.003 A 
HETATM   19  C   UNL     1     -37.938 -48.705  16.285  1.00  0.00     0.017 A 
HETATM   20  C   UNL     1     -37.969 -47.785  15.251  1.00  0.00     0.088 A 
HETATM   21  N   UNL     1     -37.840 -48.111  13.944  1.00  0.00    -0.369 N 
ATOM     22  HN  UNL     1     -37.870 -47.398  13.216  1.00  0.00     0.165 HD
ENDBRANCH  15  16
ENDBRANCH  14  15
ENDBRANCH   3  14
TORSDOF 4
ENDMDL
