MODEL 1
REMARK VINA RESULT:      -6.2      0.000      0.000
REMARK  4 active torsions:
REMARK  status: ('A' for Active; 'I' for Inactive)
REMARK    1  A    between atoms: O_2  and  C_3 
REMARK    2  A    between atoms: C_6  and  N_7 
REMARK       I    between atoms: N_7  and  C_8 
REMARK       I    between atoms: C_8  and  N_10 
REMARK    3  A    between atoms: N_10  and  C_11 
REMARK    4  A    between atoms: C_14  and  O_15 
ROOT
HETATM    1  N   UNL     1     -41.017 -50.516  11.454  1.00  0.00    -0.308 N 
HETATM    2  C   UNL     1     -41.964 -49.620  11.898  1.00  0.00     0.321 C 
HETATM    3  O   UNL     1     -42.388 -49.552  13.042  1.00  0.00    -0.247 OA
HETATM    4  N   UNL     1     -42.413 -48.773  10.913  1.00  0.00    -0.338 N 
HETATM    5  H   UNL     1     -40.449 -50.223  10.673  1.00  0.00     0.170 HD
HETATM    6  H   UNL     1     -42.066 -48.887   9.972  1.00  0.00     0.164 HD
ENDROOT
BRANCH   1   7
HETATM    7  C   UNL     1     -40.581 -51.641  12.196  1.00  0.00     0.051 A 
HETATM    8  C   UNL     1     -39.647 -51.548  13.230  1.00  0.00     0.035 A 
HETATM    9  C   UNL     1     -39.277 -52.684  13.942  1.00  0.00     0.058 A 
HETATM   10  C   UNL     1     -39.844 -53.895  13.590  1.00  0.00     0.141 A 
HETATM   11  N   UNL     1     -40.765 -54.036  12.612  1.00  0.00    -0.345 N 
HETATM   12  C   UNL     1     -41.115 -52.904  11.947  1.00  0.00     0.119 A 
ATOM     13  HN  UNL     1     -41.175 -54.942  12.385  1.00  0.00     0.167 HD
BRANCH  10  14
HETATM   14  O   UNL     1     -39.455 -54.982  14.344  1.00  0.00    -0.341 OA
HETATM   15  C   UNL     1     -38.927 -54.608  15.610  1.00  0.00     0.211 C 
ENDBRANCH  10  14
ENDBRANCH   1   7
BRANCH   4  16
HETATM   16  C   UNL     1     -43.420 -47.754  11.208  1.00  0.00     0.086 C 
HETATM   17  C   UNL     1     -44.533 -47.662  10.150  1.00  0.00     0.028 C 
HETATM   18  C   UNL     1     -44.081 -47.043   8.827  1.00  0.00     0.034 C 
HETATM   19  C   UNL     1     -43.269 -45.756   8.981  1.00  0.00     0.118 C 
HETATM   20  C   UNL     1     -42.234 -45.798  10.106  1.00  0.00     0.034 C 
HETATM   21  C   UNL     1     -42.785 -46.379  11.409  1.00  0.00     0.028 C 
BRANCH  19  22
HETATM   22  O   UNL     1     -44.142 -44.646   9.184  1.00  0.00    -0.396 OA
HETATM   23  H   UNL     1     -44.411 -44.620  10.115  1.00  0.00     0.210 HD
ENDBRANCH  19  22
ENDBRANCH   4  16
TORSDOF 4
ENDMDL
MODEL 2
REMARK VINA RESULT:      -6.1      3.246      7.302
REMARK  4 active torsions:
REMARK  status: ('A' for Active; 'I' for Inactive)
REMARK    1  A    between atoms: O_2  and  C_3 
REMARK    2  A    between atoms: C_6  and  N_7 
REMARK       I    between atoms: N_7  and  C_8 
REMARK       I    between atoms: C_8  and  N_10 
REMARK    3  A    between atoms: N_10  and  C_11 
REMARK    4  A    between atoms: C_14  and  O_15 
ROOT
HETATM    1  N   UNL     1     -42.227 -49.370  11.348  1.00  0.00    -0.308 N 
HETATM    2  C   UNL     1     -42.910 -49.661  12.508  1.00  0.00     0.321 C 
HETATM    3  O   UNL     1     -43.288 -48.838  13.329  1.00  0.00    -0.247 OA
HETATM    4  N   UNL     1     -43.145 -51.005  12.677  1.00  0.00    -0.338 N 
HETATM    5  H   UNL     1     -42.348 -50.012  10.579  1.00  0.00     0.170 HD
HETATM    6  H   UNL     1     -42.785 -51.655  11.994  1.00  0.00     0.164 HD
ENDROOT
BRANCH   1   7
HETATM    7  C   UNL     1     -41.652 -48.107  11.063  1.00  0.00     0.051 A 
HETATM    8  C   UNL     1     -40.425 -47.699  11.590  1.00  0.00     0.035 A 
HETATM    9  C   UNL     1     -39.898 -46.457  11.253  1.00  0.00     0.058 A 
HETATM   10  C   UNL     1     -40.622 -45.644  10.402  1.00  0.00     0.141 A 
HETATM   11  N   UNL     1     -41.803 -45.998   9.849  1.00  0.00    -0.345 N 
HETATM   12  C   UNL     1     -42.281 -47.223  10.188  1.00  0.00     0.119 A 
ATOM     13  HN  UNL     1     -42.307 -45.380   9.213  1.00  0.00     0.167 HD
BRANCH  10  14
HETATM   14  O   UNL     1     -40.040 -44.434  10.087  1.00  0.00    -0.341 OA
HETATM   15  C   UNL     1     -40.363 -43.413  11.022  1.00  0.00     0.211 C 
ENDBRANCH  10  14
ENDBRANCH   1   7
BRANCH   4  16
HETATM   16  C   UNL     1     -43.862 -51.495  13.854  1.00  0.00     0.086 C 
HETATM   17  C   UNL     1     -43.397 -52.884  14.324  1.00  0.00     0.028 C 
HETATM   18  C   UNL     1     -43.829 -54.026  13.404  1.00  0.00     0.034 C 
HETATM   19  C   UNL     1     -45.300 -53.976  12.988  1.00  0.00     0.118 C 
HETATM   20  C   UNL     1     -45.801 -52.578  12.625  1.00  0.00     0.034 C 
HETATM   21  C   UNL     1     -45.373 -51.505  13.627  1.00  0.00     0.028 C 
BRANCH  19  22
HETATM   22  O   UNL     1     -46.121 -54.519  14.021  1.00  0.00    -0.396 OA
HETATM   23  H   UNL     1     -45.783 -54.225  14.882  1.00  0.00     0.210 HD
ENDBRANCH  19  22
ENDBRANCH   4  16
TORSDOF 4
ENDMDL
MODEL 3
REMARK VINA RESULT:      -5.5      2.769      7.557
REMARK  4 active torsions:
REMARK  status: ('A' for Active; 'I' for Inactive)
REMARK    1  A    between atoms: O_2  and  C_3 
REMARK    2  A    between atoms: C_6  and  N_7 
REMARK       I    between atoms: N_7  and  C_8 
REMARK       I    between atoms: C_8  and  N_10 
REMARK    3  A    between atoms: N_10  and  C_11 
REMARK    4  A    between atoms: C_14  and  O_15 
ROOT
HETATM    1  N   UNL     1     -42.802 -49.331  12.378  1.00  0.00    -0.308 N 
HETATM    2  C   UNL     1     -42.291 -50.606  12.270  1.00  0.00     0.321 C 
HETATM    3  O   UNL     1     -41.172 -50.885  11.863  1.00  0.00    -0.247 OA
HETATM    4  N   UNL     1     -43.173 -51.580  12.673  1.00  0.00    -0.338 N 
HETATM    5  H   UNL     1     -43.502 -49.184  13.088  1.00  0.00     0.170 HD
HETATM    6  H   UNL     1     -44.100 -51.311  12.967  1.00  0.00     0.164 HD
ENDROOT
BRANCH   1   7
HETATM    7  C   UNL     1     -42.198 -48.185  11.805  1.00  0.00     0.051 A 
HETATM    8  C   UNL     1     -41.328 -47.355  12.514  1.00  0.00     0.035 A 
HETATM    9  C   UNL     1     -40.744 -46.258  11.890  1.00  0.00     0.058 A 
HETATM   10  C   UNL     1     -41.058 -46.009  10.567  1.00  0.00     0.141 A 
HETATM   11  N   UNL     1     -41.878 -46.791   9.831  1.00  0.00    -0.345 N 
HETATM   12  C   UNL     1     -42.419 -47.863  10.467  1.00  0.00     0.119 A 
ATOM     13  HN  UNL     1     -42.079 -46.588   8.851  1.00  0.00     0.167 HD
BRANCH  10  14
HETATM   14  O   UNL     1     -40.434 -44.921   9.995  1.00  0.00    -0.341 OA
HETATM   15  C   UNL     1     -40.261 -43.847  10.911  1.00  0.00     0.211 C 
ENDBRANCH  10  14
ENDBRANCH   1   7
BRANCH   4  16
HETATM   16  C   UNL     1     -42.796 -52.993  12.629  1.00  0.00     0.086 C 
HETATM   17  C   UNL     1     -43.991 -53.944  12.440  1.00  0.00     0.028 C 
HETATM   18  C   UNL     1     -44.885 -54.069  13.674  1.00  0.00     0.034 C 
HETATM   19  C   UNL     1     -44.122 -54.289  14.982  1.00  0.00     0.118 C 
HETATM   20  C   UNL     1     -42.869 -53.426  15.129  1.00  0.00     0.034 C 
HETATM   21  C   UNL     1     -42.002 -53.401  13.869  1.00  0.00     0.028 C 
BRANCH  19  22
HETATM   22  O   UNL     1     -43.768 -55.664  15.118  1.00  0.00    -0.396 OA
HETATM   23  H   UNL     1     -44.191 -56.172  14.408  1.00  0.00     0.210 HD
ENDBRANCH  19  22
ENDBRANCH   4  16
TORSDOF 4
ENDMDL
MODEL 4
REMARK VINA RESULT:      -5.4      1.662      8.209
REMARK  4 active torsions:
REMARK  status: ('A' for Active; 'I' for Inactive)
REMARK    1  A    between atoms: O_2  and  C_3 
REMARK    2  A    between atoms: C_6  and  N_7 
REMARK       I    between atoms: N_7  and  C_8 
REMARK       I    between atoms: C_8  and  N_10 
REMARK    3  A    between atoms: N_10  and  C_11 
REMARK    4  A    between atoms: C_14  and  O_15 
ROOT
HETATM    1  N   UNL     1     -41.259 -50.414  13.012  1.00  0.00    -0.308 N 
HETATM    2  C   UNL     1     -41.325 -51.767  12.759  1.00  0.00     0.321 C 
HETATM    3  O   UNL     1     -41.580 -52.270  11.675  1.00  0.00    -0.247 OA
HETATM    4  N   UNL     1     -41.070 -52.539  13.868  1.00  0.00    -0.338 N 
HETATM    5  H   UNL     1     -40.649 -50.124  13.761  1.00  0.00     0.170 HD
HETATM    6  H   UNL     1     -40.901 -52.085  14.753  1.00  0.00     0.164 HD
ENDROOT
BRANCH   1   7
HETATM    7  C   UNL     1     -41.717 -49.418  12.116  1.00  0.00     0.051 A 
HETATM    8  C   UNL     1     -43.009 -48.891  12.166  1.00  0.00     0.035 A 
HETATM    9  C   UNL     1     -43.392 -47.894  11.275  1.00  0.00     0.058 A 
HETATM   10  C   UNL     1     -42.472 -47.456  10.342  1.00  0.00     0.141 A 
HETATM   11  N   UNL     1     -41.205 -47.918  10.263  1.00  0.00    -0.345 N 
HETATM   12  C   UNL     1     -40.859 -48.880  11.158  1.00  0.00     0.119 A 
ATOM     13  HN  UNL     1     -40.545 -47.564   9.570  1.00  0.00     0.167 HD
BRANCH  10  14
HETATM   14  O   UNL     1     -42.902 -46.453   9.499  1.00  0.00    -0.341 OA
HETATM   15  C   UNL     1     -44.120 -46.776   8.841  1.00  0.00     0.211 C 
ENDBRANCH  10  14
ENDBRANCH   1   7
BRANCH   4  16
HETATM   16  C   UNL     1     -41.094 -53.999  13.782  1.00  0.00     0.086 C 
HETATM   17  C   UNL     1     -41.900 -54.670  14.907  1.00  0.00     0.028 C 
HETATM   18  C   UNL     1     -41.218 -54.615  16.275  1.00  0.00     0.034 C 
HETATM   19  C   UNL     1     -39.739 -55.009  16.255  1.00  0.00     0.118 C 
HETATM   20  C   UNL     1     -38.954 -54.436  15.075  1.00  0.00     0.034 C 
HETATM   21  C   UNL     1     -39.683 -54.583  13.738  1.00  0.00     0.028 C 
BRANCH  19  22
HETATM   22  O   UNL     1     -39.610 -56.429  16.264  1.00  0.00    -0.396 OA
HETATM   23  H   UNL     1     -40.471 -56.825  16.473  1.00  0.00     0.210 HD
ENDBRANCH  19  22
ENDBRANCH   4  16
TORSDOF 4
ENDMDL
MODEL 5
REMARK VINA RESULT:      -5.3      3.011      3.962
REMARK  4 active torsions:
REMARK  status: ('A' for Active; 'I' for Inactive)
REMARK    1  A    between atoms: O_2  and  C_3 
REMARK    2  A    between atoms: C_6  and  N_7 
REMARK       I    between atoms: N_7  and  C_8 
REMARK       I    between atoms: C_8  and  N_10 
REMARK    3  A    between atoms: N_10  and  C_11 
REMARK    4  A    between atoms: C_14  and  O_15 
ROOT
HETATM    1  N   UNL     1     -42.233 -49.054  12.738  1.00  0.00    -0.308 N 
HETATM    2  C   UNL     1     -42.251 -48.189  11.665  1.00  0.00     0.321 C 
HETATM    3  O   UNL     1     -42.927 -48.332  10.656  1.00  0.00    -0.247 OA
HETATM    4  N   UNL     1     -41.418 -47.108  11.825  1.00  0.00    -0.338 N 
HETATM    5  H   UNL     1     -42.011 -48.654  13.637  1.00  0.00     0.170 HD
HETATM    6  H   UNL     1     -40.849 -47.047  12.656  1.00  0.00     0.164 HD
ENDROOT
BRANCH   1   7
HETATM    7  C   UNL     1     -42.803 -50.350  12.720  1.00  0.00     0.051 A 
HETATM    8  C   UNL     1     -44.076 -50.623  13.225  1.00  0.00     0.035 A 
HETATM    9  C   UNL     1     -44.594 -51.912  13.155  1.00  0.00     0.058 A 
HETATM   10  C   UNL     1     -43.816 -52.904  12.591  1.00  0.00     0.141 A 
HETATM   11  N   UNL     1     -42.588 -52.690  12.070  1.00  0.00    -0.345 N 
HETATM   12  C   UNL     1     -42.118 -51.417  12.141  1.00  0.00     0.119 A 
ATOM     13  HN  UNL     1     -42.043 -53.442  11.647  1.00  0.00     0.167 HD
BRANCH  10  14
HETATM   14  O   UNL     1     -44.389 -54.157  12.530  1.00  0.00    -0.341 OA
HETATM   15  C   UNL     1     -45.112 -54.484  13.710  1.00  0.00     0.211 C 
ENDBRANCH  10  14
ENDBRANCH   1   7
BRANCH   4  16
HETATM   16  C   UNL     1     -41.313 -46.086  10.785  1.00  0.00     0.086 C 
HETATM   17  C   UNL     1     -39.894 -45.514  10.622  1.00  0.00     0.028 C 
HETATM   18  C   UNL     1     -39.459 -44.601  11.769  1.00  0.00     0.034 C 
HETATM   19  C   UNL     1     -40.503 -43.557  12.171  1.00  0.00     0.118 C 
HETATM   20  C   UNL     1     -41.934 -44.091  12.227  1.00  0.00     0.034 C 
HETATM   21  C   UNL     1     -42.306 -44.947  11.015  1.00  0.00     0.028 C 
BRANCH  19  22
HETATM   22  O   UNL     1     -40.449 -42.442  11.283  1.00  0.00    -0.396 OA
HETATM   23  H   UNL     1     -40.160 -42.746  10.408  1.00  0.00     0.210 HD
ENDBRANCH  19  22
ENDBRANCH   4  16
TORSDOF 4
ENDMDL
MODEL 6
REMARK VINA RESULT:      -5.2      4.437      6.518
REMARK  4 active torsions:
REMARK  status: ('A' for Active; 'I' for Inactive)
REMARK    1  A    between atoms: O_2  and  C_3 
REMARK    2  A    between atoms: C_6  and  N_7 
REMARK       I    between atoms: N_7  and  C_8 
REMARK       I    between atoms: C_8  and  N_10 
REMARK    3  A    between atoms: N_10  and  C_11 
REMARK    4  A    between atoms: C_14  and  O_15 
ROOT
HETATM    1  N   UNL     1     -41.233 -50.623  14.202  1.00  0.00    -0.308 N 
HETATM    2  C   UNL     1     -39.960 -50.479  13.696  1.00  0.00     0.321 C 
HETATM    3  O   UNL     1     -39.525 -51.053  12.709  1.00  0.00    -0.247 OA
HETATM    4  N   UNL     1     -39.185 -49.602  14.418  1.00  0.00    -0.338 N 
HETATM    5  H   UNL     1     -41.611 -49.835  14.705  1.00  0.00     0.170 HD
HETATM    6  H   UNL     1     -39.570 -49.178  15.249  1.00  0.00     0.164 HD
ENDROOT
BRANCH   1   7
HETATM    7  C   UNL     1     -42.136 -51.637  13.798  1.00  0.00     0.051 A 
HETATM    8  C   UNL     1     -42.002 -52.970  14.193  1.00  0.00     0.035 A 
HETATM    9  C   UNL     1     -42.936 -53.916  13.786  1.00  0.00     0.058 A 
HETATM   10  C   UNL     1     -43.979 -53.506  12.977  1.00  0.00     0.141 A 
HETATM   11  N   UNL     1     -44.165 -52.228  12.582  1.00  0.00    -0.345 N 
HETATM   12  C   UNL     1     -43.243 -51.326  13.011  1.00  0.00     0.119 A 
ATOM     13  HN  UNL     1     -44.953 -51.954  11.995  1.00  0.00     0.167 HD
BRANCH  10  14
HETATM   14  O   UNL     1     -44.885 -54.484  12.622  1.00  0.00    -0.341 OA
HETATM   15  C   UNL     1     -45.452 -55.138  13.749  1.00  0.00     0.211 C 
ENDBRANCH  10  14
ENDBRANCH   1   7
BRANCH   4  16
HETATM   16  C   UNL     1     -37.805 -49.325  14.021  1.00  0.00     0.086 C 
HETATM   17  C   UNL     1     -36.780 -50.294  14.636  1.00  0.00     0.028 C 
HETATM   18  C   UNL     1     -36.548 -50.082  16.133  1.00  0.00     0.034 C 
HETATM   19  C   UNL     1     -36.334 -48.621  16.534  1.00  0.00     0.118 C 
HETATM   20  C   UNL     1     -37.277 -47.637  15.841  1.00  0.00     0.034 C 
HETATM   21  C   UNL     1     -37.408 -47.884  14.338  1.00  0.00     0.028 C 
BRANCH  19  22
HETATM   22  O   UNL     1     -34.983 -48.237  16.285  1.00  0.00    -0.396 OA
HETATM   23  H   UNL     1     -34.436 -49.034  16.210  1.00  0.00     0.210 HD
ENDBRANCH  19  22
ENDBRANCH   4  16
TORSDOF 4
ENDMDL
MODEL 7
REMARK VINA RESULT:      -5.2      6.593      8.447
REMARK  4 active torsions:
REMARK  status: ('A' for Active; 'I' for Inactive)
REMARK    1  A    between atoms: O_2  and  C_3 
REMARK    2  A    between atoms: C_6  and  N_7 
REMARK       I    between atoms: N_7  and  C_8 
REMARK       I    between atoms: C_8  and  N_10 
REMARK    3  A    between atoms: N_10  and  C_11 
REMARK    4  A    between atoms: C_14  and  O_15 
ROOT
HETATM    1  N   UNL     1     -45.021 -51.964  16.468  1.00  0.00    -0.308 N 
HETATM    2  C   UNL     1     -44.902 -52.847  15.417  1.00  0.00     0.321 C 
HETATM    3  O   UNL     1     -45.817 -53.500  14.938  1.00  0.00    -0.247 OA
HETATM    4  N   UNL     1     -43.621 -52.939  14.927  1.00  0.00    -0.338 N 
HETATM    5  H   UNL     1     -44.362 -51.201  16.493  1.00  0.00     0.170 HD
HETATM    6  H   UNL     1     -42.886 -52.411  15.375  1.00  0.00     0.164 HD
ENDROOT
BRANCH   1   7
HETATM    7  C   UNL     1     -46.163 -51.872  17.299  1.00  0.00     0.051 A 
HETATM    8  C   UNL     1     -47.194 -50.959  17.068  1.00  0.00     0.035 A 
HETATM    9  C   UNL     1     -48.306 -50.933  17.903  1.00  0.00     0.058 A 
HETATM   10  C   UNL     1     -48.352 -51.817  18.965  1.00  0.00     0.141 A 
HETATM   11  N   UNL     1     -47.392 -52.732  19.221  1.00  0.00    -0.345 N 
HETATM   12  C   UNL     1     -46.328 -52.741  18.376  1.00  0.00     0.119 A 
ATOM     13  HN  UNL     1     -47.462 -53.382  20.005  1.00  0.00     0.167 HD
BRANCH  10  14
HETATM   14  O   UNL     1     -49.487 -51.760  19.746  1.00  0.00    -0.341 OA
HETATM   15  C   UNL     1     -49.830 -53.022  20.304  1.00  0.00     0.211 C 
ENDBRANCH  10  14
ENDBRANCH   1   7
BRANCH   4  16
HETATM   16  C   UNL     1     -43.311 -53.828  13.808  1.00  0.00     0.086 C 
HETATM   17  C   UNL     1     -41.935 -54.506  13.920  1.00  0.00     0.028 C 
HETATM   18  C   UNL     1     -40.757 -53.559  13.686  1.00  0.00     0.034 C 
HETATM   19  C   UNL     1     -40.905 -52.666  12.453  1.00  0.00     0.118 C 
HETATM   20  C   UNL     1     -42.304 -52.076  12.271  1.00  0.00     0.034 C 
HETATM   21  C   UNL     1     -43.421 -53.101  12.467  1.00  0.00     0.028 C 
BRANCH  19  22
HETATM   22  O   UNL     1     -40.540 -53.387  11.278  1.00  0.00    -0.396 OA
HETATM   23  H   UNL     1     -39.577 -53.502  11.262  1.00  0.00     0.210 HD
ENDBRANCH  19  22
ENDBRANCH   4  16
TORSDOF 4
ENDMDL
MODEL 8
REMARK VINA RESULT:      -4.8      4.009      7.849
REMARK  4 active torsions:
REMARK  status: ('A' for Active; 'I' for Inactive)
REMARK    1  A    between atoms: O_2  and  C_3 
REMARK    2  A    between atoms: C_6  and  N_7 
REMARK       I    between atoms: N_7  and  C_8 
REMARK       I    between atoms: C_8  and  N_10 
REMARK    3  A    between atoms: N_10  and  C_11 
REMARK    4  A    between atoms: C_14  and  O_15 
ROOT
HETATM    1  N   UNL     1     -41.164 -48.177  13.127  1.00  0.00    -0.308 N 
HETATM    2  C   UNL     1     -40.132 -47.370  13.555  1.00  0.00     0.321 C 
HETATM    3  O   UNL     1     -39.846 -46.280  13.080  1.00  0.00    -0.247 OA
HETATM    4  N   UNL     1     -39.422 -47.907  14.602  1.00  0.00    -0.338 N 
HETATM    5  H   UNL     1     -41.570 -48.793  13.815  1.00  0.00     0.170 HD
HETATM    6  H   UNL     1     -39.666 -48.825  14.941  1.00  0.00     0.164 HD
ENDROOT
BRANCH   1   7
HETATM    7  C   UNL     1     -41.881 -47.973  11.924  1.00  0.00     0.051 A 
HETATM    8  C   UNL     1     -43.122 -47.333  11.882  1.00  0.00     0.035 A 
HETATM    9  C   UNL     1     -43.767 -47.138  10.666  1.00  0.00     0.058 A 
HETATM   10  C   UNL     1     -43.158 -47.603   9.516  1.00  0.00     0.141 A 
HETATM   11  N   UNL     1     -41.952 -48.211   9.498  1.00  0.00    -0.345 N 
HETATM   12  C   UNL     1     -41.343 -48.372  10.702  1.00  0.00     0.119 A 
ATOM     13  HN  UNL     1     -41.523 -48.532   8.630  1.00  0.00     0.167 HD
BRANCH  10  14
HETATM   14  O   UNL     1     -43.835 -47.363   8.338  1.00  0.00    -0.341 OA
HETATM   15  C   UNL     1     -43.442 -48.244   7.294  1.00  0.00     0.211 C 
ENDBRANCH  10  14
ENDBRANCH   1   7
BRANCH   4  16
HETATM   16  C   UNL     1     -38.292 -47.184  15.186  1.00  0.00     0.086 C 
HETATM   17  C   UNL     1     -36.924 -47.806  14.856  1.00  0.00     0.028 C 
HETATM   18  C   UNL     1     -36.650 -49.121  15.587  1.00  0.00     0.034 C 
HETATM   19  C   UNL     1     -36.968 -49.086  17.084  1.00  0.00     0.118 C 
HETATM   20  C   UNL     1     -38.273 -48.369  17.430  1.00  0.00     0.034 C 
HETATM   21  C   UNL     1     -38.442 -47.037  16.700  1.00  0.00     0.028 C 
BRANCH  19  22
HETATM   22  O   UNL     1     -35.892 -48.482  17.799  1.00  0.00    -0.396 OA
HETATM   23  H   UNL     1     -36.186 -47.628  18.153  1.00  0.00     0.210 HD
ENDBRANCH  19  22
ENDBRANCH   4  16
TORSDOF 4
ENDMDL
MODEL 9
REMARK VINA RESULT:      -4.7     13.919     16.391
REMARK  4 active torsions:
REMARK  status: ('A' for Active; 'I' for Inactive)
REMARK    1  A    between atoms: O_2  and  C_3 
REMARK    2  A    between atoms: C_6  and  N_7 
REMARK       I    between atoms: N_7  and  C_8 
REMARK       I    between atoms: C_8  and  N_10 
REMARK    3  A    between atoms: N_10  and  C_11 
REMARK    4  A    between atoms: C_14  and  O_15 
ROOT
HETATM    1  N   UNL     1     -51.167 -51.521  -1.722  1.00  0.00    -0.308 N 
HETATM    2  C   UNL     1     -50.354 -51.181  -0.663  1.00  0.00     0.321 C 
HETATM    3  O   UNL     1     -49.865 -51.970   0.132  1.00  0.00    -0.247 OA
HETATM    4  N   UNL     1     -50.125 -49.829  -0.567  1.00  0.00    -0.338 N 
HETATM    5  H   UNL     1     -51.152 -50.904  -2.520  1.00  0.00     0.170 HD
HETATM    6  H   UNL     1     -50.578 -49.207  -1.221  1.00  0.00     0.164 HD
ENDROOT
BRANCH   1   7
HETATM    7  C   UNL     1     -51.750 -52.800  -1.894  1.00  0.00     0.051 A 
HETATM    8  C   UNL     1     -52.570 -53.394  -0.933  1.00  0.00     0.035 A 
HETATM    9  C   UNL     1     -53.136 -54.642  -1.170  1.00  0.00     0.058 A 
HETATM   10  C   UNL     1     -52.853 -55.276  -2.365  1.00  0.00     0.141 A 
HETATM   11  N   UNL     1     -52.083 -54.738  -3.336  1.00  0.00    -0.345 N 
HETATM   12  C   UNL     1     -51.559 -53.512  -3.078  1.00  0.00     0.119 A 
ATOM     13  HN  UNL     1     -51.904 -55.226  -4.214  1.00  0.00     0.167 HD
BRANCH  10  14
HETATM   14  O   UNL     1     -53.458 -56.501  -2.553  1.00  0.00    -0.341 OA
HETATM   15  C   UNL     1     -52.750 -57.323  -3.472  1.00  0.00     0.211 C 
ENDBRANCH  10  14
ENDBRANCH   1   7
BRANCH   4  16
HETATM   16  C   UNL     1     -49.280 -49.289   0.498  1.00  0.00     0.086 C 
HETATM   17  C   UNL     1     -49.992 -49.188   1.858  1.00  0.00     0.028 C 
HETATM   18  C   UNL     1     -51.042 -48.078   1.926  1.00  0.00     0.034 C 
HETATM   19  C   UNL     1     -50.568 -46.731   1.376  1.00  0.00     0.118 C 
HETATM   20  C   UNL     1     -49.763 -46.832   0.080  1.00  0.00     0.034 C 
HETATM   21  C   UNL     1     -48.697 -47.929   0.117  1.00  0.00     0.028 C 
BRANCH  19  22
HETATM   22  O   UNL     1     -49.798 -46.043   2.359  1.00  0.00    -0.396 OA
HETATM   23  H   UNL     1     -49.804 -45.094   2.159  1.00  0.00     0.210 HD
ENDBRANCH  19  22
ENDBRANCH   4  16
TORSDOF 4
ENDMDL
