MODEL 1
REMARK VINA RESULT:      -6.1      0.000      0.000
REMARK  2 active torsions:
REMARK  status: ('A' for Active; 'I' for Inactive)
REMARK    1  A    between atoms: C_5  and  N_6 
REMARK       I    between atoms: N_6  and  C_7 
REMARK       I    between atoms: C_7  and  N_9 
REMARK    2  A    between atoms: N_9  and  C_10 
ROOT
HETATM    1  N   UNL     1     -41.238 -49.268  10.653  1.00  0.00    -0.295 N 
HETATM    2  C   UNL     1     -41.678 -48.044  10.190  1.00  0.00     0.322 C 
HETATM    3  O   UNL     1     -42.676 -47.958   9.479  1.00  0.00    -0.247 OA
HETATM    4  N   UNL     1     -40.860 -47.011  10.490  1.00  0.00    -0.336 N 
HETATM    5  H   UNL     1     -41.743 -50.056  10.277  1.00  0.00     0.172 HD
HETATM    6  H   UNL     1     -40.305 -47.213  11.318  1.00  0.00     0.164 HD
ENDROOT
BRANCH   1   7
HETATM    7  C   UNL     1     -40.107 -49.500  11.460  1.00  0.00     0.108 A 
HETATM    8  C   UNL     1     -40.222 -49.379  12.840  1.00  0.00     0.052 A 
HETATM    9  C   UNL     1     -39.122 -49.715  13.636  1.00  0.00     0.047 A 
HETATM   10  C   UNL     1     -37.942 -50.118  13.035  1.00  0.00     0.131 A 
HETATM   11  F   UNL     1     -36.879 -50.460  13.773  1.00  0.00    -0.205 F 
HETATM   12  C   UNL     1     -37.886 -50.171  11.660  1.00  0.00     0.132 A 
HETATM   13  N   UNL     1     -38.943 -49.875  10.867  1.00  0.00    -0.349 N 
ATOM     14  HN  UNL     1     -38.867 -49.931   9.852  1.00  0.00     0.167 HD
ENDBRANCH   1   7
BRANCH   4  15
HETATM   15  C   UNL     1     -40.959 -45.611  10.162  1.00  0.00     0.117 C 
HETATM   16  C   UNL     1     -39.682 -44.772  10.295  1.00  0.00     0.059 C 
HETATM   17  C   UNL     1     -40.109 -43.677  11.283  1.00  0.00     0.124 C 
HETATM   18  C   UNL     1     -40.181 -44.225  12.705  1.00  0.00     0.034 C 
HETATM   19  O   UNL     1     -41.515 -43.519  10.979  1.00  0.00    -0.378 OA
HETATM   20  C   UNL     1     -41.407 -45.131  12.626  1.00  0.00     0.036 C 
HETATM   21  C   UNL     1     -41.880 -44.901  11.179  1.00  0.00     0.144 C 
ENDBRANCH   4  15
TORSDOF 2
ENDMDL
MODEL 2
REMARK VINA RESULT:      -5.8      5.283      7.733
REMARK  2 active torsions:
REMARK  status: ('A' for Active; 'I' for Inactive)
REMARK    1  A    between atoms: C_5  and  N_6 
REMARK       I    between atoms: N_6  and  C_7 
REMARK       I    between atoms: C_7  and  N_9 
REMARK    2  A    between atoms: N_9  and  C_10 
ROOT
HETATM    1  N   UNL     1     -43.297 -50.012  12.542  1.00  0.00    -0.295 N 
HETATM    2  C   UNL     1     -42.052 -50.544  12.276  1.00  0.00     0.322 C 
HETATM    3  O   UNL     1     -41.227 -49.923  11.611  1.00  0.00    -0.247 OA
HETATM    4  N   UNL     1     -41.888 -51.815  12.703  1.00  0.00    -0.336 N 
HETATM    5  H   UNL     1     -43.483 -49.142  12.067  1.00  0.00     0.172 HD
HETATM    6  H   UNL     1     -42.513 -52.023  13.479  1.00  0.00     0.164 HD
ENDROOT
BRANCH   1   7
HETATM    7  C   UNL     1     -44.330 -50.626  13.278  1.00  0.00     0.108 A 
HETATM    8  C   UNL     1     -44.286 -50.592  14.667  1.00  0.00     0.052 A 
HETATM    9  C   UNL     1     -45.369 -51.111  15.384  1.00  0.00     0.047 A 
HETATM   10  C   UNL     1     -46.431 -51.679  14.702  1.00  0.00     0.131 A 
HETATM   11  F   UNL     1     -47.486 -52.169  15.362  1.00  0.00    -0.205 F 
HETATM   12  C   UNL     1     -46.385 -51.719  13.326  1.00  0.00     0.132 A 
HETATM   13  N   UNL     1     -45.361 -51.203  12.607  1.00  0.00    -0.349 N 
ATOM     14  HN  UNL     1     -45.364 -51.245  11.588  1.00  0.00     0.167 HD
ENDBRANCH   1   7
BRANCH   4  15
HETATM   15  C   UNL     1     -40.762 -52.706  12.588  1.00  0.00     0.117 C 
HETATM   16  C   UNL     1     -40.991 -54.174  12.971  1.00  0.00     0.059 C 
HETATM   17  C   UNL     1     -39.941 -54.395  14.070  1.00  0.00     0.124 C 
HETATM   18  C   UNL     1     -40.377 -53.738  15.377  1.00  0.00     0.034 C 
HETATM   19  O   UNL     1     -38.874 -53.507  13.659  1.00  0.00    -0.378 OA
HETATM   20  C   UNL     1     -40.234 -52.256  15.041  1.00  0.00     0.036 C 
HETATM   21  C   UNL     1     -39.673 -52.306  13.608  1.00  0.00     0.144 C 
ENDBRANCH   4  15
TORSDOF 2
ENDMDL
MODEL 3
REMARK VINA RESULT:      -5.8      4.564      6.833
REMARK  2 active torsions:
REMARK  status: ('A' for Active; 'I' for Inactive)
REMARK    1  A    between atoms: C_5  and  N_6 
REMARK       I    between atoms: N_6  and  C_7 
REMARK       I    between atoms: C_7  and  N_9 
REMARK    2  A    between atoms: N_9  and  C_10 
ROOT
HETATM    1  N   UNL     1     -40.616 -50.694  11.503  1.00  0.00    -0.295 N 
HETATM    2  C   UNL     1     -41.096 -51.855  12.074  1.00  0.00     0.322 C 
HETATM    3  O   UNL     1     -40.435 -52.890  12.056  1.00  0.00    -0.247 OA
HETATM    4  N   UNL     1     -42.366 -51.767  12.528  1.00  0.00    -0.336 N 
HETATM    5  H   UNL     1     -39.748 -50.809  11.004  1.00  0.00     0.172 HD
HETATM    6  H   UNL     1     -42.608 -50.804  12.750  1.00  0.00     0.164 HD
ENDROOT
BRANCH   1   7
HETATM    7  C   UNL     1     -41.279 -49.452  11.447  1.00  0.00     0.108 A 
HETATM    8  C   UNL     1     -41.531 -48.764  12.628  1.00  0.00     0.052 A 
HETATM    9  C   UNL     1     -42.093 -47.485  12.551  1.00  0.00     0.047 A 
HETATM   10  C   UNL     1     -42.423 -46.957  11.315  1.00  0.00     0.131 A 
HETATM   11  F   UNL     1     -42.948 -45.731  11.211  1.00  0.00    -0.205 F 
HETATM   12  C   UNL     1     -42.187 -47.715  10.189  1.00  0.00     0.132 A 
HETATM   13  N   UNL     1     -41.622 -48.945  10.233  1.00  0.00    -0.349 N 
ATOM     14  HN  UNL     1     -41.457 -49.476   9.379  1.00  0.00     0.167 HD
ENDBRANCH   1   7
BRANCH   4  15
HETATM   15  C   UNL     1     -43.211 -52.755  13.148  1.00  0.00     0.117 C 
HETATM   16  C   UNL     1     -44.317 -53.370  12.282  1.00  0.00     0.059 C 
HETATM   17  C   UNL     1     -45.585 -53.047  13.088  1.00  0.00     0.124 C 
HETATM   18  C   UNL     1     -45.961 -51.576  12.942  1.00  0.00     0.034 C 
HETATM   19  O   UNL     1     -45.097 -53.073  14.450  1.00  0.00    -0.378 OA
HETATM   20  C   UNL     1     -44.850 -50.892  13.737  1.00  0.00     0.036 C 
HETATM   21  C   UNL     1     -44.050 -52.097  14.266  1.00  0.00     0.144 C 
ENDBRANCH   4  15
TORSDOF 2
ENDMDL
MODEL 4
REMARK VINA RESULT:      -5.7      4.493      5.528
REMARK  2 active torsions:
REMARK  status: ('A' for Active; 'I' for Inactive)
REMARK    1  A    between atoms: C_5  and  N_6 
REMARK       I    between atoms: N_6  and  C_7 
REMARK       I    between atoms: C_7  and  N_9 
REMARK    2  A    between atoms: N_9  and  C_10 
ROOT
HETATM    1  N   UNL     1     -42.226 -52.698  12.818  1.00  0.00    -0.295 N 
HETATM    2  C   UNL     1     -41.320 -51.932  12.113  1.00  0.00     0.322 C 
HETATM    3  O   UNL     1     -40.197 -52.358  11.856  1.00  0.00    -0.247 OA
HETATM    4  N   UNL     1     -41.739 -50.675  11.854  1.00  0.00    -0.336 N 
HETATM    5  H   UNL     1     -41.848 -53.564  13.170  1.00  0.00     0.172 HD
HETATM    6  H   UNL     1     -42.755 -50.624  11.844  1.00  0.00     0.164 HD
ENDROOT
BRANCH   1   7
HETATM    7  C   UNL     1     -43.533 -52.322  13.186  1.00  0.00     0.108 A 
HETATM    8  C   UNL     1     -43.720 -51.542  14.322  1.00  0.00     0.052 A 
HETATM    9  C   UNL     1     -45.009 -51.087  14.617  1.00  0.00     0.047 A 
HETATM   10  C   UNL     1     -46.066 -51.455  13.803  1.00  0.00     0.131 A 
HETATM   11  F   UNL     1     -47.307 -51.022  14.053  1.00  0.00    -0.205 F 
HETATM   12  C   UNL     1     -45.814 -52.267  12.720  1.00  0.00     0.132 A 
HETATM   13  N   UNL     1     -44.573 -52.702  12.397  1.00  0.00    -0.349 N 
ATOM     14  HN  UNL     1     -44.422 -53.298  11.584  1.00  0.00     0.167 HD
ENDBRANCH   1   7
BRANCH   4  15
HETATM   15  C   UNL     1     -41.078 -49.585  11.181  1.00  0.00     0.117 C 
HETATM   16  C   UNL     1     -39.983 -48.846  11.959  1.00  0.00     0.059 C 
HETATM   17  C   UNL     1     -40.491 -47.396  11.946  1.00  0.00     0.124 C 
HETATM   18  C   UNL     1     -41.644 -47.215  12.929  1.00  0.00     0.034 C 
HETATM   19  O   UNL     1     -41.195 -47.329  10.683  1.00  0.00    -0.378 OA
HETATM   20  C   UNL     1     -42.764 -47.991  12.240  1.00  0.00     0.036 C 
HETATM   21  C   UNL     1     -42.083 -48.439  10.933  1.00  0.00     0.144 C 
ENDBRANCH   4  15
TORSDOF 2
ENDMDL
MODEL 5
REMARK VINA RESULT:      -5.7      6.238      7.733
REMARK  2 active torsions:
REMARK  status: ('A' for Active; 'I' for Inactive)
REMARK    1  A    between atoms: C_5  and  N_6 
REMARK       I    between atoms: N_6  and  C_7 
REMARK       I    between atoms: C_7  and  N_9 
REMARK    2  A    between atoms: N_9  and  C_10 
ROOT
HETATM    1  N   UNL     1     -44.238 -53.148  11.855  1.00  0.00    -0.295 N 
HETATM    2  C   UNL     1     -45.373 -52.656  12.468  1.00  0.00     0.322 C 
HETATM    3  O   UNL     1     -46.453 -52.647  11.884  1.00  0.00    -0.247 OA
HETATM    4  N   UNL     1     -45.152 -52.098  13.678  1.00  0.00    -0.336 N 
HETATM    5  H   UNL     1     -44.367 -53.394  10.886  1.00  0.00     0.172 HD
HETATM    6  H   UNL     1     -44.315 -52.483  14.110  1.00  0.00     0.164 HD
ENDROOT
BRANCH   1   7
HETATM    7  C   UNL     1     -42.944 -53.202  12.409  1.00  0.00     0.108 A 
HETATM    8  C   UNL     1     -42.698 -54.059  13.476  1.00  0.00     0.052 A 
HETATM    9  C   UNL     1     -41.387 -54.182  13.947  1.00  0.00     0.047 A 
HETATM   10  C   UNL     1     -40.381 -53.423  13.375  1.00  0.00     0.131 A 
HETATM   11  F   UNL     1     -39.116 -53.531  13.796  1.00  0.00    -0.205 F 
HETATM   12  C   UNL     1     -40.706 -52.560  12.352  1.00  0.00     0.132 A 
HETATM   13  N   UNL     1     -41.962 -52.440  11.860  1.00  0.00    -0.349 N 
ATOM     14  HN  UNL     1     -42.166 -51.795  11.097  1.00  0.00     0.167 HD
ENDBRANCH   1   7
BRANCH   4  15
HETATM   15  C   UNL     1     -46.062 -51.462  14.597  1.00  0.00     0.117 C 
HETATM   16  C   UNL     1     -45.449 -50.795  15.835  1.00  0.00     0.059 C 
HETATM   17  C   UNL     1     -46.167 -51.515  16.987  1.00  0.00     0.124 C 
HETATM   18  C   UNL     1     -45.612 -52.924  17.177  1.00  0.00     0.034 C 
HETATM   19  O   UNL     1     -47.461 -51.806  16.407  1.00  0.00    -0.378 OA
HETATM   20  C   UNL     1     -46.136 -53.634  15.931  1.00  0.00     0.036 C 
HETATM   21  C   UNL     1     -46.966 -52.525  15.258  1.00  0.00     0.144 C 
ENDBRANCH   4  15
TORSDOF 2
ENDMDL
MODEL 6
REMARK VINA RESULT:      -5.5      6.744      8.754
REMARK  2 active torsions:
REMARK  status: ('A' for Active; 'I' for Inactive)
REMARK    1  A    between atoms: C_5  and  N_6 
REMARK       I    between atoms: N_6  and  C_7 
REMARK       I    between atoms: C_7  and  N_9 
REMARK    2  A    between atoms: N_9  and  C_10 
ROOT
HETATM    1  N   UNL     1     -42.713 -52.709  11.820  1.00  0.00    -0.295 N 
HETATM    2  C   UNL     1     -41.444 -52.729  12.362  1.00  0.00     0.322 C 
HETATM    3  O   UNL     1     -40.453 -52.546  11.659  1.00  0.00    -0.247 OA
HETATM    4  N   UNL     1     -41.403 -53.076  13.666  1.00  0.00    -0.336 N 
HETATM    5  H   UNL     1     -42.731 -52.633  10.815  1.00  0.00     0.172 HD
HETATM    6  H   UNL     1     -42.285 -52.867  14.128  1.00  0.00     0.164 HD
ENDROOT
BRANCH   1   7
HETATM    7  C   UNL     1     -43.922 -52.916  12.513  1.00  0.00     0.108 A 
HETATM    8  C   UNL     1     -44.276 -54.207  12.888  1.00  0.00     0.052 A 
HETATM    9  C   UNL     1     -45.424 -54.388  13.667  1.00  0.00     0.047 A 
HETATM   10  C   UNL     1     -46.198 -53.292  14.007  1.00  0.00     0.131 A 
HETATM   11  F   UNL     1     -47.292 -53.433  14.763  1.00  0.00    -0.205 F 
HETATM   12  C   UNL     1     -45.811 -52.047  13.561  1.00  0.00     0.132 A 
HETATM   13  N   UNL     1     -44.692 -51.842  12.827  1.00  0.00    -0.349 N 
ATOM     14  HN  UNL     1     -44.433 -50.905  12.519  1.00  0.00     0.167 HD
ENDBRANCH   1   7
BRANCH   4  15
HETATM   15  C   UNL     1     -40.283 -53.235  14.560  1.00  0.00     0.117 C 
HETATM   16  C   UNL     1     -39.511 -54.557  14.482  1.00  0.00     0.059 C 
HETATM   17  C   UNL     1     -39.615 -55.085  15.921  1.00  0.00     0.124 C 
HETATM   18  C   UNL     1     -41.009 -55.641  16.196  1.00  0.00     0.034 C 
HETATM   19  O   UNL     1     -39.650 -53.863  16.695  1.00  0.00    -0.378 OA
HETATM   20  C   UNL     1     -41.851 -54.367  16.222  1.00  0.00     0.036 C 
HETATM   21  C   UNL     1     -40.783 -53.276  16.021  1.00  0.00     0.144 C 
ENDBRANCH   4  15
TORSDOF 2
ENDMDL
MODEL 7
REMARK VINA RESULT:      -5.2      6.702      8.542
REMARK  2 active torsions:
REMARK  status: ('A' for Active; 'I' for Inactive)
REMARK    1  A    between atoms: C_5  and  N_6 
REMARK       I    between atoms: N_6  and  C_7 
REMARK       I    between atoms: C_7  and  N_9 
REMARK    2  A    between atoms: N_9  and  C_10 
ROOT
HETATM    1  N   UNL     1     -44.464 -54.197  15.750  1.00  0.00    -0.295 N 
HETATM    2  C   UNL     1     -43.098 -54.292  15.927  1.00  0.00     0.322 C 
HETATM    3  O   UNL     1     -42.623 -54.995  16.814  1.00  0.00    -0.247 OA
HETATM    4  N   UNL     1     -42.377 -53.471  15.132  1.00  0.00    -0.336 N 
HETATM    5  H   UNL     1     -45.005 -54.665  16.461  1.00  0.00     0.172 HD
HETATM    6  H   UNL     1     -42.892 -53.237  14.287  1.00  0.00     0.164 HD
ENDROOT
BRANCH   1   7
HETATM    7  C   UNL     1     -45.130 -53.419  14.783  1.00  0.00     0.108 A 
HETATM    8  C   UNL     1     -45.842 -52.296  15.190  1.00  0.00     0.052 A 
HETATM    9  C   UNL     1     -46.411 -51.473  14.211  1.00  0.00     0.047 A 
HETATM   10  C   UNL     1     -46.289 -51.816  12.876  1.00  0.00     0.131 A 
HETATM   11  F   UNL     1     -46.809 -51.039  11.919  1.00  0.00    -0.205 F 
HETATM   12  C   UNL     1     -45.608 -52.967  12.549  1.00  0.00     0.132 A 
HETATM   13  N   UNL     1     -45.027 -53.768  13.474  1.00  0.00    -0.349 N 
ATOM     14  HN  UNL     1     -44.526 -54.611  13.195  1.00  0.00     0.167 HD
ENDBRANCH   1   7
BRANCH   4  15
HETATM   15  C   UNL     1     -40.954 -53.263  15.044  1.00  0.00     0.117 C 
HETATM   16  C   UNL     1     -40.471 -51.820  14.856  1.00  0.00     0.059 C 
HETATM   17  C   UNL     1     -39.658 -51.911  13.556  1.00  0.00     0.124 C 
HETATM   18  C   UNL     1     -40.581 -52.011  12.345  1.00  0.00     0.034 C 
HETATM   19  O   UNL     1     -39.135 -53.260  13.614  1.00  0.00    -0.378 OA
HETATM   20  C   UNL     1     -41.153 -53.417  12.506  1.00  0.00     0.036 C 
HETATM   21  C   UNL     1     -40.409 -53.922  13.757  1.00  0.00     0.144 C 
ENDBRANCH   4  15
TORSDOF 2
ENDMDL
MODEL 8
REMARK VINA RESULT:      -5.2      3.598      5.753
REMARK  2 active torsions:
REMARK  status: ('A' for Active; 'I' for Inactive)
REMARK    1  A    between atoms: C_5  and  N_6 
REMARK       I    between atoms: N_6  and  C_7 
REMARK       I    between atoms: C_7  and  N_9 
REMARK    2  A    between atoms: N_9  and  C_10 
ROOT
HETATM    1  N   UNL     1     -43.079 -49.967  12.325  1.00  0.00    -0.295 N 
HETATM    2  C   UNL     1     -42.145 -50.962  12.535  1.00  0.00     0.322 C 
HETATM    3  O   UNL     1     -42.481 -52.069  12.945  1.00  0.00    -0.247 OA
HETATM    4  N   UNL     1     -40.865 -50.566  12.363  1.00  0.00    -0.336 N 
HETATM    5  H   UNL     1     -44.010 -50.207  12.629  1.00  0.00     0.172 HD
HETATM    6  H   UNL     1     -40.811 -49.768  11.734  1.00  0.00     0.164 HD
ENDROOT
BRANCH   1   7
HETATM    7  C   UNL     1     -42.821 -48.659  11.872  1.00  0.00     0.108 A 
HETATM    8  C   UNL     1     -42.712 -47.629  12.800  1.00  0.00     0.052 A 
HETATM    9  C   UNL     1     -42.351 -46.356  12.347  1.00  0.00     0.047 A 
HETATM   10  C   UNL     1     -42.154 -46.142  10.994  1.00  0.00     0.131 A 
HETATM   11  F   UNL     1     -41.794 -44.938  10.535  1.00  0.00    -0.205 F 
HETATM   12  C   UNL     1     -42.324 -47.198  10.127  1.00  0.00     0.132 A 
HETATM   13  N   UNL     1     -42.649 -48.446  10.541  1.00  0.00    -0.349 N 
ATOM     14  HN  UNL     1     -42.761 -49.207   9.871  1.00  0.00     0.167 HD
ENDBRANCH   1   7
BRANCH   4  15
HETATM   15  C   UNL     1     -39.630 -51.292  12.516  1.00  0.00     0.117 C 
HETATM   16  C   UNL     1     -39.077 -51.436  13.939  1.00  0.00     0.059 C 
HETATM   17  C   UNL     1     -37.679 -50.811  13.814  1.00  0.00     0.124 C 
HETATM   18  C   UNL     1     -37.769 -49.289  13.748  1.00  0.00     0.034 C 
HETATM   19  O   UNL     1     -37.323 -51.124  12.447  1.00  0.00    -0.378 OA
HETATM   20  C   UNL     1     -38.380 -49.075  12.366  1.00  0.00     0.036 C 
HETATM   21  C   UNL     1     -38.480 -50.517  11.835  1.00  0.00     0.144 C 
ENDBRANCH   4  15
TORSDOF 2
ENDMDL
MODEL 9
REMARK VINA RESULT:      -5.1      1.797      2.116
REMARK  2 active torsions:
REMARK  status: ('A' for Active; 'I' for Inactive)
REMARK    1  A    between atoms: C_5  and  N_6 
REMARK       I    between atoms: N_6  and  C_7 
REMARK       I    between atoms: C_7  and  N_9 
REMARK    2  A    between atoms: N_9  and  C_10 
ROOT
HETATM    1  N   UNL     1     -41.064 -49.155  10.254  1.00  0.00    -0.295 N 
HETATM    2  C   UNL     1     -42.046 -48.200  10.417  1.00  0.00     0.322 C 
HETATM    3  O   UNL     1     -42.792 -47.895   9.491  1.00  0.00    -0.247 OA
HETATM    4  N   UNL     1     -42.021 -47.578  11.616  1.00  0.00    -0.336 N 
HETATM    5  H   UNL     1     -40.964 -49.486   9.306  1.00  0.00     0.172 HD
HETATM    6  H   UNL     1     -41.584 -48.165  12.323  1.00  0.00     0.164 HD
ENDROOT
BRANCH   1   7
HETATM    7  C   UNL     1     -40.141 -49.583  11.229  1.00  0.00     0.108 A 
HETATM    8  C   UNL     1     -40.466 -50.663  12.042  1.00  0.00     0.052 A 
HETATM    9  C   UNL     1     -39.501 -51.145  12.932  1.00  0.00     0.047 A 
HETATM   10  C   UNL     1     -38.271 -50.514  13.014  1.00  0.00     0.131 A 
HETATM   11  F   UNL     1     -37.324 -50.963  13.846  1.00  0.00    -0.205 F 
HETATM   12  C   UNL     1     -38.035 -49.421  12.210  1.00  0.00     0.132 A 
HETATM   13  N   UNL     1     -38.942 -48.950  11.322  1.00  0.00    -0.349 N 
ATOM     14  HN  UNL     1     -38.732 -48.141  10.738  1.00  0.00     0.167 HD
ENDBRANCH   1   7
BRANCH   4  15
HETATM   15  C   UNL     1     -42.849 -46.522  12.143  1.00  0.00     0.117 C 
HETATM   16  C   UNL     1     -42.265 -45.104  12.128  1.00  0.00     0.059 C 
HETATM   17  C   UNL     1     -42.329 -44.707  13.610  1.00  0.00     0.124 C 
HETATM   18  C   UNL     1     -41.231 -45.406  14.407  1.00  0.00     0.034 C 
HETATM   19  O   UNL     1     -43.500 -45.421  14.070  1.00  0.00    -0.378 OA
HETATM   20  C   UNL     1     -41.721 -46.852  14.405  1.00  0.00     0.036 C 
HETATM   21  C   UNL     1     -43.062 -46.733  13.658  1.00  0.00     0.144 C 
ENDBRANCH   4  15
TORSDOF 2
ENDMDL
