MODEL 1
REMARK VINA RESULT:      -7.4      0.000      0.000
REMARK  6 active torsions:
REMARK  status: ('A' for Active; 'I' for Inactive)
REMARK    1  A    between atoms: N_2  and  C_13 
REMARK    2  A    between atoms: C_6  and  N_7 
REMARK    3  A    between atoms: C_13  and  C_18 
REMARK    4  A    between atoms: C_18  and  C_24 
REMARK    5  A    between atoms: C_18  and  C_27 
REMARK    6  A    between atoms: C_27  and  O_29 
ROOT
HETATM    1  C   UNL     1     -40.823 -49.975  12.899  1.00  0.00     0.117 A 
HETATM    2  N   UNL     1     -40.120 -51.466  14.346  1.00  0.00    -0.327 N 
HETATM    3  C   UNL     1     -39.714 -50.727  13.265  1.00  0.00     0.140 A 
HETATM    4  N   UNL     1     -41.909 -50.329  13.679  1.00  0.00    -0.346 N 
ATOM      5  HN  UNL     1     -42.861 -49.970  13.611  1.00  0.00     0.167 HD
HETATM    6  C   UNL     1     -40.626 -48.999  11.885  1.00  0.00     0.114 A 
HETATM    7  C   UNL     1     -41.455 -51.228  14.527  1.00  0.00     0.185 A 
HETATM    8  N   UNL     1     -38.478 -50.685  12.748  1.00  0.00    -0.336 N 
ATOM      9  HN  UNL     1     -37.697 -51.257  13.068  1.00  0.00     0.168 HD
HETATM   10  N   UNL     1     -39.380 -48.971  11.311  1.00  0.00    -0.341 N 
ATOM     11  HN  UNL     1     -39.189 -48.327  10.544  1.00  0.00     0.167 HD
HETATM   12  C   UNL     1     -38.408 -49.789  11.754  1.00  0.00     0.183 A 
ENDROOT
BRANCH   6  13
HETATM   13  N   UNL     1     -41.597 -48.042  11.463  1.00  0.00    -0.267 NA
HETATM   14  C   UNL     1     -41.997 -48.291  10.071  1.00  0.00     0.108 C 
HETATM   15  C   UNL     1     -43.097 -47.326   9.608  1.00  0.00    -0.004 C 
HETATM   16  C   UNL     1     -44.445 -47.622  10.308  1.00  0.00     0.115 C 
HETATM   17  C   UNL     1     -43.376 -47.577   8.117  1.00  0.00     0.133 C 
HETATM   18  C   UNL     1     -42.631 -45.877   9.844  1.00  0.00     0.014 C 
HETATM   19  C   UNL     1     -45.456 -47.650   9.195  1.00  0.00     0.218 C 
HETATM   20  N   UNL     1     -44.796 -47.603   7.992  1.00  0.00    -0.360 N 
HETATM   21  O   UNL     1     -46.664 -47.725   9.317  1.00  0.00    -0.274 OA
HETATM   22  H   UNL     1     -45.313 -47.700   7.125  1.00  0.00     0.162 HD
HETATM   23  C   UNL     1     -42.202 -45.648  11.293  1.00  0.00     0.016 C 
HETATM   24  C   UNL     1     -41.158 -46.668  11.753  1.00  0.00     0.097 C 
ENDBRANCH   6  13
BRANCH   2  25
HETATM   25  C   UNL     1     -39.227 -52.070  15.306  1.00  0.00     0.138 C 
BRANCH  25  26
HETATM   26  C   UNL     1     -38.977 -53.588  15.184  1.00  0.00     0.034 C 
BRANCH  26  27
HETATM   27  C   UNL     1     -39.442 -54.381  16.435  1.00  0.00     0.019 C 
HETATM   28  C   UNL     1     -38.523 -55.553  16.790  1.00  0.00     0.172 C 
HETATM   29  O   UNL     1     -39.268 -56.746  16.528  1.00  0.00    -0.391 OA
HETATM   30  C   UNL     1     -40.634 -56.436  16.806  1.00  0.00     0.168 C 
HETATM   31  C   UNL     1     -40.823 -55.019  16.311  1.00  0.00     0.033 C 
ENDBRANCH  26  27
BRANCH  26  32
HETATM   32  C   UNL     1     -39.632 -54.075  13.875  1.00  0.00     0.170 C 
BRANCH  32  33
HETATM   33  O   UNL     1     -38.801 -55.057  13.263  1.00  0.00    -0.400 OA
HETATM   34  H   UNL     1     -39.040 -55.928  13.623  1.00  0.00     0.209 HD
ENDBRANCH  32  33
ENDBRANCH  26  32
ENDBRANCH  25  26
ENDBRANCH   2  25
TORSDOF 6
ENDMDL
MODEL 2
REMARK VINA RESULT:      -7.4      2.918      8.218
REMARK  6 active torsions:
REMARK  status: ('A' for Active; 'I' for Inactive)
REMARK    1  A    between atoms: N_2  and  C_13 
REMARK    2  A    between atoms: C_6  and  N_7 
REMARK    3  A    between atoms: C_13  and  C_18 
REMARK    4  A    between atoms: C_18  and  C_24 
REMARK    5  A    between atoms: C_18  and  C_27 
REMARK    6  A    between atoms: C_27  and  O_29 
ROOT
HETATM    1  C   UNL     1     -41.777 -50.134  12.154  1.00  0.00     0.117 A 
HETATM    2  N   UNL     1     -42.328 -48.273  11.134  1.00  0.00    -0.327 N 
HETATM    3  C   UNL     1     -41.254 -49.071  11.430  1.00  0.00     0.140 A 
HETATM    4  N   UNL     1     -43.126 -49.930  12.380  1.00  0.00    -0.346 N 
ATOM      5  HN  UNL     1     -43.760 -50.527  12.911  1.00  0.00     0.167 HD
HETATM    6  C   UNL     1     -40.886 -51.199  12.460  1.00  0.00     0.114 A 
HETATM    7  C   UNL     1     -43.420 -48.805  11.763  1.00  0.00     0.185 A 
HETATM    8  N   UNL     1     -39.991 -48.891  11.019  1.00  0.00    -0.336 N 
ATOM      9  HN  UNL     1     -39.666 -48.090  10.477  1.00  0.00     0.168 HD
HETATM   10  N   UNL     1     -39.577 -51.014  12.087  1.00  0.00    -0.341 N 
ATOM     11  HN  UNL     1     -38.879 -51.719  12.322  1.00  0.00     0.167 HD
HETATM   12  C   UNL     1     -39.212 -49.908  11.415  1.00  0.00     0.183 A 
ENDROOT
BRANCH   6  13
HETATM   13  N   UNL     1     -41.256 -52.431  13.075  1.00  0.00    -0.267 NA
HETATM   14  C   UNL     1     -42.352 -52.223  14.032  1.00  0.00     0.108 C 
HETATM   15  C   UNL     1     -42.827 -53.542  14.658  1.00  0.00    -0.004 C 
HETATM   16  C   UNL     1     -43.566 -54.427  13.626  1.00  0.00     0.115 C 
HETATM   17  C   UNL     1     -43.890 -53.226  15.723  1.00  0.00     0.133 C 
HETATM   18  C   UNL     1     -41.621 -54.268  15.283  1.00  0.00     0.014 C 
HETATM   19  C   UNL     1     -44.827 -54.856  14.324  1.00  0.00     0.218 C 
HETATM   20  N   UNL     1     -44.943 -54.161  15.502  1.00  0.00    -0.360 N 
HETATM   21  O   UNL     1     -45.639 -55.665  13.917  1.00  0.00    -0.274 OA
HETATM   22  H   UNL     1     -45.779 -54.256  16.068  1.00  0.00     0.162 HD
HETATM   23  C   UNL     1     -40.488 -54.455  14.274  1.00  0.00     0.016 C 
HETATM   24  C   UNL     1     -40.082 -53.138  13.611  1.00  0.00     0.097 C 
ENDBRANCH   6  13
BRANCH   2  25
HETATM   25  C   UNL     1     -42.352 -47.294  10.072  1.00  0.00     0.138 C 
BRANCH  25  26
HETATM   26  C   UNL     1     -42.868 -45.883  10.421  1.00  0.00     0.034 C 
BRANCH  26  27
HETATM   27  C   UNL     1     -41.752 -44.944  10.953  1.00  0.00     0.019 C 
HETATM   28  C   UNL     1     -40.359 -45.290  10.420  1.00  0.00     0.172 C 
HETATM   29  O   UNL     1     -39.610 -45.785  11.535  1.00  0.00    -0.391 OA
HETATM   30  C   UNL     1     -40.087 -45.082  12.683  1.00  0.00     0.168 C 
HETATM   31  C   UNL     1     -41.579 -44.951  12.469  1.00  0.00     0.033 C 
ENDBRANCH  26  27
BRANCH  26  32
HETATM   32  C   UNL     1     -43.597 -45.322   9.182  1.00  0.00     0.170 C 
BRANCH  32  33
HETATM   33  O   UNL     1     -44.181 -44.062   9.502  1.00  0.00    -0.400 OA
HETATM   34  H   UNL     1     -43.479 -43.391   9.503  1.00  0.00     0.209 HD
ENDBRANCH  32  33
ENDBRANCH  26  32
ENDBRANCH  25  26
ENDBRANCH   2  25
TORSDOF 6
ENDMDL
MODEL 3
REMARK VINA RESULT:      -7.4      3.400      4.122
REMARK  6 active torsions:
REMARK  status: ('A' for Active; 'I' for Inactive)
REMARK    1  A    between atoms: N_2  and  C_13 
REMARK    2  A    between atoms: C_6  and  N_7 
REMARK    3  A    between atoms: C_13  and  C_18 
REMARK    4  A    between atoms: C_18  and  C_24 
REMARK    5  A    between atoms: C_18  and  C_27 
REMARK    6  A    between atoms: C_27  and  O_29 
ROOT
HETATM    1  C   UNL     1     -41.666 -48.945  12.487  1.00  0.00     0.117 A 
HETATM    2  N   UNL     1     -42.645 -50.907  12.553  1.00  0.00    -0.327 N 
HETATM    3  C   UNL     1     -41.563 -50.251  12.025  1.00  0.00     0.140 A 
HETATM    4  N   UNL     1     -42.844 -48.789  13.195  1.00  0.00    -0.346 N 
ATOM      5  HN  UNL     1     -43.201 -47.933  13.620  1.00  0.00     0.167 HD
HETATM    6  C   UNL     1     -40.574 -48.080  12.207  1.00  0.00     0.114 A 
HETATM    7  C   UNL     1     -43.408 -49.979  13.207  1.00  0.00     0.185 A 
HETATM    8  N   UNL     1     -40.578 -50.797  11.299  1.00  0.00    -0.336 N 
ATOM      9  HN  UNL     1     -40.552 -51.771  10.997  1.00  0.00     0.168 HD
HETATM   10  N   UNL     1     -39.576 -48.606  11.425  1.00  0.00    -0.341 N 
ATOM     11  HN  UNL     1     -38.788 -48.021  11.147  1.00  0.00     0.167 HD
HETATM   12  C   UNL     1     -39.631 -49.889  11.023  1.00  0.00     0.183 A 
ENDROOT
BRANCH   6  13
HETATM   13  N   UNL     1     -40.428 -46.751  12.703  1.00  0.00    -0.267 NA
HETATM   14  C   UNL     1     -40.409 -45.784  11.596  1.00  0.00     0.108 C 
HETATM   15  C   UNL     1     -40.328 -44.336  12.099  1.00  0.00    -0.004 C 
HETATM   16  C   UNL     1     -41.644 -43.898  12.785  1.00  0.00     0.115 C 
HETATM   17  C   UNL     1     -40.198 -43.401  10.886  1.00  0.00     0.133 C 
HETATM   18  C   UNL     1     -39.114 -44.193  13.036  1.00  0.00     0.014 C 
HETATM   19  C   UNL     1     -41.968 -42.563  12.174  1.00  0.00     0.218 C 
HETATM   20  N   UNL     1     -41.111 -42.332  11.126  1.00  0.00    -0.360 N 
HETATM   21  O   UNL     1     -42.854 -41.806  12.520  1.00  0.00    -0.274 OA
HETATM   22  H   UNL     1     -41.236 -41.516  10.538  1.00  0.00     0.162 HD
HETATM   23  C   UNL     1     -39.146 -45.221  14.167  1.00  0.00     0.016 C 
HETATM   24  C   UNL     1     -39.300 -46.650  13.643  1.00  0.00     0.097 C 
ENDBRANCH   6  13
BRANCH   2  25
HETATM   25  C   UNL     1     -42.744 -52.341  12.694  1.00  0.00     0.138 C 
BRANCH  25  26
HETATM   26  C   UNL     1     -41.825 -53.016  13.733  1.00  0.00     0.034 C 
BRANCH  26  27
HETATM   27  C   UNL     1     -42.598 -53.553  14.967  1.00  0.00     0.019 C 
HETATM   28  C   UNL     1     -42.822 -55.068  14.935  1.00  0.00     0.172 C 
HETATM   29  O   UNL     1     -44.227 -55.266  14.750  1.00  0.00    -0.391 OA
HETATM   30  C   UNL     1     -44.877 -54.181  15.413  1.00  0.00     0.168 C 
HETATM   31  C   UNL     1     -44.001 -52.977  15.144  1.00  0.00     0.033 C 
ENDBRANCH  26  27
BRANCH  26  32
HETATM   32  C   UNL     1     -41.004 -54.102  13.008  1.00  0.00     0.170 C 
BRANCH  32  33
HETATM   33  O   UNL     1     -40.623 -53.631  11.718  1.00  0.00    -0.400 OA
HETATM   34  H   UNL     1     -39.768 -53.175  11.799  1.00  0.00     0.209 HD
ENDBRANCH  32  33
ENDBRANCH  26  32
ENDBRANCH  25  26
ENDBRANCH   2  25
TORSDOF 6
ENDMDL
MODEL 4
REMARK VINA RESULT:      -7.3      1.581      2.003
REMARK  6 active torsions:
REMARK  status: ('A' for Active; 'I' for Inactive)
REMARK    1  A    between atoms: N_2  and  C_13 
REMARK    2  A    between atoms: C_6  and  N_7 
REMARK    3  A    between atoms: C_13  and  C_18 
REMARK    4  A    between atoms: C_18  and  C_24 
REMARK    5  A    between atoms: C_18  and  C_27 
REMARK    6  A    between atoms: C_27  and  O_29 
ROOT
HETATM    1  C   UNL     1     -41.102 -50.685  12.069  1.00  0.00     0.117 A 
HETATM    2  N   UNL     1     -40.749 -52.762  12.678  1.00  0.00    -0.327 N 
HETATM    3  C   UNL     1     -40.122 -51.551  12.536  1.00  0.00     0.140 A 
HETATM    4  N   UNL     1     -42.273 -51.383  11.835  1.00  0.00    -0.346 N 
ATOM      5  HN  UNL     1     -43.146 -51.015  11.458  1.00  0.00     0.167 HD
HETATM    6  C   UNL     1     -40.750 -49.311  11.980  1.00  0.00     0.114 A 
HETATM    7  C   UNL     1     -42.023 -52.622  12.202  1.00  0.00     0.185 A 
HETATM    8  N   UNL     1     -38.856 -51.266  12.873  1.00  0.00    -0.336 N 
ATOM      9  HN  UNL     1     -38.182 -51.946  13.222  1.00  0.00     0.168 HD
HETATM   10  N   UNL     1     -39.445 -49.004  12.276  1.00  0.00    -0.341 N 
ATOM     11  HN  UNL     1     -39.117 -48.043  12.183  1.00  0.00     0.167 HD
HETATM   12  C   UNL     1     -38.597 -49.964  12.687  1.00  0.00     0.183 A 
ENDROOT
BRANCH   6  13
HETATM   13  N   UNL     1     -41.647 -48.251  11.653  1.00  0.00    -0.267 NA
HETATM   14  C   UNL     1     -41.990 -48.286  10.224  1.00  0.00     0.108 C 
HETATM   15  C   UNL     1     -43.013 -47.205   9.851  1.00  0.00    -0.004 C 
HETATM   16  C   UNL     1     -44.407 -47.511  10.447  1.00  0.00     0.115 C 
HETATM   17  C   UNL     1     -43.230 -47.236   8.330  1.00  0.00     0.133 C 
HETATM   18  C   UNL     1     -42.482 -45.830  10.302  1.00  0.00     0.014 C 
HETATM   19  C   UNL     1     -45.362 -47.329   9.299  1.00  0.00     0.218 C 
HETATM   20  N   UNL     1     -44.642 -47.161   8.143  1.00  0.00    -0.360 N 
HETATM   21  O   UNL     1     -46.576 -47.349   9.359  1.00  0.00    -0.274 OA
HETATM   22  H   UNL     1     -45.119 -47.110   7.250  1.00  0.00     0.162 HD
HETATM   23  C   UNL     1     -42.114 -45.824  11.786  1.00  0.00     0.016 C 
HETATM   24  C   UNL     1     -41.151 -46.956  12.146  1.00  0.00     0.097 C 
ENDBRANCH   6  13
BRANCH   2  25
HETATM   25  C   UNL     1     -40.264 -53.842  13.505  1.00  0.00     0.138 C 
BRANCH  25  26
HETATM   26  C   UNL     1     -40.097 -53.561  15.013  1.00  0.00     0.034 C 
BRANCH  26  27
HETATM   27  C   UNL     1     -41.403 -53.790  15.820  1.00  0.00     0.019 C 
HETATM   28  C   UNL     1     -42.279 -54.915  15.258  1.00  0.00     0.172 C 
HETATM   29  O   UNL     1     -43.453 -54.289  14.731  1.00  0.00    -0.391 OA
HETATM   30  C   UNL     1     -43.707 -53.151  15.556  1.00  0.00     0.168 C 
HETATM   31  C   UNL     1     -42.341 -52.587  15.876  1.00  0.00     0.033 C 
ENDBRANCH  26  27
BRANCH  26  32
HETATM   32  C   UNL     1     -38.909 -54.401  15.526  1.00  0.00     0.170 C 
BRANCH  32  33
HETATM   33  O   UNL     1     -38.595 -55.415  14.574  1.00  0.00    -0.400 OA
HETATM   34  H   UNL     1     -38.966 -55.153  13.715  1.00  0.00     0.209 HD
ENDBRANCH  32  33
ENDBRANCH  26  32
ENDBRANCH  25  26
ENDBRANCH   2  25
TORSDOF 6
ENDMDL
MODEL 5
REMARK VINA RESULT:      -7.0      3.369      8.333
REMARK  6 active torsions:
REMARK  status: ('A' for Active; 'I' for Inactive)
REMARK    1  A    between atoms: N_2  and  C_13 
REMARK    2  A    between atoms: C_6  and  N_7 
REMARK    3  A    between atoms: C_13  and  C_18 
REMARK    4  A    between atoms: C_18  and  C_24 
REMARK    5  A    between atoms: C_18  and  C_27 
REMARK    6  A    between atoms: C_27  and  O_29 
ROOT
HETATM    1  C   UNL     1     -40.948 -47.423  11.410  1.00  0.00     0.117 A 
HETATM    2  N   UNL     1     -40.650 -45.251  11.463  1.00  0.00    -0.327 N 
HETATM    3  C   UNL     1     -41.282 -46.242  10.759  1.00  0.00     0.140 A 
HETATM    4  N   UNL     1     -40.047 -47.160  12.426  1.00  0.00    -0.346 N 
ATOM      5  HN  UNL     1     -39.603 -47.836  13.047  1.00  0.00     0.167 HD
HETATM    6  C   UNL     1     -41.604 -48.604  10.967  1.00  0.00     0.114 A 
HETATM    7  C   UNL     1     -39.886 -45.853  12.424  1.00  0.00     0.185 A 
HETATM    8  N   UNL     1     -42.116 -46.075   9.723  1.00  0.00    -0.336 N 
ATOM      9  HN  UNL     1     -42.332 -45.176   9.292  1.00  0.00     0.168 HD
HETATM   10  N   UNL     1     -42.427 -48.462   9.878  1.00  0.00    -0.341 N 
ATOM     11  HN  UNL     1     -42.888 -49.281   9.481  1.00  0.00     0.167 HD
HETATM   12  C   UNL     1     -42.628 -47.250   9.331  1.00  0.00     0.183 A 
ENDROOT
BRANCH   6  13
HETATM   13  N   UNL     1     -41.499 -49.884  11.587  1.00  0.00    -0.267 NA
HETATM   14  C   UNL     1     -42.521 -50.038  12.632  1.00  0.00     0.108 C 
HETATM   15  C   UNL     1     -42.487 -51.434  13.269  1.00  0.00    -0.004 C 
HETATM   16  C   UNL     1     -42.977 -52.521  12.284  1.00  0.00     0.115 C 
HETATM   17  C   UNL     1     -43.503 -51.474  14.422  1.00  0.00     0.133 C 
HETATM   18  C   UNL     1     -41.063 -51.721  13.782  1.00  0.00     0.014 C 
HETATM   19  C   UNL     1     -43.968 -53.333  13.072  1.00  0.00     0.218 C 
HETATM   20  N   UNL     1     -44.208 -52.704  14.268  1.00  0.00    -0.360 N 
HETATM   21  O   UNL     1     -44.501 -54.367  12.716  1.00  0.00    -0.274 OA
HETATM   22  H   UNL     1     -44.918 -53.062  14.897  1.00  0.00     0.162 HD
HETATM   23  C   UNL     1     -40.017 -51.535  12.683  1.00  0.00     0.016 C 
HETATM   24  C   UNL     1     -40.119 -50.163  12.014  1.00  0.00     0.097 C 
ENDBRANCH   6  13
BRANCH   2  25
HETATM   25  C   UNL     1     -41.020 -43.855  11.424  1.00  0.00     0.138 C 
BRANCH  25  26
HETATM   26  C   UNL     1     -42.340 -43.452  12.113  1.00  0.00     0.034 C 
BRANCH  26  27
HETATM   27  C   UNL     1     -42.119 -42.733  13.471  1.00  0.00     0.019 C 
HETATM   28  C   UNL     1     -40.715 -42.142  13.627  1.00  0.00     0.172 C 
HETATM   29  O   UNL     1     -40.061 -42.914  14.640  1.00  0.00    -0.391 OA
HETATM   30  C   UNL     1     -41.078 -43.313  15.560  1.00  0.00     0.168 C 
HETATM   31  C   UNL     1     -42.284 -43.622  14.700  1.00  0.00     0.033 C 
ENDBRANCH  26  27
BRANCH  26  32
HETATM   32  C   UNL     1     -43.167 -42.620  11.110  1.00  0.00     0.170 C 
BRANCH  32  33
HETATM   33  O   UNL     1     -43.689 -43.476  10.097  1.00  0.00    -0.400 OA
HETATM   34  H   UNL     1     -44.426 -43.018   9.660  1.00  0.00     0.209 HD
ENDBRANCH  32  33
ENDBRANCH  26  32
ENDBRANCH  25  26
ENDBRANCH   2  25
TORSDOF 6
ENDMDL
MODEL 6
REMARK VINA RESULT:      -6.8      3.351      8.384
REMARK  6 active torsions:
REMARK  status: ('A' for Active; 'I' for Inactive)
REMARK    1  A    between atoms: N_2  and  C_13 
REMARK    2  A    between atoms: C_6  and  N_7 
REMARK    3  A    between atoms: C_13  and  C_18 
REMARK    4  A    between atoms: C_18  and  C_24 
REMARK    5  A    between atoms: C_18  and  C_27 
REMARK    6  A    between atoms: C_27  and  O_29 
ROOT
HETATM    1  C   UNL     1     -40.985 -49.598  12.562  1.00  0.00     0.117 A 
HETATM    2  N   UNL     1     -40.694 -47.718  11.472  1.00  0.00    -0.327 N 
HETATM    3  C   UNL     1     -40.410 -48.337  12.661  1.00  0.00     0.140 A 
HETATM    4  N   UNL     1     -41.690 -49.701  11.377  1.00  0.00    -0.346 N 
ATOM      5  HN  UNL     1     -42.241 -50.497  11.054  1.00  0.00     0.167 HD
HETATM    6  C   UNL     1     -40.706 -50.511  13.615  1.00  0.00     0.114 A 
HETATM    7  C   UNL     1     -41.502 -48.557  10.754  1.00  0.00     0.185 A 
HETATM    8  N   UNL     1     -39.657 -47.846  13.655  1.00  0.00    -0.336 N 
ATOM      9  HN  UNL     1     -39.251 -46.910  13.667  1.00  0.00     0.168 HD
HETATM   10  N   UNL     1     -39.975 -50.014  14.665  1.00  0.00    -0.341 N 
ATOM     11  HN  UNL     1     -39.783 -50.604  15.474  1.00  0.00     0.167 HD
HETATM   12  C   UNL     1     -39.510 -48.752  14.632  1.00  0.00     0.183 A 
ENDROOT
BRANCH   6  13
HETATM   13  N   UNL     1     -41.089 -51.885  13.636  1.00  0.00    -0.267 NA
HETATM   14  C   UNL     1     -42.113 -52.121  14.664  1.00  0.00     0.108 C 
HETATM   15  C   UNL     1     -42.603 -53.576  14.663  1.00  0.00    -0.004 C 
HETATM   16  C   UNL     1     -43.441 -53.893  13.403  1.00  0.00     0.115 C 
HETATM   17  C   UNL     1     -43.582 -53.766  15.833  1.00  0.00     0.133 C 
HETATM   18  C   UNL     1     -41.391 -54.518  14.803  1.00  0.00     0.014 C 
HETATM   19  C   UNL     1     -44.674 -54.579  13.925  1.00  0.00     0.218 C 
HETATM   20  N   UNL     1     -44.686 -54.490  15.295  1.00  0.00    -0.360 N 
HETATM   21  O   UNL     1     -45.542 -55.110  13.260  1.00  0.00    -0.274 OA
HETATM   22  H   UNL     1     -45.488 -54.822  15.818  1.00  0.00     0.162 HD
HETATM   23  C   UNL     1     -40.333 -54.240  13.736  1.00  0.00     0.016 C 
HETATM   24  C   UNL     1     -39.914 -52.769  13.708  1.00  0.00     0.097 C 
ENDBRANCH   6  13
BRANCH   2  25
HETATM   25  C   UNL     1     -39.974 -46.579  10.950  1.00  0.00     0.138 C 
BRANCH  25  26
HETATM   26  C   UNL     1     -40.690 -45.213  10.982  1.00  0.00     0.034 C 
BRANCH  26  27
HETATM   27  C   UNL     1     -41.104 -44.779  12.414  1.00  0.00     0.019 C 
HETATM   28  C   UNL     1     -42.273 -43.791  12.438  1.00  0.00     0.172 C 
HETATM   29  O   UNL     1     -41.738 -42.542  12.888  1.00  0.00    -0.391 OA
HETATM   30  C   UNL     1     -40.689 -42.860  13.803  1.00  0.00     0.168 C 
HETATM   31  C   UNL     1     -40.009 -44.075  13.211  1.00  0.00     0.033 C 
ENDBRANCH  26  27
BRANCH  26  32
HETATM   32  C   UNL     1     -39.786 -44.184  10.271  1.00  0.00     0.170 C 
BRANCH  32  33
HETATM   33  O   UNL     1     -39.442 -44.667   8.975  1.00  0.00    -0.400 OA
HETATM   34  H   UNL     1     -39.322 -45.630   9.029  1.00  0.00     0.209 HD
ENDBRANCH  32  33
ENDBRANCH  26  32
ENDBRANCH  25  26
ENDBRANCH   2  25
TORSDOF 6
ENDMDL
MODEL 7
REMARK VINA RESULT:      -6.8      4.040      5.821
REMARK  6 active torsions:
REMARK  status: ('A' for Active; 'I' for Inactive)
REMARK    1  A    between atoms: N_2  and  C_13 
REMARK    2  A    between atoms: C_6  and  N_7 
REMARK    3  A    between atoms: C_13  and  C_18 
REMARK    4  A    between atoms: C_18  and  C_24 
REMARK    5  A    between atoms: C_18  and  C_27 
REMARK    6  A    between atoms: C_27  and  O_29 
ROOT
HETATM    1  C   UNL     1     -42.186 -45.852  11.461  1.00  0.00     0.117 A 
HETATM    2  N   UNL     1     -41.885 -48.006  11.183  1.00  0.00    -0.327 N 
HETATM    3  C   UNL     1     -41.292 -46.791  10.961  1.00  0.00     0.140 A 
HETATM    4  N   UNL     1     -43.342 -46.482  11.882  1.00  0.00    -0.346 N 
ATOM      5  HN  UNL     1     -44.182 -46.044  12.260  1.00  0.00     0.167 HD
HETATM    6  C   UNL     1     -41.742 -44.502  11.493  1.00  0.00     0.114 A 
HETATM    7  C   UNL     1     -43.131 -47.768  11.694  1.00  0.00     0.185 A 
HETATM    8  N   UNL     1     -40.069 -46.581  10.454  1.00  0.00    -0.336 N 
ATOM      9  HN  UNL     1     -39.450 -47.316  10.111  1.00  0.00     0.168 HD
HETATM   10  N   UNL     1     -40.511 -44.259  10.937  1.00  0.00    -0.341 N 
ATOM     11  HN  UNL     1     -40.157 -43.305  10.884  1.00  0.00     0.167 HD
HETATM   12  C   UNL     1     -39.769 -45.275  10.460  1.00  0.00     0.183 A 
ENDROOT
BRANCH   6  13
HETATM   13  N   UNL     1     -42.453 -43.416  12.085  1.00  0.00    -0.267 NA
HETATM   14  C   UNL     1     -42.086 -42.146  11.443  1.00  0.00     0.108 C 
HETATM   15  C   UNL     1     -42.889 -40.964  12.005  1.00  0.00    -0.004 C 
HETATM   16  C   UNL     1     -44.375 -41.034  11.583  1.00  0.00     0.115 C 
HETATM   17  C   UNL     1     -42.368 -39.667  11.365  1.00  0.00     0.133 C 
HETATM   18  C   UNL     1     -42.725 -40.926  13.537  1.00  0.00     0.014 C 
HETATM   19  C   UNL     1     -44.694 -39.654  11.077  1.00  0.00     0.218 C 
HETATM   20  N   UNL     1     -43.531 -38.930  10.994  1.00  0.00    -0.360 N 
HETATM   21  O   UNL     1     -45.792 -39.235  10.763  1.00  0.00    -0.274 OA
HETATM   22  H   UNL     1     -43.539 -38.001  10.589  1.00  0.00     0.162 HD
HETATM   23  C   UNL     1     -43.093 -42.263  14.180  1.00  0.00     0.016 C 
HETATM   24  C   UNL     1     -42.334 -43.433  13.552  1.00  0.00     0.097 C 
ENDBRANCH   6  13
BRANCH   2  25
HETATM   25  C   UNL     1     -41.180 -49.267  11.214  1.00  0.00     0.138 C 
BRANCH  25  26
HETATM   26  C   UNL     1     -40.389 -49.605  12.495  1.00  0.00     0.034 C 
BRANCH  26  27
HETATM   27  C   UNL     1     -40.866 -50.917  13.173  1.00  0.00     0.019 C 
HETATM   28  C   UNL     1     -39.717 -51.798  13.673  1.00  0.00     0.172 C 
HETATM   29  O   UNL     1     -39.710 -52.964  12.844  1.00  0.00    -0.391 OA
HETATM   30  C   UNL     1     -41.071 -53.214  12.491  1.00  0.00     0.168 C 
HETATM   31  C   UNL     1     -41.676 -51.845  12.272  1.00  0.00     0.033 C 
ENDBRANCH  26  27
BRANCH  26  32
HETATM   32  C   UNL     1     -38.887 -49.613  12.139  1.00  0.00     0.170 C 
BRANCH  32  33
HETATM   33  O   UNL     1     -38.732 -49.700  10.725  1.00  0.00    -0.400 OA
HETATM   34  H   UNL     1     -38.754 -48.800  10.359  1.00  0.00     0.209 HD
ENDBRANCH  32  33
ENDBRANCH  26  32
ENDBRANCH  25  26
ENDBRANCH   2  25
TORSDOF 6
ENDMDL
MODEL 8
REMARK VINA RESULT:      -6.7      3.415      9.262
REMARK  6 active torsions:
REMARK  status: ('A' for Active; 'I' for Inactive)
REMARK    1  A    between atoms: N_2  and  C_13 
REMARK    2  A    between atoms: C_6  and  N_7 
REMARK    3  A    between atoms: C_13  and  C_18 
REMARK    4  A    between atoms: C_18  and  C_24 
REMARK    5  A    between atoms: C_18  and  C_27 
REMARK    6  A    between atoms: C_27  and  O_29 
ROOT
HETATM    1  C   UNL     1     -40.849 -47.236  11.767  1.00  0.00     0.117 A 
HETATM    2  N   UNL     1     -40.476 -45.178  11.106  1.00  0.00    -0.327 N 
HETATM    3  C   UNL     1     -41.184 -46.308  10.789  1.00  0.00     0.140 A 
HETATM    4  N   UNL     1     -39.877 -46.710  12.600  1.00  0.00    -0.346 N 
ATOM      5  HN  UNL     1     -39.416 -47.176  13.382  1.00  0.00     0.167 HD
HETATM    6  C   UNL     1     -41.570 -48.461  11.760  1.00  0.00     0.114 A 
HETATM    7  C   UNL     1     -39.672 -45.483  12.170  1.00  0.00     0.185 A 
HETATM    8  N   UNL     1     -42.076 -46.437   9.797  1.00  0.00    -0.336 N 
ATOM      9  HN  UNL     1     -42.289 -45.712   9.112  1.00  0.00     0.168 HD
HETATM   10  N   UNL     1     -42.456 -48.631  10.725  1.00  0.00    -0.341 N 
ATOM     11  HN  UNL     1     -42.968 -49.508  10.636  1.00  0.00     0.167 HD
HETATM   12  C   UNL     1     -42.651 -47.648   9.829  1.00  0.00     0.183 A 
ENDROOT
BRANCH   6  13
HETATM   13  N   UNL     1     -41.469 -49.481  12.752  1.00  0.00    -0.267 NA
HETATM   14  C   UNL     1     -41.921 -50.772  12.213  1.00  0.00     0.108 C 
HETATM   15  C   UNL     1     -41.756 -51.909  13.231  1.00  0.00    -0.004 C 
HETATM   16  C   UNL     1     -40.265 -52.249  13.467  1.00  0.00     0.115 C 
HETATM   17  C   UNL     1     -42.352 -53.194  12.635  1.00  0.00     0.133 C 
HETATM   18  C   UNL     1     -42.474 -51.525  14.539  1.00  0.00     0.014 C 
HETATM   19  C   UNL     1     -40.192 -53.747  13.355  1.00  0.00     0.218 C 
HETATM   20  N   UNL     1     -41.398 -54.219  12.902  1.00  0.00    -0.360 N 
HETATM   21  O   UNL     1     -39.225 -54.444  13.598  1.00  0.00    -0.274 OA
HETATM   22  H   UNL     1     -41.508 -55.203  12.682  1.00  0.00     0.162 HD
HETATM   23  C   UNL     1     -42.002 -50.171  15.068  1.00  0.00     0.016 C 
HETATM   24  C   UNL     1     -42.108 -49.070  14.012  1.00  0.00     0.097 C 
ENDBRANCH   6  13
BRANCH   2  25
HETATM   25  C   UNL     1     -40.801 -43.851  10.639  1.00  0.00     0.138 C 
BRANCH  25  26
HETATM   26  C   UNL     1     -41.524 -42.910  11.625  1.00  0.00     0.034 C 
BRANCH  26  27
HETATM   27  C   UNL     1     -40.652 -41.702  12.059  1.00  0.00     0.019 C 
HETATM   28  C   UNL     1     -40.318 -41.696  13.554  1.00  0.00     0.172 C 
HETATM   29  O   UNL     1     -41.027 -40.591  14.123  1.00  0.00    -0.391 OA
HETATM   30  C   UNL     1     -41.077 -39.582  13.114  1.00  0.00     0.168 C 
HETATM   31  C   UNL     1     -41.287 -40.335  11.818  1.00  0.00     0.033 C 
ENDBRANCH  26  27
BRANCH  26  32
HETATM   32  C   UNL     1     -42.867 -42.495  10.989  1.00  0.00     0.170 C 
BRANCH  32  33
HETATM   33  O   UNL     1     -43.391 -43.581  10.229  1.00  0.00    -0.400 OA
HETATM   34  H   UNL     1     -43.163 -43.439   9.295  1.00  0.00     0.209 HD
ENDBRANCH  32  33
ENDBRANCH  26  32
ENDBRANCH  25  26
ENDBRANCH   2  25
TORSDOF 6
ENDMDL
MODEL 9
REMARK VINA RESULT:      -6.7      3.370      4.517
REMARK  6 active torsions:
REMARK  status: ('A' for Active; 'I' for Inactive)
REMARK    1  A    between atoms: N_2  and  C_13 
REMARK    2  A    between atoms: C_6  and  N_7 
REMARK    3  A    between atoms: C_13  and  C_18 
REMARK    4  A    between atoms: C_18  and  C_24 
REMARK    5  A    between atoms: C_18  and  C_27 
REMARK    6  A    between atoms: C_27  and  O_29 
ROOT
HETATM    1  C   UNL     1     -42.193 -48.353  12.820  1.00  0.00     0.117 A 
HETATM    2  N   UNL     1     -42.881 -50.324  13.493  1.00  0.00    -0.327 N 
HETATM    3  C   UNL     1     -42.183 -49.703  12.490  1.00  0.00     0.140 A 
HETATM    4  N   UNL     1     -42.971 -48.151  13.946  1.00  0.00    -0.346 N 
ATOM      5  HN  UNL     1     -43.188 -47.261  14.394  1.00  0.00     0.167 HD
HETATM    6  C   UNL     1     -41.400 -47.493  12.014  1.00  0.00     0.114 A 
HETATM    7  C   UNL     1     -43.373 -49.349  14.316  1.00  0.00     0.185 A 
HETATM    8  N   UNL     1     -41.553 -50.301  11.469  1.00  0.00    -0.336 N 
ATOM      9  HN  UNL     1     -41.574 -51.303  11.283  1.00  0.00     0.168 HD
HETATM   10  N   UNL     1     -40.783 -48.078  10.936  1.00  0.00    -0.341 N 
ATOM     11  HN  UNL     1     -40.239 -47.505  10.291  1.00  0.00     0.167 HD
HETATM   12  C   UNL     1     -40.892 -49.402  10.726  1.00  0.00     0.183 A 
ENDROOT
BRANCH   6  13
HETATM   13  N   UNL     1     -41.172 -46.107  12.266  1.00  0.00    -0.267 NA
HETATM   14  C   UNL     1     -42.133 -45.282  11.520  1.00  0.00     0.108 C 
HETATM   15  C   UNL     1     -41.966 -43.787  11.826  1.00  0.00    -0.004 C 
HETATM   16  C   UNL     1     -42.416 -43.447  13.266  1.00  0.00     0.115 C 
HETATM   17  C   UNL     1     -42.924 -42.990  10.926  1.00  0.00     0.133 C 
HETATM   18  C   UNL     1     -40.502 -43.379  11.567  1.00  0.00     0.014 C 
HETATM   19  C   UNL     1     -43.307 -42.246  13.115  1.00  0.00     0.218 C 
HETATM   20  N   UNL     1     -43.541 -42.029  11.780  1.00  0.00    -0.360 N 
HETATM   21  O   UNL     1     -43.776 -41.575  14.016  1.00  0.00    -0.274 OA
HETATM   22  H   UNL     1     -44.193 -41.310  11.489  1.00  0.00     0.162 HD
HETATM   23  C   UNL     1     -39.523 -44.263  12.338  1.00  0.00     0.016 C 
HETATM   24  C   UNL     1     -39.758 -45.751  12.072  1.00  0.00     0.097 C 
ENDBRANCH   6  13
BRANCH   2  25
HETATM   25  C   UNL     1     -42.788 -51.731  13.804  1.00  0.00     0.138 C 
BRANCH  25  26
HETATM   26  C   UNL     1     -43.651 -52.700  12.969  1.00  0.00     0.034 C 
BRANCH  26  27
HETATM   27  C   UNL     1     -43.487 -54.183  13.400  1.00  0.00     0.019 C 
HETATM   28  C   UNL     1     -44.661 -54.709  14.232  1.00  0.00     0.172 C 
HETATM   29  O   UNL     1     -44.157 -54.919  15.555  1.00  0.00    -0.391 OA
HETATM   30  C   UNL     1     -42.791 -55.308  15.408  1.00  0.00     0.168 C 
HETATM   31  C   UNL     1     -42.264 -54.465  14.268  1.00  0.00     0.033 C 
ENDBRANCH  26  27
BRANCH  26  32
HETATM   32  C   UNL     1     -45.112 -52.207  13.024  1.00  0.00     0.170 C 
BRANCH  32  33
HETATM   33  O   UNL     1     -45.777 -52.547  11.811  1.00  0.00    -0.400 OA
HETATM   34  H   UNL     1     -45.872 -51.740  11.277  1.00  0.00     0.209 HD
ENDBRANCH  32  33
ENDBRANCH  26  32
ENDBRANCH  25  26
ENDBRANCH   2  25
TORSDOF 6
ENDMDL
