MODEL 1
REMARK VINA RESULT:      -6.9      0.000      0.000
REMARK  7 active torsions:
REMARK  status: ('A' for Active; 'I' for Inactive)
REMARK    1  A    between atoms: O_2  and  C_3 
REMARK    2  A    between atoms: C_3  and  C_4 
REMARK    3  A    between atoms: C_4  and  N_5 
REMARK    4  A    between atoms: C_7  and  C_12 
REMARK       I    between atoms: C_12  and  N_14 
REMARK    5  A    between atoms: N_14  and  C_15 
REMARK    6  A    between atoms: C_15  and  C_16 
REMARK    7  A    between atoms: C_16  and  N_23 
ROOT
HETATM    1  C   UNL     1     -40.822 -50.023  11.605  1.00  0.00     0.253 C 
HETATM    2  O   UNL     1     -39.706 -50.460  11.887  1.00  0.00    -0.268 OA
HETATM    3  N   UNL     1     -41.962 -50.788  11.708  1.00  0.00    -0.354 N 
HETATM    4  H   UNL     1     -42.883 -50.383  11.613  1.00  0.00     0.162 HD
ENDROOT
BRANCH   1   5
HETATM    5  C   UNL     1     -40.977 -48.579  11.195  1.00  0.00     0.047 A 
HETATM    6  C   UNL     1     -42.007 -48.118  10.462  1.00  0.00     0.111 A 
HETATM    7  N   UNL     1     -42.118 -46.771  10.124  1.00  0.00    -0.322 N 
HETATM    8  C   UNL     1     -41.174 -45.822  10.519  1.00  0.00     0.247 A 
HETATM    9  C   UNL     1     -40.008 -46.339  11.270  1.00  0.00     0.075 A 
HETATM   10  O   UNL     1     -41.245 -44.620  10.279  1.00  0.00    -0.268 OA
HETATM   11  C   UNL     1     -39.929 -47.641  11.581  1.00  0.00     0.024 A 
BRANCH   7  12
HETATM   12  C   UNL     1     -43.303 -46.299   9.406  1.00  0.00     0.158 C 
BRANCH  12  13
HETATM   13  C   UNL     1     -44.170 -47.425   8.839  1.00  0.00     0.187 C 
BRANCH  13  14
HETATM   14  O   UNL     1     -45.416 -47.452   9.544  1.00  0.00    -0.394 OA
HETATM   15  C   UNL     1     -46.417 -48.143   8.807  1.00  0.00     0.201 C 
ENDBRANCH  13  14
ENDBRANCH  12  13
ENDBRANCH   7  12
ENDBRANCH   1   5
BRANCH   3  16
HETATM   16  C   UNL     1     -41.924 -52.141  12.264  1.00  0.00     0.164 C 
BRANCH  16  17
HETATM   17  C   UNL     1     -43.052 -52.422  13.373  1.00  0.00     0.174 C 
HETATM   18  C   UNL     1     -44.044 -53.387  12.627  1.00  0.00     0.043 C 
HETATM   19  C   UNL     1     -45.290 -53.994  13.261  1.00  0.00     0.003 C 
HETATM   20  C   UNL     1     -46.313 -53.100  13.952  1.00  0.00     0.000 C 
HETATM   21  C   UNL     1     -46.214 -51.600  13.738  1.00  0.00     0.000 C 
HETATM   22  C   UNL     1     -45.009 -50.946  14.404  1.00  0.00     0.003 C 
HETATM   23  C   UNL     1     -43.724 -51.033  13.590  1.00  0.00     0.043 C 
BRANCH  17  24
HETATM   24  N   UNL     1     -42.381 -53.015  14.585  1.00  0.00     0.091 N 
HETATM   25  C   UNL     1     -41.719 -54.312  14.338  1.00  0.00     0.310 C 
HETATM   26  C   UNL     1     -41.388 -52.200  15.287  1.00  0.00     0.310 C 
ENDBRANCH  17  24
ENDBRANCH  16  17
ENDBRANCH   3  16
TORSDOF 7
ENDMDL
MODEL 2
REMARK VINA RESULT:      -6.4      1.142      1.331
REMARK  7 active torsions:
REMARK  status: ('A' for Active; 'I' for Inactive)
REMARK    1  A    between atoms: O_2  and  C_3 
REMARK    2  A    between atoms: C_3  and  C_4 
REMARK    3  A    between atoms: C_4  and  N_5 
REMARK    4  A    between atoms: C_7  and  C_12 
REMARK       I    between atoms: C_12  and  N_14 
REMARK    5  A    between atoms: N_14  and  C_15 
REMARK    6  A    between atoms: C_15  and  C_16 
REMARK    7  A    between atoms: C_16  and  N_23 
ROOT
HETATM    1  C   UNL     1     -40.972 -51.109  12.014  1.00  0.00     0.253 C 
HETATM    2  O   UNL     1     -40.047 -51.850  12.349  1.00  0.00    -0.268 OA
HETATM    3  N   UNL     1     -42.278 -51.541  11.950  1.00  0.00    -0.354 N 
HETATM    4  H   UNL     1     -43.044 -50.895  11.816  1.00  0.00     0.162 HD
ENDROOT
BRANCH   1   5
HETATM    5  C   UNL     1     -40.696 -49.653  11.727  1.00  0.00     0.047 A 
HETATM    6  C   UNL     1     -41.497 -48.876  10.973  1.00  0.00     0.111 A 
HETATM    7  N   UNL     1     -41.211 -47.531  10.751  1.00  0.00    -0.322 N 
HETATM    8  C   UNL     1     -40.085 -46.908  11.291  1.00  0.00     0.247 A 
HETATM    9  C   UNL     1     -39.171 -47.776  12.065  1.00  0.00     0.075 A 
HETATM   10  O   UNL     1     -39.808 -45.719  11.155  1.00  0.00    -0.268 OA
HETATM   11  C   UNL     1     -39.472 -49.068  12.263  1.00  0.00     0.024 A 
BRANCH   7  12
HETATM   12  C   UNL     1     -42.158 -46.703  10.003  1.00  0.00     0.158 C 
BRANCH  12  13
HETATM   13  C   UNL     1     -43.622 -46.948  10.377  1.00  0.00     0.187 C 
BRANCH  13  14
HETATM   14  O   UNL     1     -44.241 -47.725   9.345  1.00  0.00    -0.394 OA
HETATM   15  C   UNL     1     -43.606 -47.521   8.088  1.00  0.00     0.201 C 
ENDBRANCH  13  14
ENDBRANCH  12  13
ENDBRANCH   7  12
ENDBRANCH   1   5
BRANCH   3  16
HETATM   16  C   UNL     1     -42.657 -52.886  12.381  1.00  0.00     0.164 C 
BRANCH  16  17
HETATM   17  C   UNL     1     -43.644 -52.911  13.650  1.00  0.00     0.174 C 
HETATM   18  C   UNL     1     -44.738 -53.955  13.221  1.00  0.00     0.043 C 
HETATM   19  C   UNL     1     -45.906 -54.384  14.101  1.00  0.00     0.003 C 
HETATM   20  C   UNL     1     -46.819 -53.336  14.728  1.00  0.00     0.000 C 
HETATM   21  C   UNL     1     -46.720 -51.906  14.225  1.00  0.00     0.000 C 
HETATM   22  C   UNL     1     -45.430 -51.191  14.609  1.00  0.00     0.003 C 
HETATM   23  C   UNL     1     -44.258 -51.479  13.679  1.00  0.00     0.043 C 
BRANCH  17  24
HETATM   24  N   UNL     1     -42.838 -53.298  14.863  1.00  0.00     0.091 N 
HETATM   25  C   UNL     1     -41.942 -54.453  14.653  1.00  0.00     0.310 C 
HETATM   26  C   UNL     1     -42.006 -52.269  15.490  1.00  0.00     0.310 C 
ENDBRANCH  17  24
ENDBRANCH  16  17
ENDBRANCH   3  16
TORSDOF 7
ENDMDL
MODEL 3
REMARK VINA RESULT:      -6.1      1.358      2.957
REMARK  7 active torsions:
REMARK  status: ('A' for Active; 'I' for Inactive)
REMARK    1  A    between atoms: O_2  and  C_3 
REMARK    2  A    between atoms: C_3  and  C_4 
REMARK    3  A    between atoms: C_4  and  N_5 
REMARK    4  A    between atoms: C_7  and  C_12 
REMARK       I    between atoms: C_12  and  N_14 
REMARK    5  A    between atoms: N_14  and  C_15 
REMARK    6  A    between atoms: C_15  and  C_16 
REMARK    7  A    between atoms: C_16  and  N_23 
ROOT
HETATM    1  C   UNL     1     -41.329 -49.684  11.444  1.00  0.00     0.253 C 
HETATM    2  O   UNL     1     -40.158 -50.063  11.414  1.00  0.00    -0.268 OA
HETATM    3  N   UNL     1     -42.356 -50.495  11.871  1.00  0.00    -0.354 N 
HETATM    4  H   UNL     1     -43.287 -50.133  12.029  1.00  0.00     0.162 HD
ENDROOT
BRANCH   1   5
HETATM    5  C   UNL     1     -41.663 -48.260  11.070  1.00  0.00     0.047 A 
HETATM    6  C   UNL     1     -40.754 -47.268  11.025  1.00  0.00     0.111 A 
HETATM    7  N   UNL     1     -41.106 -45.972  10.655  1.00  0.00    -0.322 N 
HETATM    8  C   UNL     1     -42.413 -45.623  10.312  1.00  0.00     0.247 A 
HETATM    9  C   UNL     1     -43.424 -46.697  10.423  1.00  0.00     0.075 A 
HETATM   10  O   UNL     1     -42.767 -44.505   9.944  1.00  0.00    -0.268 OA
HETATM   11  C   UNL     1     -43.055 -47.936  10.781  1.00  0.00     0.024 A 
BRANCH   7  12
HETATM   12  C   UNL     1     -40.069 -44.947  10.529  1.00  0.00     0.158 C 
BRANCH  12  13
HETATM   13  C   UNL     1     -39.577 -44.398  11.870  1.00  0.00     0.187 C 
BRANCH  13  14
HETATM   14  O   UNL     1     -40.589 -43.550  12.424  1.00  0.00    -0.394 OA
HETATM   15  C   UNL     1     -40.296 -42.176  12.202  1.00  0.00     0.201 C 
ENDBRANCH  13  14
ENDBRANCH  12  13
ENDBRANCH   7  12
ENDBRANCH   1   5
BRANCH   3  16
HETATM   16  C   UNL     1     -42.099 -51.828  12.416  1.00  0.00     0.164 C 
BRANCH  16  17
HETATM   17  C   UNL     1     -43.172 -52.302  13.515  1.00  0.00     0.174 C 
HETATM   18  C   UNL     1     -44.138 -53.225  12.685  1.00  0.00     0.043 C 
HETATM   19  C   UNL     1     -45.327 -53.973  13.274  1.00  0.00     0.003 C 
HETATM   20  C   UNL     1     -46.371 -53.226  14.097  1.00  0.00     0.000 C 
HETATM   21  C   UNL     1     -46.359 -51.707  14.063  1.00  0.00     0.000 C 
HETATM   22  C   UNL     1     -45.168 -51.072  14.769  1.00  0.00     0.003 C 
HETATM   23  C   UNL     1     -43.908 -50.988  13.916  1.00  0.00     0.043 C 
BRANCH  17  24
HETATM   24  N   UNL     1     -42.430 -52.997  14.626  1.00  0.00     0.091 N 
HETATM   25  C   UNL     1     -41.691 -54.202  14.201  1.00  0.00     0.310 C 
HETATM   26  C   UNL     1     -41.474 -52.210  15.409  1.00  0.00     0.310 C 
ENDBRANCH  17  24
ENDBRANCH  16  17
ENDBRANCH   3  16
TORSDOF 7
ENDMDL
MODEL 4
REMARK VINA RESULT:      -5.8      1.835      2.218
REMARK  7 active torsions:
REMARK  status: ('A' for Active; 'I' for Inactive)
REMARK    1  A    between atoms: O_2  and  C_3 
REMARK    2  A    between atoms: C_3  and  C_4 
REMARK    3  A    between atoms: C_4  and  N_5 
REMARK    4  A    between atoms: C_7  and  C_12 
REMARK       I    between atoms: C_12  and  N_14 
REMARK    5  A    between atoms: N_14  and  C_15 
REMARK    6  A    between atoms: C_15  and  C_16 
REMARK    7  A    between atoms: C_16  and  N_23 
ROOT
HETATM    1  C   UNL     1     -40.655 -50.593  12.162  1.00  0.00     0.253 C 
HETATM    2  O   UNL     1     -39.760 -51.430  12.281  1.00  0.00    -0.268 OA
HETATM    3  N   UNL     1     -41.981 -50.943  12.042  1.00  0.00    -0.354 N 
HETATM    4  H   UNL     1     -42.718 -50.252  12.089  1.00  0.00     0.162 HD
ENDROOT
BRANCH   1   5
HETATM    5  C   UNL     1     -40.315 -49.124  12.217  1.00  0.00     0.047 A 
HETATM    6  C   UNL     1     -40.773 -48.218  11.332  1.00  0.00     0.111 A 
HETATM    7  N   UNL     1     -40.448 -46.867  11.435  1.00  0.00    -0.322 N 
HETATM    8  C   UNL     1     -39.633 -46.372  12.453  1.00  0.00     0.247 A 
HETATM    9  C   UNL     1     -39.077 -47.375  13.388  1.00  0.00     0.075 A 
HETATM   10  O   UNL     1     -39.347 -45.187  12.608  1.00  0.00    -0.268 OA
HETATM   11  C   UNL     1     -39.408 -48.669  13.264  1.00  0.00     0.024 A 
BRANCH   7  12
HETATM   12  C   UNL     1     -41.044 -45.906  10.507  1.00  0.00     0.158 C 
BRANCH  12  13
HETATM   13  C   UNL     1     -42.440 -45.434  10.917  1.00  0.00     0.187 C 
BRANCH  13  14
HETATM   14  O   UNL     1     -42.319 -44.218  11.665  1.00  0.00    -0.394 OA
HETATM   15  C   UNL     1     -42.988 -43.142  11.020  1.00  0.00     0.201 C 
ENDBRANCH  13  14
ENDBRANCH  12  13
ENDBRANCH   7  12
ENDBRANCH   1   5
BRANCH   3  16
HETATM   16  C   UNL     1     -42.416 -52.335  12.155  1.00  0.00     0.164 C 
BRANCH  16  17
HETATM   17  C   UNL     1     -43.390 -52.615  13.402  1.00  0.00     0.174 C 
HETATM   18  C   UNL     1     -44.448 -53.612  12.804  1.00  0.00     0.043 C 
HETATM   19  C   UNL     1     -45.591 -54.229  13.599  1.00  0.00     0.003 C 
HETATM   20  C   UNL     1     -46.537 -53.340  14.399  1.00  0.00     0.000 C 
HETATM   21  C   UNL     1     -46.497 -51.842  14.149  1.00  0.00     0.000 C 
HETATM   22  C   UNL     1     -45.231 -51.155  14.647  1.00  0.00     0.003 C 
HETATM   23  C   UNL     1     -44.057 -51.234  13.679  1.00  0.00     0.043 C 
BRANCH  17  24
HETATM   24  N   UNL     1     -42.559 -53.173  14.529  1.00  0.00     0.091 N 
HETATM   25  C   UNL     1     -41.575 -54.191  14.111  1.00  0.00     0.310 C 
HETATM   26  C   UNL     1     -41.812 -52.229  15.363  1.00  0.00     0.310 C 
ENDBRANCH  17  24
ENDBRANCH  16  17
ENDBRANCH   3  16
TORSDOF 7
ENDMDL
MODEL 5
REMARK VINA RESULT:      -5.7      2.362      4.064
REMARK  7 active torsions:
REMARK  status: ('A' for Active; 'I' for Inactive)
REMARK    1  A    between atoms: O_2  and  C_3 
REMARK    2  A    between atoms: C_3  and  C_4 
REMARK    3  A    between atoms: C_4  and  N_5 
REMARK    4  A    between atoms: C_7  and  C_12 
REMARK       I    between atoms: C_12  and  N_14 
REMARK    5  A    between atoms: N_14  and  C_15 
REMARK    6  A    between atoms: C_15  and  C_16 
REMARK    7  A    between atoms: C_16  and  N_23 
ROOT
HETATM    1  C   UNL     1     -40.864 -50.953  12.126  1.00  0.00     0.253 C 
HETATM    2  O   UNL     1     -39.955 -51.775  12.238  1.00  0.00    -0.268 OA
HETATM    3  N   UNL     1     -42.188 -51.324  12.053  1.00  0.00    -0.354 N 
HETATM    4  H   UNL     1     -42.933 -50.642  12.106  1.00  0.00     0.162 HD
ENDROOT
BRANCH   1   5
HETATM    5  C   UNL     1     -40.545 -49.478  12.138  1.00  0.00     0.047 A 
HETATM    6  C   UNL     1     -39.839 -48.875  13.113  1.00  0.00     0.111 A 
HETATM    7  N   UNL     1     -39.551 -47.512  13.071  1.00  0.00    -0.322 N 
HETATM    8  C   UNL     1     -39.975 -46.693  12.024  1.00  0.00     0.247 A 
HETATM    9  C   UNL     1     -40.804 -47.341  10.985  1.00  0.00     0.075 A 
HETATM   10  O   UNL     1     -39.716 -45.496  11.922  1.00  0.00    -0.268 OA
HETATM   11  C   UNL     1     -41.064 -48.656  11.052  1.00  0.00     0.024 A 
BRANCH   7  12
HETATM   12  C   UNL     1     -38.702 -46.919  14.105  1.00  0.00     0.158 C 
BRANCH  12  13
HETATM   13  C   UNL     1     -37.390 -47.671  14.333  1.00  0.00     0.187 C 
BRANCH  13  14
HETATM   14  O   UNL     1     -37.409 -48.255  15.640  1.00  0.00    -0.394 OA
HETATM   15  C   UNL     1     -37.859 -47.325  16.619  1.00  0.00     0.201 C 
ENDBRANCH  13  14
ENDBRANCH  12  13
ENDBRANCH   7  12
ENDBRANCH   1   5
BRANCH   3  16
HETATM   16  C   UNL     1     -42.599 -52.719  12.211  1.00  0.00     0.164 C 
BRANCH  16  17
HETATM   17  C   UNL     1     -43.520 -52.985  13.501  1.00  0.00     0.174 C 
HETATM   18  C   UNL     1     -44.461 -54.151  13.024  1.00  0.00     0.043 C 
HETATM   19  C   UNL     1     -45.516 -54.815  13.901  1.00  0.00     0.003 C 
HETATM   20  C   UNL     1     -46.550 -53.967  14.633  1.00  0.00     0.000 C 
HETATM   21  C   UNL     1     -46.688 -52.506  14.239  1.00  0.00     0.000 C 
HETATM   22  C   UNL     1     -45.505 -51.632  14.640  1.00  0.00     0.003 C 
HETATM   23  C   UNL     1     -44.341 -51.670  13.659  1.00  0.00     0.043 C 
BRANCH  17  24
HETATM   24  N   UNL     1     -42.618 -53.332  14.658  1.00  0.00     0.091 N 
HETATM   25  C   UNL     1     -41.490 -54.217  14.304  1.00  0.00     0.310 C 
HETATM   26  C   UNL     1     -42.024 -52.229  15.417  1.00  0.00     0.310 C 
ENDBRANCH  17  24
ENDBRANCH  16  17
ENDBRANCH   3  16
TORSDOF 7
ENDMDL
MODEL 6
REMARK VINA RESULT:      -5.5      3.051      6.777
REMARK  7 active torsions:
REMARK  status: ('A' for Active; 'I' for Inactive)
REMARK    1  A    between atoms: O_2  and  C_3 
REMARK    2  A    between atoms: C_3  and  C_4 
REMARK    3  A    between atoms: C_4  and  N_5 
REMARK    4  A    between atoms: C_7  and  C_12 
REMARK       I    between atoms: C_12  and  N_14 
REMARK    5  A    between atoms: N_14  and  C_15 
REMARK    6  A    between atoms: C_15  and  C_16 
REMARK    7  A    between atoms: C_16  and  N_23 
ROOT
HETATM    1  C   UNL     1     -40.958 -52.018  13.207  1.00  0.00     0.253 C 
HETATM    2  O   UNL     1     -40.032 -52.486  12.545  1.00  0.00    -0.268 OA
HETATM    3  N   UNL     1     -40.905 -50.759  13.762  1.00  0.00    -0.354 N 
HETATM    4  H   UNL     1     -41.720 -50.329  14.179  1.00  0.00     0.162 HD
ENDROOT
BRANCH   1   5
HETATM    5  C   UNL     1     -42.234 -52.807  13.370  1.00  0.00     0.047 A 
HETATM    6  C   UNL     1     -43.434 -52.384  12.930  1.00  0.00     0.111 A 
HETATM    7  N   UNL     1     -44.583 -53.157  13.085  1.00  0.00    -0.322 N 
HETATM    8  C   UNL     1     -44.562 -54.408  13.703  1.00  0.00     0.247 A 
HETATM    9  C   UNL     1     -43.256 -54.845  14.243  1.00  0.00     0.075 A 
HETATM   10  O   UNL     1     -45.538 -55.143  13.831  1.00  0.00    -0.268 OA
HETATM   11  C   UNL     1     -42.167 -54.080  14.078  1.00  0.00     0.024 A 
BRANCH   7  12
HETATM   12  C   UNL     1     -45.848 -52.699  12.509  1.00  0.00     0.158 C 
BRANCH  12  13
HETATM   13  C   UNL     1     -46.517 -51.576  13.303  1.00  0.00     0.187 C 
BRANCH  13  14
HETATM   14  O   UNL     1     -46.880 -52.073  14.596  1.00  0.00    -0.394 OA
HETATM   15  C   UNL     1     -46.345 -51.263  15.635  1.00  0.00     0.201 C 
ENDBRANCH  13  14
ENDBRANCH  12  13
ENDBRANCH   7  12
ENDBRANCH   1   5
BRANCH   3  16
HETATM   16  C   UNL     1     -39.780 -49.860  13.507  1.00  0.00     0.164 C 
BRANCH  16  17
HETATM   17  C   UNL     1     -40.210 -48.331  13.260  1.00  0.00     0.174 C 
HETATM   18  C   UNL     1     -41.780 -48.406  13.248  1.00  0.00     0.043 C 
HETATM   19  C   UNL     1     -42.696 -47.199  13.085  1.00  0.00     0.003 C 
HETATM   20  C   UNL     1     -42.500 -46.240  11.916  1.00  0.00     0.000 C 
HETATM   21  C   UNL     1     -41.588 -46.671  10.780  1.00  0.00     0.000 C 
HETATM   22  C   UNL     1     -40.110 -46.723  11.146  1.00  0.00     0.003 C 
HETATM   23  C   UNL     1     -39.681 -48.015  11.829  1.00  0.00     0.043 C 
BRANCH  17  24
HETATM   24  N   UNL     1     -39.623 -47.495  14.369  1.00  0.00     0.091 N 
HETATM   25  C   UNL     1     -40.105 -47.853  15.718  1.00  0.00     0.310 C 
HETATM   26  C   UNL     1     -38.165 -47.430  14.481  1.00  0.00     0.310 C 
ENDBRANCH  17  24
ENDBRANCH  16  17
ENDBRANCH   3  16
TORSDOF 7
ENDMDL
MODEL 7
REMARK VINA RESULT:      -5.4      2.772      7.599
REMARK  7 active torsions:
REMARK  status: ('A' for Active; 'I' for Inactive)
REMARK    1  A    between atoms: O_2  and  C_3 
REMARK    2  A    between atoms: C_3  and  C_4 
REMARK    3  A    between atoms: C_4  and  N_5 
REMARK    4  A    between atoms: C_7  and  C_12 
REMARK       I    between atoms: C_12  and  N_14 
REMARK    5  A    between atoms: N_14  and  C_15 
REMARK    6  A    between atoms: C_15  and  C_16 
REMARK    7  A    between atoms: C_16  and  N_23 
ROOT
HETATM    1  C   UNL     1     -43.317 -49.587  13.940  1.00  0.00     0.253 C 
HETATM    2  O   UNL     1     -43.436 -49.064  15.048  1.00  0.00    -0.268 OA
HETATM    3  N   UNL     1     -42.663 -48.969  12.898  1.00  0.00    -0.354 N 
HETATM    4  H   UNL     1     -42.445 -49.461  12.042  1.00  0.00     0.162 HD
ENDROOT
BRANCH   1   5
HETATM    5  C   UNL     1     -43.839 -50.986  13.715  1.00  0.00     0.047 A 
HETATM    6  C   UNL     1     -43.102 -52.096  13.901  1.00  0.00     0.111 A 
HETATM    7  N   UNL     1     -43.634 -53.368  13.699  1.00  0.00    -0.322 N 
HETATM    8  C   UNL     1     -44.953 -53.569  13.292  1.00  0.00     0.247 A 
HETATM    9  C   UNL     1     -45.745 -52.348  13.026  1.00  0.00     0.075 A 
HETATM   10  O   UNL     1     -45.479 -54.668  13.136  1.00  0.00    -0.268 OA
HETATM   11  C   UNL     1     -45.206 -51.137  13.230  1.00  0.00     0.024 A 
BRANCH   7  12
HETATM   12  C   UNL     1     -42.824 -54.548  14.003  1.00  0.00     0.158 C 
BRANCH  12  13
HETATM   13  C   UNL     1     -41.446 -54.220  14.583  1.00  0.00     0.187 C 
BRANCH  13  14
HETATM   14  O   UNL     1     -40.459 -54.386  13.559  1.00  0.00    -0.394 OA
HETATM   15  C   UNL     1     -39.145 -54.416  14.103  1.00  0.00     0.201 C 
ENDBRANCH  13  14
ENDBRANCH  12  13
ENDBRANCH   7  12
ENDBRANCH   1   5
BRANCH   3  16
HETATM   16  C   UNL     1     -41.976 -47.691  13.081  1.00  0.00     0.164 C 
BRANCH  16  17
HETATM   17  C   UNL     1     -40.419 -47.724  12.683  1.00  0.00     0.174 C 
HETATM   18  C   UNL     1     -40.249 -49.155  12.054  1.00  0.00     0.043 C 
HETATM   19  C   UNL     1     -38.946 -49.686  11.469  1.00  0.00     0.003 C 
HETATM   20  C   UNL     1     -37.662 -49.640  12.290  1.00  0.00     0.000 C 
HETATM   21  C   UNL     1     -37.771 -49.337  13.774  1.00  0.00     0.000 C 
HETATM   22  C   UNL     1     -38.174 -47.903  14.096  1.00  0.00     0.003 C 
HETATM   23  C   UNL     1     -39.677 -47.653  14.051  1.00  0.00     0.043 C 
BRANCH  17  24
HETATM   24  N   UNL     1     -40.153 -46.580  11.738  1.00  0.00     0.091 N 
HETATM   25  C   UNL     1     -41.125 -46.468  10.632  1.00  0.00     0.310 C 
HETATM   26  C   UNL     1     -40.050 -45.234  12.304  1.00  0.00     0.310 C 
ENDBRANCH  17  24
ENDBRANCH  16  17
ENDBRANCH   3  16
TORSDOF 7
ENDMDL
MODEL 8
REMARK VINA RESULT:      -5.4      2.640      3.869
REMARK  7 active torsions:
REMARK  status: ('A' for Active; 'I' for Inactive)
REMARK    1  A    between atoms: O_2  and  C_3 
REMARK    2  A    between atoms: C_3  and  C_4 
REMARK    3  A    between atoms: C_4  and  N_5 
REMARK    4  A    between atoms: C_7  and  C_12 
REMARK       I    between atoms: C_12  and  N_14 
REMARK    5  A    between atoms: N_14  and  C_15 
REMARK    6  A    between atoms: C_15  and  C_16 
REMARK    7  A    between atoms: C_16  and  N_23 
ROOT
HETATM    1  C   UNL     1     -41.433 -51.382  12.593  1.00  0.00     0.253 C 
HETATM    2  O   UNL     1     -41.192 -52.350  11.871  1.00  0.00    -0.268 OA
HETATM    3  N   UNL     1     -42.664 -51.188  13.179  1.00  0.00    -0.354 N 
HETATM    4  H   UNL     1     -42.810 -50.475  13.881  1.00  0.00     0.162 HD
ENDROOT
BRANCH   1   5
HETATM    5  C   UNL     1     -40.334 -50.399  12.917  1.00  0.00     0.047 A 
HETATM    6  C   UNL     1     -40.409 -49.082  12.649  1.00  0.00     0.111 A 
HETATM    7  N   UNL     1     -39.376 -48.209  12.984  1.00  0.00    -0.322 N 
HETATM    8  C   UNL     1     -38.208 -48.642  13.613  1.00  0.00     0.247 A 
HETATM    9  C   UNL     1     -38.098 -50.098  13.849  1.00  0.00     0.075 A 
HETATM   10  O   UNL     1     -37.286 -47.908  13.961  1.00  0.00    -0.268 OA
HETATM   11  C   UNL     1     -39.109 -50.914  13.516  1.00  0.00     0.024 A 
BRANCH   7  12
HETATM   12  C   UNL     1     -39.540 -46.773  12.759  1.00  0.00     0.158 C 
BRANCH  12  13
HETATM   13  C   UNL     1     -40.803 -46.410  11.975  1.00  0.00     0.187 C 
BRANCH  13  14
HETATM   14  O   UNL     1     -40.468 -46.276  10.589  1.00  0.00    -0.394 OA
HETATM   15  C   UNL     1     -39.728 -45.086  10.345  1.00  0.00     0.201 C 
ENDBRANCH  13  14
ENDBRANCH  12  13
ENDBRANCH   7  12
ENDBRANCH   1   5
BRANCH   3  16
HETATM   16  C   UNL     1     -43.730 -52.182  13.061  1.00  0.00     0.164 C 
BRANCH  16  17
HETATM   17  C   UNL     1     -44.569 -52.402  14.414  1.00  0.00     0.174 C 
HETATM   18  C   UNL     1     -45.916 -51.648  14.116  1.00  0.00     0.043 C 
HETATM   19  C   UNL     1     -47.095 -51.584  15.080  1.00  0.00     0.003 C 
HETATM   20  C   UNL     1     -46.886 -51.126  16.519  1.00  0.00     0.000 C 
HETATM   21  C   UNL     1     -45.566 -50.465  16.876  1.00  0.00     0.000 C 
HETATM   22  C   UNL     1     -44.369 -51.408  16.871  1.00  0.00     0.003 C 
HETATM   23  C   UNL     1     -43.755 -51.630  15.495  1.00  0.00     0.043 C 
BRANCH  17  24
HETATM   24  N   UNL     1     -44.710 -53.885  14.642  1.00  0.00     0.091 N 
HETATM   25  C   UNL     1     -45.395 -54.605  13.550  1.00  0.00     0.310 C 
HETATM   26  C   UNL     1     -43.494 -54.655  14.913  1.00  0.00     0.310 C 
ENDBRANCH  17  24
ENDBRANCH  16  17
ENDBRANCH   3  16
TORSDOF 7
ENDMDL
MODEL 9
REMARK VINA RESULT:      -5.2      3.154      7.668
REMARK  7 active torsions:
REMARK  status: ('A' for Active; 'I' for Inactive)
REMARK    1  A    between atoms: O_2  and  C_3 
REMARK    2  A    between atoms: C_3  and  C_4 
REMARK    3  A    between atoms: C_4  and  N_5 
REMARK    4  A    between atoms: C_7  and  C_12 
REMARK       I    between atoms: C_12  and  N_14 
REMARK    5  A    between atoms: N_14  and  C_15 
REMARK    6  A    between atoms: C_15  and  C_16 
REMARK    7  A    between atoms: C_16  and  N_23 
ROOT
HETATM    1  C   UNL     1     -43.304 -49.718  14.088  1.00  0.00     0.253 C 
HETATM    2  O   UNL     1     -43.368 -49.206  15.206  1.00  0.00    -0.268 OA
HETATM    3  N   UNL     1     -42.686 -49.097  13.026  1.00  0.00    -0.354 N 
HETATM    4  H   UNL     1     -42.511 -49.582  12.157  1.00  0.00     0.162 HD
ENDROOT
BRANCH   1   5
HETATM    5  C   UNL     1     -43.854 -51.107  13.870  1.00  0.00     0.047 A 
HETATM    6  C   UNL     1     -44.776 -51.678  14.667  1.00  0.00     0.111 A 
HETATM    7  N   UNL     1     -45.270 -52.956  14.414  1.00  0.00    -0.322 N 
HETATM    8  C   UNL     1     -44.841 -53.719  13.328  1.00  0.00     0.247 A 
HETATM    9  C   UNL     1     -43.782 -53.118  12.488  1.00  0.00     0.075 A 
HETATM   10  O   UNL     1     -45.271 -54.834  13.041  1.00  0.00    -0.268 OA
HETATM   11  C   UNL     1     -43.327 -51.885  12.755  1.00  0.00     0.024 A 
BRANCH   7  12
HETATM   12  C   UNL     1     -46.338 -53.499  15.254  1.00  0.00     0.158 C 
BRANCH  12  13
HETATM   13  C   UNL     1     -45.932 -53.705  16.714  1.00  0.00     0.187 C 
BRANCH  13  14
HETATM   14  O   UNL     1     -44.850 -54.642  16.768  1.00  0.00    -0.394 OA
HETATM   15  C   UNL     1     -43.938 -54.325  17.813  1.00  0.00     0.201 C 
ENDBRANCH  13  14
ENDBRANCH  12  13
ENDBRANCH   7  12
ENDBRANCH   1   5
BRANCH   3  16
HETATM   16  C   UNL     1     -41.974 -47.830  13.194  1.00  0.00     0.164 C 
BRANCH  16  17
HETATM   17  C   UNL     1     -40.437 -47.879  12.727  1.00  0.00     0.174 C 
HETATM   18  C   UNL     1     -40.301 -49.322  12.119  1.00  0.00     0.043 C 
HETATM   19  C   UNL     1     -39.028 -49.871  11.487  1.00  0.00     0.003 C 
HETATM   20  C   UNL     1     -37.708 -49.815  12.247  1.00  0.00     0.000 C 
HETATM   21  C   UNL     1     -37.749 -49.484  13.729  1.00  0.00     0.000 C 
HETATM   22  C   UNL     1     -38.131 -48.042  14.041  1.00  0.00     0.003 C 
HETATM   23  C   UNL     1     -39.633 -47.785  14.058  1.00  0.00     0.043 C 
BRANCH  17  24
HETATM   24  N   UNL     1     -40.208 -46.755  11.749  1.00  0.00     0.091 N 
HETATM   25  C   UNL     1     -41.223 -46.666  10.680  1.00  0.00     0.310 C 
HETATM   26  C   UNL     1     -40.085 -45.397  12.283  1.00  0.00     0.310 C 
ENDBRANCH  17  24
ENDBRANCH  16  17
ENDBRANCH   3  16
TORSDOF 7
ENDMDL
