MODEL 1
REMARK VINA RESULT:      -6.3      0.000      0.000
REMARK  5 active torsions:
REMARK  status: ('A' for Active; 'I' for Inactive)
REMARK    1  A    between atoms: C_2  and  C_4 
REMARK    2  A    between atoms: C_7  and  C_8 
REMARK    3  A    between atoms: C_8  and  C_9 
REMARK       I    between atoms: C_9  and  N_11 
REMARK    4  A    between atoms: N_11  and  C_12 
REMARK    5  A    between atoms: C_12  and  C_13 
REMARK       I    between atoms: C_13  and  N_15 
ROOT
HETATM    1  C   UNL     1     -41.175 -50.434  11.842  1.00  0.00     0.223 C 
HETATM    2  O   UNL     1     -42.233 -50.410  12.474  1.00  0.00    -0.273 OA
HETATM    3  N   UNL     1     -40.567 -51.617  11.503  1.00  0.00    -0.352 N 
HETATM    4  H   UNL     1     -39.728 -51.608  10.917  1.00  0.00     0.162 HD
ENDROOT
BRANCH   1   5
HETATM    5  C   UNL     1     -40.439 -49.152  11.502  1.00  0.00     0.160 C 
BRANCH   5   6
HETATM    6  C   UNL     1     -41.300 -48.060  10.962  1.00  0.00     0.025 A 
HETATM    7  N   UNL     1     -42.227 -48.353   9.969  1.00  0.00    -0.356 N 
HETATM    8  C   UNL     1     -42.848 -47.257   9.585  1.00  0.00     0.054 A 
ATOM      9  HN  UNL     1     -42.402 -49.285   9.592  1.00  0.00     0.166 HD
HETATM   10  S   UNL     1     -42.363 -45.818  10.394  1.00  0.00    -0.086 SA
HETATM   11  C   UNL     1     -41.242 -46.726  11.314  1.00  0.00     0.077 A 
BRANCH   8  12
HETATM   12  C   UNL     1     -43.918 -47.198   8.522  1.00  0.00     0.035 C 
HETATM   13  C   UNL     1     -43.590 -48.150   7.371  1.00  0.00     0.016 C 
HETATM   14  C   UNL     1     -45.287 -47.519   9.117  1.00  0.00     0.016 C 
ENDBRANCH   8  12
ENDBRANCH   5   6
ENDBRANCH   1   5
BRANCH   3  15
HETATM   15  C   UNL     1     -41.200 -52.883  11.806  1.00  0.00     0.225 C 
BRANCH  15  16
HETATM   16  C   UNL     1     -40.743 -53.503  13.135  1.00  0.00     0.237 C 
HETATM   17  O   UNL     1     -39.550 -53.615  13.419  1.00  0.00    -0.272 OA
HETATM   18  N   UNL     1     -41.753 -53.943  13.966  1.00  0.00    -0.351 N 
HETATM   19  C   UNL     1     -43.185 -53.825  13.737  1.00  0.00     0.126 C 
HETATM   20  C   UNL     1     -41.487 -54.590  15.232  1.00  0.00     0.126 C 
HETATM   21  C   UNL     1     -43.839 -54.715  14.791  1.00  0.00     0.021 C 
HETATM   22  C   UNL     1     -42.688 -55.503  15.412  1.00  0.00     0.021 C 
ENDBRANCH  15  16
ENDBRANCH   3  15
TORSDOF 5
ENDMDL
MODEL 2
REMARK VINA RESULT:      -6.1      2.181      2.548
REMARK  5 active torsions:
REMARK  status: ('A' for Active; 'I' for Inactive)
REMARK    1  A    between atoms: C_2  and  C_4 
REMARK    2  A    between atoms: C_7  and  C_8 
REMARK    3  A    between atoms: C_8  and  C_9 
REMARK       I    between atoms: C_9  and  N_11 
REMARK    4  A    between atoms: N_11  and  C_12 
REMARK    5  A    between atoms: C_12  and  C_13 
REMARK       I    between atoms: C_13  and  N_15 
ROOT
HETATM    1  C   UNL     1     -40.721 -51.058  11.987  1.00  0.00     0.223 C 
HETATM    2  O   UNL     1     -39.925 -51.808  12.553  1.00  0.00    -0.273 OA
HETATM    3  N   UNL     1     -42.066 -51.330  11.953  1.00  0.00    -0.352 N 
HETATM    4  H   UNL     1     -42.712 -50.654  11.538  1.00  0.00     0.162 HD
ENDROOT
BRANCH   1   5
HETATM    5  C   UNL     1     -40.238 -49.851  11.207  1.00  0.00     0.160 C 
BRANCH   5   6
HETATM    6  C   UNL     1     -41.230 -48.744  11.085  1.00  0.00     0.025 A 
HETATM    7  N   UNL     1     -41.988 -48.635   9.925  1.00  0.00    -0.356 N 
HETATM    8  C   UNL     1     -42.762 -47.571   9.983  1.00  0.00     0.054 A 
ATOM      9  HN  UNL     1     -41.950 -49.286   9.141  1.00  0.00     0.166 HD
HETATM   10  S   UNL     1     -42.633 -46.648  11.430  1.00  0.00    -0.086 SA
HETATM   11  C   UNL     1     -41.456 -47.745  12.012  1.00  0.00     0.077 A 
BRANCH   8  12
HETATM   12  C   UNL     1     -43.717 -47.138   8.898  1.00  0.00     0.035 C 
HETATM   13  C   UNL     1     -43.446 -47.901   7.602  1.00  0.00     0.016 C 
HETATM   14  C   UNL     1     -45.165 -47.331   9.347  1.00  0.00     0.016 C 
ENDBRANCH   8  12
ENDBRANCH   5   6
ENDBRANCH   1   5
BRANCH   3  15
HETATM   15  C   UNL     1     -42.603 -52.474  12.662  1.00  0.00     0.225 C 
BRANCH  15  16
HETATM   16  C   UNL     1     -43.063 -52.158  14.092  1.00  0.00     0.237 C 
HETATM   17  O   UNL     1     -42.303 -52.268  15.054  1.00  0.00    -0.272 OA
HETATM   18  N   UNL     1     -44.382 -51.771  14.223  1.00  0.00    -0.351 N 
HETATM   19  C   UNL     1     -45.345 -51.579  13.150  1.00  0.00     0.126 C 
HETATM   20  C   UNL     1     -44.980 -51.483  15.508  1.00  0.00     0.126 C 
HETATM   21  C   UNL     1     -46.700 -51.446  13.840  1.00  0.00     0.021 C 
HETATM   22  C   UNL     1     -46.442 -51.834  15.294  1.00  0.00     0.021 C 
ENDBRANCH  15  16
ENDBRANCH   3  15
TORSDOF 5
ENDMDL
MODEL 3
REMARK VINA RESULT:      -6.0      3.167      7.165
REMARK  5 active torsions:
REMARK  status: ('A' for Active; 'I' for Inactive)
REMARK    1  A    between atoms: C_2  and  C_4 
REMARK    2  A    between atoms: C_7  and  C_8 
REMARK    3  A    between atoms: C_8  and  C_9 
REMARK       I    between atoms: C_9  and  N_11 
REMARK    4  A    between atoms: N_11  and  C_12 
REMARK    5  A    between atoms: C_12  and  C_13 
REMARK       I    between atoms: C_13  and  N_15 
ROOT
HETATM    1  C   UNL     1     -41.185 -51.135  12.224  1.00  0.00     0.223 C 
HETATM    2  O   UNL     1     -41.417 -50.663  13.338  1.00  0.00    -0.273 OA
HETATM    3  N   UNL     1     -40.597 -50.387  11.234  1.00  0.00    -0.352 N 
HETATM    4  H   UNL     1     -40.352 -50.825  10.343  1.00  0.00     0.162 HD
ENDROOT
BRANCH   1   5
HETATM    5  C   UNL     1     -41.639 -52.535  11.858  1.00  0.00     0.160 C 
BRANCH   5   6
HETATM    6  C   UNL     1     -42.862 -53.004  12.574  1.00  0.00     0.025 A 
HETATM    7  N   UNL     1     -44.057 -52.318  12.399  1.00  0.00    -0.356 N 
HETATM    8  C   UNL     1     -45.002 -52.846  13.150  1.00  0.00     0.054 A 
ATOM      9  HN  UNL     1     -44.185 -51.520  11.776  1.00  0.00     0.166 HD
HETATM   10  S   UNL     1     -44.514 -54.194  14.100  1.00  0.00    -0.086 SA
HETATM   11  C   UNL     1     -42.931 -54.055  13.467  1.00  0.00     0.077 A 
BRANCH   8  12
HETATM   12  C   UNL     1     -46.427 -52.355  13.217  1.00  0.00     0.035 C 
HETATM   13  C   UNL     1     -46.615 -51.397  14.394  1.00  0.00     0.016 C 
HETATM   14  C   UNL     1     -46.828 -51.683  11.905  1.00  0.00     0.016 C 
ENDBRANCH   8  12
ENDBRANCH   5   6
ENDBRANCH   1   5
BRANCH   3  15
HETATM   15  C   UNL     1     -40.149 -49.035  11.502  1.00  0.00     0.225 C 
BRANCH  15  16
HETATM   16  C   UNL     1     -41.036 -47.952  10.872  1.00  0.00     0.237 C 
HETATM   17  O   UNL     1     -41.904 -48.229  10.042  1.00  0.00    -0.272 OA
HETATM   18  N   UNL     1     -40.777 -46.659  11.278  1.00  0.00    -0.351 N 
HETATM   19  C   UNL     1     -39.803 -46.236  12.272  1.00  0.00     0.126 C 
HETATM   20  C   UNL     1     -41.494 -45.522  10.744  1.00  0.00     0.126 C 
HETATM   21  C   UNL     1     -39.712 -44.718  12.130  1.00  0.00     0.021 C 
HETATM   22  C   UNL     1     -40.482 -44.394  10.852  1.00  0.00     0.021 C 
ENDBRANCH  15  16
ENDBRANCH   3  15
TORSDOF 5
ENDMDL
MODEL 4
REMARK VINA RESULT:      -5.8      3.678      6.298
REMARK  5 active torsions:
REMARK  status: ('A' for Active; 'I' for Inactive)
REMARK    1  A    between atoms: C_2  and  C_4 
REMARK    2  A    between atoms: C_7  and  C_8 
REMARK    3  A    between atoms: C_8  and  C_9 
REMARK       I    between atoms: C_9  and  N_11 
REMARK    4  A    between atoms: N_11  and  C_12 
REMARK    5  A    between atoms: C_12  and  C_13 
REMARK       I    between atoms: C_13  and  N_15 
ROOT
HETATM    1  C   UNL     1     -41.270 -51.157  12.125  1.00  0.00     0.223 C 
HETATM    2  O   UNL     1     -41.718 -50.529  13.086  1.00  0.00    -0.273 OA
HETATM    3  N   UNL     1     -40.456 -50.562  11.193  1.00  0.00    -0.352 N 
HETATM    4  H   UNL     1     -40.042 -51.125  10.446  1.00  0.00     0.162 HD
ENDROOT
BRANCH   1   5
HETATM    5  C   UNL     1     -41.686 -52.592  11.869  1.00  0.00     0.160 C 
BRANCH   5   6
HETATM    6  C   UNL     1     -42.903 -53.034  12.611  1.00  0.00     0.025 A 
HETATM    7  N   UNL     1     -44.102 -52.361  12.413  1.00  0.00    -0.356 N 
HETATM    8  C   UNL     1     -45.040 -52.858  13.191  1.00  0.00     0.054 A 
ATOM      9  HN  UNL     1     -44.236 -51.590  11.757  1.00  0.00     0.166 HD
HETATM   10  S   UNL     1     -44.542 -54.163  14.196  1.00  0.00    -0.086 SA
HETATM   11  C   UNL     1     -42.964 -54.047  13.549  1.00  0.00     0.077 A 
BRANCH   8  12
HETATM   12  C   UNL     1     -46.467 -52.370  13.245  1.00  0.00     0.035 C 
HETATM   13  C   UNL     1     -46.667 -51.413  14.421  1.00  0.00     0.016 C 
HETATM   14  C   UNL     1     -46.856 -51.699  11.930  1.00  0.00     0.016 C 
ENDBRANCH   8  12
ENDBRANCH   5   6
ENDBRANCH   1   5
BRANCH   3  15
HETATM   15  C   UNL     1     -40.027 -49.189  11.361  1.00  0.00     0.225 C 
BRANCH  15  16
HETATM   16  C   UNL     1     -38.683 -49.042  12.088  1.00  0.00     0.237 C 
HETATM   17  O   UNL     1     -37.659 -49.582  11.669  1.00  0.00    -0.272 OA
HETATM   18  N   UNL     1     -38.711 -48.292  13.247  1.00  0.00    -0.351 N 
HETATM   19  C   UNL     1     -39.857 -47.590  13.803  1.00  0.00     0.126 C 
HETATM   20  C   UNL     1     -37.538 -48.098  14.071  1.00  0.00     0.126 C 
HETATM   21  C   UNL     1     -39.434 -47.178  15.211  1.00  0.00     0.021 C 
HETATM   22  C   UNL     1     -38.121 -47.915  15.462  1.00  0.00     0.021 C 
ENDBRANCH  15  16
ENDBRANCH   3  15
TORSDOF 5
ENDMDL
MODEL 5
REMARK VINA RESULT:      -5.4      3.227      6.353
REMARK  5 active torsions:
REMARK  status: ('A' for Active; 'I' for Inactive)
REMARK    1  A    between atoms: C_2  and  C_4 
REMARK    2  A    between atoms: C_7  and  C_8 
REMARK    3  A    between atoms: C_8  and  C_9 
REMARK       I    between atoms: C_9  and  N_11 
REMARK    4  A    between atoms: N_11  and  C_12 
REMARK    5  A    between atoms: C_12  and  C_13 
REMARK       I    between atoms: C_13  and  N_15 
ROOT
HETATM    1  C   UNL     1     -40.828 -52.751  12.991  1.00  0.00     0.223 C 
HETATM    2  O   UNL     1     -41.188 -52.569  11.827  1.00  0.00    -0.273 OA
HETATM    3  N   UNL     1     -39.769 -52.065  13.532  1.00  0.00    -0.352 N 
HETATM    4  H   UNL     1     -39.537 -52.185  14.521  1.00  0.00     0.162 HD
ENDROOT
BRANCH   1   5
HETATM    5  C   UNL     1     -41.471 -53.823  13.849  1.00  0.00     0.160 C 
BRANCH   5   6
HETATM    6  C   UNL     1     -42.958 -53.742  13.944  1.00  0.00     0.025 A 
HETATM    7  N   UNL     1     -43.596 -52.553  13.608  1.00  0.00    -0.356 N 
HETATM    8  C   UNL     1     -44.894 -52.659  13.807  1.00  0.00     0.054 A 
ATOM      9  HN  UNL     1     -43.126 -51.718  13.257  1.00  0.00     0.166 HD
HETATM   10  S   UNL     1     -45.422 -54.186  14.399  1.00  0.00    -0.086 SA
HETATM   11  C   UNL     1     -43.803 -54.737  14.393  1.00  0.00     0.077 A 
BRANCH   8  12
HETATM   12  C   UNL     1     -45.898 -51.562  13.553  1.00  0.00     0.035 C 
HETATM   13  C   UNL     1     -46.675 -51.827  12.263  1.00  0.00     0.016 C 
HETATM   14  C   UNL     1     -46.851 -51.419  14.738  1.00  0.00     0.016 C 
ENDBRANCH   8  12
ENDBRANCH   5   6
ENDBRANCH   1   5
BRANCH   3  15
HETATM   15  C   UNL     1     -39.093 -51.036  12.770  1.00  0.00     0.225 C 
BRANCH  15  16
HETATM   16  C   UNL     1     -39.380 -49.610  13.261  1.00  0.00     0.237 C 
HETATM   17  O   UNL     1     -38.961 -49.203  14.345  1.00  0.00    -0.272 OA
HETATM   18  N   UNL     1     -40.153 -48.834  12.421  1.00  0.00    -0.351 N 
HETATM   19  C   UNL     1     -40.664 -49.210  11.111  1.00  0.00     0.126 C 
HETATM   20  C   UNL     1     -40.550 -47.485  12.760  1.00  0.00     0.126 C 
HETATM   21  C   UNL     1     -41.682 -48.131  10.748  1.00  0.00     0.021 C 
HETATM   22  C   UNL     1     -41.872 -47.321  12.028  1.00  0.00     0.021 C 
ENDBRANCH  15  16
ENDBRANCH   3  15
TORSDOF 5
ENDMDL
MODEL 6
REMARK VINA RESULT:      -5.4      3.127      7.556
REMARK  5 active torsions:
REMARK  status: ('A' for Active; 'I' for Inactive)
REMARK    1  A    between atoms: C_2  and  C_4 
REMARK    2  A    between atoms: C_7  and  C_8 
REMARK    3  A    between atoms: C_8  and  C_9 
REMARK       I    between atoms: C_9  and  N_11 
REMARK    4  A    between atoms: N_11  and  C_12 
REMARK    5  A    between atoms: C_12  and  C_13 
REMARK       I    between atoms: C_13  and  N_15 
ROOT
HETATM    1  C   UNL     1     -42.422 -49.305  12.047  1.00  0.00     0.223 C 
HETATM    2  O   UNL     1     -43.085 -49.031  13.049  1.00  0.00    -0.273 OA
HETATM    3  N   UNL     1     -42.567 -48.605  10.876  1.00  0.00    -0.352 N 
HETATM    4  H   UNL     1     -41.954 -48.807  10.082  1.00  0.00     0.162 HD
ENDROOT
BRANCH   1   5
HETATM    5  C   UNL     1     -41.489 -50.500  12.031  1.00  0.00     0.160 C 
BRANCH   5   6
HETATM    6  C   UNL     1     -42.094 -51.774  12.518  1.00  0.00     0.025 A 
HETATM    7  N   UNL     1     -43.467 -51.959  12.409  1.00  0.00    -0.356 N 
HETATM    8  C   UNL     1     -43.817 -53.113  12.940  1.00  0.00     0.054 A 
ATOM      9  HN  UNL     1     -44.113 -51.296  11.979  1.00  0.00     0.166 HD
HETATM   10  S   UNL     1     -42.523 -54.042  13.591  1.00  0.00    -0.086 SA
HETATM   11  C   UNL     1     -41.425 -52.812  13.136  1.00  0.00     0.077 A 
BRANCH   8  12
HETATM   12  C   UNL     1     -45.228 -53.642  13.004  1.00  0.00     0.035 C 
HETATM   13  C   UNL     1     -45.274 -54.972  13.757  1.00  0.00     0.016 C 
HETATM   14  C   UNL     1     -46.159 -52.620  13.654  1.00  0.00     0.016 C 
ENDBRANCH   8  12
ENDBRANCH   5   6
ENDBRANCH   1   5
BRANCH   3  15
HETATM   15  C   UNL     1     -43.451 -47.459  10.808  1.00  0.00     0.225 C 
BRANCH  15  16
HETATM   16  C   UNL     1     -42.750 -46.158  10.393  1.00  0.00     0.237 C 
HETATM   17  O   UNL     1     -42.582 -45.863   9.209  1.00  0.00    -0.272 OA
HETATM   18  N   UNL     1     -42.304 -45.364  11.430  1.00  0.00    -0.351 N 
HETATM   19  C   UNL     1     -42.483 -45.606  12.853  1.00  0.00     0.126 C 
HETATM   20  C   UNL     1     -41.585 -44.129  11.205  1.00  0.00     0.126 C 
HETATM   21  C   UNL     1     -41.564 -44.608  13.553  1.00  0.00     0.021 C 
HETATM   22  C   UNL     1     -40.707 -44.012  12.440  1.00  0.00     0.021 C 
ENDBRANCH  15  16
ENDBRANCH   3  15
TORSDOF 5
ENDMDL
MODEL 7
REMARK VINA RESULT:      -5.3      3.013      4.000
REMARK  5 active torsions:
REMARK  status: ('A' for Active; 'I' for Inactive)
REMARK    1  A    between atoms: C_2  and  C_4 
REMARK    2  A    between atoms: C_7  and  C_8 
REMARK    3  A    between atoms: C_8  and  C_9 
REMARK       I    between atoms: C_9  and  N_11 
REMARK    4  A    between atoms: N_11  and  C_12 
REMARK    5  A    between atoms: C_12  and  C_13 
REMARK       I    between atoms: C_13  and  N_15 
ROOT
HETATM    1  C   UNL     1     -40.831 -51.296  11.947  1.00  0.00     0.223 C 
HETATM    2  O   UNL     1     -39.927 -51.960  12.456  1.00  0.00    -0.273 OA
HETATM    3  N   UNL     1     -42.148 -51.665  12.063  1.00  0.00    -0.352 N 
HETATM    4  H   UNL     1     -42.882 -51.058  11.690  1.00  0.00     0.162 HD
ENDROOT
BRANCH   1   5
HETATM    5  C   UNL     1     -40.521 -50.096  11.073  1.00  0.00     0.160 C 
BRANCH   5   6
HETATM    6  C   UNL     1     -40.379 -48.805  11.809  1.00  0.00     0.025 A 
HETATM    7  N   UNL     1     -40.149 -47.637  11.093  1.00  0.00    -0.356 N 
HETATM    8  C   UNL     1     -39.997 -46.619  11.915  1.00  0.00     0.054 A 
ATOM      9  HN  UNL     1     -40.104 -47.576  10.075  1.00  0.00     0.166 HD
HETATM   10  S   UNL     1     -40.130 -47.002  13.587  1.00  0.00    -0.086 SA
HETATM   11  C   UNL     1     -40.400 -48.641  13.180  1.00  0.00     0.077 A 
BRANCH   8  12
HETATM   12  C   UNL     1     -39.729 -45.197  11.488  1.00  0.00     0.035 C 
HETATM   13  C   UNL     1     -41.013 -44.528  10.996  1.00  0.00     0.016 C 
HETATM   14  C   UNL     1     -39.107 -44.399  12.632  1.00  0.00     0.016 C 
ENDBRANCH   8  12
ENDBRANCH   5   6
ENDBRANCH   1   5
BRANCH   3  15
HETATM   15  C   UNL     1     -42.523 -52.810  12.868  1.00  0.00     0.225 C 
BRANCH  15  16
HETATM   16  C   UNL     1     -44.027 -53.117  12.848  1.00  0.00     0.237 C 
HETATM   17  O   UNL     1     -44.527 -53.841  11.986  1.00  0.00    -0.272 OA
HETATM   18  N   UNL     1     -44.773 -52.511  13.838  1.00  0.00    -0.351 N 
HETATM   19  C   UNL     1     -44.273 -51.670  14.915  1.00  0.00     0.126 C 
HETATM   20  C   UNL     1     -46.209 -52.663  13.928  1.00  0.00     0.126 C 
HETATM   21  C   UNL     1     -45.512 -51.029  15.537  1.00  0.00     0.021 C 
HETATM   22  C   UNL     1     -46.653 -51.364  14.579  1.00  0.00     0.021 C 
ENDBRANCH  15  16
ENDBRANCH   3  15
TORSDOF 5
ENDMDL
MODEL 8
REMARK VINA RESULT:      -5.3      3.053      4.443
REMARK  5 active torsions:
REMARK  status: ('A' for Active; 'I' for Inactive)
REMARK    1  A    between atoms: C_2  and  C_4 
REMARK    2  A    between atoms: C_7  and  C_8 
REMARK    3  A    between atoms: C_8  and  C_9 
REMARK       I    between atoms: C_9  and  N_11 
REMARK    4  A    between atoms: N_11  and  C_12 
REMARK    5  A    between atoms: C_12  and  C_13 
REMARK       I    between atoms: C_13  and  N_15 
ROOT
HETATM    1  C   UNL     1     -42.104 -52.798  12.569  1.00  0.00     0.223 C 
HETATM    2  O   UNL     1     -41.900 -53.158  13.730  1.00  0.00    -0.273 OA
HETATM    3  N   UNL     1     -43.263 -53.120  11.909  1.00  0.00    -0.352 N 
HETATM    4  H   UNL     1     -43.435 -52.748  10.971  1.00  0.00     0.162 HD
ENDROOT
BRANCH   1   5
HETATM    5  C   UNL     1     -41.033 -52.071  11.778  1.00  0.00     0.160 C 
BRANCH   5   6
HETATM    6  C   UNL     1     -40.976 -50.597  12.008  1.00  0.00     0.025 A 
HETATM    7  N   UNL     1     -41.683 -50.048  13.071  1.00  0.00    -0.356 N 
HETATM    8  C   UNL     1     -41.555 -48.737  13.076  1.00  0.00     0.054 A 
ATOM      9  HN  UNL     1     -42.225 -50.583  13.750  1.00  0.00     0.166 HD
HETATM   10  S   UNL     1     -40.576 -48.091  11.817  1.00  0.00    -0.086 SA
HETATM   11  C   UNL     1     -40.315 -49.674  11.223  1.00  0.00     0.077 A 
BRANCH   8  12
HETATM   12  C   UNL     1     -42.189 -47.811  14.085  1.00  0.00     0.035 C 
HETATM   13  C   UNL     1     -43.012 -46.729  13.384  1.00  0.00     0.016 C 
HETATM   14  C   UNL     1     -43.054 -48.597  15.069  1.00  0.00     0.016 C 
ENDBRANCH   8  12
ENDBRANCH   5   6
ENDBRANCH   1   5
BRANCH   3  15
HETATM   15  C   UNL     1     -44.326 -53.828  12.592  1.00  0.00     0.225 C 
BRANCH  15  16
HETATM   16  C   UNL     1     -45.560 -52.962  12.884  1.00  0.00     0.237 C 
HETATM   17  O   UNL     1     -46.318 -52.593  11.986  1.00  0.00    -0.272 OA
HETATM   18  N   UNL     1     -45.743 -52.610  14.206  1.00  0.00    -0.351 N 
HETATM   19  C   UNL     1     -44.928 -53.022  15.338  1.00  0.00     0.126 C 
HETATM   20  C   UNL     1     -46.831 -51.761  14.638  1.00  0.00     0.126 C 
HETATM   21  C   UNL     1     -45.371 -52.136  16.500  1.00  0.00     0.021 C 
HETATM   22  C   UNL     1     -46.264 -51.072  15.867  1.00  0.00     0.021 C 
ENDBRANCH  15  16
ENDBRANCH   3  15
TORSDOF 5
ENDMDL
MODEL 9
REMARK VINA RESULT:      -5.2      4.825      6.444
REMARK  5 active torsions:
REMARK  status: ('A' for Active; 'I' for Inactive)
REMARK    1  A    between atoms: C_2  and  C_4 
REMARK    2  A    between atoms: C_7  and  C_8 
REMARK    3  A    between atoms: C_8  and  C_9 
REMARK       I    between atoms: C_9  and  N_11 
REMARK    4  A    between atoms: N_11  and  C_12 
REMARK    5  A    between atoms: C_12  and  C_13 
REMARK       I    between atoms: C_13  and  N_15 
ROOT
HETATM    1  C   UNL     1     -40.880 -53.868  13.196  1.00  0.00     0.223 C 
HETATM    2  O   UNL     1     -40.612 -53.286  12.144  1.00  0.00    -0.273 OA
HETATM    3  N   UNL     1     -42.177 -54.069  13.598  1.00  0.00    -0.352 N 
HETATM    4  H   UNL     1     -42.369 -54.617  14.441  1.00  0.00     0.162 HD
ENDROOT
BRANCH   1   5
HETATM    5  C   UNL     1     -39.782 -54.295  14.152  1.00  0.00     0.160 C 
BRANCH   5   6
HETATM    6  C   UNL     1     -39.202 -53.192  14.973  1.00  0.00     0.025 A 
HETATM    7  N   UNL     1     -38.934 -51.967  14.373  1.00  0.00    -0.356 N 
HETATM    8  C   UNL     1     -38.377 -51.146  15.240  1.00  0.00     0.054 A 
ATOM      9  HN  UNL     1     -39.138 -51.737  13.400  1.00  0.00     0.166 HD
HETATM   10  S   UNL     1     -38.153 -51.790  16.820  1.00  0.00    -0.086 SA
HETATM   11  C   UNL     1     -38.840 -53.268  16.304  1.00  0.00     0.077 A 
BRANCH   8  12
HETATM   12  C   UNL     1     -37.948 -49.732  14.936  1.00  0.00     0.035 C 
HETATM   13  C   UNL     1     -36.634 -49.401  15.645  1.00  0.00     0.016 C 
HETATM   14  C   UNL     1     -37.818 -49.520  13.429  1.00  0.00     0.016 C 
ENDBRANCH   8  12
ENDBRANCH   5   6
ENDBRANCH   1   5
BRANCH   3  15
HETATM   15  C   UNL     1     -43.280 -53.675  12.747  1.00  0.00     0.225 C 
BRANCH  15  16
HETATM   16  C   UNL     1     -44.662 -53.979  13.342  1.00  0.00     0.237 C 
HETATM   17  O   UNL     1     -45.270 -55.015  13.068  1.00  0.00    -0.272 OA
HETATM   18  N   UNL     1     -45.180 -53.009  14.176  1.00  0.00    -0.351 N 
HETATM   19  C   UNL     1     -44.528 -51.774  14.586  1.00  0.00     0.126 C 
HETATM   20  C   UNL     1     -46.489 -53.124  14.778  1.00  0.00     0.126 C 
HETATM   21  C   UNL     1     -45.621 -50.941  15.250  1.00  0.00     0.021 C 
HETATM   22  C   UNL     1     -46.923 -51.677  14.941  1.00  0.00     0.021 C 
ENDBRANCH  15  16
ENDBRANCH   3  15
TORSDOF 5
ENDMDL
