MODEL 1
REMARK VINA RESULT:      -5.8      0.000      0.000
REMARK  6 active torsions:
REMARK  status: ('A' for Active; 'I' for Inactive)
REMARK    1  A    between atoms: C_2  and  C_3 
REMARK    2  A    between atoms: C_6  and  C_7 
REMARK    3  A    between atoms: C_7  and  C_8 
REMARK    4  A    between atoms: C_8  and  N_9 
REMARK       I    between atoms: N_9  and  C_10 
REMARK    5  A    between atoms: C_10  and  C_12 
REMARK    6  A    between atoms: C_12  and  C_13 
ROOT
HETATM    1  C   UNL     1     -41.641 -50.666  12.605  1.00  0.00     0.129 C 
ENDROOT
BRANCH   1   2
HETATM    2  C   UNL     1     -40.770 -50.204  11.441  1.00  0.00     0.084 C 
BRANCH   2   3
HETATM    3  C   UNL     1     -41.116 -48.807  11.033  1.00  0.00     0.053 A 
HETATM    4  N   UNL     1     -42.096 -48.494  10.213  1.00  0.00    -0.356 N 
HETATM    5  C   UNL     1     -42.153 -47.117  10.038  1.00  0.00     0.022 A 
ATOM      6  HN  UNL     1     -42.724 -49.166   9.771  1.00  0.00     0.166 HD
HETATM    7  C   UNL     1     -41.191 -46.403  10.735  1.00  0.00     0.003 A 
HETATM    8  S   UNL     1     -40.212 -47.480  11.639  1.00  0.00    -0.080 SA
HETATM    9  C   UNL     1     -40.950 -44.937  10.786  1.00  0.00     0.058 C 
BRANCH   5  10
HETATM   10  C   UNL     1     -43.225 -46.563   9.154  1.00  0.00     0.054 C 
HETATM   11  C   UNL     1     -43.797 -47.600   8.201  1.00  0.00     0.011 C 
ENDBRANCH   5  10
ENDBRANCH   2   3
ENDBRANCH   1   2
BRANCH   1  12
HETATM   12  N   UNL     1     -42.704 -51.563  12.180  1.00  0.00    -0.361 N 
HETATM   13  C   UNL     1     -43.287 -52.425  13.085  1.00  0.00     0.218 C 
HETATM   14  O   UNL     1     -43.038 -52.417  14.287  1.00  0.00    -0.274 OA
HETATM   15  H   UNL     1     -42.744 -51.825  11.202  1.00  0.00     0.162 HD
BRANCH  13  16
HETATM   16  C   UNL     1     -44.294 -53.386  12.479  1.00  0.00     0.111 C 
BRANCH  16  17
HETATM   17  C   UNL     1     -45.755 -53.071  12.800  1.00  0.00     0.017 C 
HETATM   18  C   UNL     1     -46.074 -51.572  12.937  1.00  0.00     0.012 C 
HETATM   19  C   UNL     1     -46.321 -51.310  14.423  1.00  0.00     0.027 C 
HETATM   20  C   UNL     1     -46.553 -52.676  14.976  1.00  0.00    -0.030 C 
HETATM   21  C   UNL     1     -46.241 -53.636  14.101  1.00  0.00    -0.026 C 
ENDBRANCH  16  17
ENDBRANCH  13  16
ENDBRANCH   1  12
TORSDOF 6
ENDMDL
MODEL 2
REMARK VINA RESULT:      -5.8      2.351      6.465
REMARK  6 active torsions:
REMARK  status: ('A' for Active; 'I' for Inactive)
REMARK    1  A    between atoms: C_2  and  C_3 
REMARK    2  A    between atoms: C_6  and  C_7 
REMARK    3  A    between atoms: C_7  and  C_8 
REMARK    4  A    between atoms: C_8  and  N_9 
REMARK       I    between atoms: N_9  and  C_10 
REMARK    5  A    between atoms: C_10  and  C_12 
REMARK    6  A    between atoms: C_12  and  C_13 
ROOT
HETATM    1  C   UNL     1     -40.559 -51.254  12.047  1.00  0.00     0.129 C 
ENDROOT
BRANCH   1   2
HETATM    2  C   UNL     1     -41.420 -52.483  11.772  1.00  0.00     0.084 C 
BRANCH   2   3
HETATM    3  C   UNL     1     -42.574 -52.553  12.721  1.00  0.00     0.053 A 
HETATM    4  N   UNL     1     -43.682 -51.854  12.597  1.00  0.00    -0.356 N 
HETATM    5  C   UNL     1     -44.552 -52.146  13.640  1.00  0.00     0.022 A 
ATOM      6  HN  UNL     1     -43.874 -51.194  11.843  1.00  0.00     0.166 HD
HETATM    7  C   UNL     1     -44.073 -53.071  14.554  1.00  0.00     0.003 A 
HETATM    8  S   UNL     1     -42.511 -53.594  14.084  1.00  0.00    -0.080 SA
HETATM    9  C   UNL     1     -44.717 -53.614  15.779  1.00  0.00     0.058 C 
BRANCH   5  10
HETATM   10  C   UNL     1     -45.884 -51.465  13.658  1.00  0.00     0.054 C 
HETATM   11  C   UNL     1     -46.664 -51.663  12.368  1.00  0.00     0.011 C 
ENDBRANCH   5  10
ENDBRANCH   2   3
ENDBRANCH   1   2
BRANCH   1  12
HETATM   12  N   UNL     1     -40.813 -50.177  11.102  1.00  0.00    -0.361 N 
HETATM   13  C   UNL     1     -41.679 -49.155  11.433  1.00  0.00     0.218 C 
HETATM   14  O   UNL     1     -42.188 -49.030  12.542  1.00  0.00    -0.274 OA
HETATM   15  H   UNL     1     -40.677 -50.366  10.117  1.00  0.00     0.162 HD
BRANCH  13  16
HETATM   16  C   UNL     1     -41.944 -48.169  10.310  1.00  0.00     0.111 C 
BRANCH  16  17
HETATM   17  C   UNL     1     -43.071 -47.173  10.584  1.00  0.00     0.017 C 
HETATM   18  C   UNL     1     -44.474 -47.665  10.188  1.00  0.00     0.012 C 
HETATM   19  C   UNL     1     -44.887 -46.867   8.951  1.00  0.00     0.027 C 
HETATM   20  C   UNL     1     -43.942 -45.713   8.959  1.00  0.00    -0.030 C 
HETATM   21  C   UNL     1     -42.950 -45.877   9.839  1.00  0.00    -0.026 C 
ENDBRANCH  16  17
ENDBRANCH  13  16
ENDBRANCH   1  12
TORSDOF 6
ENDMDL
MODEL 3
REMARK VINA RESULT:      -5.6      1.824      2.325
REMARK  6 active torsions:
REMARK  status: ('A' for Active; 'I' for Inactive)
REMARK    1  A    between atoms: C_2  and  C_3 
REMARK    2  A    between atoms: C_6  and  C_7 
REMARK    3  A    between atoms: C_7  and  C_8 
REMARK    4  A    between atoms: C_8  and  N_9 
REMARK       I    between atoms: N_9  and  C_10 
REMARK    5  A    between atoms: C_10  and  C_12 
REMARK    6  A    between atoms: C_12  and  C_13 
ROOT
HETATM    1  C   UNL     1     -40.081 -50.495  13.128  1.00  0.00     0.129 C 
ENDROOT
BRANCH   1   2
HETATM    2  C   UNL     1     -39.852 -50.125  11.666  1.00  0.00     0.084 C 
BRANCH   2   3
HETATM    3  C   UNL     1     -40.664 -48.929  11.282  1.00  0.00     0.053 A 
HETATM    4  N   UNL     1     -41.837 -48.986  10.689  1.00  0.00    -0.356 N 
HETATM    5  C   UNL     1     -42.325 -47.705  10.467  1.00  0.00     0.022 A 
ATOM      6  HN  UNL     1     -42.318 -49.848  10.429  1.00  0.00     0.166 HD
HETATM    7  C   UNL     1     -41.492 -46.684  10.898  1.00  0.00     0.003 A 
HETATM    8  S   UNL     1     -40.082 -47.348  11.608  1.00  0.00    -0.080 SA
HETATM    9  C   UNL     1     -41.683 -45.211  10.826  1.00  0.00     0.058 C 
BRANCH   5  10
HETATM   10  C   UNL     1     -43.667 -47.564   9.821  1.00  0.00     0.054 C 
HETATM   11  C   UNL     1     -43.595 -47.597   8.303  1.00  0.00     0.011 C 
ENDBRANCH   5  10
ENDBRANCH   2   3
ENDBRANCH   1   2
BRANCH   1  12
HETATM   12  N   UNL     1     -40.997 -51.616  13.279  1.00  0.00    -0.361 N 
HETATM   13  C   UNL     1     -40.521 -52.910  13.234  1.00  0.00     0.218 C 
HETATM   14  O   UNL     1     -39.329 -53.192  13.178  1.00  0.00    -0.274 OA
HETATM   15  H   UNL     1     -41.969 -51.473  13.033  1.00  0.00     0.162 HD
BRANCH  13  16
HETATM   16  C   UNL     1     -41.600 -53.977  13.280  1.00  0.00     0.111 C 
BRANCH  16  17
HETATM   17  C   UNL     1     -42.960 -53.492  13.783  1.00  0.00     0.017 C 
HETATM   18  C   UNL     1     -43.635 -54.421  14.808  1.00  0.00     0.012 C 
HETATM   19  C   UNL     1     -44.813 -55.084  14.092  1.00  0.00     0.027 C 
HETATM   20  C   UNL     1     -45.011 -54.220  12.892  1.00  0.00    -0.030 C 
HETATM   21  C   UNL     1     -44.005 -53.359  12.715  1.00  0.00    -0.026 C 
ENDBRANCH  16  17
ENDBRANCH  13  16
ENDBRANCH   1  12
TORSDOF 6
ENDMDL
MODEL 4
REMARK VINA RESULT:      -5.4      2.870      4.152
REMARK  6 active torsions:
REMARK  status: ('A' for Active; 'I' for Inactive)
REMARK    1  A    between atoms: C_2  and  C_3 
REMARK    2  A    between atoms: C_6  and  C_7 
REMARK    3  A    between atoms: C_7  and  C_8 
REMARK    4  A    between atoms: C_8  and  N_9 
REMARK       I    between atoms: N_9  and  C_10 
REMARK    5  A    between atoms: C_10  and  C_12 
REMARK    6  A    between atoms: C_12  and  C_13 
ROOT
HETATM    1  C   UNL     1     -42.350 -54.235  13.518  1.00  0.00     0.129 C 
ENDROOT
BRANCH   1   2
HETATM    2  C   UNL     1     -41.188 -53.552  14.231  1.00  0.00     0.084 C 
BRANCH   2   3
HETATM    3  C   UNL     1     -40.743 -52.333  13.486  1.00  0.00     0.053 A 
HETATM    4  N   UNL     1     -39.540 -51.809  13.571  1.00  0.00    -0.356 N 
HETATM    5  C   UNL     1     -39.449 -50.685  12.760  1.00  0.00     0.022 A 
ATOM      6  HN  UNL     1     -38.783 -52.175  14.148  1.00  0.00     0.166 HD
HETATM    7  C   UNL     1     -40.610 -50.371  12.071  1.00  0.00     0.003 A 
HETATM    8  S   UNL     1     -41.829 -51.517  12.436  1.00  0.00    -0.080 SA
HETATM    9  C   UNL     1     -40.880 -49.254  11.127  1.00  0.00     0.058 C 
BRANCH   5  10
HETATM   10  C   UNL     1     -38.141 -49.961  12.702  1.00  0.00     0.054 C 
HETATM   11  C   UNL     1     -37.390 -50.206  11.403  1.00  0.00     0.011 C 
ENDBRANCH   5  10
ENDBRANCH   2   3
ENDBRANCH   1   2
BRANCH   1  12
HETATM   12  N   UNL     1     -43.596 -54.131  14.262  1.00  0.00    -0.361 N 
HETATM   13  C   UNL     1     -44.804 -54.128  13.595  1.00  0.00     0.218 C 
HETATM   14  O   UNL     1     -44.912 -54.319  12.388  1.00  0.00    -0.274 OA
HETATM   15  H   UNL     1     -43.571 -53.688  15.172  1.00  0.00     0.162 HD
BRANCH  13  16
HETATM   16  C   UNL     1     -46.011 -53.890  14.484  1.00  0.00     0.111 C 
BRANCH  16  17
HETATM   17  C   UNL     1     -46.520 -52.448  14.502  1.00  0.00     0.017 C 
HETATM   18  C   UNL     1     -45.437 -51.382  14.255  1.00  0.00     0.012 C 
HETATM   19  C   UNL     1     -45.202 -50.677  15.592  1.00  0.00     0.027 C 
HETATM   20  C   UNL     1     -46.405 -51.051  16.390  1.00  0.00    -0.030 C 
HETATM   21  C   UNL     1     -47.121 -52.017  15.807  1.00  0.00    -0.026 C 
ENDBRANCH  16  17
ENDBRANCH  13  16
ENDBRANCH   1  12
TORSDOF 6
ENDMDL
MODEL 5
REMARK VINA RESULT:      -5.4      2.470      7.234
REMARK  6 active torsions:
REMARK  status: ('A' for Active; 'I' for Inactive)
REMARK    1  A    between atoms: C_2  and  C_3 
REMARK    2  A    between atoms: C_6  and  C_7 
REMARK    3  A    between atoms: C_7  and  C_8 
REMARK    4  A    between atoms: C_8  and  N_9 
REMARK       I    between atoms: N_9  and  C_10 
REMARK    5  A    between atoms: C_10  and  C_12 
REMARK    6  A    between atoms: C_12  and  C_13 
ROOT
HETATM    1  C   UNL     1     -40.925 -50.526  12.932  1.00  0.00     0.129 C 
ENDROOT
BRANCH   1   2
HETATM    2  C   UNL     1     -41.343 -51.748  12.119  1.00  0.00     0.084 C 
BRANCH   2   3
HETATM    3  C   UNL     1     -42.681 -52.252  12.557  1.00  0.00     0.053 A 
HETATM    4  N   UNL     1     -43.779 -51.528  12.575  1.00  0.00    -0.356 N 
HETATM    5  C   UNL     1     -44.847 -52.289  13.034  1.00  0.00     0.022 A 
ATOM      6  HN  UNL     1     -43.837 -50.550  12.292  1.00  0.00     0.166 HD
HETATM    7  C   UNL     1     -44.528 -53.595  13.368  1.00  0.00     0.003 A 
HETATM    8  S   UNL     1     -42.862 -53.876  13.083  1.00  0.00    -0.080 SA
HETATM    9  C   UNL     1     -45.401 -54.681  13.888  1.00  0.00     0.058 C 
BRANCH   5  10
HETATM   10  C   UNL     1     -46.195 -51.643  13.102  1.00  0.00     0.054 C 
HETATM   11  C   UNL     1     -46.956 -51.732  11.790  1.00  0.00     0.011 C 
ENDBRANCH   5  10
ENDBRANCH   2   3
ENDBRANCH   1   2
BRANCH   1  12
HETATM   12  N   UNL     1     -40.656 -49.368  12.094  1.00  0.00    -0.361 N 
HETATM   13  C   UNL     1     -41.683 -48.519  11.734  1.00  0.00     0.218 C 
HETATM   14  O   UNL     1     -42.826 -48.615  12.170  1.00  0.00    -0.274 OA
HETATM   15  H   UNL     1     -39.848 -49.399  11.485  1.00  0.00     0.162 HD
BRANCH  13  16
HETATM   16  C   UNL     1     -41.281 -47.426  10.760  1.00  0.00     0.111 C 
BRANCH  16  17
HETATM   17  C   UNL     1     -40.126 -46.541  11.230  1.00  0.00     0.017 C 
HETATM   18  C   UNL     1     -40.374 -45.817  12.565  1.00  0.00     0.012 C 
HETATM   19  C   UNL     1     -40.574 -44.338  12.232  1.00  0.00     0.027 C 
HETATM   20  C   UNL     1     -40.026 -44.223  10.850  1.00  0.00    -0.030 C 
HETATM   21  C   UNL     1     -39.787 -45.417  10.298  1.00  0.00    -0.026 C 
ENDBRANCH  16  17
ENDBRANCH  13  16
ENDBRANCH   1  12
TORSDOF 6
ENDMDL
MODEL 6
REMARK VINA RESULT:      -5.4      2.544      4.142
REMARK  6 active torsions:
REMARK  status: ('A' for Active; 'I' for Inactive)
REMARK    1  A    between atoms: C_2  and  C_3 
REMARK    2  A    between atoms: C_6  and  C_7 
REMARK    3  A    between atoms: C_7  and  C_8 
REMARK    4  A    between atoms: C_8  and  N_9 
REMARK       I    between atoms: N_9  and  C_10 
REMARK    5  A    between atoms: C_10  and  C_12 
REMARK    6  A    between atoms: C_12  and  C_13 
ROOT
HETATM    1  C   UNL     1     -44.172 -53.275  12.295  1.00  0.00     0.129 C 
ENDROOT
BRANCH   1   2
HETATM    2  C   UNL     1     -42.940 -53.470  13.172  1.00  0.00     0.084 C 
BRANCH   2   3
HETATM    3  C   UNL     1     -41.867 -52.489  12.816  1.00  0.00     0.053 A 
HETATM    4  N   UNL     1     -42.045 -51.443  12.039  1.00  0.00    -0.356 N 
HETATM    5  C   UNL     1     -40.855 -50.738  11.905  1.00  0.00     0.022 A 
ATOM      6  HN  UNL     1     -42.928 -51.187  11.598  1.00  0.00     0.166 HD
HETATM    7  C   UNL     1     -39.779 -51.279  12.591  1.00  0.00     0.003 A 
HETATM    8  S   UNL     1     -40.277 -52.687  13.430  1.00  0.00    -0.080 SA
HETATM    9  C   UNL     1     -38.373 -50.804  12.676  1.00  0.00     0.058 C 
BRANCH   5  10
HETATM   10  C   UNL     1     -40.863 -49.494  11.074  1.00  0.00     0.054 C 
HETATM   11  C   UNL     1     -41.002 -48.231  11.907  1.00  0.00     0.011 C 
ENDBRANCH   5  10
ENDBRANCH   2   3
ENDBRANCH   1   2
BRANCH   1  12
HETATM   12  N   UNL     1     -45.349 -52.906  13.066  1.00  0.00    -0.361 N 
HETATM   13  C   UNL     1     -45.572 -51.587  13.402  1.00  0.00     0.218 C 
HETATM   14  O   UNL     1     -44.882 -50.658  12.995  1.00  0.00    -0.274 OA
HETATM   15  H   UNL     1     -45.769 -53.611  13.660  1.00  0.00     0.162 HD
BRANCH  13  16
HETATM   16  C   UNL     1     -46.768 -51.364  14.311  1.00  0.00     0.111 C 
BRANCH  16  17
HETATM   17  C   UNL     1     -46.548 -51.765  15.770  1.00  0.00     0.017 C 
HETATM   18  C   UNL     1     -47.732 -51.461  16.705  1.00  0.00     0.012 C 
HETATM   19  C   UNL     1     -47.302 -50.293  17.593  1.00  0.00     0.027 C 
HETATM   20  C   UNL     1     -45.819 -50.272  17.434  1.00  0.00    -0.030 C 
HETATM   21  C   UNL     1     -45.404 -51.064  16.441  1.00  0.00    -0.026 C 
ENDBRANCH  16  17
ENDBRANCH  13  16
ENDBRANCH   1  12
TORSDOF 6
ENDMDL
MODEL 7
REMARK VINA RESULT:      -5.4      3.857      5.600
REMARK  6 active torsions:
REMARK  status: ('A' for Active; 'I' for Inactive)
REMARK    1  A    between atoms: C_2  and  C_3 
REMARK    2  A    between atoms: C_6  and  C_7 
REMARK    3  A    between atoms: C_7  and  C_8 
REMARK    4  A    between atoms: C_8  and  N_9 
REMARK       I    between atoms: N_9  and  C_10 
REMARK    5  A    between atoms: C_10  and  C_12 
REMARK    6  A    between atoms: C_12  and  C_13 
ROOT
HETATM    1  C   UNL     1     -45.252 -54.875  13.524  1.00  0.00     0.129 C 
ENDROOT
BRANCH   1   2
HETATM    2  C   UNL     1     -44.152 -55.166  14.541  1.00  0.00     0.084 C 
BRANCH   2   3
HETATM    3  C   UNL     1     -42.877 -54.481  14.161  1.00  0.00     0.053 A 
HETATM    4  N   UNL     1     -42.688 -53.833  13.033  1.00  0.00    -0.356 N 
HETATM    5  C   UNL     1     -41.400 -53.315  12.986  1.00  0.00     0.022 A 
ATOM      6  HN  UNL     1     -43.388 -53.726  12.297  1.00  0.00     0.166 HD
HETATM    7  C   UNL     1     -40.622 -53.594  14.099  1.00  0.00     0.003 A 
HETATM    8  S   UNL     1     -41.532 -54.507  15.227  1.00  0.00    -0.080 SA
HETATM    9  C   UNL     1     -39.216 -53.211  14.393  1.00  0.00     0.058 C 
BRANCH   5  10
HETATM   10  C   UNL     1     -41.003 -52.519  11.783  1.00  0.00     0.054 C 
HETATM   11  C   UNL     1     -41.138 -51.021  11.999  1.00  0.00     0.011 C 
ENDBRANCH   5  10
ENDBRANCH   2   3
ENDBRANCH   1   2
BRANCH   1  12
HETATM   12  N   UNL     1     -46.158 -53.830  13.973  1.00  0.00    -0.361 N 
HETATM   13  C   UNL     1     -45.939 -52.518  13.606  1.00  0.00     0.218 C 
HETATM   14  O   UNL     1     -45.065 -52.172  12.817  1.00  0.00    -0.274 OA
HETATM   15  H   UNL     1     -46.686 -53.989  14.822  1.00  0.00     0.162 HD
BRANCH  13  16
HETATM   16  C   UNL     1     -46.889 -51.520  14.244  1.00  0.00     0.111 C 
BRANCH  16  17
HETATM   17  C   UNL     1     -46.502 -51.080  15.656  1.00  0.00     0.017 C 
HETATM   18  C   UNL     1     -44.989 -51.096  15.942  1.00  0.00     0.012 C 
HETATM   19  C   UNL     1     -44.733 -52.268  16.890  1.00  0.00     0.027 C 
HETATM   20  C   UNL     1     -46.092 -52.580  17.420  1.00  0.00    -0.030 C 
HETATM   21  C   UNL     1     -47.057 -51.944  16.750  1.00  0.00    -0.026 C 
ENDBRANCH  16  17
ENDBRANCH  13  16
ENDBRANCH   1  12
TORSDOF 6
ENDMDL
MODEL 8
REMARK VINA RESULT:      -5.3      3.303      7.185
REMARK  6 active torsions:
REMARK  status: ('A' for Active; 'I' for Inactive)
REMARK    1  A    between atoms: C_2  and  C_3 
REMARK    2  A    between atoms: C_6  and  C_7 
REMARK    3  A    between atoms: C_7  and  C_8 
REMARK    4  A    between atoms: C_8  and  N_9 
REMARK       I    between atoms: N_9  and  C_10 
REMARK    5  A    between atoms: C_10  and  C_12 
REMARK    6  A    between atoms: C_12  and  C_13 
ROOT
HETATM    1  C   UNL     1     -41.612 -52.673  11.786  1.00  0.00     0.129 C 
ENDROOT
BRANCH   1   2
HETATM    2  C   UNL     1     -41.339 -53.205  13.190  1.00  0.00     0.084 C 
BRANCH   2   3
HETATM    3  C   UNL     1     -42.551 -53.077  14.057  1.00  0.00     0.053 A 
HETATM    4  N   UNL     1     -43.356 -52.037  14.060  1.00  0.00    -0.356 N 
HETATM    5  C   UNL     1     -44.382 -52.228  14.978  1.00  0.00     0.022 A 
ATOM      6  HN  UNL     1     -43.244 -51.210  13.474  1.00  0.00     0.166 HD
HETATM    7  C   UNL     1     -44.327 -53.428  15.669  1.00  0.00     0.003 A 
HETATM    8  S   UNL     1     -42.973 -54.337  15.144  1.00  0.00    -0.080 SA
HETATM    9  C   UNL     1     -45.240 -53.964  16.712  1.00  0.00     0.058 C 
BRANCH   5  10
HETATM   10  C   UNL     1     -45.419 -51.158  15.108  1.00  0.00     0.054 C 
HETATM   11  C   UNL     1     -46.657 -51.433  14.270  1.00  0.00     0.011 C 
ENDBRANCH   5  10
ENDBRANCH   2   3
ENDBRANCH   1   2
BRANCH   1  12
HETATM   12  N   UNL     1     -40.708 -51.595  11.417  1.00  0.00    -0.361 N 
HETATM   13  C   UNL     1     -41.007 -50.292  11.760  1.00  0.00     0.218 C 
HETATM   14  O   UNL     1     -41.958 -49.979  12.468  1.00  0.00    -0.274 OA
HETATM   15  H   UNL     1     -40.102 -51.734  10.618  1.00  0.00     0.162 HD
BRANCH  13  16
HETATM   16  C   UNL     1     -40.041 -49.260  11.205  1.00  0.00     0.111 C 
BRANCH  16  17
HETATM   17  C   UNL     1     -38.761 -49.077  12.020  1.00  0.00     0.017 C 
HETATM   18  C   UNL     1     -37.535 -49.825  11.467  1.00  0.00     0.012 C 
HETATM   19  C   UNL     1     -37.259 -50.986  12.425  1.00  0.00     0.027 C 
HETATM   20  C   UNL     1     -38.025 -50.606  13.648  1.00  0.00    -0.030 C 
HETATM   21  C   UNL     1     -38.847 -49.575  13.432  1.00  0.00    -0.026 C 
ENDBRANCH  16  17
ENDBRANCH  13  16
ENDBRANCH   1  12
TORSDOF 6
ENDMDL
MODEL 9
REMARK VINA RESULT:      -5.3      3.858      6.963
REMARK  6 active torsions:
REMARK  status: ('A' for Active; 'I' for Inactive)
REMARK    1  A    between atoms: C_2  and  C_3 
REMARK    2  A    between atoms: C_6  and  C_7 
REMARK    3  A    between atoms: C_7  and  C_8 
REMARK    4  A    between atoms: C_8  and  N_9 
REMARK       I    between atoms: N_9  and  C_10 
REMARK    5  A    between atoms: C_10  and  C_12 
REMARK    6  A    between atoms: C_12  and  C_13 
ROOT
HETATM    1  C   UNL     1     -41.236 -53.087  12.563  1.00  0.00     0.129 C 
ENDROOT
BRANCH   1   2
HETATM    2  C   UNL     1     -42.149 -53.882  13.491  1.00  0.00     0.084 C 
BRANCH   2   3
HETATM    3  C   UNL     1     -43.258 -53.026  14.016  1.00  0.00     0.053 A 
HETATM    4  N   UNL     1     -44.340 -52.712  13.337  1.00  0.00    -0.356 N 
HETATM    5  C   UNL     1     -45.170 -51.904  14.104  1.00  0.00     0.022 A 
ATOM      6  HN  UNL     1     -44.540 -53.018  12.385  1.00  0.00     0.166 HD
HETATM    7  C   UNL     1     -44.686 -51.611  15.370  1.00  0.00     0.003 A 
HETATM    8  S   UNL     1     -43.172 -52.378  15.603  1.00  0.00    -0.080 SA
HETATM    9  C   UNL     1     -45.292 -50.787  16.449  1.00  0.00     0.058 C 
BRANCH   5  10
HETATM   10  C   UNL     1     -46.469 -51.462  13.509  1.00  0.00     0.054 C 
HETATM   11  C   UNL     1     -46.663 -51.959  12.086  1.00  0.00     0.011 C 
ENDBRANCH   5  10
ENDBRANCH   2   3
ENDBRANCH   1   2
BRANCH   1  12
HETATM   12  N   UNL     1     -40.442 -52.100  13.278  1.00  0.00    -0.361 N 
HETATM   13  C   UNL     1     -39.236 -52.458  13.843  1.00  0.00     0.218 C 
HETATM   14  O   UNL     1     -38.717 -53.559  13.691  1.00  0.00    -0.274 OA
HETATM   15  H   UNL     1     -40.923 -51.305  13.681  1.00  0.00     0.162 HD
BRANCH  13  16
HETATM   16  C   UNL     1     -38.576 -51.363  14.661  1.00  0.00     0.111 C 
BRANCH  16  17
HETATM   17  C   UNL     1     -37.594 -50.485  13.884  1.00  0.00     0.017 C 
HETATM   18  C   UNL     1     -38.147 -49.108  13.477  1.00  0.00     0.012 C 
HETATM   19  C   UNL     1     -38.366 -49.152  11.964  1.00  0.00     0.027 C 
HETATM   20  C   UNL     1     -37.560 -50.333  11.538  1.00  0.00    -0.030 C 
HETATM   21  C   UNL     1     -37.144 -51.064  12.576  1.00  0.00    -0.026 C 
ENDBRANCH  16  17
ENDBRANCH  13  16
ENDBRANCH   1  12
TORSDOF 6
ENDMDL
