MODEL 1
REMARK VINA RESULT:      -5.6      0.000      0.000
REMARK  6 active torsions:
REMARK  status: ('A' for Active; 'I' for Inactive)
REMARK    1  A    between atoms: C_2  and  C_3 
REMARK       I    between atoms: C_2  and  N_10 
REMARK    2  A    between atoms: C_3  and  C_4 
REMARK    3  A    between atoms: C_4  and  C_5 
REMARK    4  A    between atoms: N_10  and  C_11 
REMARK    5  A    between atoms: C_11  and  C_12 
REMARK    6  A    between atoms: C_12  and  C_13 
ROOT
HETATM    1  O   UNL     1     -42.108 -50.974  14.384  1.00  0.00    -0.274 OA
HETATM    2  C   UNL     1     -42.447 -51.560  13.361  1.00  0.00     0.217 C 
HETATM    3  N   UNL     1     -42.393 -50.992  12.108  1.00  0.00    -0.361 N 
HETATM    4  H   UNL     1     -42.765 -51.504  11.318  1.00  0.00     0.162 HD
ENDROOT
BRANCH   3   5
HETATM    5  C   UNL     1     -41.949 -49.623  11.924  1.00  0.00     0.127 C 
BRANCH   5   6
HETATM    6  C   UNL     1     -43.094 -48.622  12.083  1.00  0.00     0.059 C 
BRANCH   6   7
HETATM    7  C   UNL     1     -43.263 -47.763  10.863  1.00  0.00    -0.041 A 
HETATM    8  C   UNL     1     -44.495 -47.656  10.214  1.00  0.00     0.010 A 
HETATM    9  C   UNL     1     -44.602 -46.885   9.061  1.00  0.00     0.018 A 
HETATM   10  C   UNL     1     -43.468 -46.245   8.591  1.00  0.00     0.087 A 
HETATM   11  N   UNL     1     -42.262 -46.319   9.192  1.00  0.00    -0.375 N 
HETATM   12  C   UNL     1     -42.185 -47.077  10.310  1.00  0.00     0.094 A 
ATOM     13  HN  UNL     1     -41.448 -45.828   8.822  1.00  0.00     0.164 HD
ENDBRANCH   6   7
ENDBRANCH   5   6
ENDBRANCH   3   5
BRANCH   2  14
HETATM   14  C   UNL     1     -42.991 -52.978  13.380  1.00  0.00     0.103 C 
BRANCH  14  15
HETATM   15  C   UNL     1     -44.097 -53.183  12.347  1.00  0.00     0.014 C 
BRANCH  15  16
HETATM   16  C   UNL     1     -45.502 -53.001  12.929  1.00  0.00    -0.014 C 
HETATM   17  C   UNL     1     -45.982 -51.544  12.994  1.00  0.00     0.004 C 
HETATM   18  C   UNL     1     -46.754 -51.401  14.307  1.00  0.00     0.000 C 
HETATM   19  C   UNL     1     -46.843 -52.801  14.898  1.00  0.00     0.000 C 
HETATM   20  C   UNL     1     -45.596 -53.493  14.374  1.00  0.00     0.004 C 
ENDBRANCH  15  16
ENDBRANCH  14  15
ENDBRANCH   2  14
TORSDOF 6
ENDMDL
MODEL 2
REMARK VINA RESULT:      -5.5      2.104      3.263
REMARK  6 active torsions:
REMARK  status: ('A' for Active; 'I' for Inactive)
REMARK    1  A    between atoms: C_2  and  C_3 
REMARK       I    between atoms: C_2  and  N_10 
REMARK    2  A    between atoms: C_3  and  C_4 
REMARK    3  A    between atoms: C_4  and  C_5 
REMARK    4  A    between atoms: N_10  and  C_11 
REMARK    5  A    between atoms: C_11  and  C_12 
REMARK    6  A    between atoms: C_12  and  C_13 
ROOT
HETATM    1  O   UNL     1     -44.764 -54.399  12.835  1.00  0.00    -0.274 OA
HETATM    2  C   UNL     1     -44.941 -53.217  12.559  1.00  0.00     0.217 C 
HETATM    3  N   UNL     1     -43.912 -52.323  12.359  1.00  0.00    -0.361 N 
HETATM    4  H   UNL     1     -44.131 -51.346  12.215  1.00  0.00     0.162 HD
ENDROOT
BRANCH   3   5
HETATM    5  C   UNL     1     -42.527 -52.732  12.494  1.00  0.00     0.127 C 
BRANCH   5   6
HETATM    6  C   UNL     1     -41.662 -51.635  13.115  1.00  0.00     0.059 C 
BRANCH   6   7
HETATM    7  C   UNL     1     -41.692 -50.370  12.305  1.00  0.00    -0.041 A 
HETATM    8  C   UNL     1     -42.642 -49.375  12.546  1.00  0.00     0.010 A 
HETATM    9  C   UNL     1     -42.666 -48.237  11.746  1.00  0.00     0.018 A 
HETATM   10  C   UNL     1     -41.734 -48.131  10.726  1.00  0.00     0.087 A 
HETATM   11  N   UNL     1     -40.798 -49.068  10.466  1.00  0.00    -0.375 N 
HETATM   12  C   UNL     1     -40.800 -50.165  11.257  1.00  0.00     0.094 A 
ATOM     13  HN  UNL     1     -40.123 -48.954   9.710  1.00  0.00     0.164 HD
ENDBRANCH   6   7
ENDBRANCH   5   6
ENDBRANCH   3   5
BRANCH   2  14
HETATM   14  C   UNL     1     -46.327 -52.610  12.438  1.00  0.00     0.103 C 
BRANCH  14  15
HETATM   15  C   UNL     1     -46.512 -51.408  13.362  1.00  0.00     0.014 C 
BRANCH  15  16
HETATM   16  C   UNL     1     -46.250 -51.739  14.835  1.00  0.00    -0.014 C 
HETATM   17  C   UNL     1     -47.453 -51.521  15.762  1.00  0.00     0.004 C 
HETATM   18  C   UNL     1     -46.897 -50.946  17.066  1.00  0.00     0.000 C 
HETATM   19  C   UNL     1     -45.382 -50.990  16.932  1.00  0.00     0.000 C 
HETATM   20  C   UNL     1     -45.148 -50.865  15.436  1.00  0.00     0.004 C 
ENDBRANCH  15  16
ENDBRANCH  14  15
ENDBRANCH   2  14
TORSDOF 6
ENDMDL
MODEL 3
REMARK VINA RESULT:      -5.5      3.971      5.396
REMARK  6 active torsions:
REMARK  status: ('A' for Active; 'I' for Inactive)
REMARK    1  A    between atoms: C_2  and  C_3 
REMARK       I    between atoms: C_2  and  N_10 
REMARK    2  A    between atoms: C_3  and  C_4 
REMARK    3  A    between atoms: C_4  and  C_5 
REMARK    4  A    between atoms: N_10  and  C_11 
REMARK    5  A    between atoms: C_11  and  C_12 
REMARK    6  A    between atoms: C_12  and  C_13 
ROOT
HETATM    1  O   UNL     1     -45.697 -54.589  16.380  1.00  0.00    -0.274 OA
HETATM    2  C   UNL     1     -45.672 -54.333  15.181  1.00  0.00     0.217 C 
HETATM    3  N   UNL     1     -44.612 -54.648  14.361  1.00  0.00    -0.361 N 
HETATM    4  H   UNL     1     -44.624 -54.335  13.399  1.00  0.00     0.162 HD
ENDROOT
BRANCH   3   5
HETATM    5  C   UNL     1     -43.422 -55.291  14.887  1.00  0.00     0.127 C 
BRANCH   5   6
HETATM    6  C   UNL     1     -42.316 -54.283  15.201  1.00  0.00     0.059 C 
BRANCH   6   7
HETATM    7  C   UNL     1     -41.926 -53.482  13.992  1.00  0.00    -0.041 A 
HETATM    8  C   UNL     1     -42.320 -52.150  13.844  1.00  0.00     0.010 A 
HETATM    9  C   UNL     1     -41.976 -51.454  12.690  1.00  0.00     0.018 A 
HETATM   10  C   UNL     1     -41.247 -52.116  11.716  1.00  0.00     0.087 A 
HETATM   11  N   UNL     1     -40.844 -53.399  11.825  1.00  0.00    -0.375 N 
HETATM   12  C   UNL     1     -41.194 -54.053  12.956  1.00  0.00     0.094 A 
ATOM     13  HN  UNL     1     -40.301 -53.853  11.090  1.00  0.00     0.164 HD
ENDBRANCH   6   7
ENDBRANCH   5   6
ENDBRANCH   3   5
BRANCH   2  14
HETATM   14  C   UNL     1     -46.809 -53.611  14.481  1.00  0.00     0.103 C 
BRANCH  14  15
HETATM   15  C   UNL     1     -46.398 -52.220  13.999  1.00  0.00     0.014 C 
BRANCH  15  16
HETATM   16  C   UNL     1     -46.508 -51.151  15.092  1.00  0.00    -0.014 C 
HETATM   17  C   UNL     1     -45.200 -50.867  15.842  1.00  0.00     0.004 C 
HETATM   18  C   UNL     1     -45.580 -50.649  17.307  1.00  0.00     0.000 C 
HETATM   19  C   UNL     1     -47.101 -50.653  17.352  1.00  0.00     0.000 C 
HETATM   20  C   UNL     1     -47.494 -51.549  16.190  1.00  0.00     0.004 C 
ENDBRANCH  15  16
ENDBRANCH  14  15
ENDBRANCH   2  14
TORSDOF 6
ENDMDL
MODEL 4
REMARK VINA RESULT:      -5.4      3.504      4.328
REMARK  6 active torsions:
REMARK  status: ('A' for Active; 'I' for Inactive)
REMARK    1  A    between atoms: C_2  and  C_3 
REMARK       I    between atoms: C_2  and  N_10 
REMARK    2  A    between atoms: C_3  and  C_4 
REMARK    3  A    between atoms: C_4  and  C_5 
REMARK    4  A    between atoms: N_10  and  C_11 
REMARK    5  A    between atoms: C_11  and  C_12 
REMARK    6  A    between atoms: C_12  and  C_13 
ROOT
HETATM    1  O   UNL     1     -41.792 -54.684  15.110  1.00  0.00    -0.274 OA
HETATM    2  C   UNL     1     -42.679 -54.498  14.284  1.00  0.00     0.217 C 
HETATM    3  N   UNL     1     -42.481 -53.831  13.095  1.00  0.00    -0.361 N 
HETATM    4  H   UNL     1     -43.276 -53.642  12.498  1.00  0.00     0.162 HD
ENDROOT
BRANCH   3   5
HETATM    5  C   UNL     1     -41.186 -53.270  12.758  1.00  0.00     0.127 C 
BRANCH   5   6
HETATM    6  C   UNL     1     -41.110 -51.775  13.066  1.00  0.00     0.059 C 
BRANCH   6   7
HETATM    7  C   UNL     1     -39.854 -51.153  12.525  1.00  0.00    -0.041 A 
HETATM    8  C   UNL     1     -38.612 -51.388  13.118  1.00  0.00     0.010 A 
HETATM    9  C   UNL     1     -37.478 -50.759  12.614  1.00  0.00     0.018 A 
HETATM   10  C   UNL     1     -37.624 -49.911  11.529  1.00  0.00     0.087 A 
HETATM   11  N   UNL     1     -38.805 -49.663  10.926  1.00  0.00    -0.375 N 
HETATM   12  C   UNL     1     -39.892 -50.285  11.437  1.00  0.00     0.094 A 
ATOM     13  HN  UNL     1     -38.875 -49.037  10.123  1.00  0.00     0.164 HD
ENDBRANCH   6   7
ENDBRANCH   5   6
ENDBRANCH   3   5
BRANCH   2  14
HETATM   14  C   UNL     1     -44.106 -54.967  14.505  1.00  0.00     0.103 C 
BRANCH  14  15
HETATM   15  C   UNL     1     -45.026 -54.579  13.349  1.00  0.00     0.014 C 
BRANCH  15  16
HETATM   16  C   UNL     1     -46.165 -53.647  13.777  1.00  0.00    -0.014 C 
HETATM   17  C   UNL     1     -46.043 -52.209  13.257  1.00  0.00     0.004 C 
HETATM   18  C   UNL     1     -46.520 -51.297  14.389  1.00  0.00     0.000 C 
HETATM   19  C   UNL     1     -47.053 -52.220  15.475  1.00  0.00     0.000 C 
HETATM   20  C   UNL     1     -46.245 -53.494  15.296  1.00  0.00     0.004 C 
ENDBRANCH  15  16
ENDBRANCH  14  15
ENDBRANCH   2  14
TORSDOF 6
ENDMDL
MODEL 5
REMARK VINA RESULT:      -5.3      1.967      2.721
REMARK  6 active torsions:
REMARK  status: ('A' for Active; 'I' for Inactive)
REMARK    1  A    between atoms: C_2  and  C_3 
REMARK       I    between atoms: C_2  and  N_10 
REMARK    2  A    between atoms: C_3  and  C_4 
REMARK    3  A    between atoms: C_4  and  C_5 
REMARK    4  A    between atoms: N_10  and  C_11 
REMARK    5  A    between atoms: C_11  and  C_12 
REMARK    6  A    between atoms: C_12  and  C_13 
ROOT
HETATM    1  O   UNL     1     -43.156 -52.825  12.187  1.00  0.00    -0.274 OA
HETATM    2  C   UNL     1     -42.765 -53.371  13.213  1.00  0.00     0.217 C 
HETATM    3  N   UNL     1     -41.481 -53.246  13.697  1.00  0.00    -0.361 N 
HETATM    4  H   UNL     1     -41.205 -53.790  14.504  1.00  0.00     0.162 HD
ENDROOT
BRANCH   3   5
HETATM    5  C   UNL     1     -40.486 -52.466  12.987  1.00  0.00     0.127 C 
BRANCH   5   6
HETATM    6  C   UNL     1     -40.407 -51.029  13.504  1.00  0.00     0.059 C 
BRANCH   6   7
HETATM    7  C   UNL     1     -41.048 -50.055  12.557  1.00  0.00    -0.041 A 
HETATM    8  C   UNL     1     -42.243 -49.407  12.878  1.00  0.00     0.010 A 
HETATM    9  C   UNL     1     -42.829 -48.545  11.956  1.00  0.00     0.018 A 
HETATM   10  C   UNL     1     -42.197 -48.359  10.738  1.00  0.00     0.087 A 
HETATM   11  N   UNL     1     -41.039 -48.961  10.393  1.00  0.00    -0.375 N 
HETATM   12  C   UNL     1     -40.493 -49.796  11.307  1.00  0.00     0.094 A 
ATOM     13  HN  UNL     1     -40.598 -48.795   9.489  1.00  0.00     0.164 HD
ENDBRANCH   6   7
ENDBRANCH   5   6
ENDBRANCH   3   5
BRANCH   2  14
HETATM   14  C   UNL     1     -43.660 -54.271  14.046  1.00  0.00     0.103 C 
BRANCH  14  15
HETATM   15  C   UNL     1     -45.006 -54.527  13.370  1.00  0.00     0.014 C 
BRANCH  15  16
HETATM   16  C   UNL     1     -46.144 -53.692  13.966  1.00  0.00    -0.014 C 
HETATM   17  C   UNL     1     -46.396 -52.356  13.256  1.00  0.00     0.004 C 
HETATM   18  C   UNL     1     -46.725 -51.339  14.350  1.00  0.00     0.000 C 
HETATM   19  C   UNL     1     -46.813 -52.130  15.647  1.00  0.00     0.000 C 
HETATM   20  C   UNL     1     -45.873 -53.302  15.419  1.00  0.00     0.004 C 
ENDBRANCH  15  16
ENDBRANCH  14  15
ENDBRANCH   2  14
TORSDOF 6
ENDMDL
MODEL 6
REMARK VINA RESULT:      -5.2      3.494      4.983
REMARK  6 active torsions:
REMARK  status: ('A' for Active; 'I' for Inactive)
REMARK    1  A    between atoms: C_2  and  C_3 
REMARK       I    between atoms: C_2  and  N_10 
REMARK    2  A    between atoms: C_3  and  C_4 
REMARK    3  A    between atoms: C_4  and  C_5 
REMARK    4  A    between atoms: N_10  and  C_11 
REMARK    5  A    between atoms: C_11  and  C_12 
REMARK    6  A    between atoms: C_12  and  C_13 
ROOT
HETATM    1  O   UNL     1     -44.514 -50.788  16.893  1.00  0.00    -0.274 OA
HETATM    2  C   UNL     1     -44.962 -50.805  15.752  1.00  0.00     0.217 C 
HETATM    3  N   UNL     1     -44.239 -50.410  14.647  1.00  0.00    -0.361 N 
HETATM    4  H   UNL     1     -44.698 -50.373  13.746  1.00  0.00     0.162 HD
ENDROOT
BRANCH   3   5
HETATM    5  C   UNL     1     -42.884 -49.910  14.779  1.00  0.00     0.127 C 
BRANCH   5   6
HETATM    6  C   UNL     1     -42.075 -50.101  13.495  1.00  0.00     0.059 C 
BRANCH   6   7
HETATM    7  C   UNL     1     -41.676 -51.535  13.290  1.00  0.00    -0.041 A 
HETATM    8  C   UNL     1     -41.616 -52.433  14.358  1.00  0.00     0.010 A 
HETATM    9  C   UNL     1     -41.200 -53.742  14.135  1.00  0.00     0.018 A 
HETATM   10  C   UNL     1     -40.855 -54.111  12.846  1.00  0.00     0.087 A 
HETATM   11  N   UNL     1     -40.905 -53.274  11.788  1.00  0.00    -0.375 N 
HETATM   12  C   UNL     1     -41.310 -52.007  12.033  1.00  0.00     0.094 A 
ATOM     13  HN  UNL     1     -40.649 -53.583  10.850  1.00  0.00     0.164 HD
ENDBRANCH   6   7
ENDBRANCH   5   6
ENDBRANCH   3   5
BRANCH   2  14
HETATM   14  C   UNL     1     -46.382 -51.244  15.443  1.00  0.00     0.103 C 
BRANCH  14  15
HETATM   15  C   UNL     1     -46.604 -51.465  13.948  1.00  0.00     0.014 C 
BRANCH  15  16
HETATM   16  C   UNL     1     -46.267 -52.890  13.496  1.00  0.00    -0.014 C 
HETATM   17  C   UNL     1     -45.993 -53.874  14.641  1.00  0.00     0.004 C 
HETATM   18  C   UNL     1     -44.845 -54.772  14.175  1.00  0.00     0.000 C 
HETATM   19  C   UNL     1     -44.583 -54.399  12.723  1.00  0.00     0.000 C 
HETATM   20  C   UNL     1     -44.999 -52.940  12.644  1.00  0.00     0.004 C 
ENDBRANCH  15  16
ENDBRANCH  14  15
ENDBRANCH   2  14
TORSDOF 6
ENDMDL
MODEL 7
REMARK VINA RESULT:      -5.2      1.721      2.364
REMARK  6 active torsions:
REMARK  status: ('A' for Active; 'I' for Inactive)
REMARK    1  A    between atoms: C_2  and  C_3 
REMARK       I    between atoms: C_2  and  N_10 
REMARK    2  A    between atoms: C_3  and  C_4 
REMARK    3  A    between atoms: C_4  and  C_5 
REMARK    4  A    between atoms: N_10  and  C_11 
REMARK    5  A    between atoms: C_11  and  C_12 
REMARK    6  A    between atoms: C_12  and  C_13 
ROOT
HETATM    1  O   UNL     1     -39.664 -51.759  13.392  1.00  0.00    -0.274 OA
HETATM    2  C   UNL     1     -40.443 -52.274  12.597  1.00  0.00     0.217 C 
HETATM    3  N   UNL     1     -41.037 -51.587  11.562  1.00  0.00    -0.361 N 
HETATM    4  H   UNL     1     -41.731 -52.055  10.994  1.00  0.00     0.162 HD
ENDROOT
BRANCH   3   5
HETATM    5  C   UNL     1     -40.790 -50.171  11.364  1.00  0.00     0.127 C 
BRANCH   5   6
HETATM    6  C   UNL     1     -41.805 -49.302  12.108  1.00  0.00     0.059 C 
BRANCH   6   7
HETATM    7  C   UNL     1     -42.111 -48.033  11.365  1.00  0.00    -0.041 A 
HETATM    8  C   UNL     1     -41.104 -47.124  11.035  1.00  0.00     0.010 A 
HETATM    9  C   UNL     1     -41.432 -45.938  10.385  1.00  0.00     0.018 A 
HETATM   10  C   UNL     1     -42.763 -45.701  10.085  1.00  0.00     0.087 A 
HETATM   11  N   UNL     1     -43.763 -46.557  10.382  1.00  0.00    -0.375 N 
HETATM   12  C   UNL     1     -43.416 -47.700  11.016  1.00  0.00     0.094 A 
ATOM     13  HN  UNL     1     -44.732 -46.352  10.140  1.00  0.00     0.164 HD
ENDBRANCH   6   7
ENDBRANCH   5   6
ENDBRANCH   3   5
BRANCH   2  14
HETATM   14  C   UNL     1     -40.856 -53.732  12.695  1.00  0.00     0.103 C 
BRANCH  14  15
HETATM   15  C   UNL     1     -41.858 -53.972  13.823  1.00  0.00     0.014 C 
BRANCH  15  16
HETATM   16  C   UNL     1     -43.244 -54.384  13.315  1.00  0.00    -0.014 C 
HETATM   17  C   UNL     1     -44.063 -53.243  12.697  1.00  0.00     0.004 C 
HETATM   18  C   UNL     1     -45.512 -53.464  13.135  1.00  0.00     0.000 C 
HETATM   19  C   UNL     1     -45.533 -54.802  13.859  1.00  0.00     0.000 C 
HETATM   20  C   UNL     1     -44.133 -54.922  14.436  1.00  0.00     0.004 C 
ENDBRANCH  15  16
ENDBRANCH  14  15
ENDBRANCH   2  14
TORSDOF 6
ENDMDL
MODEL 8
REMARK VINA RESULT:      -5.1      3.291      6.121
REMARK  6 active torsions:
REMARK  status: ('A' for Active; 'I' for Inactive)
REMARK    1  A    between atoms: C_2  and  C_3 
REMARK       I    between atoms: C_2  and  N_10 
REMARK    2  A    between atoms: C_3  and  C_4 
REMARK    3  A    between atoms: C_4  and  C_5 
REMARK    4  A    between atoms: N_10  and  C_11 
REMARK    5  A    between atoms: C_11  and  C_12 
REMARK    6  A    between atoms: C_12  and  C_13 
ROOT
HETATM    1  O   UNL     1     -42.259 -50.977  14.532  1.00  0.00    -0.274 OA
HETATM    2  C   UNL     1     -42.898 -51.053  13.488  1.00  0.00     0.217 C 
HETATM    3  N   UNL     1     -42.392 -51.598  12.328  1.00  0.00    -0.361 N 
HETATM    4  H   UNL     1     -42.946 -51.555  11.482  1.00  0.00     0.162 HD
ENDROOT
BRANCH   3   5
HETATM    5  C   UNL     1     -41.032 -52.099  12.266  1.00  0.00     0.127 C 
BRANCH   5   6
HETATM    6  C   UNL     1     -40.982 -53.627  12.265  1.00  0.00     0.059 C 
BRANCH   6   7
HETATM    7  C   UNL     1     -40.614 -54.179  13.613  1.00  0.00    -0.041 A 
HETATM    8  C   UNL     1     -41.581 -54.404  14.595  1.00  0.00     0.010 A 
HETATM    9  C   UNL     1     -41.196 -54.874  15.847  1.00  0.00     0.018 A 
HETATM   10  C   UNL     1     -39.850 -55.105  16.075  1.00  0.00     0.087 A 
HETATM   11  N   UNL     1     -38.887 -54.905  15.151  1.00  0.00    -0.375 N 
HETATM   12  C   UNL     1     -39.289 -54.445  13.944  1.00  0.00     0.094 A 
ATOM     13  HN  UNL     1     -37.905 -55.092  15.352  1.00  0.00     0.164 HD
ENDBRANCH   6   7
ENDBRANCH   5   6
ENDBRANCH   3   5
BRANCH   2  14
HETATM   14  C   UNL     1     -44.315 -50.524  13.363  1.00  0.00     0.103 C 
BRANCH  14  15
HETATM   15  C   UNL     1     -45.305 -51.618  12.965  1.00  0.00     0.014 C 
BRANCH  15  16
HETATM   16  C   UNL     1     -45.243 -52.844  13.882  1.00  0.00    -0.014 C 
HETATM   17  C   UNL     1     -44.808 -54.141  13.186  1.00  0.00     0.004 C 
HETATM   18  C   UNL     1     -45.656 -55.261  13.791  1.00  0.00     0.000 C 
HETATM   19  C   UNL     1     -46.445 -54.626  14.926  1.00  0.00     0.000 C 
HETATM   20  C   UNL     1     -46.605 -53.180  14.489  1.00  0.00     0.004 C 
ENDBRANCH  15  16
ENDBRANCH  14  15
ENDBRANCH   2  14
TORSDOF 6
ENDMDL
MODEL 9
REMARK VINA RESULT:      -5.1      3.979      6.348
REMARK  6 active torsions:
REMARK  status: ('A' for Active; 'I' for Inactive)
REMARK    1  A    between atoms: C_2  and  C_3 
REMARK       I    between atoms: C_2  and  N_10 
REMARK    2  A    between atoms: C_3  and  C_4 
REMARK    3  A    between atoms: C_4  and  C_5 
REMARK    4  A    between atoms: N_10  and  C_11 
REMARK    5  A    between atoms: C_11  and  C_12 
REMARK    6  A    between atoms: C_12  and  C_13 
ROOT
HETATM    1  O   UNL     1     -43.276 -54.034  14.293  1.00  0.00    -0.274 OA
HETATM    2  C   UNL     1     -42.916 -53.686  13.174  1.00  0.00     0.217 C 
HETATM    3  N   UNL     1     -43.763 -53.123  12.245  1.00  0.00    -0.361 N 
HETATM    4  H   UNL     1     -43.416 -52.935  11.314  1.00  0.00     0.162 HD
ENDROOT
BRANCH   3   5
HETATM    5  C   UNL     1     -45.172 -52.932  12.535  1.00  0.00     0.127 C 
BRANCH   5   6
HETATM    6  C   UNL     1     -45.493 -51.481  12.894  1.00  0.00     0.059 C 
BRANCH   6   7
HETATM    7  C   UNL     1     -45.741 -51.307  14.365  1.00  0.00    -0.041 A 
HETATM    8  C   UNL     1     -46.995 -51.560  14.925  1.00  0.00     0.010 A 
HETATM    9  C   UNL     1     -47.199 -51.345  16.285  1.00  0.00     0.018 A 
HETATM   10  C   UNL     1     -46.136 -50.883  17.043  1.00  0.00     0.087 A 
HETATM   11  N   UNL     1     -44.909 -50.633  16.540  1.00  0.00    -0.375 N 
HETATM   12  C   UNL     1     -44.740 -50.847  15.215  1.00  0.00     0.094 A 
ATOM     13  HN  UNL     1     -44.146 -50.299  17.130  1.00  0.00     0.164 HD
ENDBRANCH   6   7
ENDBRANCH   5   6
ENDBRANCH   3   5
BRANCH   2  14
HETATM   14  C   UNL     1     -41.489 -53.868  12.687  1.00  0.00     0.103 C 
BRANCH  14  15
HETATM   15  C   UNL     1     -40.579 -52.725  13.133  1.00  0.00     0.014 C 
BRANCH  15  16
HETATM   16  C   UNL     1     -39.480 -53.178  14.100  1.00  0.00    -0.014 C 
HETATM   17  C   UNL     1     -39.165 -54.679  14.052  1.00  0.00     0.004 C 
HETATM   18  C   UNL     1     -38.907 -55.114  15.496  1.00  0.00     0.000 C 
HETATM   19  C   UNL     1     -38.920 -53.840  16.327  1.00  0.00     0.000 C 
HETATM   20  C   UNL     1     -39.852 -52.917  15.560  1.00  0.00     0.004 C 
ENDBRANCH  15  16
ENDBRANCH  14  15
ENDBRANCH   2  14
TORSDOF 6
ENDMDL
