MODEL 1
REMARK VINA RESULT:      -6.0      0.000      0.000
REMARK  4 active torsions:
REMARK  status: ('A' for Active; 'I' for Inactive)
REMARK    1  A    between atoms: C_2  and  C_5 
REMARK    2  A    between atoms: N_10  and  C_11 
REMARK    3  A    between atoms: C_11  and  C_12 
REMARK       I    between atoms: C_12  and  N_14 
REMARK    4  A    between atoms: N_14  and  C_15 
ROOT
HETATM    1  C   UNL     1     -45.258 -47.388   9.206  1.00  0.00     0.063 A 
HETATM    2  C   UNL     1     -45.208 -45.972   8.896  1.00  0.00     0.023 A 
HETATM    3  C   UNL     1     -44.100 -45.256   9.125  1.00  0.00     0.075 A 
HETATM    4  C   UNL     1     -42.893 -45.898   9.709  1.00  0.00     0.247 A 
HETATM    5  O   UNL     1     -41.890 -45.220   9.904  1.00  0.00    -0.268 OA
HETATM    6  N   UNL     1     -43.003 -47.261   9.986  1.00  0.00    -0.315 N 
HETATM    7  C   UNL     1     -44.165 -47.975   9.724  1.00  0.00     0.110 A 
ENDROOT
BRANCH   6   8
HETATM    8  C   UNL     1     -41.804 -47.984  10.428  1.00  0.00     0.234 C 
BRANCH   8   9
HETATM    9  C   UNL     1     -41.944 -48.873  11.667  1.00  0.00     0.236 C 
HETATM   10  O   UNL     1     -42.364 -48.413  12.730  1.00  0.00    -0.272 OA
HETATM   11  N   UNL     1     -41.686 -50.216  11.482  1.00  0.00    -0.355 N 
HETATM   12  H   UNL     1     -41.429 -50.539  10.557  1.00  0.00     0.162 HD
BRANCH  11  13
HETATM   13  C   UNL     1     -41.882 -51.168  12.531  1.00  0.00     0.084 A 
HETATM   14  C   UNL     1     -41.065 -52.429  12.573  1.00  0.00     0.027 A 
HETATM   15  C   UNL     1     -42.534 -52.497  12.277  1.00  0.00     0.027 A 
ENDBRANCH  11  13
ENDBRANCH   8   9
ENDBRANCH   6   8
BRANCH   1  16
HETATM   16  C   UNL     1     -46.512 -48.170   8.918  1.00  0.00     0.418 C 
HETATM   17  F   UNL     1     -46.698 -49.211   9.769  1.00  0.00    -0.166 F 
HETATM   18  F   UNL     1     -46.497 -48.686   7.663  1.00  0.00    -0.166 F 
HETATM   19  F   UNL     1     -47.620 -47.389   9.008  1.00  0.00    -0.166 F 
ENDBRANCH   1  16
TORSDOF 4
ENDMDL
MODEL 2
REMARK VINA RESULT:      -5.8      6.641      7.606
REMARK  4 active torsions:
REMARK  status: ('A' for Active; 'I' for Inactive)
REMARK    1  A    between atoms: C_2  and  C_5 
REMARK    2  A    between atoms: N_10  and  C_11 
REMARK    3  A    between atoms: C_11  and  C_12 
REMARK       I    between atoms: C_12  and  N_14 
REMARK    4  A    between atoms: N_14  and  C_15 
ROOT
HETATM    1  C   UNL     1     -46.645 -52.032  15.568  1.00  0.00     0.063 A 
HETATM    2  C   UNL     1     -46.869 -51.277  14.350  1.00  0.00     0.023 A 
HETATM    3  C   UNL     1     -46.377 -51.699  13.179  1.00  0.00     0.075 A 
HETATM    4  C   UNL     1     -45.584 -52.954  13.101  1.00  0.00     0.247 A 
HETATM    5  O   UNL     1     -45.148 -53.320  12.014  1.00  0.00    -0.268 OA
HETATM    6  N   UNL     1     -45.403 -53.635  14.305  1.00  0.00    -0.315 N 
HETATM    7  C   UNL     1     -45.939 -53.173  15.500  1.00  0.00     0.110 A 
ENDROOT
BRANCH   6   8
HETATM    8  C   UNL     1     -44.754 -54.952  14.274  1.00  0.00     0.234 C 
BRANCH   8   9
HETATM    9  C   UNL     1     -43.341 -55.045  14.856  1.00  0.00     0.236 C 
HETATM   10  O   UNL     1     -43.043 -55.939  15.650  1.00  0.00    -0.272 OA
HETATM   11  N   UNL     1     -42.416 -54.154  14.351  1.00  0.00    -0.355 N 
HETATM   12  H   UNL     1     -42.711 -53.502  13.633  1.00  0.00     0.162 HD
BRANCH  11  13
HETATM   13  C   UNL     1     -41.040 -54.206  14.733  1.00  0.00     0.084 A 
HETATM   14  C   UNL     1     -40.133 -53.038  14.462  1.00  0.00     0.027 A 
HETATM   15  C   UNL     1     -39.943 -54.324  13.713  1.00  0.00     0.027 A 
ENDBRANCH  11  13
ENDBRANCH   8   9
ENDBRANCH   6   8
BRANCH   1  16
HETATM   16  C   UNL     1     -47.229 -51.541  16.867  1.00  0.00     0.418 C 
HETATM   17  F   UNL     1     -48.537 -51.192  16.765  1.00  0.00    -0.166 F 
HETATM   18  F   UNL     1     -46.566 -50.449  17.327  1.00  0.00    -0.166 F 
HETATM   19  F   UNL     1     -47.150 -52.486  17.839  1.00  0.00    -0.166 F 
ENDBRANCH   1  16
TORSDOF 4
ENDMDL
MODEL 3
REMARK VINA RESULT:      -5.6      2.930      5.990
REMARK  4 active torsions:
REMARK  status: ('A' for Active; 'I' for Inactive)
REMARK    1  A    between atoms: C_2  and  C_5 
REMARK    2  A    between atoms: N_10  and  C_11 
REMARK    3  A    between atoms: C_11  and  C_12 
REMARK       I    between atoms: C_12  and  N_14 
REMARK    4  A    between atoms: N_14  and  C_15 
ROOT
HETATM    1  C   UNL     1     -44.988 -51.885  13.513  1.00  0.00     0.063 A 
HETATM    2  C   UNL     1     -44.474 -53.214  13.246  1.00  0.00     0.023 A 
HETATM    3  C   UNL     1     -43.245 -53.388  12.746  1.00  0.00     0.075 A 
HETATM    4  C   UNL     1     -42.377 -52.218  12.448  1.00  0.00     0.247 A 
HETATM    5  O   UNL     1     -41.253 -52.406  11.994  1.00  0.00    -0.268 OA
HETATM    6  N   UNL     1     -42.928 -50.967  12.726  1.00  0.00    -0.315 N 
HETATM    7  C   UNL     1     -44.203 -50.824  13.256  1.00  0.00     0.110 A 
ENDROOT
BRANCH   6   8
HETATM    8  C   UNL     1     -42.073 -49.780  12.590  1.00  0.00     0.234 C 
BRANCH   8   9
HETATM    9  C   UNL     1     -42.721 -48.517  12.017  1.00  0.00     0.236 C 
HETATM   10  O   UNL     1     -42.924 -47.532  12.729  1.00  0.00    -0.272 OA
HETATM   11  N   UNL     1     -42.948 -48.516  10.655  1.00  0.00    -0.355 N 
HETATM   12  H   UNL     1     -42.674 -49.329  10.116  1.00  0.00     0.162 HD
BRANCH  11  13
HETATM   13  C   UNL     1     -43.449 -47.360   9.981  1.00  0.00     0.084 A 
HETATM   14  C   UNL     1     -44.799 -47.394   9.320  1.00  0.00     0.027 A 
HETATM   15  C   UNL     1     -43.557 -47.306   8.483  1.00  0.00     0.027 A 
ENDBRANCH  11  13
ENDBRANCH   8   9
ENDBRANCH   6   8
BRANCH   1  16
HETATM   16  C   UNL     1     -46.368 -51.723  14.095  1.00  0.00     0.418 C 
HETATM   17  F   UNL     1     -47.243 -51.142  13.236  1.00  0.00    -0.166 F 
HETATM   18  F   UNL     1     -46.347 -50.954  15.214  1.00  0.00    -0.166 F 
HETATM   19  F   UNL     1     -46.904 -52.919  14.450  1.00  0.00    -0.166 F 
ENDBRANCH   1  16
TORSDOF 4
ENDMDL
MODEL 4
REMARK VINA RESULT:      -5.6      2.068      3.038
REMARK  4 active torsions:
REMARK  status: ('A' for Active; 'I' for Inactive)
REMARK    1  A    between atoms: C_2  and  C_5 
REMARK    2  A    between atoms: N_10  and  C_11 
REMARK    3  A    between atoms: C_11  and  C_12 
REMARK       I    between atoms: C_12  and  N_14 
REMARK    4  A    between atoms: N_14  and  C_15 
ROOT
HETATM    1  C   UNL     1     -45.253 -47.362   9.251  1.00  0.00     0.063 A 
HETATM    2  C   UNL     1     -45.215 -45.961   8.881  1.00  0.00     0.023 A 
HETATM    3  C   UNL     1     -44.126 -45.217   9.114  1.00  0.00     0.075 A 
HETATM    4  C   UNL     1     -42.928 -45.813   9.763  1.00  0.00     0.247 A 
HETATM    5  O   UNL     1     -41.943 -45.110   9.961  1.00  0.00    -0.268 OA
HETATM    6  N   UNL     1     -43.027 -47.164  10.096  1.00  0.00    -0.315 N 
HETATM    7  C   UNL     1     -44.168 -47.908   9.828  1.00  0.00     0.110 A 
ENDROOT
BRANCH   6   8
HETATM    8  C   UNL     1     -41.831 -47.848  10.606  1.00  0.00     0.234 C 
BRANCH   8   9
HETATM    9  C   UNL     1     -41.468 -47.611  12.074  1.00  0.00     0.236 C 
HETATM   10  O   UNL     1     -41.899 -48.352  12.959  1.00  0.00    -0.272 OA
HETATM   11  N   UNL     1     -40.553 -46.607  12.319  1.00  0.00    -0.355 N 
HETATM   12  H   UNL     1     -40.172 -46.094  11.532  1.00  0.00     0.162 HD
BRANCH  11  13
HETATM   13  C   UNL     1     -40.051 -46.355  13.633  1.00  0.00     0.084 A 
HETATM   14  C   UNL     1     -38.962 -45.341  13.847  1.00  0.00     0.027 A 
HETATM   15  C   UNL     1     -38.678 -46.801  14.051  1.00  0.00     0.027 A 
ENDBRANCH  11  13
ENDBRANCH   8   9
ENDBRANCH   6   8
BRANCH   1  16
HETATM   16  C   UNL     1     -46.485 -48.177   8.958  1.00  0.00     0.418 C 
HETATM   17  F   UNL     1     -46.480 -48.722   7.715  1.00  0.00    -0.166 F 
HETATM   18  F   UNL     1     -47.611 -47.424   9.052  1.00  0.00    -0.166 F 
HETATM   19  F   UNL     1     -46.625 -49.204   9.835  1.00  0.00    -0.166 F 
ENDBRANCH   1  16
TORSDOF 4
ENDMDL
MODEL 5
REMARK VINA RESULT:      -5.6      5.408      7.368
REMARK  4 active torsions:
REMARK  status: ('A' for Active; 'I' for Inactive)
REMARK    1  A    between atoms: C_2  and  C_5 
REMARK    2  A    between atoms: N_10  and  C_11 
REMARK    3  A    between atoms: C_11  and  C_12 
REMARK       I    between atoms: C_12  and  N_14 
REMARK    4  A    between atoms: N_14  and  C_15 
ROOT
HETATM    1  C   UNL     1     -44.017 -54.426  14.022  1.00  0.00     0.063 A 
HETATM    2  C   UNL     1     -43.116 -54.911  15.049  1.00  0.00     0.023 A 
HETATM    3  C   UNL     1     -41.797 -54.703  14.963  1.00  0.00     0.075 A 
HETATM    4  C   UNL     1     -41.222 -53.970  13.803  1.00  0.00     0.247 A 
HETATM    5  O   UNL     1     -40.010 -53.789  13.751  1.00  0.00    -0.268 OA
HETATM    6  N   UNL     1     -42.139 -53.530  12.848  1.00  0.00    -0.315 N 
HETATM    7  C   UNL     1     -43.503 -53.753  12.978  1.00  0.00     0.110 A 
ENDROOT
BRANCH   6   8
HETATM    8  C   UNL     1     -41.655 -52.677  11.755  1.00  0.00     0.234 C 
BRANCH   8   9
HETATM    9  C   UNL     1     -41.036 -51.332  12.144  1.00  0.00     0.236 C 
HETATM   10  O   UNL     1     -41.684 -50.497  12.778  1.00  0.00    -0.272 OA
HETATM   11  N   UNL     1     -39.698 -51.170  11.844  1.00  0.00    -0.355 N 
HETATM   12  H   UNL     1     -39.204 -51.935  11.400  1.00  0.00     0.162 HD
BRANCH  11  13
HETATM   13  C   UNL     1     -38.976 -50.004  12.248  1.00  0.00     0.084 A 
HETATM   14  C   UNL     1     -37.632 -49.699  11.647  1.00  0.00     0.027 A 
HETATM   15  C   UNL     1     -37.735 -50.098  13.090  1.00  0.00     0.027 A 
ENDBRANCH  11  13
ENDBRANCH   8   9
ENDBRANCH   6   8
BRANCH   1  16
HETATM   16  C   UNL     1     -45.498 -54.660  14.158  1.00  0.00     0.418 C 
HETATM   17  F   UNL     1     -45.927 -54.621  15.446  1.00  0.00    -0.166 F 
HETATM   18  F   UNL     1     -45.857 -55.871  13.661  1.00  0.00    -0.166 F 
HETATM   19  F   UNL     1     -46.216 -53.728  13.479  1.00  0.00    -0.166 F 
ENDBRANCH   1  16
TORSDOF 4
ENDMDL
MODEL 6
REMARK VINA RESULT:      -5.6      4.001      7.378
REMARK  4 active torsions:
REMARK  status: ('A' for Active; 'I' for Inactive)
REMARK    1  A    between atoms: C_2  and  C_5 
REMARK    2  A    between atoms: N_10  and  C_11 
REMARK    3  A    between atoms: C_11  and  C_12 
REMARK       I    between atoms: C_12  and  N_14 
REMARK    4  A    between atoms: N_14  and  C_15 
ROOT
HETATM    1  C   UNL     1     -43.832 -54.418  14.011  1.00  0.00     0.063 A 
HETATM    2  C   UNL     1     -43.044 -54.920  15.119  1.00  0.00     0.023 A 
HETATM    3  C   UNL     1     -41.718 -54.743  15.157  1.00  0.00     0.075 A 
HETATM    4  C   UNL     1     -41.020 -54.027  14.056  1.00  0.00     0.247 A 
HETATM    5  O   UNL     1     -39.804 -53.874  14.117  1.00  0.00    -0.268 OA
HETATM    6  N   UNL     1     -41.832 -53.569  13.018  1.00  0.00    -0.315 N 
HETATM    7  C   UNL     1     -43.207 -53.760  13.019  1.00  0.00     0.110 A 
ENDROOT
BRANCH   6   8
HETATM    8  C   UNL     1     -41.228 -52.731  11.975  1.00  0.00     0.234 C 
BRANCH   8   9
HETATM    9  C   UNL     1     -41.096 -51.235  12.272  1.00  0.00     0.236 C 
HETATM   10  O   UNL     1     -40.073 -50.781  12.789  1.00  0.00    -0.272 OA
HETATM   11  N   UNL     1     -42.127 -50.434  11.825  1.00  0.00    -0.355 N 
HETATM   12  H   UNL     1     -42.897 -50.866  11.328  1.00  0.00     0.162 HD
BRANCH  11  13
HETATM   13  C   UNL     1     -42.076 -49.011  11.945  1.00  0.00     0.084 A 
HETATM   14  C   UNL     1     -43.197 -48.164  11.410  1.00  0.00     0.027 A 
HETATM   15  C   UNL     1     -41.850 -48.126  10.752  1.00  0.00     0.027 A 
ENDBRANCH  11  13
ENDBRANCH   8   9
ENDBRANCH   6   8
BRANCH   1  16
HETATM   16  C   UNL     1     -45.325 -54.617  14.008  1.00  0.00     0.418 C 
HETATM   17  F   UNL     1     -45.886 -54.459  15.234  1.00  0.00    -0.166 F 
HETATM   18  F   UNL     1     -45.659 -55.861  13.580  1.00  0.00    -0.166 F 
HETATM   19  F   UNL     1     -45.944 -53.737  13.178  1.00  0.00    -0.166 F 
ENDBRANCH   1  16
TORSDOF 4
ENDMDL
MODEL 7
REMARK VINA RESULT:      -5.4      1.646      2.026
REMARK  4 active torsions:
REMARK  status: ('A' for Active; 'I' for Inactive)
REMARK    1  A    between atoms: C_2  and  C_5 
REMARK    2  A    between atoms: N_10  and  C_11 
REMARK    3  A    between atoms: C_11  and  C_12 
REMARK       I    between atoms: C_12  and  N_14 
REMARK    4  A    between atoms: N_14  and  C_15 
ROOT
HETATM    1  C   UNL     1     -45.304 -47.394   9.249  1.00  0.00     0.063 A 
HETATM    2  C   UNL     1     -45.231 -46.000   8.858  1.00  0.00     0.023 A 
HETATM    3  C   UNL     1     -44.136 -45.271   9.108  1.00  0.00     0.075 A 
HETATM    4  C   UNL     1     -42.967 -45.877   9.800  1.00  0.00     0.247 A 
HETATM    5  O   UNL     1     -41.975 -45.188  10.013  1.00  0.00    -0.268 OA
HETATM    6  N   UNL     1     -43.099 -47.221  10.151  1.00  0.00    -0.315 N 
HETATM    7  C   UNL     1     -44.246 -47.949   9.864  1.00  0.00     0.110 A 
ENDROOT
BRANCH   6   8
HETATM    8  C   UNL     1     -41.930 -47.916  10.705  1.00  0.00     0.234 C 
BRANCH   8   9
HETATM    9  C   UNL     1     -42.170 -48.828  11.912  1.00  0.00     0.236 C 
HETATM   10  O   UNL     1     -41.858 -50.019  11.875  1.00  0.00    -0.272 OA
HETATM   11  N   UNL     1     -42.639 -48.212  13.054  1.00  0.00    -0.355 N 
HETATM   12  H   UNL     1     -42.791 -47.210  13.039  1.00  0.00     0.162 HD
BRANCH  11  13
HETATM   13  C   UNL     1     -42.804 -48.930  14.279  1.00  0.00     0.084 A 
HETATM   14  C   UNL     1     -43.042 -48.191  15.566  1.00  0.00     0.027 A 
HETATM   15  C   UNL     1     -41.749 -48.919  15.348  1.00  0.00     0.027 A 
ENDBRANCH  11  13
ENDBRANCH   8   9
ENDBRANCH   6   8
BRANCH   1  16
HETATM   16  C   UNL     1     -46.542 -48.191   8.935  1.00  0.00     0.418 C 
HETATM   17  F   UNL     1     -46.725 -49.243   9.773  1.00  0.00    -0.166 F 
HETATM   18  F   UNL     1     -46.501 -48.696   7.675  1.00  0.00    -0.166 F 
HETATM   19  F   UNL     1     -47.663 -47.428   9.015  1.00  0.00    -0.166 F 
ENDBRANCH   1  16
TORSDOF 4
ENDMDL
MODEL 8
REMARK VINA RESULT:      -5.3      2.272      2.807
REMARK  4 active torsions:
REMARK  status: ('A' for Active; 'I' for Inactive)
REMARK    1  A    between atoms: C_2  and  C_5 
REMARK    2  A    between atoms: N_10  and  C_11 
REMARK    3  A    between atoms: C_11  and  C_12 
REMARK       I    between atoms: C_12  and  N_14 
REMARK    4  A    between atoms: N_14  and  C_15 
ROOT
HETATM    1  C   UNL     1     -43.762 -47.113  10.028  1.00  0.00     0.063 A 
HETATM    2  C   UNL     1     -42.894 -45.993   9.724  1.00  0.00     0.023 A 
HETATM    3  C   UNL     1     -41.801 -45.749  10.458  1.00  0.00     0.075 A 
HETATM    4  C   UNL     1     -41.454 -46.624  11.609  1.00  0.00     0.247 A 
HETATM    5  O   UNL     1     -40.445 -46.381  12.262  1.00  0.00    -0.268 OA
HETATM    6  N   UNL     1     -42.327 -47.685  11.851  1.00  0.00    -0.315 N 
HETATM    7  C   UNL     1     -43.446 -47.914  11.060  1.00  0.00     0.110 A 
ENDROOT
BRANCH   6   8
HETATM    8  C   UNL     1     -41.966 -48.668  12.880  1.00  0.00     0.234 C 
BRANCH   8   9
HETATM    9  C   UNL     1     -41.059 -49.825  12.450  1.00  0.00     0.236 C 
HETATM   10  O   UNL     1     -41.537 -50.865  11.994  1.00  0.00    -0.272 OA
HETATM   11  N   UNL     1     -39.702 -49.581  12.496  1.00  0.00    -0.355 N 
HETATM   12  H   UNL     1     -39.381 -48.669  12.799  1.00  0.00     0.162 HD
BRANCH  11  13
HETATM   13  C   UNL     1     -38.753 -50.539  12.022  1.00  0.00     0.084 A 
HETATM   14  C   UNL     1     -37.482 -50.789  12.785  1.00  0.00     0.027 A 
HETATM   15  C   UNL     1     -37.431 -50.120  11.443  1.00  0.00     0.027 A 
ENDBRANCH  11  13
ENDBRANCH   8   9
ENDBRANCH   6   8
BRANCH   1  16
HETATM   16  C   UNL     1     -44.972 -47.372   9.171  1.00  0.00     0.418 C 
HETATM   17  F   UNL     1     -44.680 -48.027   8.019  1.00  0.00    -0.166 F 
HETATM   18  F   UNL     1     -45.587 -46.214   8.819  1.00  0.00    -0.166 F 
HETATM   19  F   UNL     1     -45.896 -48.124   9.824  1.00  0.00    -0.166 F 
ENDBRANCH   1  16
TORSDOF 4
ENDMDL
MODEL 9
REMARK VINA RESULT:      -5.2      1.899      2.627
REMARK  4 active torsions:
REMARK  status: ('A' for Active; 'I' for Inactive)
REMARK    1  A    between atoms: C_2  and  C_5 
REMARK    2  A    between atoms: N_10  and  C_11 
REMARK    3  A    between atoms: C_11  and  C_12 
REMARK       I    between atoms: C_12  and  N_14 
REMARK    4  A    between atoms: N_14  and  C_15 
ROOT
HETATM    1  C   UNL     1     -43.495 -47.073  10.104  1.00  0.00     0.063 A 
HETATM    2  C   UNL     1     -42.345 -46.215   9.893  1.00  0.00     0.023 A 
HETATM    3  C   UNL     1     -41.270 -46.298  10.686  1.00  0.00     0.075 A 
HETATM    4  C   UNL     1     -41.232 -47.275  11.807  1.00  0.00     0.247 A 
HETATM    5  O   UNL     1     -40.232 -47.334  12.516  1.00  0.00    -0.268 OA
HETATM    6  N   UNL     1     -42.367 -48.071  11.959  1.00  0.00    -0.315 N 
HETATM    7  C   UNL     1     -43.460 -47.964  11.109  1.00  0.00     0.110 A 
ENDROOT
BRANCH   6   8
HETATM    8  C   UNL     1     -42.337 -49.150  12.953  1.00  0.00     0.234 C 
BRANCH   8   9
HETATM    9  C   UNL     1     -42.129 -50.574  12.429  1.00  0.00     0.236 C 
HETATM   10  O   UNL     1     -41.069 -50.901  11.893  1.00  0.00    -0.272 OA
HETATM   11  N   UNL     1     -43.140 -51.473  12.699  1.00  0.00    -0.355 N 
HETATM   12  H   UNL     1     -43.947 -51.156  13.224  1.00  0.00     0.162 HD
BRANCH  11  13
HETATM   13  C   UNL     1     -43.023 -52.857  12.357  1.00  0.00     0.084 A 
HETATM   14  C   UNL     1     -44.149 -53.808  12.650  1.00  0.00     0.027 A 
HETATM   15  C   UNL     1     -42.860 -53.917  13.409  1.00  0.00     0.027 A 
ENDBRANCH  11  13
ENDBRANCH   8   9
ENDBRANCH   6   8
BRANCH   1  16
HETATM   16  C   UNL     1     -44.681 -46.968   9.183  1.00  0.00     0.418 C 
HETATM   17  F   UNL     1     -45.851 -47.316   9.778  1.00  0.00    -0.166 F 
HETATM   18  F   UNL     1     -44.539 -47.771   8.097  1.00  0.00    -0.166 F 
HETATM   19  F   UNL     1     -44.841 -45.702   8.716  1.00  0.00    -0.166 F 
ENDBRANCH   1  16
TORSDOF 4
ENDMDL
