MODEL 1
REMARK VINA RESULT:      -5.0      0.000      0.000
REMARK  4 active torsions:
REMARK  status: ('A' for Active; 'I' for Inactive)
REMARK    1  A    between atoms: C_2  and  C_3 
REMARK       I    between atoms: C_2  and  N_10 
REMARK    2  A    between atoms: C_3  and  N_4 
REMARK    3  A    between atoms: N_10  and  C_11 
REMARK    4  A    between atoms: C_11  and  C_12 
ROOT
HETATM    1  O   UNL     1     -43.109 -47.604  10.819  1.00  0.00    -0.272 OA
HETATM    2  C   UNL     1     -42.623 -46.833   9.993  1.00  0.00     0.237 C 
HETATM    3  N   UNL     1     -41.355 -46.298  10.125  1.00  0.00    -0.359 N 
HETATM    4  H   UNL     1     -40.959 -45.767   9.358  1.00  0.00     0.162 HD
ENDROOT
BRANCH   2   5
HETATM    5  C   UNL     1     -43.395 -46.355   8.783  1.00  0.00     0.250 C 
BRANCH   5   6
HETATM    6  N   UNL     1     -44.712 -46.954   8.700  1.00  0.00    -0.295 N 
HETATM    7  C   UNL     1     -45.046 -48.131   8.091  1.00  0.00     0.112 A 
HETATM    8  C   UNL     1     -46.365 -48.365   8.402  1.00  0.00     0.037 A 
HETATM    9  C   UNL     1     -46.736 -47.278   9.214  1.00  0.00     0.108 A 
HETATM   10  N   UNL     1     -45.734 -46.414   9.398  1.00  0.00    -0.310 N 
ATOM     11  HN  UNL     1     -45.739 -45.550   9.939  1.00  0.00     0.186 HD
ENDBRANCH   5   6
ENDBRANCH   2   5
BRANCH   3  12
HETATM   12  C   UNL     1     -40.491 -46.619  11.246  1.00  0.00     0.129 C 
BRANCH  12  13
HETATM   13  C   UNL     1     -40.414 -45.487  12.262  1.00  0.00     0.029 C 
HETATM   14  C   UNL     1     -39.955 -44.155  11.704  1.00  0.00     0.034 C 
HETATM   15  C   UNL     1     -39.315 -43.466  12.896  1.00  0.00     0.168 C 
HETATM   16  O   UNL     1     -39.100 -44.457  13.911  1.00  0.00    -0.391 OA
HETATM   17  C   UNL     1     -39.376 -45.740  13.338  1.00  0.00     0.173 C 
ENDBRANCH  12  13
ENDBRANCH   3  12
TORSDOF 4
ENDMDL
MODEL 2
REMARK VINA RESULT:      -5.0      4.623      5.679
REMARK  4 active torsions:
REMARK  status: ('A' for Active; 'I' for Inactive)
REMARK    1  A    between atoms: C_2  and  C_3 
REMARK       I    between atoms: C_2  and  N_10 
REMARK    2  A    between atoms: C_3  and  N_4 
REMARK    3  A    between atoms: N_10  and  C_11 
REMARK    4  A    between atoms: C_11  and  C_12 
ROOT
HETATM    1  O   UNL     1     -41.593 -48.582  13.019  1.00  0.00    -0.272 OA
HETATM    2  C   UNL     1     -41.686 -48.984  11.860  1.00  0.00     0.237 C 
HETATM    3  N   UNL     1     -41.910 -50.312  11.546  1.00  0.00    -0.359 N 
HETATM    4  H   UNL     1     -42.099 -50.567  10.583  1.00  0.00     0.162 HD
ENDROOT
BRANCH   2   5
HETATM    5  C   UNL     1     -41.506 -48.067  10.671  1.00  0.00     0.250 C 
BRANCH   5   6
HETATM    6  N   UNL     1     -42.735 -47.890   9.923  1.00  0.00    -0.295 N 
HETATM    7  C   UNL     1     -43.945 -47.484  10.409  1.00  0.00     0.112 A 
HETATM    8  C   UNL     1     -44.762 -47.313   9.316  1.00  0.00     0.037 A 
HETATM    9  C   UNL     1     -43.948 -47.630   8.213  1.00  0.00     0.108 A 
HETATM   10  N   UNL     1     -42.713 -47.983   8.577  1.00  0.00    -0.310 N 
ATOM     11  HN  UNL     1     -41.935 -48.259   7.977  1.00  0.00     0.186 HD
ENDBRANCH   5   6
ENDBRANCH   2   5
BRANCH   3  12
HETATM   12  C   UNL     1     -42.069 -51.334  12.564  1.00  0.00     0.129 C 
BRANCH  12  13
HETATM   13  C   UNL     1     -40.940 -52.357  12.539  1.00  0.00     0.029 C 
HETATM   14  C   UNL     1     -41.275 -53.697  13.164  1.00  0.00     0.034 C 
HETATM   15  C   UNL     1     -39.932 -54.220  13.637  1.00  0.00     0.168 C 
HETATM   16  O   UNL     1     -39.005 -53.125  13.621  1.00  0.00    -0.391 OA
HETATM   17  C   UNL     1     -39.745 -51.926  13.367  1.00  0.00     0.173 C 
ENDBRANCH  12  13
ENDBRANCH   3  12
TORSDOF 4
ENDMDL
MODEL 3
REMARK VINA RESULT:      -4.8      5.051      5.652
REMARK  4 active torsions:
REMARK  status: ('A' for Active; 'I' for Inactive)
REMARK    1  A    between atoms: C_2  and  C_3 
REMARK       I    between atoms: C_2  and  N_10 
REMARK    2  A    between atoms: C_3  and  N_4 
REMARK    3  A    between atoms: N_10  and  C_11 
REMARK    4  A    between atoms: C_11  and  C_12 
ROOT
HETATM    1  O   UNL     1     -42.761 -50.214  13.305  1.00  0.00    -0.272 OA
HETATM    2  C   UNL     1     -42.088 -50.497  12.315  1.00  0.00     0.237 C 
HETATM    3  N   UNL     1     -41.840 -49.595  11.297  1.00  0.00    -0.359 N 
HETATM    4  H   UNL     1     -41.181 -49.840  10.568  1.00  0.00     0.162 HD
ENDROOT
BRANCH   2   5
HETATM    5  C   UNL     1     -41.517 -51.880  12.095  1.00  0.00     0.250 C 
BRANCH   5   6
HETATM    6  N   UNL     1     -42.402 -52.922  12.578  1.00  0.00    -0.295 N 
HETATM    7  C   UNL     1     -42.206 -53.738  13.657  1.00  0.00     0.112 A 
HETATM    8  C   UNL     1     -43.370 -54.452  13.817  1.00  0.00     0.037 A 
HETATM    9  C   UNL     1     -44.215 -53.987  12.793  1.00  0.00     0.108 A 
HETATM   10  N   UNL     1     -43.631 -53.055  12.034  1.00  0.00    -0.310 N 
ATOM     11  HN  UNL     1     -44.021 -52.561  11.232  1.00  0.00     0.186 HD
ENDBRANCH   5   6
ENDBRANCH   2   5
BRANCH   3  12
HETATM   12  C   UNL     1     -42.344 -48.233  11.327  1.00  0.00     0.129 C 
BRANCH  12  13
HETATM   13  C   UNL     1     -41.473 -47.275  10.524  1.00  0.00     0.029 C 
HETATM   14  C   UNL     1     -40.205 -46.824  11.221  1.00  0.00     0.034 C 
HETATM   15  C   UNL     1     -39.923 -45.464  10.610  1.00  0.00     0.168 C 
HETATM   16  O   UNL     1     -41.109 -45.036   9.926  1.00  0.00    -0.391 OA
HETATM   17  C   UNL     1     -42.160 -45.951  10.255  1.00  0.00     0.173 C 
ENDBRANCH  12  13
ENDBRANCH   3  12
TORSDOF 4
ENDMDL
MODEL 4
REMARK VINA RESULT:      -4.8      5.965      8.653
REMARK  4 active torsions:
REMARK  status: ('A' for Active; 'I' for Inactive)
REMARK    1  A    between atoms: C_2  and  C_3 
REMARK       I    between atoms: C_2  and  N_10 
REMARK    2  A    between atoms: C_3  and  N_4 
REMARK    3  A    between atoms: N_10  and  C_11 
REMARK    4  A    between atoms: C_11  and  C_12 
ROOT
HETATM    1  O   UNL     1     -40.464 -52.537  12.135  1.00  0.00    -0.272 OA
HETATM    2  C   UNL     1     -41.378 -51.715  12.096  1.00  0.00     0.237 C 
HETATM    3  N   UNL     1     -42.702 -52.060  12.293  1.00  0.00    -0.359 N 
HETATM    4  H   UNL     1     -43.398 -51.327  12.371  1.00  0.00     0.162 HD
ENDROOT
BRANCH   2   5
HETATM    5  C   UNL     1     -41.139 -50.257  11.771  1.00  0.00     0.250 C 
BRANCH   5   6
HETATM    6  N   UNL     1     -39.748 -49.880  11.927  1.00  0.00    -0.295 N 
HETATM    7  C   UNL     1     -39.145 -49.397  13.054  1.00  0.00     0.112 A 
HETATM    8  C   UNL     1     -37.800 -49.332  12.773  1.00  0.00     0.037 A 
HETATM    9  C   UNL     1     -37.690 -49.809  11.455  1.00  0.00     0.108 A 
HETATM   10  N   UNL     1     -38.873 -50.144  10.933  1.00  0.00    -0.310 N 
ATOM     11  HN  UNL     1     -39.069 -50.513  10.003  1.00  0.00     0.186 HD
ENDBRANCH   5   6
ENDBRANCH   2   5
BRANCH   3  12
HETATM   12  C   UNL     1     -43.115 -53.422  12.577  1.00  0.00     0.129 C 
BRANCH  12  13
HETATM   13  C   UNL     1     -44.617 -53.538  12.807  1.00  0.00     0.029 C 
HETATM   14  C   UNL     1     -45.264 -52.321  13.438  1.00  0.00     0.034 C 
HETATM   15  C   UNL     1     -46.467 -52.891  14.166  1.00  0.00     0.168 C 
HETATM   16  O   UNL     1     -46.297 -54.313  14.248  1.00  0.00    -0.391 OA
HETATM   17  C   UNL     1     -44.972 -54.623  13.803  1.00  0.00     0.173 C 
ENDBRANCH  12  13
ENDBRANCH   3  12
TORSDOF 4
ENDMDL
MODEL 5
REMARK VINA RESULT:      -4.8      7.305      8.082
REMARK  4 active torsions:
REMARK  status: ('A' for Active; 'I' for Inactive)
REMARK    1  A    between atoms: C_2  and  C_3 
REMARK       I    between atoms: C_2  and  N_10 
REMARK    2  A    between atoms: C_3  and  N_4 
REMARK    3  A    between atoms: N_10  and  C_11 
REMARK    4  A    between atoms: C_11  and  C_12 
ROOT
HETATM    1  O   UNL     1     -43.701 -55.606  15.207  1.00  0.00    -0.272 OA
HETATM    2  C   UNL     1     -44.047 -54.949  14.226  1.00  0.00     0.237 C 
HETATM    3  N   UNL     1     -43.157 -54.207  13.471  1.00  0.00    -0.359 N 
HETATM    4  H   UNL     1     -43.474 -53.785  12.606  1.00  0.00     0.162 HD
ENDROOT
BRANCH   2   5
HETATM    5  C   UNL     1     -45.492 -54.847  13.792  1.00  0.00     0.250 C 
BRANCH   5   6
HETATM    6  N   UNL     1     -45.984 -53.484  13.836  1.00  0.00    -0.295 N 
HETATM    7  C   UNL     1     -46.069 -52.672  14.931  1.00  0.00     0.112 A 
HETATM    8  C   UNL     1     -46.444 -51.434  14.464  1.00  0.00     0.037 A 
HETATM    9  C   UNL     1     -46.548 -51.597  13.071  1.00  0.00     0.108 A 
HETATM   10  N   UNL     1     -46.271 -52.844  12.682  1.00  0.00    -0.310 N 
ATOM     11  HN  UNL     1     -46.274 -53.223  11.735  1.00  0.00     0.186 HD
ENDBRANCH   5   6
ENDBRANCH   2   5
BRANCH   3  12
HETATM   12  C   UNL     1     -41.737 -54.161  13.770  1.00  0.00     0.129 C 
BRANCH  12  13
HETATM   13  C   UNL     1     -40.973 -53.255  12.812  1.00  0.00     0.029 C 
HETATM   14  C   UNL     1     -39.959 -52.339  13.468  1.00  0.00     0.034 C 
HETATM   15  C   UNL     1     -39.878 -51.156  12.521  1.00  0.00     0.168 C 
HETATM   16  O   UNL     1     -41.002 -51.228  11.632  1.00  0.00    -0.391 OA
HETATM   17  C   UNL     1     -41.873 -52.260  12.108  1.00  0.00     0.173 C 
ENDBRANCH  12  13
ENDBRANCH   3  12
TORSDOF 4
ENDMDL
MODEL 6
REMARK VINA RESULT:      -4.8      5.001      7.010
REMARK  4 active torsions:
REMARK  status: ('A' for Active; 'I' for Inactive)
REMARK    1  A    between atoms: C_2  and  C_3 
REMARK       I    between atoms: C_2  and  N_10 
REMARK    2  A    between atoms: C_3  and  N_4 
REMARK    3  A    between atoms: N_10  and  C_11 
REMARK    4  A    between atoms: C_11  and  C_12 
ROOT
HETATM    1  O   UNL     1     -40.507 -50.546  13.398  1.00  0.00    -0.272 OA
HETATM    2  C   UNL     1     -40.988 -50.494  12.267  1.00  0.00     0.237 C 
HETATM    3  N   UNL     1     -41.860 -51.451  11.782  1.00  0.00    -0.359 N 
HETATM    4  H   UNL     1     -42.320 -51.296  10.892  1.00  0.00     0.162 HD
ENDROOT
BRANCH   2   5
HETATM    5  C   UNL     1     -40.623 -49.406  11.284  1.00  0.00     0.250 C 
BRANCH   5   6
HETATM    6  N   UNL     1     -41.781 -48.654  10.841  1.00  0.00    -0.295 N 
HETATM    7  C   UNL     1     -42.753 -48.099  11.624  1.00  0.00     0.112 A 
HETATM    8  C   UNL     1     -43.550 -47.360  10.782  1.00  0.00     0.037 A 
HETATM    9  C   UNL     1     -42.970 -47.522   9.511  1.00  0.00     0.108 A 
HETATM   10  N   UNL     1     -41.892 -48.311   9.540  1.00  0.00    -0.310 N 
ATOM     11  HN  UNL     1     -41.294 -48.588   8.762  1.00  0.00     0.186 HD
ENDBRANCH   5   6
ENDBRANCH   2   5
BRANCH   3  12
HETATM   12  C   UNL     1     -42.289 -52.587  12.579  1.00  0.00     0.129 C 
BRANCH  12  13
HETATM   13  C   UNL     1     -43.764 -52.911  12.380  1.00  0.00     0.029 C 
HETATM   14  C   UNL     1     -44.725 -52.005  13.122  1.00  0.00     0.034 C 
HETATM   15  C   UNL     1     -45.946 -52.879  13.344  1.00  0.00     0.168 C 
HETATM   16  O   UNL     1     -45.562 -54.239  13.091  1.00  0.00    -0.391 OA
HETATM   17  C   UNL     1     -44.140 -54.272  12.932  1.00  0.00     0.173 C 
ENDBRANCH  12  13
ENDBRANCH   3  12
TORSDOF 4
ENDMDL
MODEL 7
REMARK VINA RESULT:      -4.7      5.771      6.283
REMARK  4 active torsions:
REMARK  status: ('A' for Active; 'I' for Inactive)
REMARK    1  A    between atoms: C_2  and  C_3 
REMARK       I    between atoms: C_2  and  N_10 
REMARK    2  A    between atoms: C_3  and  N_4 
REMARK    3  A    between atoms: N_10  and  C_11 
REMARK    4  A    between atoms: C_11  and  C_12 
ROOT
HETATM    1  O   UNL     1     -42.404 -50.964  12.687  1.00  0.00    -0.272 OA
HETATM    2  C   UNL     1     -41.458 -51.563  12.177  1.00  0.00     0.237 C 
HETATM    3  N   UNL     1     -40.531 -50.940  11.362  1.00  0.00    -0.359 N 
HETATM    4  H   UNL     1     -39.707 -51.451  11.068  1.00  0.00     0.162 HD
ENDROOT
BRANCH   2   5
HETATM    5  C   UNL     1     -41.257 -53.051  12.351  1.00  0.00     0.250 C 
BRANCH   5   6
HETATM    6  N   UNL     1     -42.427 -53.703  12.905  1.00  0.00    -0.295 N 
HETATM    7  C   UNL     1     -42.542 -54.288  14.134  1.00  0.00     0.112 A 
HETATM    8  C   UNL     1     -43.867 -54.629  14.276  1.00  0.00     0.037 A 
HETATM    9  C   UNL     1     -44.474 -54.197  13.083  1.00  0.00     0.108 A 
HETATM   10  N   UNL     1     -43.602 -53.633  12.243  1.00  0.00    -0.310 N 
ATOM     11  HN  UNL     1     -43.781 -53.241  11.319  1.00  0.00     0.186 HD
ENDBRANCH   5   6
ENDBRANCH   2   5
BRANCH   3  12
HETATM   12  C   UNL     1     -40.595 -49.522  11.056  1.00  0.00     0.129 C 
BRANCH  12  13
HETATM   13  C   UNL     1     -39.554 -48.716  11.823  1.00  0.00     0.029 C 
HETATM   14  C   UNL     1     -38.317 -49.490  12.230  1.00  0.00     0.034 C 
HETATM   15  C   UNL     1     -37.832 -48.768  13.473  1.00  0.00     0.168 C 
HETATM   16  O   UNL     1     -38.895 -47.918  13.928  1.00  0.00    -0.391 OA
HETATM   17  C   UNL     1     -40.065 -48.232  13.166  1.00  0.00     0.173 C 
ENDBRANCH  12  13
ENDBRANCH   3  12
TORSDOF 4
ENDMDL
MODEL 8
REMARK VINA RESULT:      -4.6      7.693      9.205
REMARK  4 active torsions:
REMARK  status: ('A' for Active; 'I' for Inactive)
REMARK    1  A    between atoms: C_2  and  C_3 
REMARK       I    between atoms: C_2  and  N_10 
REMARK    2  A    between atoms: C_3  and  N_4 
REMARK    3  A    between atoms: N_10  and  C_11 
REMARK    4  A    between atoms: C_11  and  C_12 
ROOT
HETATM    1  O   UNL     1     -44.423 -50.942  13.455  1.00  0.00    -0.272 OA
HETATM    2  C   UNL     1     -45.002 -52.019  13.320  1.00  0.00     0.237 C 
HETATM    3  N   UNL     1     -46.210 -52.300  13.930  1.00  0.00    -0.359 N 
HETATM    4  H   UNL     1     -46.701 -53.153  13.689  1.00  0.00     0.162 HD
ENDROOT
BRANCH   2   5
HETATM    5  C   UNL     1     -44.412 -53.158  12.518  1.00  0.00     0.250 C 
BRANCH   5   6
HETATM    6  N   UNL     1     -42.964 -53.181  12.580  1.00  0.00    -0.295 N 
HETATM    7  C   UNL     1     -42.183 -54.038  13.303  1.00  0.00     0.112 A 
HETATM    8  C   UNL     1     -40.884 -53.782  12.929  1.00  0.00     0.037 A 
HETATM    9  C   UNL     1     -40.986 -52.763  11.966  1.00  0.00     0.108 A 
HETATM   10  N   UNL     1     -42.251 -52.391  11.750  1.00  0.00    -0.310 N 
ATOM     11  HN  UNL     1     -42.597 -51.677  11.108  1.00  0.00     0.186 HD
ENDBRANCH   5   6
ENDBRANCH   2   5
BRANCH   3  12
HETATM   12  C   UNL     1     -46.899 -51.334  14.767  1.00  0.00     0.129 C 
BRANCH  12  13
HETATM   13  C   UNL     1     -47.402 -51.948  16.068  1.00  0.00     0.029 C 
HETATM   14  C   UNL     1     -48.062 -50.975  17.023  1.00  0.00     0.034 C 
HETATM   15  C   UNL     1     -47.831 -51.596  18.388  1.00  0.00     0.168 C 
HETATM   16  O   UNL     1     -46.823 -52.608  18.243  1.00  0.00    -0.391 OA
HETATM   17  C   UNL     1     -46.279 -52.500  16.923  1.00  0.00     0.173 C 
ENDBRANCH  12  13
ENDBRANCH   3  12
TORSDOF 4
ENDMDL
MODEL 9
REMARK VINA RESULT:      -4.6      6.311      8.324
REMARK  4 active torsions:
REMARK  status: ('A' for Active; 'I' for Inactive)
REMARK    1  A    between atoms: C_2  and  C_3 
REMARK       I    between atoms: C_2  and  N_10 
REMARK    2  A    between atoms: C_3  and  N_4 
REMARK    3  A    between atoms: N_10  and  C_11 
REMARK    4  A    between atoms: C_11  and  C_12 
ROOT
HETATM    1  O   UNL     1     -39.935 -52.321  14.523  1.00  0.00    -0.272 OA
HETATM    2  C   UNL     1     -40.226 -52.227  13.331  1.00  0.00     0.237 C 
HETATM    3  N   UNL     1     -41.107 -53.090  12.707  1.00  0.00    -0.359 N 
HETATM    4  H   UNL     1     -41.404 -52.894  11.758  1.00  0.00     0.162 HD
ENDROOT
BRANCH   2   5
HETATM    5  C   UNL     1     -39.599 -51.190  12.427  1.00  0.00     0.250 C 
BRANCH   5   6
HETATM    6  N   UNL     1     -40.568 -50.228  11.939  1.00  0.00    -0.295 N 
HETATM    7  C   UNL     1     -41.520 -49.574  12.668  1.00  0.00     0.112 A 
HETATM    8  C   UNL     1     -42.094 -48.657  11.818  1.00  0.00     0.037 A 
HETATM    9  C   UNL     1     -41.411 -48.828  10.600  1.00  0.00     0.108 A 
HETATM   10  N   UNL     1     -40.481 -49.784  10.667  1.00  0.00    -0.310 N 
ATOM     11  HN  UNL     1     -39.853 -50.104   9.930  1.00  0.00     0.186 HD
ENDBRANCH   5   6
ENDBRANCH   2   5
BRANCH   3  12
HETATM   12  C   UNL     1     -41.772 -54.168  13.416  1.00  0.00     0.129 C 
BRANCH  12  13
HETATM   13  C   UNL     1     -43.241 -53.868  13.684  1.00  0.00     0.029 C 
HETATM   14  C   UNL     1     -44.007 -54.978  14.376  1.00  0.00     0.034 C 
HETATM   15  C   UNL     1     -45.437 -54.771  13.913  1.00  0.00     0.168 C 
HETATM   16  O   UNL     1     -45.409 -53.879  12.789  1.00  0.00    -0.391 OA
HETATM   17  C   UNL     1     -44.042 -53.694  12.409  1.00  0.00     0.173 C 
ENDBRANCH  12  13
ENDBRANCH   3  12
TORSDOF 4
ENDMDL
