MODEL 1
REMARK VINA RESULT:      -5.9      0.000      0.000
REMARK  2 active torsions:
REMARK  status: ('A' for Active; 'I' for Inactive)
REMARK       I    between atoms: C_2  and  N_3 
REMARK       I    between atoms: C_2  and  N_13 
REMARK    1  A    between atoms: N_3  and  C_4 
REMARK    2  A    between atoms: N_13  and  C_14 
ROOT
HETATM    1  O   UNL     1     -40.514 -52.695  12.088  1.00  0.00    -0.247 OA
HETATM    2  C   UNL     1     -40.871 -51.520  12.072  1.00  0.00     0.322 C 
HETATM    3  N   UNL     1     -41.793 -51.007  12.929  1.00  0.00    -0.336 N 
HETATM    4  N   UNL     1     -40.351 -50.672  11.141  1.00  0.00    -0.289 N 
HETATM    5  H   UNL     1     -42.099 -50.058  12.735  1.00  0.00     0.164 HD
HETATM    6  H   UNL     1     -39.707 -51.084  10.483  1.00  0.00     0.172 HD
ENDROOT
BRANCH   3   7
HETATM    7  C   UNL     1     -42.578 -51.809  13.852  1.00  0.00     0.121 C 
HETATM    8  C   UNL     1     -42.048 -51.664  15.288  1.00  0.00     0.057 C 
HETATM    9  C   UNL     1     -43.255 -51.301  16.150  1.00  0.00     0.275 C 
HETATM   10  N   UNL     1     -44.392 -51.714  15.338  1.00  0.00     0.095 N 
HETATM   11  C   UNL     1     -45.670 -51.141  15.737  1.00  0.00     0.273 C 
HETATM   12  C   UNL     1     -44.032 -51.331  13.963  1.00  0.00     0.245 C 
HETATM   13  C   UNL     1     -46.775 -51.659  14.806  1.00  0.00     0.030 C 
HETATM   14  C   UNL     1     -46.441 -51.444  13.327  1.00  0.00     0.004 C 
HETATM   15  C   UNL     1     -45.033 -51.951  12.992  1.00  0.00     0.038 C 
ENDBRANCH   3   7
BRANCH   4  16
HETATM   16  C   UNL     1     -40.625 -49.341  11.028  1.00  0.00     0.152 A 
HETATM   17  N   UNL     1     -41.543 -48.762  10.290  1.00  0.00    -0.346 N 
HETATM   18  C   UNL     1     -41.498 -47.397  10.507  1.00  0.00     0.097 A 
ATOM     19  HN  UNL     1     -42.185 -49.241   9.659  1.00  0.00     0.167 HD
HETATM   20  C   UNL     1     -40.498 -46.963  11.353  1.00  0.00     0.070 A 
HETATM   21  S   UNL     1     -39.629 -48.315  11.957  1.00  0.00    -0.064 SA
ENDBRANCH   4  16
TORSDOF 2
ENDMDL
MODEL 2
REMARK VINA RESULT:      -5.5      2.349      3.637
REMARK  2 active torsions:
REMARK  status: ('A' for Active; 'I' for Inactive)
REMARK       I    between atoms: C_2  and  N_3 
REMARK       I    between atoms: C_2  and  N_13 
REMARK    1  A    between atoms: N_3  and  C_4 
REMARK    2  A    between atoms: N_13  and  C_14 
ROOT
HETATM    1  O   UNL     1     -39.881 -48.307  12.190  1.00  0.00    -0.247 OA
HETATM    2  C   UNL     1     -40.969 -48.231  11.625  1.00  0.00     0.322 C 
HETATM    3  N   UNL     1     -42.101 -48.816  12.101  1.00  0.00    -0.336 N 
HETATM    4  N   UNL     1     -41.069 -47.553  10.448  1.00  0.00    -0.289 N 
HETATM    5  H   UNL     1     -42.906 -48.791  11.483  1.00  0.00     0.164 HD
HETATM    6  H   UNL     1     -40.209 -47.171  10.088  1.00  0.00     0.172 HD
ENDROOT
BRANCH   3   7
HETATM    7  C   UNL     1     -42.131 -49.725  13.234  1.00  0.00     0.121 C 
HETATM    8  C   UNL     1     -43.451 -49.588  14.009  1.00  0.00     0.057 C 
HETATM    9  C   UNL     1     -44.012 -51.002  14.143  1.00  0.00     0.275 C 
HETATM   10  N   UNL     1     -42.853 -51.853  13.907  1.00  0.00     0.095 N 
HETATM   11  C   UNL     1     -43.166 -53.240  13.593  1.00  0.00     0.273 C 
HETATM   12  C   UNL     1     -42.121 -51.199  12.811  1.00  0.00     0.245 C 
HETATM   13  C   UNL     1     -41.862 -54.020  13.375  1.00  0.00     0.030 C 
HETATM   14  C   UNL     1     -40.944 -53.349  12.348  1.00  0.00     0.004 C 
HETATM   15  C   UNL     1     -40.754 -51.860  12.659  1.00  0.00     0.038 C 
ENDBRANCH   3   7
BRANCH   4  16
HETATM   16  C   UNL     1     -42.212 -47.356   9.732  1.00  0.00     0.152 A 
HETATM   17  N   UNL     1     -42.764 -48.155   8.848  1.00  0.00    -0.346 N 
HETATM   18  C   UNL     1     -43.936 -47.580   8.393  1.00  0.00     0.097 A 
ATOM     19  HN  UNL     1     -42.389 -49.054   8.546  1.00  0.00     0.167 HD
HETATM   20  C   UNL     1     -44.213 -46.323   8.890  1.00  0.00     0.070 A 
HETATM   21  S   UNL     1     -43.004 -45.874  10.023  1.00  0.00    -0.064 SA
ENDBRANCH   4  16
TORSDOF 2
ENDMDL
MODEL 3
REMARK VINA RESULT:      -5.4      2.606      5.910
REMARK  2 active torsions:
REMARK  status: ('A' for Active; 'I' for Inactive)
REMARK       I    between atoms: C_2  and  N_3 
REMARK       I    between atoms: C_2  and  N_13 
REMARK    1  A    between atoms: N_3  and  C_4 
REMARK    2  A    between atoms: N_13  and  C_14 
ROOT
HETATM    1  O   UNL     1     -40.625 -53.006  11.813  1.00  0.00    -0.247 OA
HETATM    2  C   UNL     1     -41.669 -52.409  12.062  1.00  0.00     0.322 C 
HETATM    3  N   UNL     1     -41.826 -51.071  11.881  1.00  0.00    -0.336 N 
HETATM    4  N   UNL     1     -42.730 -53.095  12.571  1.00  0.00    -0.289 N 
HETATM    5  H   UNL     1     -42.688 -50.673  12.242  1.00  0.00     0.164 HD
HETATM    6  H   UNL     1     -42.576 -54.076  12.745  1.00  0.00     0.172 HD
ENDROOT
BRANCH   3   7
HETATM    7  C   UNL     1     -40.745 -50.166  11.528  1.00  0.00     0.121 C 
HETATM    8  C   UNL     1     -41.297 -48.867  10.919  1.00  0.00     0.057 C 
HETATM    9  C   UNL     1     -40.652 -47.725  11.703  1.00  0.00     0.275 C 
HETATM   10  N   UNL     1     -39.490 -48.349  12.322  1.00  0.00     0.095 N 
HETATM   11  C   UNL     1     -38.910 -47.601  13.428  1.00  0.00     0.273 C 
HETATM   12  C   UNL     1     -39.959 -49.677  12.751  1.00  0.00     0.245 C 
HETATM   13  C   UNL     1     -37.699 -48.365  13.982  1.00  0.00     0.030 C 
HETATM   14  C   UNL     1     -38.035 -49.818  14.331  1.00  0.00     0.004 C 
HETATM   15  C   UNL     1     -38.758 -50.519  13.175  1.00  0.00     0.038 C 
ENDBRANCH   3   7
BRANCH   4  16
HETATM   16  C   UNL     1     -43.956 -52.574  12.859  1.00  0.00     0.152 A 
HETATM   17  N   UNL     1     -45.012 -52.505  12.082  1.00  0.00    -0.346 N 
HETATM   18  C   UNL     1     -46.054 -51.935  12.790  1.00  0.00     0.097 A 
ATOM     19  HN  UNL     1     -45.056 -52.821  11.113  1.00  0.00     0.167 HD
HETATM   20  C   UNL     1     -45.745 -51.518  14.068  1.00  0.00     0.070 A 
HETATM   21  S   UNL     1     -44.115 -51.920  14.426  1.00  0.00    -0.064 SA
ENDBRANCH   4  16
TORSDOF 2
ENDMDL
MODEL 4
REMARK VINA RESULT:      -5.4      2.958      3.175
REMARK  2 active torsions:
REMARK  status: ('A' for Active; 'I' for Inactive)
REMARK       I    between atoms: C_2  and  N_3 
REMARK       I    between atoms: C_2  and  N_13 
REMARK    1  A    between atoms: N_3  and  C_4 
REMARK    2  A    between atoms: N_13  and  C_14 
ROOT
HETATM    1  O   UNL     1     -37.371 -51.327  12.148  1.00  0.00    -0.247 OA
HETATM    2  C   UNL     1     -38.457 -50.753  12.153  1.00  0.00     0.322 C 
HETATM    3  N   UNL     1     -39.456 -51.054  13.025  1.00  0.00    -0.336 N 
HETATM    4  N   UNL     1     -38.708 -49.781  11.233  1.00  0.00    -0.289 N 
HETATM    5  H   UNL     1     -40.349 -50.602  12.849  1.00  0.00     0.164 HD
HETATM    6  H   UNL     1     -37.973 -49.610  10.564  1.00  0.00     0.172 HD
ENDROOT
BRANCH   3   7
HETATM    7  C   UNL     1     -39.424 -52.182  13.940  1.00  0.00     0.121 C 
HETATM    8  C   UNL     1     -38.981 -51.735  15.343  1.00  0.00     0.057 C 
HETATM    9  C   UNL     1     -40.036 -52.268  16.310  1.00  0.00     0.275 C 
HETATM   10  N   UNL     1     -40.695 -53.322  15.550  1.00  0.00     0.095 N 
HETATM   11  C   UNL     1     -41.986 -53.742  16.077  1.00  0.00     0.273 C 
HETATM   12  C   UNL     1     -40.813 -52.786  14.185  1.00  0.00     0.245 C 
HETATM   13  C   UNL     1     -42.563 -54.853  15.189  1.00  0.00     0.030 C 
HETATM   14  C   UNL     1     -42.601 -54.458  13.710  1.00  0.00     0.004 C 
HETATM   15  C   UNL     1     -41.249 -53.905  13.243  1.00  0.00     0.038 C 
ENDBRANCH   3   7
BRANCH   4  16
HETATM   16  C   UNL     1     -39.848 -49.039  11.143  1.00  0.00     0.152 A 
HETATM   17  N   UNL     1     -40.925 -49.289  10.436  1.00  0.00    -0.346 N 
HETATM   18  C   UNL     1     -41.856 -48.293  10.668  1.00  0.00     0.097 A 
ATOM     19  HN  UNL     1     -41.055 -50.089   9.816  1.00  0.00     0.167 HD
HETATM   20  C   UNL     1     -41.437 -47.270  11.494  1.00  0.00     0.070 A 
HETATM   21  S   UNL     1     -39.850 -47.600  12.059  1.00  0.00    -0.064 SA
ENDBRANCH   4  16
TORSDOF 2
ENDMDL
MODEL 5
REMARK VINA RESULT:      -5.4      2.352      6.123
REMARK  2 active torsions:
REMARK  status: ('A' for Active; 'I' for Inactive)
REMARK       I    between atoms: C_2  and  N_3 
REMARK       I    between atoms: C_2  and  N_13 
REMARK    1  A    between atoms: N_3  and  C_4 
REMARK    2  A    between atoms: N_13  and  C_14 
ROOT
HETATM    1  O   UNL     1     -39.370 -49.868  11.143  1.00  0.00    -0.247 OA
HETATM    2  C   UNL     1     -40.528 -50.188  11.397  1.00  0.00     0.322 C 
HETATM    3  N   UNL     1     -41.606 -49.445  11.031  1.00  0.00    -0.336 N 
HETATM    4  N   UNL     1     -40.771 -51.327  12.104  1.00  0.00    -0.289 N 
HETATM    5  H   UNL     1     -42.501 -49.745  11.408  1.00  0.00     0.164 HD
HETATM    6  H   UNL     1     -39.956 -51.836  12.409  1.00  0.00     0.172 HD
ENDROOT
BRANCH   3   7
HETATM    7  C   UNL     1     -41.517 -48.120  10.442  1.00  0.00     0.121 C 
HETATM    8  C   UNL     1     -42.806 -47.773   9.679  1.00  0.00     0.057 C 
HETATM    9  C   UNL     1     -43.257 -46.412  10.206  1.00  0.00     0.275 C 
HETATM   10  N   UNL     1     -42.053 -45.866  10.817  1.00  0.00     0.095 N 
HETATM   11  C   UNL     1     -42.280 -44.755  11.731  1.00  0.00     0.273 C 
HETATM   12  C   UNL     1     -41.422 -47.009  11.496  1.00  0.00     0.245 C 
HETATM   13  C   UNL     1     -40.936 -44.276  12.296  1.00  0.00     0.030 C 
HETATM   14  C   UNL     1     -40.118 -45.418  12.906  1.00  0.00     0.004 C 
HETATM   15  C   UNL     1     -40.020 -46.611  11.948  1.00  0.00     0.038 C 
ENDBRANCH   3   7
BRANCH   4  16
HETATM   16  C   UNL     1     -42.000 -51.823  12.426  1.00  0.00     0.152 A 
HETATM   17  N   UNL     1     -42.734 -52.673  11.748  1.00  0.00    -0.346 N 
HETATM   18  C   UNL     1     -43.892 -52.932  12.459  1.00  0.00     0.097 A 
ATOM     19  HN  UNL     1     -42.491 -53.078  10.844  1.00  0.00     0.167 HD
HETATM   20  C   UNL     1     -44.042 -52.218  13.629  1.00  0.00     0.070 A 
HETATM   21  S   UNL     1     -42.655 -51.241  13.889  1.00  0.00    -0.064 SA
ENDBRANCH   4  16
TORSDOF 2
ENDMDL
MODEL 6
REMARK VINA RESULT:      -5.1      3.669      4.606
REMARK  2 active torsions:
REMARK  status: ('A' for Active; 'I' for Inactive)
REMARK       I    between atoms: C_2  and  N_3 
REMARK       I    between atoms: C_2  and  N_13 
REMARK    1  A    between atoms: N_3  and  C_4 
REMARK    2  A    between atoms: N_13  and  C_14 
ROOT
HETATM    1  O   UNL     1     -41.927 -48.908  13.477  1.00  0.00    -0.247 OA
HETATM    2  C   UNL     1     -42.192 -48.668  12.301  1.00  0.00     0.322 C 
HETATM    3  N   UNL     1     -41.570 -49.277  11.256  1.00  0.00    -0.336 N 
HETATM    4  N   UNL     1     -43.135 -47.732  12.002  1.00  0.00    -0.289 N 
HETATM    5  H   UNL     1     -41.784 -48.904  10.335  1.00  0.00     0.164 HD
HETATM    6  H   UNL     1     -43.547 -47.257  12.790  1.00  0.00     0.172 HD
ENDROOT
BRANCH   3   7
HETATM    7  C   UNL     1     -40.420 -50.154  11.394  1.00  0.00     0.121 C 
HETATM    8  C   UNL     1     -39.207 -49.382  11.936  1.00  0.00     0.057 C 
HETATM    9  C   UNL     1     -38.697 -50.182  13.134  1.00  0.00     0.275 C 
HETATM   10  N   UNL     1     -39.271 -51.505  12.931  1.00  0.00     0.095 N 
HETATM   11  C   UNL     1     -39.271 -52.361  14.109  1.00  0.00     0.273 C 
HETATM   12  C   UNL     1     -40.637 -51.253  12.443  1.00  0.00     0.245 C 
HETATM   13  C   UNL     1     -39.896 -53.717  13.756  1.00  0.00     0.030 C 
HETATM   14  C   UNL     1     -41.274 -53.573  13.101  1.00  0.00     0.004 C 
HETATM   15  C   UNL     1     -41.241 -52.564  11.947  1.00  0.00     0.038 C 
ENDBRANCH   3   7
BRANCH   4  16
HETATM   16  C   UNL     1     -43.556 -47.390  10.751  1.00  0.00     0.152 A 
HETATM   17  N   UNL     1     -44.519 -47.933  10.043  1.00  0.00    -0.346 N 
HETATM   18  C   UNL     1     -44.633 -47.252   8.845  1.00  0.00     0.097 A 
ATOM     19  HN  UNL     1     -45.090 -48.728  10.330  1.00  0.00     0.167 HD
HETATM   20  C   UNL     1     -43.707 -46.251   8.641  1.00  0.00     0.070 A 
HETATM   21  S   UNL     1     -42.702 -46.105  10.025  1.00  0.00    -0.064 SA
ENDBRANCH   4  16
TORSDOF 2
ENDMDL
MODEL 7
REMARK VINA RESULT:      -4.9      2.779      4.239
REMARK  2 active torsions:
REMARK  status: ('A' for Active; 'I' for Inactive)
REMARK       I    between atoms: C_2  and  N_3 
REMARK       I    between atoms: C_2  and  N_13 
REMARK    1  A    between atoms: N_3  and  C_4 
REMARK    2  A    between atoms: N_13  and  C_14 
ROOT
HETATM    1  O   UNL     1     -42.686 -47.905  14.088  1.00  0.00    -0.247 OA
HETATM    2  C   UNL     1     -43.100 -48.165  12.961  1.00  0.00     0.322 C 
HETATM    3  N   UNL     1     -43.546 -49.396  12.594  1.00  0.00    -0.336 N 
HETATM    4  N   UNL     1     -43.099 -47.195  12.004  1.00  0.00    -0.289 N 
HETATM    5  H   UNL     1     -43.741 -49.520  11.604  1.00  0.00     0.164 HD
HETATM    6  H   UNL     1     -42.716 -46.304  12.283  1.00  0.00     0.172 HD
ENDROOT
BRANCH   3   7
HETATM    7  C   UNL     1     -43.441 -50.580  13.428  1.00  0.00     0.121 C 
HETATM    8  C   UNL     1     -44.641 -51.514  13.205  1.00  0.00     0.057 C 
HETATM    9  C   UNL     1     -44.054 -52.894  12.913  1.00  0.00     0.275 C 
HETATM   10  N   UNL     1     -42.697 -52.806  13.434  1.00  0.00     0.095 N 
HETATM   11  C   UNL     1     -41.787 -53.836  12.952  1.00  0.00     0.273 C 
HETATM   12  C   UNL     1     -42.237 -51.458  13.062  1.00  0.00     0.245 C 
HETATM   13  C   UNL     1     -40.402 -53.628  13.579  1.00  0.00     0.030 C 
HETATM   14  C   UNL     1     -39.878 -52.202  13.378  1.00  0.00     0.004 C 
HETATM   15  C   UNL     1     -40.926 -51.159  13.784  1.00  0.00     0.038 C 
ENDBRANCH   3   7
BRANCH   4  16
HETATM   16  C   UNL     1     -43.559 -47.328  10.728  1.00  0.00     0.152 A 
HETATM   17  N   UNL     1     -44.790 -47.191  10.292  1.00  0.00    -0.346 N 
HETATM   18  C   UNL     1     -44.803 -47.376   8.921  1.00  0.00     0.097 A 
ATOM     19  HN  UNL     1     -45.604 -46.982  10.869  1.00  0.00     0.167 HD
HETATM   20  C   UNL     1     -43.592 -47.719   8.357  1.00  0.00     0.070 A 
HETATM   21  S   UNL     1     -42.377 -47.740   9.570  1.00  0.00    -0.064 SA
ENDBRANCH   4  16
TORSDOF 2
ENDMDL
MODEL 8
REMARK VINA RESULT:      -4.9      3.285      4.729
REMARK  2 active torsions:
REMARK  status: ('A' for Active; 'I' for Inactive)
REMARK       I    between atoms: C_2  and  N_3 
REMARK       I    between atoms: C_2  and  N_13 
REMARK    1  A    between atoms: N_3  and  C_4 
REMARK    2  A    between atoms: N_13  and  C_14 
ROOT
HETATM    1  O   UNL     1     -41.216 -50.701  13.198  1.00  0.00    -0.247 OA
HETATM    2  C   UNL     1     -41.028 -51.819  13.671  1.00  0.00     0.322 C 
HETATM    3  N   UNL     1     -41.960 -52.809  13.642  1.00  0.00    -0.336 N 
HETATM    4  N   UNL     1     -39.845 -52.099  14.284  1.00  0.00    -0.289 N 
HETATM    5  H   UNL     1     -41.737 -53.643  14.177  1.00  0.00     0.164 HD
HETATM    6  H   UNL     1     -39.188 -51.336  14.340  1.00  0.00     0.172 HD
ENDROOT
BRANCH   3   7
HETATM    7  C   UNL     1     -43.330 -52.622  13.198  1.00  0.00     0.121 C 
HETATM    8  C   UNL     1     -43.879 -53.908  12.561  1.00  0.00     0.057 C 
HETATM    9  C   UNL     1     -45.205 -54.196  13.262  1.00  0.00     0.275 C 
HETATM   10  N   UNL     1     -45.566 -52.913  13.851  1.00  0.00     0.095 N 
HETATM   11  C   UNL     1     -46.579 -52.982  14.894  1.00  0.00     0.273 C 
HETATM   12  C   UNL     1     -44.299 -52.363  14.359  1.00  0.00     0.245 C 
HETATM   13  C   UNL     1     -46.865 -51.569  15.421  1.00  0.00     0.030 C 
HETATM   14  C   UNL     1     -45.590 -50.836  15.850  1.00  0.00     0.004 C 
HETATM   15  C   UNL     1     -44.512 -50.906  14.762  1.00  0.00     0.038 C 
ENDBRANCH   3   7
BRANCH   4  16
HETATM   16  C   UNL     1     -39.484 -53.300  14.820  1.00  0.00     0.152 A 
HETATM   17  N   UNL     1     -38.959 -54.335  14.208  1.00  0.00    -0.346 N 
HETATM   18  C   UNL     1     -38.716 -55.329  15.137  1.00  0.00     0.097 A 
ATOM     19  HN  UNL     1     -38.762 -54.397  13.209  1.00  0.00     0.167 HD
HETATM   20  C   UNL     1     -39.127 -55.053  16.425  1.00  0.00     0.070 A 
HETATM   21  S   UNL     1     -39.775 -53.464  16.492  1.00  0.00    -0.064 SA
ENDBRANCH   4  16
TORSDOF 2
ENDMDL
MODEL 9
REMARK VINA RESULT:      -4.8      2.700      3.126
REMARK  2 active torsions:
REMARK  status: ('A' for Active; 'I' for Inactive)
REMARK       I    between atoms: C_2  and  N_3 
REMARK       I    between atoms: C_2  and  N_13 
REMARK    1  A    between atoms: N_3  and  C_4 
REMARK    2  A    between atoms: N_13  and  C_14 
ROOT
HETATM    1  O   UNL     1     -42.956 -50.258  14.242  1.00  0.00    -0.247 OA
HETATM    2  C   UNL     1     -42.869 -49.860  13.084  1.00  0.00     0.322 C 
HETATM    3  N   UNL     1     -42.525 -50.663  12.041  1.00  0.00    -0.336 N 
HETATM    4  N   UNL     1     -43.097 -48.546  12.805  1.00  0.00    -0.289 N 
HETATM    5  H   UNL     1     -42.362 -50.193  11.155  1.00  0.00     0.164 HD
HETATM    6  H   UNL     1     -43.300 -47.958  13.599  1.00  0.00     0.172 HD
ENDROOT
BRANCH   3   7
HETATM    7  C   UNL     1     -42.069 -52.034  12.188  1.00  0.00     0.121 C 
HETATM    8  C   UNL     1     -40.662 -52.078  12.806  1.00  0.00     0.057 C 
HETATM    9  C   UNL     1     -40.750 -53.040  13.990  1.00  0.00     0.275 C 
HETATM   10  N   UNL     1     -41.953 -53.814  13.713  1.00  0.00     0.095 N 
HETATM   11  C   UNL     1     -42.492 -54.537  14.856  1.00  0.00     0.273 C 
HETATM   12  C   UNL     1     -42.917 -52.837  13.184  1.00  0.00     0.245 C 
HETATM   13  C   UNL     1     -43.747 -55.309  14.426  1.00  0.00     0.030 C 
HETATM   14  C   UNL     1     -44.773 -54.412  13.725  1.00  0.00     0.004 C 
HETATM   15  C   UNL     1     -44.122 -53.581  12.614  1.00  0.00     0.038 C 
ENDBRANCH   3   7
BRANCH   4  16
HETATM   16  C   UNL     1     -43.073 -47.973  11.568  1.00  0.00     0.152 A 
HETATM   17  N   UNL     1     -43.974 -48.057  10.618  1.00  0.00    -0.346 N 
HETATM   18  C   UNL     1     -43.564 -47.290   9.543  1.00  0.00     0.097 A 
ATOM     19  HN  UNL     1     -44.836 -48.600  10.665  1.00  0.00     0.167 HD
HETATM   20  C   UNL     1     -42.326 -46.697   9.674  1.00  0.00     0.070 A 
HETATM   21  S   UNL     1     -41.681 -47.049  11.226  1.00  0.00    -0.064 SA
ENDBRANCH   4  16
TORSDOF 2
ENDMDL
