MODEL 1
REMARK VINA RESULT:      -6.2      0.000      0.000
REMARK  7 active torsions:
REMARK  status: ('A' for Active; 'I' for Inactive)
REMARK    1  A    between atoms: N_5  and  C_6 
REMARK    2  A    between atoms: C_6  and  C_7 
REMARK    3  A    between atoms: C_7  and  O_8 
REMARK    4  A    between atoms: C_7  and  C_9 
REMARK    5  A    between atoms: C_9  and  O_10 
REMARK    6  A    between atoms: O_10  and  C_11 
REMARK    7  A    between atoms: C_11  and  C_12 
ROOT
HETATM    1  C   UNL     1     -40.924 -49.178  12.646  1.00  0.00     0.168 C 
ENDROOT
BRANCH   1   2
HETATM    2  N   UNL     1     -41.338 -50.555  12.768  1.00  0.00    -0.295 N 
HETATM    3  C   UNL     1     -40.472 -51.666  12.692  1.00  0.00     0.329 A 
HETATM    4  N   UNL     1     -41.288 -52.811  12.807  1.00  0.00    -0.302 N 
HETATM    5  O   UNL     1     -39.261 -51.622  12.544  1.00  0.00    -0.246 OA
HETATM    6  C   UNL     1     -40.839 -54.170  12.734  1.00  0.00     0.161 C 
HETATM    7  C   UNL     1     -42.617 -52.407  12.984  1.00  0.00     0.065 A 
HETATM    8  C   UNL     1     -42.647 -51.008  12.966  1.00  0.00     0.066 A 
HETATM    9  C   UNL     1     -43.762 -53.158  13.146  1.00  0.00     0.032 A 
HETATM   10  C   UNL     1     -43.824 -50.307  13.120  1.00  0.00     0.032 A 
HETATM   11  C   UNL     1     -44.996 -51.052  13.293  1.00  0.00     0.002 A 
HETATM   12  C   UNL     1     -44.965 -52.462  13.304  1.00  0.00     0.002 A 
ENDBRANCH   1   2
BRANCH   1  13
HETATM   13  C   UNL     1     -40.763 -48.721  11.184  1.00  0.00     0.160 C 
BRANCH  13  14
HETATM   14  O   UNL     1     -40.740 -49.820  10.266  1.00  0.00    -0.392 OA
HETATM   15  H   UNL     1     -40.500 -49.483   9.381  1.00  0.00     0.210 HD
ENDBRANCH  13  14
BRANCH  13  16
HETATM   16  C   UNL     1     -41.910 -47.784  10.785  1.00  0.00     0.201 C 
BRANCH  16  17
HETATM   17  O   UNL     1     -42.359 -48.119   9.476  1.00  0.00    -0.382 OA
BRANCH  17  18
HETATM   18  C   UNL     1     -43.128 -47.075   8.883  1.00  0.00     0.232 C 
BRANCH  18  19
HETATM   19  C   UNL     1     -44.510 -47.592   8.756  1.00  0.00     0.076 A 
HETATM   20  C   UNL     1     -45.645 -47.474   9.534  1.00  0.00     0.037 A 
HETATM   21  C   UNL     1     -46.658 -48.213   8.883  1.00  0.00     0.027 A 
HETATM   22  C   UNL     1     -46.088 -48.727   7.744  1.00  0.00     0.142 A 
HETATM   23  O   UNL     1     -44.781 -48.353   7.656  1.00  0.00    -0.325 OA
ENDBRANCH  18  19
ENDBRANCH  17  18
ENDBRANCH  16  17
ENDBRANCH  13  16
ENDBRANCH   1  13
TORSDOF 7
ENDMDL
MODEL 2
REMARK VINA RESULT:      -5.9      2.966      5.951
REMARK  7 active torsions:
REMARK  status: ('A' for Active; 'I' for Inactive)
REMARK    1  A    between atoms: N_5  and  C_6 
REMARK    2  A    between atoms: C_6  and  C_7 
REMARK    3  A    between atoms: C_7  and  O_8 
REMARK    4  A    between atoms: C_7  and  C_9 
REMARK    5  A    between atoms: C_9  and  O_10 
REMARK    6  A    between atoms: O_10  and  C_11 
REMARK    7  A    between atoms: C_11  and  C_12 
ROOT
HETATM    1  C   UNL     1     -41.451 -52.412  14.194  1.00  0.00     0.168 C 
ENDROOT
BRANCH   1   2
HETATM    2  N   UNL     1     -41.056 -51.349  13.302  1.00  0.00    -0.295 N 
HETATM    3  C   UNL     1     -41.949 -50.490  12.627  1.00  0.00     0.329 A 
HETATM    4  N   UNL     1     -41.153 -49.643  11.828  1.00  0.00    -0.302 N 
HETATM    5  O   UNL     1     -43.166 -50.504  12.723  1.00  0.00    -0.246 OA
HETATM    6  C   UNL     1     -41.641 -48.638  10.929  1.00  0.00     0.161 C 
HETATM    7  C   UNL     1     -39.804 -49.954  12.037  1.00  0.00     0.065 A 
HETATM    8  C   UNL     1     -39.743 -51.007  12.955  1.00  0.00     0.066 A 
HETATM    9  C   UNL     1     -38.667 -49.400  11.489  1.00  0.00     0.032 A 
HETATM   10  C   UNL     1     -38.541 -51.541  13.368  1.00  0.00     0.032 A 
HETATM   11  C   UNL     1     -37.375 -50.986  12.828  1.00  0.00     0.002 A 
HETATM   12  C   UNL     1     -37.438 -49.928  11.897  1.00  0.00     0.002 A 
ENDBRANCH   1   2
BRANCH   1  13
HETATM   13  C   UNL     1     -41.863 -53.700  13.456  1.00  0.00     0.160 C 
BRANCH  13  14
HETATM   14  O   UNL     1     -40.760 -54.328  12.791  1.00  0.00    -0.392 OA
HETATM   15  H   UNL     1     -40.625 -55.214  13.179  1.00  0.00     0.210 HD
ENDBRANCH  13  14
BRANCH  13  16
HETATM   16  C   UNL     1     -42.472 -54.709  14.437  1.00  0.00     0.201 C 
BRANCH  16  17
HETATM   17  O   UNL     1     -43.805 -54.318  14.748  1.00  0.00    -0.382 OA
BRANCH  17  18
HETATM   18  C   UNL     1     -44.710 -54.576  13.677  1.00  0.00     0.232 C 
BRANCH  18  19
HETATM   19  C   UNL     1     -45.504 -53.340  13.491  1.00  0.00     0.076 A 
HETATM   20  C   UNL     1     -45.979 -52.375  14.357  1.00  0.00     0.037 A 
HETATM   21  C   UNL     1     -46.688 -51.440  13.570  1.00  0.00     0.027 A 
HETATM   22  C   UNL     1     -46.596 -51.881  12.272  1.00  0.00     0.142 A 
HETATM   23  O   UNL     1     -45.875 -53.036  12.213  1.00  0.00    -0.325 OA
ENDBRANCH  18  19
ENDBRANCH  17  18
ENDBRANCH  16  17
ENDBRANCH  13  16
ENDBRANCH   1  13
TORSDOF 7
ENDMDL
MODEL 3
REMARK VINA RESULT:      -5.9      3.147      4.188
REMARK  7 active torsions:
REMARK  status: ('A' for Active; 'I' for Inactive)
REMARK    1  A    between atoms: N_5  and  C_6 
REMARK    2  A    between atoms: C_6  and  C_7 
REMARK    3  A    between atoms: C_7  and  O_8 
REMARK    4  A    between atoms: C_7  and  C_9 
REMARK    5  A    between atoms: C_9  and  O_10 
REMARK    6  A    between atoms: O_10  and  C_11 
REMARK    7  A    between atoms: C_11  and  C_12 
ROOT
HETATM    1  C   UNL     1     -41.258 -52.138  11.724  1.00  0.00     0.168 C 
ENDROOT
BRANCH   1   2
HETATM    2  N   UNL     1     -41.007 -52.874  12.939  1.00  0.00    -0.295 N 
HETATM    3  C   UNL     1     -39.770 -52.918  13.615  1.00  0.00     0.329 A 
HETATM    4  N   UNL     1     -39.949 -53.787  14.712  1.00  0.00    -0.302 N 
HETATM    5  O   UNL     1     -38.755 -52.322  13.290  1.00  0.00    -0.246 OA
HETATM    6  C   UNL     1     -38.937 -54.169  15.652  1.00  0.00     0.161 C 
HETATM    7  C   UNL     1     -41.276 -54.236  14.725  1.00  0.00     0.065 A 
HETATM    8  C   UNL     1     -41.933 -53.666  13.630  1.00  0.00     0.066 A 
HETATM    9  C   UNL     1     -41.919 -55.087  15.598  1.00  0.00     0.032 A 
HETATM   10  C   UNL     1     -43.264 -53.918  13.372  1.00  0.00     0.032 A 
HETATM   11  C   UNL     1     -43.936 -54.774  14.251  1.00  0.00     0.002 A 
HETATM   12  C   UNL     1     -43.270 -55.354  15.351  1.00  0.00     0.002 A 
ENDBRANCH   1   2
BRANCH   1  13
HETATM   13  C   UNL     1     -40.731 -50.691  11.774  1.00  0.00     0.160 C 
BRANCH  13  14
HETATM   14  O   UNL     1     -40.259 -50.236  10.500  1.00  0.00    -0.392 OA
HETATM   15  H   UNL     1     -40.319 -50.974   9.864  1.00  0.00     0.210 HD
ENDBRANCH  13  14
BRANCH  13  16
HETATM   16  C   UNL     1     -41.833 -49.735  12.249  1.00  0.00     0.201 C 
BRANCH  16  17
HETATM   17  O   UNL     1     -42.968 -50.491  12.657  1.00  0.00    -0.382 OA
BRANCH  17  18
HETATM   18  C   UNL     1     -43.371 -50.189  13.991  1.00  0.00     0.232 C 
BRANCH  18  19
HETATM   19  C   UNL     1     -44.711 -50.794  14.172  1.00  0.00     0.076 A 
HETATM   20  C   UNL     1     -45.468 -51.113  15.281  1.00  0.00     0.037 A 
HETATM   21  C   UNL     1     -46.668 -51.684  14.800  1.00  0.00     0.027 A 
HETATM   22  C   UNL     1     -46.577 -51.670  13.429  1.00  0.00     0.142 A 
HETATM   23  O   UNL     1     -45.391 -51.128  13.036  1.00  0.00    -0.325 OA
ENDBRANCH  18  19
ENDBRANCH  17  18
ENDBRANCH  16  17
ENDBRANCH  13  16
ENDBRANCH   1  13
TORSDOF 7
ENDMDL
MODEL 4
REMARK VINA RESULT:      -5.9      3.124      5.325
REMARK  7 active torsions:
REMARK  status: ('A' for Active; 'I' for Inactive)
REMARK    1  A    between atoms: N_5  and  C_6 
REMARK    2  A    between atoms: C_6  and  C_7 
REMARK    3  A    between atoms: C_7  and  O_8 
REMARK    4  A    between atoms: C_7  and  C_9 
REMARK    5  A    between atoms: C_9  and  O_10 
REMARK    6  A    between atoms: O_10  and  C_11 
REMARK    7  A    between atoms: C_11  and  C_12 
ROOT
HETATM    1  C   UNL     1     -41.181 -52.343  13.951  1.00  0.00     0.168 C 
ENDROOT
BRANCH   1   2
HETATM    2  N   UNL     1     -40.614 -51.292  13.142  1.00  0.00    -0.295 N 
HETATM    3  C   UNL     1     -39.258 -51.210  12.763  1.00  0.00     0.329 A 
HETATM    4  N   UNL     1     -39.125 -50.011  12.030  1.00  0.00    -0.302 N 
HETATM    5  O   UNL     1     -38.387 -52.020  13.035  1.00  0.00    -0.246 OA
HETATM    6  C   UNL     1     -37.904 -49.492  11.486  1.00  0.00     0.161 C 
HETATM    7  C   UNL     1     -40.379 -49.394  11.935  1.00  0.00     0.065 A 
HETATM    8  C   UNL     1     -41.303 -50.191  12.619  1.00  0.00     0.066 A 
HETATM    9  C   UNL     1     -40.748 -48.219  11.316  1.00  0.00     0.032 A 
HETATM   10  C   UNL     1     -42.635 -49.847  12.702  1.00  0.00     0.032 A 
HETATM   11  C   UNL     1     -43.030 -48.660  12.075  1.00  0.00     0.002 A 
HETATM   12  C   UNL     1     -42.096 -47.854  11.391  1.00  0.00     0.002 A 
ENDBRANCH   1   2
BRANCH   1  13
HETATM   13  C   UNL     1     -41.697 -53.535  13.122  1.00  0.00     0.160 C 
BRANCH  13  14
HETATM   14  O   UNL     1     -40.669 -54.130  12.321  1.00  0.00    -0.392 OA
HETATM   15  H   UNL     1     -39.816 -53.711  12.546  1.00  0.00     0.210 HD
ENDBRANCH  13  14
BRANCH  13  16
HETATM   16  C   UNL     1     -42.278 -54.616  14.042  1.00  0.00     0.201 C 
BRANCH  16  17
HETATM   17  O   UNL     1     -43.538 -54.181  14.541  1.00  0.00    -0.382 OA
BRANCH  17  18
HETATM   18  C   UNL     1     -44.617 -54.550  13.684  1.00  0.00     0.232 C 
BRANCH  18  19
HETATM   19  C   UNL     1     -45.427 -53.326  13.480  1.00  0.00     0.076 A 
HETATM   20  C   UNL     1     -45.891 -52.340  14.327  1.00  0.00     0.037 A 
HETATM   21  C   UNL     1     -46.626 -51.435  13.528  1.00  0.00     0.027 A 
HETATM   22  C   UNL     1     -46.559 -51.914  12.242  1.00  0.00     0.142 A 
HETATM   23  O   UNL     1     -45.829 -53.064  12.201  1.00  0.00    -0.325 OA
ENDBRANCH  18  19
ENDBRANCH  17  18
ENDBRANCH  16  17
ENDBRANCH  13  16
ENDBRANCH   1  13
TORSDOF 7
ENDMDL
MODEL 5
REMARK VINA RESULT:      -5.9      1.644      2.119
REMARK  7 active torsions:
REMARK  status: ('A' for Active; 'I' for Inactive)
REMARK    1  A    between atoms: N_5  and  C_6 
REMARK    2  A    between atoms: C_6  and  C_7 
REMARK    3  A    between atoms: C_7  and  O_8 
REMARK    4  A    between atoms: C_7  and  C_9 
REMARK    5  A    between atoms: C_9  and  O_10 
REMARK    6  A    between atoms: O_10  and  C_11 
REMARK    7  A    between atoms: C_11  and  C_12 
ROOT
HETATM    1  C   UNL     1     -40.472 -49.772  12.898  1.00  0.00     0.168 C 
ENDROOT
BRANCH   1   2
HETATM    2  N   UNL     1     -40.560 -51.180  13.201  1.00  0.00    -0.295 N 
HETATM    3  C   UNL     1     -39.471 -51.990  13.585  1.00  0.00     0.329 A 
HETATM    4  N   UNL     1     -39.984 -53.297  13.729  1.00  0.00    -0.302 N 
HETATM    5  O   UNL     1     -38.320 -51.617  13.743  1.00  0.00    -0.246 OA
HETATM    6  C   UNL     1     -39.222 -54.464  14.063  1.00  0.00     0.161 C 
HETATM    7  C   UNL     1     -41.361 -53.277  13.473  1.00  0.00     0.065 A 
HETATM    8  C   UNL     1     -41.719 -51.963  13.152  1.00  0.00     0.066 A 
HETATM    9  C   UNL     1     -42.286 -54.298  13.496  1.00  0.00     0.032 A 
HETATM   10  C   UNL     1     -43.019 -51.620  12.849  1.00  0.00     0.032 A 
HETATM   11  C   UNL     1     -43.974 -52.643  12.873  1.00  0.00     0.002 A 
HETATM   12  C   UNL     1     -43.611 -53.968  13.191  1.00  0.00     0.002 A 
ENDBRANCH   1   2
BRANCH   1  13
HETATM   13  C   UNL     1     -39.728 -49.480  11.580  1.00  0.00     0.160 C 
BRANCH  13  14
HETATM   14  O   UNL     1     -40.406 -50.019  10.439  1.00  0.00    -0.392 OA
HETATM   15  H   UNL     1     -39.742 -50.405   9.836  1.00  0.00     0.210 HD
ENDBRANCH  13  14
BRANCH  13  16
HETATM   16  C   UNL     1     -39.568 -47.969  11.378  1.00  0.00     0.201 C 
BRANCH  16  17
HETATM   17  O   UNL     1     -40.802 -47.321  11.667  1.00  0.00    -0.382 OA
BRANCH  17  18
HETATM   18  C   UNL     1     -41.093 -46.273  10.746  1.00  0.00     0.232 C 
BRANCH  18  19
HETATM   19  C   UNL     1     -42.416 -46.587  10.157  1.00  0.00     0.076 A 
HETATM   20  C   UNL     1     -43.372 -47.547  10.424  1.00  0.00     0.037 A 
HETATM   21  C   UNL     1     -44.422 -47.337   9.503  1.00  0.00     0.027 A 
HETATM   22  C   UNL     1     -44.052 -46.258   8.737  1.00  0.00     0.142 A 
HETATM   23  O   UNL     1     -42.834 -45.792   9.129  1.00  0.00    -0.325 OA
ENDBRANCH  18  19
ENDBRANCH  17  18
ENDBRANCH  16  17
ENDBRANCH  13  16
ENDBRANCH   1  13
TORSDOF 7
ENDMDL
MODEL 6
REMARK VINA RESULT:      -5.8      3.329      5.446
REMARK  7 active torsions:
REMARK  status: ('A' for Active; 'I' for Inactive)
REMARK    1  A    between atoms: N_5  and  C_6 
REMARK    2  A    between atoms: C_6  and  C_7 
REMARK    3  A    between atoms: C_7  and  O_8 
REMARK    4  A    between atoms: C_7  and  C_9 
REMARK    5  A    between atoms: C_9  and  O_10 
REMARK    6  A    between atoms: O_10  and  C_11 
REMARK    7  A    between atoms: C_11  and  C_12 
ROOT
HETATM    1  C   UNL     1     -41.868 -50.172  13.147  1.00  0.00     0.168 C 
ENDROOT
BRANCH   1   2
HETATM    2  N   UNL     1     -42.731 -50.597  14.224  1.00  0.00    -0.295 N 
HETATM    3  C   UNL     1     -42.321 -50.774  15.562  1.00  0.00     0.329 A 
HETATM    4  N   UNL     1     -43.453 -51.242  16.262  1.00  0.00    -0.302 N 
HETATM    5  O   UNL     1     -41.201 -50.569  16.002  1.00  0.00    -0.246 OA
HETATM    6  C   UNL     1     -43.489 -51.606  17.648  1.00  0.00     0.161 C 
HETATM    7  C   UNL     1     -44.537 -51.315  15.379  1.00  0.00     0.065 A 
HETATM    8  C   UNL     1     -44.091 -50.909  14.117  1.00  0.00     0.066 A 
HETATM    9  C   UNL     1     -45.840 -51.707  15.599  1.00  0.00     0.032 A 
HETATM   10  C   UNL     1     -44.936 -50.870  13.028  1.00  0.00     0.032 A 
HETATM   11  C   UNL     1     -46.264 -51.258  13.234  1.00  0.00     0.002 A 
HETATM   12  C   UNL     1     -46.711 -51.674  14.505  1.00  0.00     0.002 A 
ENDBRANCH   1   2
BRANCH   1  13
HETATM   13  C   UNL     1     -41.448 -51.326  12.217  1.00  0.00     0.160 C 
BRANCH  13  14
HETATM   14  O   UNL     1     -40.846 -50.860  11.004  1.00  0.00    -0.392 OA
HETATM   15  H   UNL     1     -40.044 -51.389  10.831  1.00  0.00     0.210 HD
ENDBRANCH  13  14
BRANCH  13  16
HETATM   16  C   UNL     1     -40.451 -52.250  12.926  1.00  0.00     0.201 C 
BRANCH  16  17
HETATM   17  O   UNL     1     -40.944 -53.585  12.899  1.00  0.00    -0.382 OA
BRANCH  17  18
HETATM   18  C   UNL     1     -41.377 -54.030  14.183  1.00  0.00     0.232 C 
BRANCH  18  19
HETATM   19  C   UNL     1     -42.813 -54.369  14.048  1.00  0.00     0.076 A 
HETATM   20  C   UNL     1     -43.740 -54.939  14.898  1.00  0.00     0.037 A 
HETATM   21  C   UNL     1     -44.954 -55.013  14.178  1.00  0.00     0.027 A 
HETATM   22  C   UNL     1     -44.701 -54.476  12.939  1.00  0.00     0.142 A 
HETATM   23  O   UNL     1     -43.401 -54.078  12.850  1.00  0.00    -0.325 OA
ENDBRANCH  18  19
ENDBRANCH  17  18
ENDBRANCH  16  17
ENDBRANCH  13  16
ENDBRANCH   1  13
TORSDOF 7
ENDMDL
MODEL 7
REMARK VINA RESULT:      -5.8      3.683      5.790
REMARK  7 active torsions:
REMARK  status: ('A' for Active; 'I' for Inactive)
REMARK    1  A    between atoms: N_5  and  C_6 
REMARK    2  A    between atoms: C_6  and  C_7 
REMARK    3  A    between atoms: C_7  and  O_8 
REMARK    4  A    between atoms: C_7  and  C_9 
REMARK    5  A    between atoms: C_9  and  O_10 
REMARK    6  A    between atoms: O_10  and  C_11 
REMARK    7  A    between atoms: C_11  and  C_12 
ROOT
HETATM    1  C   UNL     1     -40.725 -53.313  12.713  1.00  0.00     0.168 C 
ENDROOT
BRANCH   1   2
HETATM    2  N   UNL     1     -39.856 -52.505  13.535  1.00  0.00    -0.295 N 
HETATM    3  C   UNL     1     -39.399 -52.865  14.820  1.00  0.00     0.329 A 
HETATM    4  N   UNL     1     -38.626 -51.778  15.282  1.00  0.00    -0.302 N 
HETATM    5  O   UNL     1     -39.645 -53.909  15.402  1.00  0.00    -0.246 OA
HETATM    6  C   UNL     1     -38.001 -51.682  16.568  1.00  0.00     0.161 C 
HETATM    7  C   UNL     1     -38.585 -50.793  14.287  1.00  0.00     0.065 A 
HETATM    8  C   UNL     1     -39.341 -51.247  13.202  1.00  0.00     0.066 A 
HETATM    9  C   UNL     1     -37.955 -49.567  14.274  1.00  0.00     0.032 A 
HETATM   10  C   UNL     1     -39.490 -50.493  12.056  1.00  0.00     0.032 A 
HETATM   11  C   UNL     1     -38.852 -49.248  12.022  1.00  0.00     0.002 A 
HETATM   12  C   UNL     1     -38.094 -48.789  13.120  1.00  0.00     0.002 A 
ENDBRANCH   1   2
BRANCH   1  13
HETATM   13  C   UNL     1     -42.218 -52.984  12.905  1.00  0.00     0.160 C 
BRANCH  13  14
HETATM   14  O   UNL     1     -42.901 -52.794  11.661  1.00  0.00    -0.392 OA
HETATM   15  H   UNL     1     -43.533 -52.056  11.762  1.00  0.00     0.210 HD
ENDBRANCH  13  14
BRANCH  13  16
HETATM   16  C   UNL     1     -42.920 -54.109  13.675  1.00  0.00     0.201 C 
BRANCH  16  17
HETATM   17  O   UNL     1     -43.986 -54.626  12.885  1.00  0.00    -0.382 OA
BRANCH  17  18
HETATM   18  C   UNL     1     -45.208 -54.713  13.614  1.00  0.00     0.232 C 
BRANCH  18  19
HETATM   19  C   UNL     1     -45.824 -53.367  13.563  1.00  0.00     0.076 A 
HETATM   20  C   UNL     1     -46.332 -52.516  14.524  1.00  0.00     0.037 A 
HETATM   21  C   UNL     1     -46.795 -51.368  13.843  1.00  0.00     0.027 A 
HETATM   22  C   UNL     1     -46.534 -51.580  12.511  1.00  0.00     0.142 A 
HETATM   23  O   UNL     1     -45.940 -52.792  12.329  1.00  0.00    -0.325 OA
ENDBRANCH  18  19
ENDBRANCH  17  18
ENDBRANCH  16  17
ENDBRANCH  13  16
ENDBRANCH   1  13
TORSDOF 7
ENDMDL
MODEL 8
REMARK VINA RESULT:      -5.8      1.711      2.809
REMARK  7 active torsions:
REMARK  status: ('A' for Active; 'I' for Inactive)
REMARK    1  A    between atoms: N_5  and  C_6 
REMARK    2  A    between atoms: C_6  and  C_7 
REMARK    3  A    between atoms: C_7  and  O_8 
REMARK    4  A    between atoms: C_7  and  C_9 
REMARK    5  A    between atoms: C_9  and  O_10 
REMARK    6  A    between atoms: O_10  and  C_11 
REMARK    7  A    between atoms: C_11  and  C_12 
ROOT
HETATM    1  C   UNL     1     -41.885 -49.755  12.155  1.00  0.00     0.168 C 
ENDROOT
BRANCH   1   2
HETATM    2  N   UNL     1     -40.780 -50.345  12.871  1.00  0.00    -0.295 N 
HETATM    3  C   UNL     1     -39.708 -49.622  13.435  1.00  0.00     0.329 A 
HETATM    4  N   UNL     1     -38.833 -50.582  13.987  1.00  0.00    -0.302 N 
HETATM    5  O   UNL     1     -39.578 -48.409  13.425  1.00  0.00    -0.246 OA
HETATM    6  C   UNL     1     -37.579 -50.304  14.624  1.00  0.00     0.161 C 
HETATM    7  C   UNL     1     -39.376 -51.858  13.794  1.00  0.00     0.065 A 
HETATM    8  C   UNL     1     -40.586 -51.711  13.108  1.00  0.00     0.066 A 
HETATM    9  C   UNL     1     -38.893 -53.096  14.162  1.00  0.00     0.032 A 
HETATM   10  C   UNL     1     -41.365 -52.797  12.771  1.00  0.00     0.032 A 
HETATM   11  C   UNL     1     -40.894 -54.062  13.142  1.00  0.00     0.002 A 
HETATM   12  C   UNL     1     -39.671 -54.210  13.828  1.00  0.00     0.002 A 
ENDBRANCH   1   2
BRANCH   1  13
HETATM   13  C   UNL     1     -41.441 -48.760  11.066  1.00  0.00     0.160 C 
BRANCH  13  14
HETATM   14  O   UNL     1     -40.814 -49.410   9.954  1.00  0.00    -0.392 OA
HETATM   15  H   UNL     1     -41.089 -50.347   9.945  1.00  0.00     0.210 HD
ENDBRANCH  13  14
BRANCH  13  16
HETATM   16  C   UNL     1     -42.642 -47.963  10.544  1.00  0.00     0.201 C 
BRANCH  16  17
HETATM   17  O   UNL     1     -42.588 -47.907   9.123  1.00  0.00    -0.382 OA
BRANCH  17  18
HETATM   18  C   UNL     1     -43.389 -46.853   8.592  1.00  0.00     0.232 C 
BRANCH  18  19
HETATM   19  C   UNL     1     -44.792 -47.324   8.646  1.00  0.00     0.076 A 
HETATM   20  C   UNL     1     -45.905 -46.917   9.355  1.00  0.00     0.037 A 
HETATM   21  C   UNL     1     -46.960 -47.780   8.980  1.00  0.00     0.027 A 
HETATM   22  C   UNL     1     -46.434 -48.652   8.059  1.00  0.00     0.142 A 
HETATM   23  O   UNL     1     -45.116 -48.382   7.846  1.00  0.00    -0.325 OA
ENDBRANCH  18  19
ENDBRANCH  17  18
ENDBRANCH  16  17
ENDBRANCH  13  16
ENDBRANCH   1  13
TORSDOF 7
ENDMDL
MODEL 9
REMARK VINA RESULT:      -5.7      1.669      2.840
REMARK  7 active torsions:
REMARK  status: ('A' for Active; 'I' for Inactive)
REMARK    1  A    between atoms: N_5  and  C_6 
REMARK    2  A    between atoms: C_6  and  C_7 
REMARK    3  A    between atoms: C_7  and  O_8 
REMARK    4  A    between atoms: C_7  and  C_9 
REMARK    5  A    between atoms: C_9  and  O_10 
REMARK    6  A    between atoms: O_10  and  C_11 
REMARK    7  A    between atoms: C_11  and  C_12 
ROOT
HETATM    1  C   UNL     1     -40.924 -52.705  12.067  1.00  0.00     0.168 C 
ENDROOT
BRANCH   1   2
HETATM    2  N   UNL     1     -41.628 -53.433  13.095  1.00  0.00    -0.295 N 
HETATM    3  C   UNL     1     -41.011 -54.119  14.162  1.00  0.00     0.329 A 
HETATM    4  N   UNL     1     -42.053 -54.730  14.892  1.00  0.00    -0.302 N 
HETATM    5  O   UNL     1     -39.812 -54.169  14.384  1.00  0.00    -0.246 OA
HETATM    6  C   UNL     1     -41.888 -55.575  16.038  1.00  0.00     0.161 C 
HETATM    7  C   UNL     1     -43.279 -54.397  14.303  1.00  0.00     0.065 A 
HETATM    8  C   UNL     1     -43.016 -53.587  13.193  1.00  0.00     0.066 A 
HETATM    9  C   UNL     1     -44.563 -54.749  14.660  1.00  0.00     0.032 A 
HETATM   10  C   UNL     1     -44.030 -53.091  12.401  1.00  0.00     0.032 A 
HETATM   11  C   UNL     1     -45.341 -53.433  12.752  1.00  0.00     0.002 A 
HETATM   12  C   UNL     1     -45.604 -54.254  13.868  1.00  0.00     0.002 A 
ENDBRANCH   1   2
BRANCH   1  13
HETATM   13  C   UNL     1     -40.225 -51.437  12.593  1.00  0.00     0.160 C 
BRANCH  13  14
HETATM   14  O   UNL     1     -39.003 -51.158  11.899  1.00  0.00    -0.392 OA
HETATM   15  H   UNL     1     -38.262 -51.233  12.531  1.00  0.00     0.210 HD
ENDBRANCH  13  14
BRANCH  13  16
HETATM   16  C   UNL     1     -41.146 -50.220  12.456  1.00  0.00     0.201 C 
BRANCH  16  17
HETATM   17  O   UNL     1     -41.085 -49.731  11.121  1.00  0.00    -0.382 OA
BRANCH  17  18
HETATM   18  C   UNL     1     -41.137 -48.307  11.062  1.00  0.00     0.232 C 
BRANCH  18  19
HETATM   19  C   UNL     1     -42.446 -47.959  10.461  1.00  0.00     0.076 A 
HETATM   20  C   UNL     1     -43.685 -47.658  10.991  1.00  0.00     0.037 A 
HETATM   21  C   UNL     1     -44.545 -47.424   9.895  1.00  0.00     0.027 A 
HETATM   22  C   UNL     1     -43.781 -47.585   8.764  1.00  0.00     0.142 A 
HETATM   23  O   UNL     1     -42.501 -47.908   9.098  1.00  0.00    -0.325 OA
ENDBRANCH  18  19
ENDBRANCH  17  18
ENDBRANCH  16  17
ENDBRANCH  13  16
ENDBRANCH   1  13
TORSDOF 7
ENDMDL
