MODEL 1
REMARK VINA RESULT:      -6.4      0.000      0.000
REMARK  7 active torsions:
REMARK  status: ('A' for Active; 'I' for Inactive)
REMARK    1  A    between atoms: C_2  and  C_5 
REMARK    2  A    between atoms: C_9  and  N_10 
REMARK    3  A    between atoms: N_10  and  C_11 
REMARK    4  A    between atoms: C_11  and  C_12 
REMARK    5  A    between atoms: C_12  and  O_13 
REMARK    6  A    between atoms: O_13  and  C_14 
REMARK    7  A    between atoms: C_14  and  C_15 
ROOT
HETATM    1  C   UNL     1     -45.192 -47.480   9.018  1.00  0.00     0.117 A 
HETATM    2  C   UNL     1     -45.192 -46.088   8.923  1.00  0.00     0.034 A 
HETATM    3  C   UNL     1     -44.005 -45.404   9.141  1.00  0.00     0.005 A 
HETATM    4  C   UNL     1     -42.854 -46.124   9.436  1.00  0.00     0.042 A 
HETATM    5  C   UNL     1     -42.902 -47.515   9.493  1.00  0.00     0.080 A 
HETATM    6  N   UNL     1     -44.054 -48.184   9.301  1.00  0.00    -0.343 N 
ATOM      7  HN  UNL     1     -44.078 -49.202   9.364  1.00  0.00     0.167 HD
ENDROOT
BRANCH   5   8
HETATM    8  N   UNL     1     -41.714 -48.196   9.800  1.00  0.00    -0.277 NA
HETATM    9  H   UNL     1     -41.903 -49.194   9.784  1.00  0.00     0.129 HD
BRANCH   8  10
HETATM   10  C   UNL     1     -41.057 -47.787  11.045  1.00  0.00     0.120 C 
BRANCH  10  11
HETATM   11  C   UNL     1     -40.271 -48.974  11.621  1.00  0.00     0.182 C 
BRANCH  11  12
HETATM   12  O   UNL     1     -40.848 -50.213  11.202  1.00  0.00    -0.387 OA
BRANCH  12  13
HETATM   13  C   UNL     1     -41.675 -50.765  12.228  1.00  0.00     0.199 C 
BRANCH  13  14
HETATM   14  C   UNL     1     -41.618 -52.290  12.196  1.00  0.00     0.145 C 
HETATM   15  C   UNL     1     -42.663 -52.968  13.071  1.00  0.00     0.036 C 
HETATM   16  C   UNL     1     -41.958 -54.185  13.634  1.00  0.00     0.029 C 
HETATM   17  C   UNL     1     -40.552 -54.115  13.076  1.00  0.00     0.168 C 
HETATM   18  O   UNL     1     -40.349 -52.755  12.682  1.00  0.00    -0.384 OA
ENDBRANCH  13  14
ENDBRANCH  12  13
ENDBRANCH  11  12
ENDBRANCH  10  11
ENDBRANCH   8  10
ENDBRANCH   5   8
BRANCH   1  19
HETATM   19  C   UNL     1     -46.489 -48.247   8.803  1.00  0.00     0.432 C 
HETATM   20  F   UNL     1     -47.606 -47.470   8.949  1.00  0.00    -0.165 F 
HETATM   21  F   UNL     1     -46.658 -49.280   9.678  1.00  0.00    -0.165 F 
HETATM   22  F   UNL     1     -46.592 -48.789   7.555  1.00  0.00    -0.165 F 
ENDBRANCH   1  19
TORSDOF 7
ENDMDL
MODEL 2
REMARK VINA RESULT:      -6.2      1.991      2.872
REMARK  7 active torsions:
REMARK  status: ('A' for Active; 'I' for Inactive)
REMARK    1  A    between atoms: C_2  and  C_5 
REMARK    2  A    between atoms: C_9  and  N_10 
REMARK    3  A    between atoms: N_10  and  C_11 
REMARK    4  A    between atoms: C_11  and  C_12 
REMARK    5  A    between atoms: C_12  and  O_13 
REMARK    6  A    between atoms: O_13  and  C_14 
REMARK    7  A    between atoms: C_14  and  C_15 
ROOT
HETATM    1  C   UNL     1     -42.753 -47.794   9.750  1.00  0.00     0.117 A 
HETATM    2  C   UNL     1     -43.242 -47.239  10.933  1.00  0.00     0.034 A 
HETATM    3  C   UNL     1     -42.617 -47.558  12.130  1.00  0.00     0.005 A 
HETATM    4  C   UNL     1     -41.519 -48.411  12.112  1.00  0.00     0.042 A 
HETATM    5  C   UNL     1     -41.055 -48.917  10.900  1.00  0.00     0.080 A 
HETATM    6  N   UNL     1     -41.668 -48.625   9.739  1.00  0.00    -0.343 N 
ATOM      7  HN  UNL     1     -41.328 -49.019   8.861  1.00  0.00     0.167 HD
ENDROOT
BRANCH   5   8
HETATM    8  N   UNL     1     -39.947 -49.778  10.937  1.00  0.00    -0.277 NA
HETATM    9  H   UNL     1     -40.258 -50.686  11.269  1.00  0.00     0.129 HD
BRANCH   8  10
HETATM   10  C   UNL     1     -38.792 -49.288  11.696  1.00  0.00     0.120 C 
BRANCH  10  11
HETATM   11  C   UNL     1     -38.309 -50.385  12.654  1.00  0.00     0.182 C 
BRANCH  11  12
HETATM   12  O   UNL     1     -39.098 -51.568  12.508  1.00  0.00    -0.387 OA
BRANCH  12  13
HETATM   13  C   UNL     1     -39.506 -52.072  13.782  1.00  0.00     0.199 C 
BRANCH  13  14
HETATM   14  C   UNL     1     -41.013 -52.312  13.803  1.00  0.00     0.145 C 
HETATM   15  C   UNL     1     -41.407 -53.757  14.078  1.00  0.00     0.036 C 
HETATM   16  C   UNL     1     -42.628 -53.991  13.212  1.00  0.00     0.029 C 
HETATM   17  C   UNL     1     -42.841 -52.685  12.475  1.00  0.00     0.168 C 
HETATM   18  O   UNL     1     -41.591 -51.992  12.527  1.00  0.00    -0.384 OA
ENDBRANCH  13  14
ENDBRANCH  12  13
ENDBRANCH  11  12
ENDBRANCH  10  11
ENDBRANCH   8  10
ENDBRANCH   5   8
BRANCH   1  19
HETATM   19  C   UNL     1     -43.440 -47.472   8.430  1.00  0.00     0.432 C 
HETATM   20  F   UNL     1     -43.238 -46.182   8.018  1.00  0.00    -0.165 F 
HETATM   21  F   UNL     1     -44.794 -47.624   8.474  1.00  0.00    -0.165 F 
HETATM   22  F   UNL     1     -43.006 -48.249   7.396  1.00  0.00    -0.165 F 
ENDBRANCH   1  19
TORSDOF 7
ENDMDL
MODEL 3
REMARK VINA RESULT:      -6.1      2.468      3.544
REMARK  7 active torsions:
REMARK  status: ('A' for Active; 'I' for Inactive)
REMARK    1  A    between atoms: C_2  and  C_5 
REMARK    2  A    between atoms: C_9  and  N_10 
REMARK    3  A    between atoms: N_10  and  C_11 
REMARK    4  A    between atoms: C_11  and  C_12 
REMARK    5  A    between atoms: C_12  and  O_13 
REMARK    6  A    between atoms: O_13  and  C_14 
REMARK    7  A    between atoms: C_14  and  C_15 
ROOT
HETATM    1  C   UNL     1     -42.738 -47.441   9.805  1.00  0.00     0.117 A 
HETATM    2  C   UNL     1     -42.726 -46.599  10.918  1.00  0.00     0.034 A 
HETATM    3  C   UNL     1     -41.919 -46.930  11.997  1.00  0.00     0.005 A 
HETATM    4  C   UNL     1     -41.142 -48.080  11.932  1.00  0.00     0.042 A 
HETATM    5  C   UNL     1     -41.171 -48.873  10.786  1.00  0.00     0.080 A 
HETATM    6  N   UNL     1     -41.965 -48.567   9.744  1.00  0.00    -0.343 N 
ATOM      7  HN  UNL     1     -41.990 -49.167   8.919  1.00  0.00     0.167 HD
ENDROOT
BRANCH   5   8
HETATM    8  N   UNL     1     -40.372 -50.027  10.773  1.00  0.00    -0.277 NA
HETATM    9  H   UNL     1     -40.662 -50.608   9.991  1.00  0.00     0.129 HD
BRANCH   8  10
HETATM   10  C   UNL     1     -40.336 -50.783  12.028  1.00  0.00     0.120 C 
BRANCH  10  11
HETATM   11  C   UNL     1     -41.416 -51.874  11.997  1.00  0.00     0.182 C 
BRANCH  11  12
HETATM   12  O   UNL     1     -41.786 -52.255  13.324  1.00  0.00    -0.387 OA
BRANCH  12  13
HETATM   13  C   UNL     1     -42.976 -53.048  13.316  1.00  0.00     0.199 C 
BRANCH  13  14
HETATM   14  C   UNL     1     -44.171 -52.211  12.868  1.00  0.00     0.145 C 
HETATM   15  C   UNL     1     -44.879 -51.484  14.003  1.00  0.00     0.036 C 
HETATM   16  C   UNL     1     -46.347 -51.535  13.632  1.00  0.00     0.029 C 
HETATM   17  C   UNL     1     -46.394 -52.308  12.331  1.00  0.00     0.168 C 
HETATM   18  O   UNL     1     -45.171 -53.046  12.263  1.00  0.00    -0.384 OA
ENDBRANCH  13  14
ENDBRANCH  12  13
ENDBRANCH  11  12
ENDBRANCH  10  11
ENDBRANCH   8  10
ENDBRANCH   5   8
BRANCH   1  19
HETATM   19  C   UNL     1     -43.633 -47.105   8.620  1.00  0.00     0.432 C 
HETATM   20  F   UNL     1     -43.494 -45.814   8.187  1.00  0.00    -0.165 F 
HETATM   21  F   UNL     1     -44.962 -47.249   8.889  1.00  0.00    -0.165 F 
HETATM   22  F   UNL     1     -43.384 -47.878   7.524  1.00  0.00    -0.165 F 
ENDBRANCH   1  19
TORSDOF 7
ENDMDL
MODEL 4
REMARK VINA RESULT:      -6.1      2.832      3.362
REMARK  7 active torsions:
REMARK  status: ('A' for Active; 'I' for Inactive)
REMARK    1  A    between atoms: C_2  and  C_5 
REMARK    2  A    between atoms: C_9  and  N_10 
REMARK    3  A    between atoms: N_10  and  C_11 
REMARK    4  A    between atoms: C_11  and  C_12 
REMARK    5  A    between atoms: C_12  and  O_13 
REMARK    6  A    between atoms: O_13  and  C_14 
REMARK    7  A    between atoms: C_14  and  C_15 
ROOT
HETATM    1  C   UNL     1     -45.234 -47.594   9.434  1.00  0.00     0.117 A 
HETATM    2  C   UNL     1     -44.741 -46.459   8.789  1.00  0.00     0.034 A 
HETATM    3  C   UNL     1     -43.582 -45.867   9.270  1.00  0.00     0.005 A 
HETATM    4  C   UNL     1     -42.943 -46.428  10.370  1.00  0.00     0.042 A 
HETATM    5  C   UNL     1     -43.463 -47.578  10.962  1.00  0.00     0.080 A 
HETATM    6  N   UNL     1     -44.596 -48.145  10.511  1.00  0.00    -0.343 N 
ATOM      7  HN  UNL     1     -44.975 -48.976  10.966  1.00  0.00     0.167 HD
ENDROOT
BRANCH   5   8
HETATM    8  N   UNL     1     -42.784 -48.102  12.073  1.00  0.00    -0.277 NA
HETATM    9  H   UNL     1     -42.244 -47.354  12.500  1.00  0.00     0.129 HD
BRANCH   8  10
HETATM   10  C   UNL     1     -41.961 -49.285  11.808  1.00  0.00     0.120 C 
BRANCH  10  11
HETATM   11  C   UNL     1     -42.406 -50.432  12.727  1.00  0.00     0.182 C 
BRANCH  11  12
HETATM   12  O   UNL     1     -43.562 -50.056  13.479  1.00  0.00    -0.387 OA
BRANCH  12  13
HETATM   13  C   UNL     1     -44.653 -50.942  13.216  1.00  0.00     0.199 C 
BRANCH  13  14
HETATM   14  C   UNL     1     -45.218 -51.495  14.522  1.00  0.00     0.145 C 
HETATM   15  C   UNL     1     -46.731 -51.665  14.520  1.00  0.00     0.036 C 
HETATM   16  C   UNL     1     -47.158 -51.302  15.927  1.00  0.00     0.029 C 
HETATM   17  C   UNL     1     -45.877 -50.918  16.638  1.00  0.00     0.168 C 
HETATM   18  O   UNL     1     -44.934 -50.601  15.610  1.00  0.00    -0.384 OA
ENDBRANCH  13  14
ENDBRANCH  12  13
ENDBRANCH  11  12
ENDBRANCH  10  11
ENDBRANCH   8  10
ENDBRANCH   5   8
BRANCH   1  19
HETATM   19  C   UNL     1     -46.516 -48.244   8.934  1.00  0.00     0.432 C 
HETATM   20  F   UNL     1     -46.876 -49.351   9.653  1.00  0.00    -0.165 F 
HETATM   21  F   UNL     1     -46.437 -48.670   7.641  1.00  0.00    -0.165 F 
HETATM   22  F   UNL     1     -47.597 -47.413   8.992  1.00  0.00    -0.165 F 
ENDBRANCH   1  19
TORSDOF 7
ENDMDL
MODEL 5
REMARK VINA RESULT:      -6.1      2.224      3.626
REMARK  7 active torsions:
REMARK  status: ('A' for Active; 'I' for Inactive)
REMARK    1  A    between atoms: C_2  and  C_5 
REMARK    2  A    between atoms: C_9  and  N_10 
REMARK    3  A    between atoms: N_10  and  C_11 
REMARK    4  A    between atoms: C_11  and  C_12 
REMARK    5  A    between atoms: C_12  and  O_13 
REMARK    6  A    between atoms: O_13  and  C_14 
REMARK    7  A    between atoms: C_14  and  C_15 
ROOT
HETATM    1  C   UNL     1     -42.628 -47.188   9.815  1.00  0.00     0.117 A 
HETATM    2  C   UNL     1     -41.827 -46.156  10.305  1.00  0.00     0.034 A 
HETATM    3  C   UNL     1     -40.755 -46.473  11.126  1.00  0.00     0.005 A 
HETATM    4  C   UNL     1     -40.505 -47.808  11.425  1.00  0.00     0.042 A 
HETATM    5  C   UNL     1     -41.319 -48.803  10.888  1.00  0.00     0.080 A 
HETATM    6  N   UNL     1     -42.372 -48.500  10.106  1.00  0.00    -0.343 N 
ATOM      7  HN  UNL     1     -42.970 -49.238   9.735  1.00  0.00     0.167 HD
ENDROOT
BRANCH   5   8
HETATM    8  N   UNL     1     -41.029 -50.134  11.225  1.00  0.00    -0.277 NA
HETATM    9  H   UNL     1     -41.053 -50.692  10.376  1.00  0.00     0.129 HD
BRANCH   8  10
HETATM   10  C   UNL     1     -41.864 -50.713  12.281  1.00  0.00     0.120 C 
BRANCH  10  11
HETATM   11  C   UNL     1     -41.743 -52.244  12.245  1.00  0.00     0.182 C 
BRANCH  11  12
HETATM   12  O   UNL     1     -40.371 -52.643  12.272  1.00  0.00    -0.387 OA
BRANCH  12  13
HETATM   13  C   UNL     1     -39.827 -52.515  13.588  1.00  0.00     0.199 C 
BRANCH  13  14
HETATM   14  C   UNL     1     -38.597 -51.611  13.571  1.00  0.00     0.145 C 
HETATM   15  C   UNL     1     -38.750 -50.342  14.398  1.00  0.00     0.036 C 
HETATM   16  C   UNL     1     -38.014 -49.280  13.606  1.00  0.00     0.029 C 
HETATM   17  C   UNL     1     -37.513 -49.993  12.367  1.00  0.00     0.168 C 
HETATM   18  O   UNL     1     -38.318 -51.168  12.233  1.00  0.00    -0.384 OA
ENDBRANCH  13  14
ENDBRANCH  12  13
ENDBRANCH  11  12
ENDBRANCH  10  11
ENDBRANCH   8  10
ENDBRANCH   5   8
BRANCH   1  19
HETATM   19  C   UNL     1     -43.821 -46.857   8.930  1.00  0.00     0.432 C 
HETATM   20  F   UNL     1     -45.021 -47.205   9.489  1.00  0.00    -0.165 F 
HETATM   21  F   UNL     1     -43.792 -47.493   7.724  1.00  0.00    -0.165 F 
HETATM   22  F   UNL     1     -43.930 -45.525   8.652  1.00  0.00    -0.165 F 
ENDBRANCH   1  19
TORSDOF 7
ENDMDL
MODEL 6
REMARK VINA RESULT:      -6.1      2.211      2.716
REMARK  7 active torsions:
REMARK  status: ('A' for Active; 'I' for Inactive)
REMARK    1  A    between atoms: C_2  and  C_5 
REMARK    2  A    between atoms: C_9  and  N_10 
REMARK    3  A    between atoms: N_10  and  C_11 
REMARK    4  A    between atoms: C_11  and  C_12 
REMARK    5  A    between atoms: C_12  and  O_13 
REMARK    6  A    between atoms: O_13  and  C_14 
REMARK    7  A    between atoms: C_14  and  C_15 
ROOT
HETATM    1  C   UNL     1     -45.301 -47.503   9.016  1.00  0.00     0.117 A 
HETATM    2  C   UNL     1     -45.334 -46.113   8.892  1.00  0.00     0.034 A 
HETATM    3  C   UNL     1     -44.160 -45.397   9.076  1.00  0.00     0.005 A 
HETATM    4  C   UNL     1     -42.988 -46.085   9.367  1.00  0.00     0.042 A 
HETATM    5  C   UNL     1     -43.003 -47.476   9.453  1.00  0.00     0.080 A 
HETATM    6  N   UNL     1     -44.142 -48.174   9.294  1.00  0.00    -0.343 N 
ATOM      7  HN  UNL     1     -44.142 -49.191   9.379  1.00  0.00     0.167 HD
ENDROOT
BRANCH   5   8
HETATM    8  N   UNL     1     -41.795 -48.123   9.755  1.00  0.00    -0.277 NA
HETATM    9  H   UNL     1     -41.865 -49.090   9.450  1.00  0.00     0.129 HD
BRANCH   8  10
HETATM   10  C   UNL     1     -41.357 -48.022  11.150  1.00  0.00     0.120 C 
BRANCH  10  11
HETATM   11  C   UNL     1     -40.149 -47.078  11.238  1.00  0.00     0.182 C 
BRANCH  11  12
HETATM   12  O   UNL     1     -39.502 -47.204  12.507  1.00  0.00    -0.387 OA
BRANCH  12  13
HETATM   13  C   UNL     1     -39.988 -48.345  13.218  1.00  0.00     0.199 C 
BRANCH  13  14
HETATM   14  C   UNL     1     -38.840 -49.291  13.559  1.00  0.00     0.145 C 
HETATM   15  C   UNL     1     -37.819 -49.453  12.442  1.00  0.00     0.036 C 
HETATM   16  C   UNL     1     -37.403 -50.909  12.514  1.00  0.00     0.029 C 
HETATM   17  C   UNL     1     -38.227 -51.495  13.641  1.00  0.00     0.168 C 
HETATM   18  O   UNL     1     -39.338 -50.612  13.820  1.00  0.00    -0.384 OA
ENDBRANCH  13  14
ENDBRANCH  12  13
ENDBRANCH  11  12
ENDBRANCH  10  11
ENDBRANCH   8  10
ENDBRANCH   5   8
BRANCH   1  19
HETATM   19  C   UNL     1     -46.583 -48.303   8.838  1.00  0.00     0.432 C 
HETATM   20  F   UNL     1     -46.705 -49.333   9.731  1.00  0.00    -0.165 F 
HETATM   21  F   UNL     1     -46.693 -48.882   7.609  1.00  0.00    -0.165 F 
HETATM   22  F   UNL     1     -47.711 -47.552   9.004  1.00  0.00    -0.165 F 
ENDBRANCH   1  19
TORSDOF 7
ENDMDL
MODEL 7
REMARK VINA RESULT:      -6.0      3.466      7.188
REMARK  7 active torsions:
REMARK  status: ('A' for Active; 'I' for Inactive)
REMARK    1  A    between atoms: C_2  and  C_5 
REMARK    2  A    between atoms: C_9  and  N_10 
REMARK    3  A    between atoms: N_10  and  C_11 
REMARK    4  A    between atoms: C_11  and  C_12 
REMARK    5  A    between atoms: C_12  and  O_13 
REMARK    6  A    between atoms: O_13  and  C_14 
REMARK    7  A    between atoms: C_14  and  C_15 
ROOT
HETATM    1  C   UNL     1     -43.603 -54.158  13.646  1.00  0.00     0.117 A 
HETATM    2  C   UNL     1     -42.710 -54.688  14.579  1.00  0.00     0.034 A 
HETATM    3  C   UNL     1     -41.355 -54.438  14.423  1.00  0.00     0.005 A 
HETATM    4  C   UNL     1     -40.929 -53.661  13.352  1.00  0.00     0.042 A 
HETATM    5  C   UNL     1     -41.864 -53.133  12.464  1.00  0.00     0.080 A 
HETATM    6  N   UNL     1     -43.178 -53.387  12.599  1.00  0.00    -0.343 N 
ATOM      7  HN  UNL     1     -43.850 -53.010  11.929  1.00  0.00     0.167 HD
ENDROOT
BRANCH   5   8
HETATM    8  N   UNL     1     -41.383 -52.360  11.395  1.00  0.00    -0.277 NA
HETATM    9  H   UNL     1     -40.768 -52.940  10.832  1.00  0.00     0.129 HD
BRANCH   8  10
HETATM   10  C   UNL     1     -40.745 -51.095  11.771  1.00  0.00     0.120 C 
BRANCH  10  11
HETATM   11  C   UNL     1     -41.827 -50.045  12.060  1.00  0.00     0.182 C 
BRANCH  11  12
HETATM   12  O   UNL     1     -41.760 -48.977  11.112  1.00  0.00    -0.387 OA
BRANCH  12  13
HETATM   13  C   UNL     1     -42.685 -47.939  11.444  1.00  0.00     0.199 C 
BRANCH  13  14
HETATM   14  C   UNL     1     -43.278 -47.328  10.177  1.00  0.00     0.145 C 
HETATM   15  C   UNL     1     -44.777 -47.549  10.026  1.00  0.00     0.036 C 
HETATM   16  C   UNL     1     -44.984 -47.757   8.539  1.00  0.00     0.029 C 
HETATM   17  C   UNL     1     -43.597 -47.674   7.936  1.00  0.00     0.168 C 
HETATM   18  O   UNL     1     -42.683 -47.916   9.010  1.00  0.00    -0.384 OA
ENDBRANCH  13  14
ENDBRANCH  12  13
ENDBRANCH  11  12
ENDBRANCH  10  11
ENDBRANCH   8  10
ENDBRANCH   5   8
BRANCH   1  19
HETATM   19  C   UNL     1     -45.092 -54.440  13.788  1.00  0.00     0.432 C 
HETATM   20  F   UNL     1     -45.863 -53.722  12.914  1.00  0.00    -0.165 F 
HETATM   21  F   UNL     1     -45.583 -54.140  15.024  1.00  0.00    -0.165 F 
HETATM   22  F   UNL     1     -45.415 -55.746  13.560  1.00  0.00    -0.165 F 
ENDBRANCH   1  19
TORSDOF 7
ENDMDL
MODEL 8
REMARK VINA RESULT:      -6.0      1.926      2.829
REMARK  7 active torsions:
REMARK  status: ('A' for Active; 'I' for Inactive)
REMARK    1  A    between atoms: C_2  and  C_5 
REMARK    2  A    between atoms: C_9  and  N_10 
REMARK    3  A    between atoms: N_10  and  C_11 
REMARK    4  A    between atoms: C_11  and  C_12 
REMARK    5  A    between atoms: C_12  and  O_13 
REMARK    6  A    between atoms: O_13  and  C_14 
REMARK    7  A    between atoms: C_14  and  C_15 
ROOT
HETATM    1  C   UNL     1     -43.053 -47.349   9.876  1.00  0.00     0.117 A 
HETATM    2  C   UNL     1     -42.602 -46.240  10.593  1.00  0.00     0.034 A 
HETATM    3  C   UNL     1     -41.422 -46.345  11.313  1.00  0.00     0.005 A 
HETATM    4  C   UNL     1     -40.720 -47.545  11.290  1.00  0.00     0.042 A 
HETATM    5  C   UNL     1     -41.199 -48.614  10.536  1.00  0.00     0.080 A 
HETATM    6  N   UNL     1     -42.354 -48.524   9.850  1.00  0.00    -0.343 N 
ATOM      7  HN  UNL     1     -42.703 -49.322   9.317  1.00  0.00     0.167 HD
ENDROOT
BRANCH   5   8
HETATM    8  N   UNL     1     -40.457 -49.805  10.549  1.00  0.00    -0.277 NA
HETATM    9  H   UNL     1     -41.067 -50.566  10.262  1.00  0.00     0.129 HD
BRANCH   8  10
HETATM   10  C   UNL     1     -39.770 -50.105  11.808  1.00  0.00     0.120 C 
BRANCH  10  11
HETATM   11  C   UNL     1     -40.285 -51.440  12.366  1.00  0.00     0.182 C 
BRANCH  11  12
HETATM   12  O   UNL     1     -41.708 -51.416  12.497  1.00  0.00    -0.387 OA
BRANCH  12  13
HETATM   13  C   UNL     1     -42.277 -52.676  12.130  1.00  0.00     0.199 C 
BRANCH  13  14
HETATM   14  C   UNL     1     -43.391 -53.061  13.100  1.00  0.00     0.145 C 
HETATM   15  C   UNL     1     -42.967 -54.061  14.165  1.00  0.00     0.036 C 
HETATM   16  C   UNL     1     -44.178 -54.951  14.358  1.00  0.00     0.029 C 
HETATM   17  C   UNL     1     -45.206 -54.429  13.375  1.00  0.00     0.168 C 
HETATM   18  O   UNL     1     -44.476 -53.685  12.396  1.00  0.00    -0.384 OA
ENDBRANCH  13  14
ENDBRANCH  12  13
ENDBRANCH  11  12
ENDBRANCH  10  11
ENDBRANCH   8  10
ENDBRANCH   5   8
BRANCH   1  19
HETATM   19  C   UNL     1     -44.358 -47.259   9.097  1.00  0.00     0.432 C 
HETATM   20  F   UNL     1     -45.424 -47.799   9.766  1.00  0.00    -0.165 F 
HETATM   21  F   UNL     1     -44.320 -47.914   7.901  1.00  0.00    -0.165 F 
HETATM   22  F   UNL     1     -44.726 -45.976   8.814  1.00  0.00    -0.165 F 
ENDBRANCH   1  19
TORSDOF 7
ENDMDL
MODEL 9
REMARK VINA RESULT:      -5.9      1.682      2.292
REMARK  7 active torsions:
REMARK  status: ('A' for Active; 'I' for Inactive)
REMARK    1  A    between atoms: C_2  and  C_5 
REMARK    2  A    between atoms: C_9  and  N_10 
REMARK    3  A    between atoms: N_10  and  C_11 
REMARK    4  A    between atoms: C_11  and  C_12 
REMARK    5  A    between atoms: C_12  and  O_13 
REMARK    6  A    between atoms: O_13  and  C_14 
REMARK    7  A    between atoms: C_14  and  C_15 
ROOT
HETATM    1  C   UNL     1     -45.199 -47.516   9.362  1.00  0.00     0.117 A 
HETATM    2  C   UNL     1     -44.928 -46.266   8.805  1.00  0.00     0.034 A 
HETATM    3  C   UNL     1     -43.776 -45.597   9.194  1.00  0.00     0.005 A 
HETATM    4  C   UNL     1     -42.924 -46.196  10.114  1.00  0.00     0.042 A 
HETATM    5  C   UNL     1     -43.228 -47.458  10.620  1.00  0.00     0.080 A 
HETATM    6  N   UNL     1     -44.353 -48.104  10.261  1.00  0.00    -0.343 N 
ATOM      7  HN  UNL     1     -44.571 -49.019  10.655  1.00  0.00     0.167 HD
ENDROOT
BRANCH   5   8
HETATM    8  N   UNL     1     -42.339 -48.017  11.552  1.00  0.00    -0.277 NA
HETATM    9  H   UNL     1     -41.458 -48.204  11.081  1.00  0.00     0.129 HD
BRANCH   8  10
HETATM   10  C   UNL     1     -42.835 -49.197  12.266  1.00  0.00     0.120 C 
BRANCH  10  11
HETATM   11  C   UNL     1     -41.721 -50.251  12.345  1.00  0.00     0.182 C 
BRANCH  11  12
HETATM   12  O   UNL     1     -42.267 -51.569  12.260  1.00  0.00    -0.387 OA
BRANCH  12  13
HETATM   13  C   UNL     1     -42.178 -52.243  13.518  1.00  0.00     0.199 C 
BRANCH  13  14
HETATM   14  C   UNL     1     -43.546 -52.772  13.938  1.00  0.00     0.145 C 
HETATM   15  C   UNL     1     -43.618 -54.288  14.045  1.00  0.00     0.036 C 
HETATM   16  C   UNL     1     -45.007 -54.640  13.550  1.00  0.00     0.029 C 
HETATM   17  C   UNL     1     -45.631 -53.315  13.164  1.00  0.00     0.168 C 
HETATM   18  O   UNL     1     -44.544 -52.406  12.972  1.00  0.00    -0.384 OA
ENDBRANCH  13  14
ENDBRANCH  12  13
ENDBRANCH  11  12
ENDBRANCH  10  11
ENDBRANCH   8  10
ENDBRANCH   5   8
BRANCH   1  19
HETATM   19  C   UNL     1     -46.469 -48.255   8.964  1.00  0.00     0.432 C 
HETATM   20  F   UNL     1     -46.736 -49.336   9.761  1.00  0.00    -0.165 F 
HETATM   21  F   UNL     1     -46.430 -48.750   7.694  1.00  0.00    -0.165 F 
HETATM   22  F   UNL     1     -47.587 -47.476   9.032  1.00  0.00    -0.165 F 
ENDBRANCH   1  19
TORSDOF 7
ENDMDL
