MODEL 1
REMARK VINA RESULT:      -5.6      0.000      0.000
REMARK  3 active torsions:
REMARK  status: ('A' for Active; 'I' for Inactive)
REMARK       I    between atoms: C_2  and  N_3 
REMARK       I    between atoms: C_2  and  N_10 
REMARK    1  A    between atoms: N_3  and  C_4 
REMARK    2  A    between atoms: C_4  and  C_5 
REMARK    3  A    between atoms: N_10  and  C_11 
ROOT
HETATM    1  O   UNL     1     -39.650 -47.195  11.725  1.00  0.00    -0.247 OA
HETATM    2  C   UNL     1     -40.559 -46.973  10.928  1.00  0.00     0.321 C 
HETATM    3  N   UNL     1     -40.673 -45.816  10.234  1.00  0.00    -0.340 N 
HETATM    4  N   UNL     1     -41.537 -47.904  10.745  1.00  0.00    -0.295 N 
HETATM    5  H   UNL     1     -41.284 -45.863   9.419  1.00  0.00     0.164 HD
HETATM    6  H   UNL     1     -41.407 -48.721  11.322  1.00  0.00     0.172 HD
ENDROOT
BRANCH   3   7
HETATM    7  C   UNL     1     -39.705 -44.744  10.303  1.00  0.00     0.156 C 
BRANCH   7   8
HETATM    8  C   UNL     1     -40.252 -43.513  11.027  1.00  0.00     0.139 C 
HETATM    9  C   UNL     1     -40.246 -43.596  12.549  1.00  0.00     0.035 C 
HETATM   10  C   UNL     1     -41.524 -42.903  12.977  1.00  0.00     0.029 C 
HETATM   11  C   UNL     1     -42.196 -42.481  11.688  1.00  0.00     0.168 C 
HETATM   12  O   UNL     1     -41.624 -43.286  10.657  1.00  0.00    -0.384 OA
ENDBRANCH   7   8
ENDBRANCH   3   7
BRANCH   4  13
HETATM   13  C   UNL     1     -42.675 -47.838   9.936  1.00  0.00     0.108 A 
HETATM   14  C   UNL     1     -43.891 -47.568  10.556  1.00  0.00     0.049 A 
HETATM   15  C   UNL     1     -45.042 -47.470   9.776  1.00  0.00     0.005 A 
HETATM   16  C   UNL     1     -44.951 -47.648   8.403  1.00  0.00     0.017 A 
HETATM   17  C   UNL     1     -43.707 -47.925   7.866  1.00  0.00     0.089 A 
HETATM   18  N   UNL     1     -42.577 -48.026   8.601  1.00  0.00    -0.352 N 
ATOM     19  HN  UNL     1     -41.681 -48.237   8.162  1.00  0.00     0.166 HD
ENDBRANCH   4  13
TORSDOF 3
ENDMDL
MODEL 2
REMARK VINA RESULT:      -5.5      3.803      5.869
REMARK  3 active torsions:
REMARK  status: ('A' for Active; 'I' for Inactive)
REMARK       I    between atoms: C_2  and  N_3 
REMARK       I    between atoms: C_2  and  N_10 
REMARK    1  A    between atoms: N_3  and  C_4 
REMARK    2  A    between atoms: C_4  and  C_5 
REMARK    3  A    between atoms: N_10  and  C_11 
ROOT
HETATM    1  O   UNL     1     -40.395 -50.533  11.818  1.00  0.00    -0.247 OA
HETATM    2  C   UNL     1     -41.317 -49.794  11.476  1.00  0.00     0.321 C 
HETATM    3  N   UNL     1     -42.582 -49.921  11.942  1.00  0.00    -0.340 N 
HETATM    4  N   UNL     1     -41.092 -48.818  10.553  1.00  0.00    -0.295 N 
HETATM    5  H   UNL     1     -43.172 -49.100  11.811  1.00  0.00     0.164 HD
HETATM    6  H   UNL     1     -40.138 -48.808  10.224  1.00  0.00     0.172 HD
ENDROOT
BRANCH   3   7
HETATM    7  C   UNL     1     -42.972 -50.892  12.940  1.00  0.00     0.156 C 
BRANCH   7   8
HETATM    8  C   UNL     1     -44.351 -50.594  13.531  1.00  0.00     0.139 C 
HETATM    9  C   UNL     1     -44.461 -50.762  15.042  1.00  0.00     0.035 C 
HETATM   10  C   UNL     1     -45.844 -51.343  15.264  1.00  0.00     0.029 C 
HETATM   11  C   UNL     1     -46.437 -51.492  13.880  1.00  0.00     0.168 C 
HETATM   12  O   UNL     1     -45.337 -51.479  12.970  1.00  0.00    -0.384 OA
ENDBRANCH   7   8
ENDBRANCH   3   7
BRANCH   4  13
HETATM   13  C   UNL     1     -41.996 -47.912   9.992  1.00  0.00     0.108 A 
HETATM   14  C   UNL     1     -42.122 -46.667  10.601  1.00  0.00     0.049 A 
HETATM   15  C   UNL     1     -42.996 -45.730  10.052  1.00  0.00     0.005 A 
HETATM   16  C   UNL     1     -43.723 -46.061   8.917  1.00  0.00     0.017 A 
HETATM   17  C   UNL     1     -43.549 -47.323   8.380  1.00  0.00     0.089 A 
HETATM   18  N   UNL     1     -42.710 -48.249   8.894  1.00  0.00    -0.352 N 
ATOM     19  HN  UNL     1     -42.617 -49.170   8.467  1.00  0.00     0.166 HD
ENDBRANCH   4  13
TORSDOF 3
ENDMDL
MODEL 3
REMARK VINA RESULT:      -5.4      4.438      5.590
REMARK  3 active torsions:
REMARK  status: ('A' for Active; 'I' for Inactive)
REMARK       I    between atoms: C_2  and  N_3 
REMARK       I    between atoms: C_2  and  N_10 
REMARK    1  A    between atoms: N_3  and  C_4 
REMARK    2  A    between atoms: C_4  and  C_5 
REMARK    3  A    between atoms: N_10  and  C_11 
ROOT
HETATM    1  O   UNL     1     -40.492 -52.665  12.101  1.00  0.00    -0.247 OA
HETATM    2  C   UNL     1     -41.597 -52.137  12.211  1.00  0.00     0.321 C 
HETATM    3  N   UNL     1     -41.844 -50.851  11.864  1.00  0.00    -0.340 N 
HETATM    4  N   UNL     1     -42.631 -52.843  12.746  1.00  0.00    -0.295 N 
HETATM    5  H   UNL     1     -42.829 -50.623  11.736  1.00  0.00     0.164 HD
HETATM    6  H   UNL     1     -42.363 -53.777  13.016  1.00  0.00     0.172 HD
ENDROOT
BRANCH   3   7
HETATM    7  C   UNL     1     -40.857 -49.982  11.263  1.00  0.00     0.156 C 
BRANCH   7   8
HETATM    8  C   UNL     1     -41.305 -48.520  11.246  1.00  0.00     0.139 C 
HETATM    9  C   UNL     1     -42.336 -48.143  12.303  1.00  0.00     0.035 C 
HETATM   10  C   UNL     1     -43.256 -47.158  11.608  1.00  0.00     0.029 C 
HETATM   11  C   UNL     1     -42.717 -47.041  10.199  1.00  0.00     0.168 C 
HETATM   12  O   UNL     1     -41.910 -48.198   9.981  1.00  0.00    -0.384 OA
ENDBRANCH   7   8
ENDBRANCH   3   7
BRANCH   4  13
HETATM   13  C   UNL     1     -43.940 -52.427  13.007  1.00  0.00     0.108 A 
HETATM   14  C   UNL     1     -44.167 -51.707  14.176  1.00  0.00     0.049 A 
HETATM   15  C   UNL     1     -45.455 -51.255  14.454  1.00  0.00     0.005 A 
HETATM   16  C   UNL     1     -46.483 -51.538  13.564  1.00  0.00     0.017 A 
HETATM   17  C   UNL     1     -46.176 -52.269  12.431  1.00  0.00     0.089 A 
HETATM   18  N   UNL     1     -44.936 -52.719  12.140  1.00  0.00    -0.352 N 
ATOM     19  HN  UNL     1     -44.757 -53.260  11.294  1.00  0.00     0.166 HD
ENDBRANCH   4  13
TORSDOF 3
ENDMDL
MODEL 4
REMARK VINA RESULT:      -5.4      4.698      7.111
REMARK  3 active torsions:
REMARK  status: ('A' for Active; 'I' for Inactive)
REMARK       I    between atoms: C_2  and  N_3 
REMARK       I    between atoms: C_2  and  N_10 
REMARK    1  A    between atoms: N_3  and  C_4 
REMARK    2  A    between atoms: C_4  and  C_5 
REMARK    3  A    between atoms: N_10  and  C_11 
ROOT
HETATM    1  O   UNL     1     -40.648 -52.694  12.042  1.00  0.00    -0.247 OA
HETATM    2  C   UNL     1     -41.403 -51.728  11.953  1.00  0.00     0.321 C 
HETATM    3  N   UNL     1     -42.745 -51.816  12.116  1.00  0.00    -0.340 N 
HETATM    4  N   UNL     1     -40.897 -50.505  11.633  1.00  0.00    -0.295 N 
HETATM    5  H   UNL     1     -43.214 -50.929  12.297  1.00  0.00     0.164 HD
HETATM    6  H   UNL     1     -39.899 -50.524  11.489  1.00  0.00     0.172 HD
ENDROOT
BRANCH   3   7
HETATM    7  C   UNL     1     -43.427 -53.038  12.479  1.00  0.00     0.156 C 
BRANCH   7   8
HETATM    8  C   UNL     1     -44.923 -52.820  12.710  1.00  0.00     0.139 C 
HETATM    9  C   UNL     1     -45.330 -51.389  13.040  1.00  0.00     0.035 C 
HETATM   10  C   UNL     1     -46.438 -51.530  14.064  1.00  0.00     0.029 C 
HETATM   11  C   UNL     1     -46.591 -53.021  14.277  1.00  0.00     0.168 C 
HETATM   12  O   UNL     1     -45.379 -53.618  13.818  1.00  0.00    -0.384 OA
ENDBRANCH   7   8
ENDBRANCH   3   7
BRANCH   4  13
HETATM   13  C   UNL     1     -41.573 -49.297  11.432  1.00  0.00     0.108 A 
HETATM   14  C   UNL     1     -42.234 -48.740  12.522  1.00  0.00     0.049 A 
HETATM   15  C   UNL     1     -42.896 -47.524  12.362  1.00  0.00     0.005 A 
HETATM   16  C   UNL     1     -42.886 -46.901  11.122  1.00  0.00     0.017 A 
HETATM   17  C   UNL     1     -42.217 -47.527  10.087  1.00  0.00     0.089 A 
HETATM   18  N   UNL     1     -41.568 -48.705  10.216  1.00  0.00    -0.352 N 
ATOM     19  HN  UNL     1     -41.091 -49.133   9.423  1.00  0.00     0.166 HD
ENDBRANCH   4  13
TORSDOF 3
ENDMDL
MODEL 5
REMARK VINA RESULT:      -5.3      4.456      6.727
REMARK  3 active torsions:
REMARK  status: ('A' for Active; 'I' for Inactive)
REMARK       I    between atoms: C_2  and  N_3 
REMARK       I    between atoms: C_2  and  N_10 
REMARK    1  A    between atoms: N_3  and  C_4 
REMARK    2  A    between atoms: C_4  and  C_5 
REMARK    3  A    between atoms: N_10  and  C_11 
ROOT
HETATM    1  O   UNL     1     -39.073 -50.631  11.817  1.00  0.00    -0.247 OA
HETATM    2  C   UNL     1     -40.202 -50.237  11.533  1.00  0.00     0.321 C 
HETATM    3  N   UNL     1     -41.299 -51.032  11.572  1.00  0.00    -0.340 N 
HETATM    4  N   UNL     1     -40.383 -48.954  11.115  1.00  0.00    -0.295 N 
HETATM    5  H   UNL     1     -42.188 -50.534  11.594  1.00  0.00     0.164 HD
HETATM    6  H   UNL     1     -39.519 -48.434  11.074  1.00  0.00     0.172 HD
ENDROOT
BRANCH   3   7
HETATM    7  C   UNL     1     -41.272 -52.407  12.017  1.00  0.00     0.156 C 
BRANCH   7   8
HETATM    8  C   UNL     1     -42.436 -52.737  12.953  1.00  0.00     0.139 C 
HETATM    9  C   UNL     1     -42.179 -53.870  13.939  1.00  0.00     0.035 C 
HETATM   10  C   UNL     1     -43.499 -54.610  14.028  1.00  0.00     0.029 C 
HETATM   11  C   UNL     1     -44.427 -53.877  13.082  1.00  0.00     0.168 C 
HETATM   12  O   UNL     1     -43.590 -53.139  12.192  1.00  0.00    -0.384 OA
ENDBRANCH   7   8
ENDBRANCH   3   7
BRANCH   4  13
HETATM   13  C   UNL     1     -41.558 -48.320  10.699  1.00  0.00     0.108 A 
HETATM   14  C   UNL     1     -42.327 -47.687  11.670  1.00  0.00     0.049 A 
HETATM   15  C   UNL     1     -43.491 -47.023  11.286  1.00  0.00     0.005 A 
HETATM   16  C   UNL     1     -43.859 -47.014   9.947  1.00  0.00     0.017 A 
HETATM   17  C   UNL     1     -43.046 -47.677   9.047  1.00  0.00     0.089 A 
HETATM   18  N   UNL     1     -41.914 -48.328   9.394  1.00  0.00    -0.352 N 
ATOM     19  HN  UNL     1     -41.347 -48.808   8.696  1.00  0.00     0.166 HD
ENDBRANCH   4  13
TORSDOF 3
ENDMDL
MODEL 6
REMARK VINA RESULT:      -5.3      2.964      4.559
REMARK  3 active torsions:
REMARK  status: ('A' for Active; 'I' for Inactive)
REMARK       I    between atoms: C_2  and  N_3 
REMARK       I    between atoms: C_2  and  N_10 
REMARK    1  A    between atoms: N_3  and  C_4 
REMARK    2  A    between atoms: C_4  and  C_5 
REMARK    3  A    between atoms: N_10  and  C_11 
ROOT
HETATM    1  O   UNL     1     -42.348 -48.064   9.854  1.00  0.00    -0.247 OA
HETATM    2  C   UNL     1     -41.285 -48.229  10.451  1.00  0.00     0.321 C 
HETATM    3  N   UNL     1     -40.448 -47.214  10.775  1.00  0.00    -0.340 N 
HETATM    4  N   UNL     1     -40.885 -49.489  10.777  1.00  0.00    -0.295 N 
HETATM    5  H   UNL     1     -39.764 -47.436  11.496  1.00  0.00     0.164 HD
HETATM    6  H   UNL     1     -41.537 -50.195  10.471  1.00  0.00     0.172 HD
ENDROOT
BRANCH   3   7
HETATM    7  C   UNL     1     -40.744 -45.822  10.517  1.00  0.00     0.156 C 
BRANCH   7   8
HETATM    8  C   UNL     1     -40.765 -44.987  11.798  1.00  0.00     0.139 C 
HETATM    9  C   UNL     1     -40.366 -43.525  11.628  1.00  0.00     0.035 C 
HETATM   10  C   UNL     1     -39.578 -43.194  12.880  1.00  0.00     0.029 C 
HETATM   11  C   UNL     1     -39.552 -44.478  13.682  1.00  0.00     0.168 C 
HETATM   12  O   UNL     1     -39.846 -45.530  12.763  1.00  0.00    -0.384 OA
ENDBRANCH   7   8
ENDBRANCH   3   7
BRANCH   4  13
HETATM   13  C   UNL     1     -39.705 -49.904  11.402  1.00  0.00     0.108 A 
HETATM   14  C   UNL     1     -39.795 -50.348  12.718  1.00  0.00     0.049 A 
HETATM   15  C   UNL     1     -38.642 -50.793  13.362  1.00  0.00     0.005 A 
HETATM   16  C   UNL     1     -37.432 -50.779  12.681  1.00  0.00     0.017 A 
HETATM   17  C   UNL     1     -37.426 -50.311  11.380  1.00  0.00     0.089 A 
HETATM   18  N   UNL     1     -38.530 -49.874  10.734  1.00  0.00    -0.352 N 
ATOM     19  HN  UNL     1     -38.477 -49.533   9.774  1.00  0.00     0.166 HD
ENDBRANCH   4  13
TORSDOF 3
ENDMDL
MODEL 7
REMARK VINA RESULT:      -5.3      6.103      8.175
REMARK  3 active torsions:
REMARK  status: ('A' for Active; 'I' for Inactive)
REMARK       I    between atoms: C_2  and  N_3 
REMARK       I    between atoms: C_2  and  N_10 
REMARK    1  A    between atoms: N_3  and  C_4 
REMARK    2  A    between atoms: C_4  and  C_5 
REMARK    3  A    between atoms: N_10  and  C_11 
ROOT
HETATM    1  O   UNL     1     -41.191 -50.151  11.802  1.00  0.00    -0.247 OA
HETATM    2  C   UNL     1     -42.095 -50.795  12.331  1.00  0.00     0.321 C 
HETATM    3  N   UNL     1     -42.054 -52.139  12.493  1.00  0.00    -0.340 N 
HETATM    4  N   UNL     1     -43.224 -50.156  12.746  1.00  0.00    -0.295 N 
HETATM    5  H   UNL     1     -42.710 -52.509  13.179  1.00  0.00     0.164 HD
HETATM    6  H   UNL     1     -43.199 -49.165  12.558  1.00  0.00     0.172 HD
ENDROOT
BRANCH   3   7
HETATM    7  C   UNL     1     -40.917 -52.953  12.125  1.00  0.00     0.156 C 
BRANCH   7   8
HETATM    8  C   UNL     1     -40.678 -54.096  13.114  1.00  0.00     0.139 C 
HETATM    9  C   UNL     1     -41.528 -54.051  14.379  1.00  0.00     0.035 C 
HETATM   10  C   UNL     1     -40.606 -54.537  15.479  1.00  0.00     0.029 C 
HETATM   11  C   UNL     1     -39.284 -54.813  14.794  1.00  0.00     0.168 C 
HETATM   12  O   UNL     1     -39.311 -54.088  13.565  1.00  0.00    -0.384 OA
ENDBRANCH   7   8
ENDBRANCH   3   7
BRANCH   4  13
HETATM   13  C   UNL     1     -44.381 -50.694  13.318  1.00  0.00     0.108 A 
HETATM   14  C   UNL     1     -44.460 -50.719  14.707  1.00  0.00     0.049 A 
HETATM   15  C   UNL     1     -45.611 -51.224  15.310  1.00  0.00     0.005 A 
HETATM   16  C   UNL     1     -46.646 -51.696  14.514  1.00  0.00     0.017 A 
HETATM   17  C   UNL     1     -46.483 -51.647  13.142  1.00  0.00     0.089 A 
HETATM   18  N   UNL     1     -45.378 -51.162  12.534  1.00  0.00    -0.352 N 
ATOM     19  HN  UNL     1     -45.299 -51.150  11.517  1.00  0.00     0.166 HD
ENDBRANCH   4  13
TORSDOF 3
ENDMDL
MODEL 8
REMARK VINA RESULT:      -5.1      3.496      5.383
REMARK  3 active torsions:
REMARK  status: ('A' for Active; 'I' for Inactive)
REMARK       I    between atoms: C_2  and  N_3 
REMARK       I    between atoms: C_2  and  N_10 
REMARK    1  A    between atoms: N_3  and  C_4 
REMARK    2  A    between atoms: C_4  and  C_5 
REMARK    3  A    between atoms: N_10  and  C_11 
ROOT
HETATM    1  O   UNL     1     -42.908 -50.026  13.596  1.00  0.00    -0.247 OA
HETATM    2  C   UNL     1     -42.783 -49.522  12.481  1.00  0.00     0.321 C 
HETATM    3  N   UNL     1     -41.843 -49.914  11.588  1.00  0.00    -0.340 N 
HETATM    4  N   UNL     1     -43.591 -48.488  12.115  1.00  0.00    -0.295 N 
HETATM    5  H   UNL     1     -42.020 -49.629  10.626  1.00  0.00     0.164 HD
HETATM    6  H   UNL     1     -44.239 -48.226  12.842  1.00  0.00     0.172 HD
ENDROOT
BRANCH   3   7
HETATM    7  C   UNL     1     -40.929 -51.010  11.821  1.00  0.00     0.156 C 
BRANCH   7   8
HETATM    8  C   UNL     1     -39.595 -50.540  12.404  1.00  0.00     0.139 C 
HETATM    9  C   UNL     1     -38.875 -49.466  11.597  1.00  0.00     0.035 C 
HETATM   10  C   UNL     1     -37.405 -49.817  11.716  1.00  0.00     0.029 C 
HETATM   11  C   UNL     1     -37.366 -51.073  12.561  1.00  0.00     0.168 C 
HETATM   12  O   UNL     1     -38.674 -51.641  12.494  1.00  0.00    -0.384 OA
ENDBRANCH   7   8
ENDBRANCH   3   7
BRANCH   4  13
HETATM   13  C   UNL     1     -43.588 -47.745  10.931  1.00  0.00     0.108 A 
HETATM   14  C   UNL     1     -42.691 -46.685  10.838  1.00  0.00     0.049 A 
HETATM   15  C   UNL     1     -42.644 -45.939   9.661  1.00  0.00     0.005 A 
HETATM   16  C   UNL     1     -43.495 -46.266   8.614  1.00  0.00     0.017 A 
HETATM   17  C   UNL     1     -44.365 -47.325   8.791  1.00  0.00     0.089 A 
HETATM   18  N   UNL     1     -44.430 -48.063   9.922  1.00  0.00    -0.352 N 
ATOM     19  HN  UNL     1     -45.092 -48.833  10.010  1.00  0.00     0.166 HD
ENDBRANCH   4  13
TORSDOF 3
ENDMDL
MODEL 9
REMARK VINA RESULT:      -5.0      6.268      7.518
REMARK  3 active torsions:
REMARK  status: ('A' for Active; 'I' for Inactive)
REMARK       I    between atoms: C_2  and  N_3 
REMARK       I    between atoms: C_2  and  N_10 
REMARK    1  A    between atoms: N_3  and  C_4 
REMARK    2  A    between atoms: C_4  and  C_5 
REMARK    3  A    between atoms: N_10  and  C_11 
ROOT
HETATM    1  O   UNL     1     -41.271 -54.402  13.030  1.00  0.00    -0.247 OA
HETATM    2  C   UNL     1     -42.158 -53.551  13.042  1.00  0.00     0.321 C 
HETATM    3  N   UNL     1     -42.034 -52.339  12.449  1.00  0.00    -0.340 N 
HETATM    4  N   UNL     1     -43.318 -53.796  13.713  1.00  0.00    -0.295 N 
HETATM    5  H   UNL     1     -42.913 -51.850  12.285  1.00  0.00     0.164 HD
HETATM    6  H   UNL     1     -43.323 -54.700  14.160  1.00  0.00     0.172 HD
ENDROOT
BRANCH   3   7
HETATM    7  C   UNL     1     -40.875 -51.940  11.682  1.00  0.00     0.156 C 
BRANCH   7   8
HETATM    8  C   UNL     1     -39.884 -51.122  12.511  1.00  0.00     0.139 C 
HETATM    9  C   UNL     1     -39.273 -49.922  11.797  1.00  0.00     0.035 C 
HETATM   10  C   UNL     1     -37.838 -49.875  12.283  1.00  0.00     0.029 C 
HETATM   11  C   UNL     1     -37.702 -51.052  13.226  1.00  0.00     0.168 C 
HETATM   12  O   UNL     1     -38.772 -51.943  12.911  1.00  0.00    -0.384 OA
ENDBRANCH   7   8
ENDBRANCH   3   7
BRANCH   4  13
HETATM   13  C   UNL     1     -44.423 -52.959  13.895  1.00  0.00     0.108 A 
HETATM   14  C   UNL     1     -45.397 -52.953  12.902  1.00  0.00     0.049 A 
HETATM   15  C   UNL     1     -46.525 -52.150  13.064  1.00  0.00     0.005 A 
HETATM   16  C   UNL     1     -46.648 -51.373  14.207  1.00  0.00     0.017 A 
HETATM   17  C   UNL     1     -45.630 -51.427  15.141  1.00  0.00     0.089 A 
HETATM   18  N   UNL     1     -44.527 -52.196  15.007  1.00  0.00    -0.352 N 
ATOM     19  HN  UNL     1     -43.798 -52.201  15.720  1.00  0.00     0.166 HD
ENDBRANCH   4  13
TORSDOF 3
ENDMDL
