MODEL 1
REMARK VINA RESULT:      -6.1      0.000      0.000
REMARK  5 active torsions:
REMARK  status: ('A' for Active; 'I' for Inactive)
REMARK    1  A    between atoms: N_2  and  C_4 
REMARK    2  A    between atoms: N_9  and  C_10 
REMARK    3  A    between atoms: C_10  and  C_11 
REMARK       I    between atoms: C_11  and  N_13 
REMARK    4  A    between atoms: N_13  and  C_14 
REMARK    5  A    between atoms: C_14  and  C_15 
ROOT
HETATM    1  C   UNL     1     -41.095 -51.636  11.897  1.00  0.00     0.234 C 
ENDROOT
BRANCH   1   2
HETATM    2  N   UNL     1     -41.517 -52.790  12.693  1.00  0.00    -0.314 N 
HETATM    3  C   UNL     1     -40.609 -53.333  13.599  1.00  0.00     0.247 A 
HETATM    4  C   UNL     1     -41.157 -54.339  14.553  1.00  0.00     0.077 A 
HETATM    5  O   UNL     1     -39.422 -53.022  13.656  1.00  0.00    -0.268 OA
HETATM    6  C   UNL     1     -42.450 -54.696  14.501  1.00  0.00     0.043 A 
HETATM    7  C   UNL     1     -43.322 -54.116  13.504  1.00  0.00     0.118 A 
HETATM    8  C   UNL     1     -42.850 -53.200  12.640  1.00  0.00     0.130 A 
BRANCH   7   9
HETATM    9  N   UNL     1     -44.748 -54.452  13.451  1.00  0.00    -0.114 N 
HETATM   10  O   UNL     1     -45.453 -53.793  12.675  1.00  0.00    -0.532 OA
HETATM   11  O   UNL     1     -45.163 -55.374  14.167  1.00  0.00    -0.532 OA
ENDBRANCH   7   9
ENDBRANCH   1   2
BRANCH   1  12
HETATM   12  C   UNL     1     -41.716 -50.286  12.249  1.00  0.00     0.235 C 
HETATM   13  O   UNL     1     -41.717 -49.885  13.415  1.00  0.00    -0.272 OA
HETATM   14  N   UNL     1     -42.140 -49.492  11.203  1.00  0.00    -0.357 N 
HETATM   15  H   UNL     1     -42.288 -49.899  10.283  1.00  0.00     0.162 HD
BRANCH  14  16
HETATM   16  C   UNL     1     -42.653 -48.164  11.499  1.00  0.00     0.154 C 
BRANCH  16  17
HETATM   17  C   UNL     1     -43.169 -47.380  10.292  1.00  0.00     0.139 C 
HETATM   18  C   UNL     1     -44.684 -47.504  10.146  1.00  0.00     0.035 C 
HETATM   19  C   UNL     1     -44.928 -47.658   8.661  1.00  0.00     0.029 C 
HETATM   20  C   UNL     1     -43.553 -47.574   8.035  1.00  0.00     0.168 C 
HETATM   21  O   UNL     1     -42.622 -47.903   9.071  1.00  0.00    -0.384 OA
ENDBRANCH  16  17
ENDBRANCH  14  16
ENDBRANCH   1  12
TORSDOF 5
ENDMDL
MODEL 2
REMARK VINA RESULT:      -5.9      2.546      7.376
REMARK  5 active torsions:
REMARK  status: ('A' for Active; 'I' for Inactive)
REMARK    1  A    between atoms: N_2  and  C_4 
REMARK    2  A    between atoms: N_9  and  C_10 
REMARK    3  A    between atoms: C_10  and  C_11 
REMARK       I    between atoms: C_11  and  N_13 
REMARK    4  A    between atoms: N_13  and  C_14 
REMARK    5  A    between atoms: C_14  and  C_15 
ROOT
HETATM    1  C   UNL     1     -40.254 -49.470  11.240  1.00  0.00     0.234 C 
ENDROOT
BRANCH   1   2
HETATM    2  N   UNL     1     -40.837 -48.129  11.160  1.00  0.00    -0.314 N 
HETATM    3  C   UNL     1     -40.216 -47.097  11.858  1.00  0.00     0.247 A 
HETATM    4  C   UNL     1     -40.693 -45.718  11.553  1.00  0.00     0.077 A 
HETATM    5  O   UNL     1     -39.313 -47.263  12.675  1.00  0.00    -0.268 OA
HETATM    6  C   UNL     1     -41.683 -45.518  10.669  1.00  0.00     0.043 A 
HETATM    7  C   UNL     1     -42.307 -46.646  10.013  1.00  0.00     0.118 A 
HETATM    8  C   UNL     1     -41.884 -47.897  10.267  1.00  0.00     0.130 A 
BRANCH   7   9
HETATM    9  N   UNL     1     -43.359 -46.458   9.010  1.00  0.00    -0.114 N 
HETATM   10  O   UNL     1     -43.735 -45.298   8.799  1.00  0.00    -0.532 OA
HETATM   11  O   UNL     1     -43.801 -47.457   8.424  1.00  0.00    -0.532 OA
ENDBRANCH   7   9
ENDBRANCH   1   2
BRANCH   1  12
HETATM   12  C   UNL     1     -41.016 -50.510  12.058  1.00  0.00     0.235 C 
HETATM   13  O   UNL     1     -41.615 -50.181  13.084  1.00  0.00    -0.272 OA
HETATM   14  N   UNL     1     -41.118 -51.780  11.529  1.00  0.00    -0.357 N 
HETATM   15  H   UNL     1     -40.490 -52.074  10.786  1.00  0.00     0.162 HD
BRANCH  14  16
HETATM   16  C   UNL     1     -41.913 -52.770  12.239  1.00  0.00     0.154 C 
BRANCH  16  17
HETATM   17  C   UNL     1     -41.120 -53.914  12.869  1.00  0.00     0.139 C 
HETATM   18  C   UNL     1     -41.660 -54.281  14.250  1.00  0.00     0.035 C 
HETATM   19  C   UNL     1     -40.434 -54.533  15.101  1.00  0.00     0.029 C 
HETATM   20  C   UNL     1     -39.266 -54.339  14.159  1.00  0.00     0.168 C 
HETATM   21  O   UNL     1     -39.751 -53.531  13.082  1.00  0.00    -0.384 OA
ENDBRANCH  16  17
ENDBRANCH  14  16
ENDBRANCH   1  12
TORSDOF 5
ENDMDL
MODEL 3
REMARK VINA RESULT:      -5.8      2.373      6.668
REMARK  5 active torsions:
REMARK  status: ('A' for Active; 'I' for Inactive)
REMARK    1  A    between atoms: N_2  and  C_4 
REMARK    2  A    between atoms: N_9  and  C_10 
REMARK    3  A    between atoms: C_10  and  C_11 
REMARK       I    between atoms: C_11  and  N_13 
REMARK    4  A    between atoms: N_13  and  C_14 
REMARK    5  A    between atoms: C_14  and  C_15 
ROOT
HETATM    1  C   UNL     1     -40.703 -50.028  11.193  1.00  0.00     0.234 C 
ENDROOT
BRANCH   1   2
HETATM    2  N   UNL     1     -40.991 -48.595  11.102  1.00  0.00    -0.314 N 
HETATM    3  C   UNL     1     -40.049 -47.700  11.600  1.00  0.00     0.247 A 
HETATM    4  C   UNL     1     -40.269 -46.264  11.268  1.00  0.00     0.077 A 
HETATM    5  O   UNL     1     -39.070 -48.029  12.266  1.00  0.00    -0.268 OA
HETATM    6  C   UNL     1     -41.337 -45.885  10.548  1.00  0.00     0.043 A 
HETATM    7  C   UNL     1     -42.294 -46.872  10.099  1.00  0.00     0.118 A 
HETATM    8  C   UNL     1     -42.108 -48.174  10.380  1.00  0.00     0.130 A 
BRANCH   7   9
HETATM    9  N   UNL     1     -43.445 -46.495   9.273  1.00  0.00    -0.114 N 
HETATM   10  O   UNL     1     -44.337 -47.342   9.131  1.00  0.00    -0.532 OA
HETATM   11  O   UNL     1     -43.470 -45.359   8.779  1.00  0.00    -0.532 OA
ENDBRANCH   7   9
ENDBRANCH   1   2
BRANCH   1  12
HETATM   12  C   UNL     1     -41.363 -50.799  12.334  1.00  0.00     0.235 C 
HETATM   13  O   UNL     1     -41.154 -50.478  13.506  1.00  0.00    -0.272 OA
HETATM   14  N   UNL     1     -42.293 -51.759  11.994  1.00  0.00    -0.357 N 
HETATM   15  H   UNL     1     -42.326 -52.122  11.045  1.00  0.00     0.162 HD
BRANCH  14  16
HETATM   16  C   UNL     1     -43.006 -52.447  13.058  1.00  0.00     0.154 C 
BRANCH  16  17
HETATM   17  C   UNL     1     -44.527 -52.478  12.911  1.00  0.00     0.139 C 
HETATM   18  C   UNL     1     -45.157 -51.139  13.287  1.00  0.00     0.035 C 
HETATM   19  C   UNL     1     -46.406 -51.491  14.064  1.00  0.00     0.029 C 
HETATM   20  C   UNL     1     -46.448 -53.004  14.058  1.00  0.00     0.168 C 
HETATM   21  O   UNL     1     -45.108 -53.439  13.807  1.00  0.00    -0.384 OA
ENDBRANCH  16  17
ENDBRANCH  14  16
ENDBRANCH   1  12
TORSDOF 5
ENDMDL
MODEL 4
REMARK VINA RESULT:      -5.8      1.295      1.661
REMARK  5 active torsions:
REMARK  status: ('A' for Active; 'I' for Inactive)
REMARK    1  A    between atoms: N_2  and  C_4 
REMARK    2  A    between atoms: N_9  and  C_10 
REMARK    3  A    between atoms: C_10  and  C_11 
REMARK       I    between atoms: C_11  and  N_13 
REMARK    4  A    between atoms: N_13  and  C_14 
REMARK    5  A    between atoms: C_14  and  C_15 
ROOT
HETATM    1  C   UNL     1     -41.112 -52.592  11.793  1.00  0.00     0.234 C 
ENDROOT
BRANCH   1   2
HETATM    2  N   UNL     1     -42.069 -53.334  12.616  1.00  0.00    -0.314 N 
HETATM    3  C   UNL     1     -41.575 -54.125  13.649  1.00  0.00     0.247 A 
HETATM    4  C   UNL     1     -42.585 -54.661  14.606  1.00  0.00     0.077 A 
HETATM    5  O   UNL     1     -40.384 -54.381  13.813  1.00  0.00    -0.268 OA
HETATM    6  C   UNL     1     -43.890 -54.398  14.439  1.00  0.00     0.043 A 
HETATM    7  C   UNL     1     -44.330 -53.600  13.316  1.00  0.00     0.118 A 
HETATM    8  C   UNL     1     -43.434 -53.099  12.448  1.00  0.00     0.130 A 
BRANCH   7   9
HETATM    9  N   UNL     1     -45.744 -53.257  13.132  1.00  0.00    -0.114 N 
HETATM   10  O   UNL     1     -46.067 -52.766  12.043  1.00  0.00    -0.532 OA
HETATM   11  O   UNL     1     -46.531 -53.487  14.061  1.00  0.00    -0.532 OA
ENDBRANCH   7   9
ENDBRANCH   1   2
BRANCH   1  12
HETATM   12  C   UNL     1     -40.873 -51.128  12.156  1.00  0.00     0.235 C 
HETATM   13  O   UNL     1     -40.728 -50.794  13.334  1.00  0.00    -0.272 OA
HETATM   14  N   UNL     1     -40.689 -50.240  11.117  1.00  0.00    -0.357 N 
HETATM   15  H   UNL     1     -40.976 -50.492  10.175  1.00  0.00     0.162 HD
BRANCH  14  16
HETATM   16  C   UNL     1     -40.369 -48.856  11.430  1.00  0.00     0.154 C 
BRANCH  16  17
HETATM   17  C   UNL     1     -41.386 -47.825  10.943  1.00  0.00     0.139 C 
HETATM   18  C   UNL     1     -42.561 -47.691  11.909  1.00  0.00     0.035 C 
HETATM   19  C   UNL     1     -43.787 -47.573  11.030  1.00  0.00     0.029 C 
HETATM   20  C   UNL     1     -43.250 -47.604   9.616  1.00  0.00     0.168 C 
HETATM   21  O   UNL     1     -41.964 -48.228   9.691  1.00  0.00    -0.384 OA
ENDBRANCH  16  17
ENDBRANCH  14  16
ENDBRANCH   1  12
TORSDOF 5
ENDMDL
MODEL 5
REMARK VINA RESULT:      -5.7      3.249      6.286
REMARK  5 active torsions:
REMARK  status: ('A' for Active; 'I' for Inactive)
REMARK    1  A    between atoms: N_2  and  C_4 
REMARK    2  A    between atoms: N_9  and  C_10 
REMARK    3  A    between atoms: C_10  and  C_11 
REMARK       I    between atoms: C_11  and  N_13 
REMARK    4  A    between atoms: N_13  and  C_14 
REMARK    5  A    between atoms: C_14  and  C_15 
ROOT
HETATM    1  C   UNL     1     -41.241 -52.072  14.405  1.00  0.00     0.234 C 
ENDROOT
BRANCH   1   2
HETATM    2  N   UNL     1     -40.616 -51.030  13.587  1.00  0.00    -0.314 N 
HETATM    3  C   UNL     1     -41.147 -49.744  13.640  1.00  0.00     0.247 A 
HETATM    4  C   UNL     1     -40.337 -48.673  12.991  1.00  0.00     0.077 A 
HETATM    5  O   UNL     1     -42.207 -49.458  14.190  1.00  0.00    -0.268 OA
HETATM    6  C   UNL     1     -39.179 -48.969  12.379  1.00  0.00     0.043 A 
HETATM    7  C   UNL     1     -38.714 -50.337  12.333  1.00  0.00     0.118 A 
HETATM    8  C   UNL     1     -39.424 -51.316  12.921  1.00  0.00     0.130 A 
BRANCH   7   9
HETATM    9  N   UNL     1     -37.432 -50.684  11.712  1.00  0.00    -0.114 N 
HETATM   10  O   UNL     1     -36.832 -51.666  12.170  1.00  0.00    -0.532 OA
HETATM   11  O   UNL     1     -37.028 -49.993  10.766  1.00  0.00    -0.532 OA
ENDBRANCH   7   9
ENDBRANCH   1   2
BRANCH   1  12
HETATM   12  C   UNL     1     -42.255 -52.981  13.714  1.00  0.00     0.235 C 
HETATM   13  O   UNL     1     -42.204 -54.203  13.869  1.00  0.00    -0.272 OA
HETATM   14  N   UNL     1     -43.291 -52.373  13.036  1.00  0.00    -0.357 N 
HETATM   15  H   UNL     1     -43.225 -51.393  12.778  1.00  0.00     0.162 HD
BRANCH  14  16
HETATM   16  C   UNL     1     -44.323 -53.210  12.444  1.00  0.00     0.154 C 
BRANCH  16  17
HETATM   17  C   UNL     1     -45.738 -52.972  12.971  1.00  0.00     0.139 C 
HETATM   18  C   UNL     1     -45.999 -51.491  13.236  1.00  0.00     0.035 C 
HETATM   19  C   UNL     1     -46.780 -51.451  14.531  1.00  0.00     0.029 C 
HETATM   20  C   UNL     1     -46.960 -52.903  14.916  1.00  0.00     0.168 C 
HETATM   21  O   UNL     1     -45.930 -53.627  14.235  1.00  0.00    -0.384 OA
ENDBRANCH  16  17
ENDBRANCH  14  16
ENDBRANCH   1  12
TORSDOF 5
ENDMDL
MODEL 6
REMARK VINA RESULT:      -5.6      3.765      5.981
REMARK  5 active torsions:
REMARK  status: ('A' for Active; 'I' for Inactive)
REMARK    1  A    between atoms: N_2  and  C_4 
REMARK    2  A    between atoms: N_9  and  C_10 
REMARK    3  A    between atoms: C_10  and  C_11 
REMARK       I    between atoms: C_11  and  N_13 
REMARK    4  A    between atoms: N_13  and  C_14 
REMARK    5  A    between atoms: C_14  and  C_15 
ROOT
HETATM    1  C   UNL     1     -44.686 -54.921  14.488  1.00  0.00     0.234 C 
ENDROOT
BRANCH   1   2
HETATM    2  N   UNL     1     -45.293 -53.592  14.390  1.00  0.00    -0.314 N 
HETATM    3  C   UNL     1     -45.467 -53.038  13.125  1.00  0.00     0.247 A 
HETATM    4  C   UNL     1     -46.303 -51.806  13.057  1.00  0.00     0.077 A 
HETATM    5  O   UNL     1     -44.992 -53.510  12.094  1.00  0.00    -0.268 OA
HETATM    6  C   UNL     1     -46.824 -51.272  14.173  1.00  0.00     0.043 A 
HETATM    7  C   UNL     1     -46.564 -51.884  15.457  1.00  0.00     0.118 A 
HETATM    8  C   UNL     1     -45.821 -53.002  15.538  1.00  0.00     0.130 A 
BRANCH   7   9
HETATM    9  N   UNL     1     -47.157 -51.352  16.688  1.00  0.00    -0.114 N 
HETATM   10  O   UNL     1     -46.418 -50.689  17.427  1.00  0.00    -0.532 OA
HETATM   11  O   UNL     1     -48.354 -51.580  16.913  1.00  0.00    -0.532 OA
ENDBRANCH   7   9
ENDBRANCH   1   2
BRANCH   1  12
HETATM   12  C   UNL     1     -43.205 -54.984  14.853  1.00  0.00     0.235 C 
HETATM   13  O   UNL     1     -42.822 -55.691  15.788  1.00  0.00    -0.272 OA
HETATM   14  N   UNL     1     -42.319 -54.335  14.018  1.00  0.00    -0.357 N 
HETATM   15  H   UNL     1     -42.656 -53.631  13.367  1.00  0.00     0.162 HD
BRANCH  14  16
HETATM   16  C   UNL     1     -40.895 -54.451  14.287  1.00  0.00     0.154 C 
BRANCH  16  17
HETATM   17  C   UNL     1     -40.064 -53.213  13.948  1.00  0.00     0.139 C 
HETATM   18  C   UNL     1     -40.501 -52.000  14.767  1.00  0.00     0.035 C 
HETATM   19  C   UNL     1     -40.466 -50.836  13.802  1.00  0.00     0.029 C 
HETATM   20  C   UNL     1     -39.976 -51.430  12.500  1.00  0.00     0.168 C 
HETATM   21  O   UNL     1     -40.248 -52.834  12.575  1.00  0.00    -0.384 OA
ENDBRANCH  16  17
ENDBRANCH  14  16
ENDBRANCH   1  12
TORSDOF 5
ENDMDL
MODEL 7
REMARK VINA RESULT:      -5.4      2.957      4.720
REMARK  5 active torsions:
REMARK  status: ('A' for Active; 'I' for Inactive)
REMARK    1  A    between atoms: N_2  and  C_4 
REMARK    2  A    between atoms: N_9  and  C_10 
REMARK    3  A    between atoms: C_10  and  C_11 
REMARK       I    between atoms: C_11  and  N_13 
REMARK    4  A    between atoms: N_13  and  C_14 
REMARK    5  A    between atoms: C_14  and  C_15 
ROOT
HETATM    1  C   UNL     1     -42.242 -52.805  11.928  1.00  0.00     0.234 C 
ENDROOT
BRANCH   1   2
HETATM    2  N   UNL     1     -42.980 -53.491  12.990  1.00  0.00    -0.314 N 
HETATM    3  C   UNL     1     -44.353 -53.660  12.836  1.00  0.00     0.247 A 
HETATM    4  C   UNL     1     -45.016 -54.570  13.813  1.00  0.00     0.077 A 
HETATM    5  O   UNL     1     -45.018 -53.124  11.953  1.00  0.00    -0.268 OA
HETATM    6  C   UNL     1     -44.306 -55.158  14.788  1.00  0.00     0.043 A 
HETATM    7  C   UNL     1     -42.888 -54.901  14.907  1.00  0.00     0.118 A 
HETATM    8  C   UNL     1     -42.269 -54.091  14.030  1.00  0.00     0.130 A 
BRANCH   7   9
HETATM    9  N   UNL     1     -42.077 -55.564  15.933  1.00  0.00    -0.114 N 
HETATM   10  O   UNL     1     -42.514 -56.625  16.397  1.00  0.00    -0.532 OA
HETATM   11  O   UNL     1     -41.005 -55.039  16.267  1.00  0.00    -0.532 OA
ENDBRANCH   7   9
ENDBRANCH   1   2
BRANCH   1  12
HETATM   12  C   UNL     1     -41.820 -51.362  12.195  1.00  0.00     0.235 C 
HETATM   13  O   UNL     1     -42.272 -50.750  13.165  1.00  0.00    -0.272 OA
HETATM   14  N   UNL     1     -40.823 -50.836  11.399  1.00  0.00    -0.357 N 
HETATM   15  H   UNL     1     -40.588 -51.282  10.517  1.00  0.00     0.162 HD
BRANCH  14  16
HETATM   16  C   UNL     1     -40.336 -49.496  11.686  1.00  0.00     0.154 C 
BRANCH  16  17
HETATM   17  C   UNL     1     -38.966 -49.431  12.361  1.00  0.00     0.139 C 
HETATM   18  C   UNL     1     -37.931 -50.272  11.616  1.00  0.00     0.035 C 
HETATM   19  C   UNL     1     -37.119 -50.951  12.697  1.00  0.00     0.029 C 
HETATM   20  C   UNL     1     -37.701 -50.436  13.995  1.00  0.00     0.168 C 
HETATM   21  O   UNL     1     -39.022 -49.980  13.687  1.00  0.00    -0.384 OA
ENDBRANCH  16  17
ENDBRANCH  14  16
ENDBRANCH   1  12
TORSDOF 5
ENDMDL
MODEL 8
REMARK VINA RESULT:      -5.4      2.416      3.508
REMARK  5 active torsions:
REMARK  status: ('A' for Active; 'I' for Inactive)
REMARK    1  A    between atoms: N_2  and  C_4 
REMARK    2  A    between atoms: N_9  and  C_10 
REMARK    3  A    between atoms: C_10  and  C_11 
REMARK       I    between atoms: C_11  and  N_13 
REMARK    4  A    between atoms: N_13  and  C_14 
REMARK    5  A    between atoms: C_14  and  C_15 
ROOT
HETATM    1  C   UNL     1     -41.394 -52.743  11.790  1.00  0.00     0.234 C 
ENDROOT
BRANCH   1   2
HETATM    2  N   UNL     1     -41.963 -53.591  12.839  1.00  0.00    -0.314 N 
HETATM    3  C   UNL     1     -41.134 -53.997  13.881  1.00  0.00     0.247 A 
HETATM    4  C   UNL     1     -41.808 -54.645  15.042  1.00  0.00     0.077 A 
HETATM    5  O   UNL     1     -39.915 -53.837  13.895  1.00  0.00    -0.268 OA
HETATM    6  C   UNL     1     -43.137 -54.834  15.041  1.00  0.00     0.043 A 
HETATM    7  C   UNL     1     -43.926 -54.421  13.902  1.00  0.00     0.118 A 
HETATM    8  C   UNL     1     -43.338 -53.825  12.850  1.00  0.00     0.130 A 
BRANCH   7   9
HETATM    9  N   UNL     1     -45.385 -54.572  13.891  1.00  0.00    -0.114 N 
HETATM   10  O   UNL     1     -46.058 -53.534  13.889  1.00  0.00    -0.532 OA
HETATM   11  O   UNL     1     -45.858 -55.717  13.871  1.00  0.00    -0.532 OA
ENDBRANCH   7   9
ENDBRANCH   1   2
BRANCH   1  12
HETATM   12  C   UNL     1     -41.478 -51.232  11.997  1.00  0.00     0.235 C 
HETATM   13  O   UNL     1     -42.040 -50.769  12.991  1.00  0.00    -0.272 OA
HETATM   14  N   UNL     1     -40.788 -50.433  11.109  1.00  0.00    -0.357 N 
HETATM   15  H   UNL     1     -40.480 -50.811  10.217  1.00  0.00     0.162 HD
BRANCH  14  16
HETATM   16  C   UNL     1     -40.773 -48.996  11.331  1.00  0.00     0.154 C 
BRANCH  16  17
HETATM   17  C   UNL     1     -39.458 -48.433  11.871  1.00  0.00     0.139 C 
HETATM   18  C   UNL     1     -38.412 -49.529  12.062  1.00  0.00     0.035 C 
HETATM   19  C   UNL     1     -37.724 -49.196  13.368  1.00  0.00     0.029 C 
HETATM   20  C   UNL     1     -38.379 -47.914  13.832  1.00  0.00     0.168 C 
HETATM   21  O   UNL     1     -39.647 -47.852  13.171  1.00  0.00    -0.384 OA
ENDBRANCH  16  17
ENDBRANCH  14  16
ENDBRANCH   1  12
TORSDOF 5
ENDMDL
MODEL 9
REMARK VINA RESULT:      -5.4      2.629      5.919
REMARK  5 active torsions:
REMARK  status: ('A' for Active; 'I' for Inactive)
REMARK    1  A    between atoms: N_2  and  C_4 
REMARK    2  A    between atoms: N_9  and  C_10 
REMARK    3  A    between atoms: C_10  and  C_11 
REMARK       I    between atoms: C_11  and  N_13 
REMARK    4  A    between atoms: N_13  and  C_14 
REMARK    5  A    between atoms: C_14  and  C_15 
ROOT
HETATM    1  C   UNL     1     -41.249 -52.309  11.812  1.00  0.00     0.234 C 
ENDROOT
BRANCH   1   2
HETATM    2  N   UNL     1     -40.675 -50.988  12.078  1.00  0.00    -0.314 N 
HETATM    3  C   UNL     1     -39.350 -50.918  12.498  1.00  0.00     0.247 A 
HETATM    4  C   UNL     1     -38.740 -49.558  12.518  1.00  0.00     0.077 A 
HETATM    5  O   UNL     1     -38.678 -51.893  12.827  1.00  0.00    -0.268 OA
HETATM    6  C   UNL     1     -39.460 -48.481  12.168  1.00  0.00     0.043 A 
HETATM    7  C   UNL     1     -40.845 -48.631  11.781  1.00  0.00     0.118 A 
HETATM    8  C   UNL     1     -41.412 -49.850  11.747  1.00  0.00     0.130 A 
BRANCH   7   9
HETATM    9  N   UNL     1     -41.645 -47.480  11.350  1.00  0.00    -0.114 N 
HETATM   10  O   UNL     1     -42.780 -47.372  11.831  1.00  0.00    -0.532 OA
HETATM   11  O   UNL     1     -41.142 -46.681  10.548  1.00  0.00    -0.532 OA
ENDBRANCH   7   9
ENDBRANCH   1   2
BRANCH   1  12
HETATM   12  C   UNL     1     -42.088 -52.937  12.922  1.00  0.00     0.235 C 
HETATM   13  O   UNL     1     -41.812 -52.730  14.106  1.00  0.00    -0.272 OA
HETATM   14  N   UNL     1     -43.228 -53.618  12.547  1.00  0.00    -0.357 N 
HETATM   15  H   UNL     1     -43.346 -53.920  11.584  1.00  0.00     0.162 HD
BRANCH  14  16
HETATM   16  C   UNL     1     -44.097 -54.150  13.584  1.00  0.00     0.154 C 
BRANCH  16  17
HETATM   17  C   UNL     1     -45.475 -53.498  13.680  1.00  0.00     0.139 C 
HETATM   18  C   UNL     1     -45.810 -52.701  12.420  1.00  0.00     0.035 C 
HETATM   19  C   UNL     1     -46.482 -51.439  12.916  1.00  0.00     0.029 C 
HETATM   20  C   UNL     1     -46.533 -51.596  14.420  1.00  0.00     0.168 C 
HETATM   21  O   UNL     1     -45.518 -52.548  14.757  1.00  0.00    -0.384 OA
ENDBRANCH  16  17
ENDBRANCH  14  16
ENDBRANCH   1  12
TORSDOF 5
ENDMDL
