MODEL 1
REMARK VINA RESULT:      -6.7      0.000      0.000
REMARK  5 active torsions:
REMARK  status: ('A' for Active; 'I' for Inactive)
REMARK    1  A    between atoms: O_2  and  C_3 
REMARK    2  A    between atoms: C_3  and  C_4 
REMARK    3  A    between atoms: C_4  and  N_5 
REMARK    4  A    between atoms: C_8  and  C_13 
REMARK       I    between atoms: C_13  and  N_15 
REMARK    5  A    between atoms: N_15  and  C_16 
ROOT
HETATM    1  C   UNL     1     -42.402 -48.745  13.150  1.00  0.00     0.269 C 
HETATM    2  O   UNL     1     -41.409 -48.565  13.839  1.00  0.00    -0.266 OA
HETATM    3  N   UNL     1     -43.410 -49.643  13.414  1.00  0.00    -0.351 N 
HETATM    4  H   UNL     1     -44.101 -49.763  12.680  1.00  0.00     0.163 HD
ENDROOT
BRANCH   1   5
HETATM    5  C   UNL     1     -42.625 -47.885  11.897  1.00  0.00     0.116 A 
HETATM    6  N   UNL     1     -43.559 -48.214  11.057  1.00  0.00    -0.290 N 
HETATM    7  N   UNL     1     -43.731 -47.382   9.953  1.00  0.00    -0.255 N 
ATOM      8  HN  UNL     1     -44.138 -49.041  11.198  1.00  0.00     0.187 HD
HETATM    9  C   UNL     1     -42.920 -46.285   9.671  1.00  0.00     0.262 A 
HETATM   10  C   UNL     1     -41.902 -45.950  10.684  1.00  0.00     0.078 A 
HETATM   11  O   UNL     1     -42.999 -45.596   8.659  1.00  0.00    -0.267 OA
HETATM   12  C   UNL     1     -41.746 -46.707  11.770  1.00  0.00     0.042 A 
BRANCH   7  13
HETATM   13  C   UNL     1     -44.759 -47.759   8.993  1.00  0.00     0.178 C 
BRANCH  13  14
HETATM   14  C   UNL     1     -46.085 -47.049   9.269  1.00  0.00     0.189 C 
BRANCH  14  15
HETATM   15  O   UNL     1     -47.160 -47.799   8.697  1.00  0.00    -0.394 OA
HETATM   16  C   UNL     1     -46.690 -48.992   8.084  1.00  0.00     0.201 C 
ENDBRANCH  14  15
ENDBRANCH  13  14
ENDBRANCH   7  13
ENDBRANCH   1   5
BRANCH   3  17
HETATM   17  C   UNL     1     -43.482 -50.424  14.639  1.00  0.00     0.086 C 
HETATM   18  C   UNL     1     -42.631 -51.706  14.575  1.00  0.00     0.034 C 
HETATM   19  C   UNL     1     -43.242 -52.886  13.774  1.00  0.00    -0.045 C 
HETATM   20  C   UNL     1     -43.036 -52.710  12.259  1.00  0.00     0.015 C 
HETATM   21  C   UNL     1     -42.478 -54.182  14.147  1.00  0.00     0.015 C 
HETATM   22  C   UNL     1     -44.733 -53.100  14.149  1.00  0.00     0.017 C 
HETATM   23  C   UNL     1     -45.626 -51.840  14.220  1.00  0.00    -0.045 C 
HETATM   24  C   UNL     1     -46.027 -51.330  12.825  1.00  0.00     0.015 C 
HETATM   25  C   UNL     1     -46.953 -52.212  14.927  1.00  0.00     0.015 C 
HETATM   26  C   UNL     1     -44.921 -50.762  15.071  1.00  0.00     0.034 C 
ENDBRANCH   3  17
TORSDOF 5
ENDMDL
MODEL 2
REMARK VINA RESULT:      -6.6      2.114      3.568
REMARK  5 active torsions:
REMARK  status: ('A' for Active; 'I' for Inactive)
REMARK    1  A    between atoms: O_2  and  C_3 
REMARK    2  A    between atoms: C_3  and  C_4 
REMARK    3  A    between atoms: C_4  and  N_5 
REMARK    4  A    between atoms: C_8  and  C_13 
REMARK       I    between atoms: C_13  and  N_15 
REMARK    5  A    between atoms: N_15  and  C_16 
ROOT
HETATM    1  C   UNL     1     -41.551 -51.853  11.893  1.00  0.00     0.269 C 
HETATM    2  O   UNL     1     -40.698 -52.712  11.730  1.00  0.00    -0.266 OA
HETATM    3  N   UNL     1     -42.860 -52.081  12.249  1.00  0.00    -0.351 N 
HETATM    4  H   UNL     1     -43.475 -51.274  12.219  1.00  0.00     0.163 HD
ENDROOT
BRANCH   1   5
HETATM    5  C   UNL     1     -41.176 -50.370  11.753  1.00  0.00     0.116 A 
HETATM    6  N   UNL     1     -42.114 -49.490  11.579  1.00  0.00    -0.290 N 
HETATM    7  N   UNL     1     -41.715 -48.159  11.485  1.00  0.00    -0.255 N 
ATOM      8  HN  UNL     1     -43.095 -49.760  11.514  1.00  0.00     0.187 HD
HETATM    9  C   UNL     1     -40.385 -47.742  11.490  1.00  0.00     0.262 A 
HETATM   10  C   UNL     1     -39.375 -48.791  11.726  1.00  0.00     0.078 A 
HETATM   11  O   UNL     1     -40.011 -46.587  11.319  1.00  0.00    -0.267 OA
HETATM   12  C   UNL     1     -39.736 -50.067  11.861  1.00  0.00     0.042 A 
BRANCH   7  13
HETATM   13  C   UNL     1     -42.759 -47.168  11.264  1.00  0.00     0.178 C 
BRANCH  13  14
HETATM   14  C   UNL     1     -43.639 -47.525  10.066  1.00  0.00     0.189 C 
BRANCH  14  15
HETATM   15  O   UNL     1     -42.816 -47.870   8.950  1.00  0.00    -0.394 OA
HETATM   16  C   UNL     1     -43.563 -47.881   7.740  1.00  0.00     0.201 C 
ENDBRANCH  14  15
ENDBRANCH  13  14
ENDBRANCH   7  13
ENDBRANCH   1   5
BRANCH   3  17
HETATM   17  C   UNL     1     -43.374 -53.395  12.603  1.00  0.00     0.086 C 
HETATM   18  C   UNL     1     -44.891 -53.389  12.863  1.00  0.00     0.034 C 
HETATM   19  C   UNL     1     -45.341 -52.831  14.239  1.00  0.00    -0.045 C 
HETATM   20  C   UNL     1     -45.363 -51.292  14.247  1.00  0.00     0.015 C 
HETATM   21  C   UNL     1     -46.807 -53.267  14.492  1.00  0.00     0.015 C 
HETATM   22  C   UNL     1     -44.476 -53.417  15.387  1.00  0.00     0.017 C 
HETATM   23  C   UNL     1     -42.945 -53.439  15.171  1.00  0.00    -0.045 C 
HETATM   24  C   UNL     1     -42.309 -52.052  15.369  1.00  0.00     0.015 C 
HETATM   25  C   UNL     1     -42.306 -54.351  16.246  1.00  0.00     0.015 C 
HETATM   26  C   UNL     1     -42.634 -54.047  13.786  1.00  0.00     0.034 C 
ENDBRANCH   3  17
TORSDOF 5
ENDMDL
MODEL 3
REMARK VINA RESULT:      -6.5      3.272      6.616
REMARK  5 active torsions:
REMARK  status: ('A' for Active; 'I' for Inactive)
REMARK    1  A    between atoms: O_2  and  C_3 
REMARK    2  A    between atoms: C_3  and  C_4 
REMARK    3  A    between atoms: C_4  and  N_5 
REMARK    4  A    between atoms: C_8  and  C_13 
REMARK       I    between atoms: C_13  and  N_15 
REMARK    5  A    between atoms: N_15  and  C_16 
ROOT
HETATM    1  C   UNL     1     -41.234 -51.977  12.271  1.00  0.00     0.269 C 
HETATM    2  O   UNL     1     -40.141 -52.502  12.117  1.00  0.00    -0.266 OA
HETATM    3  N   UNL     1     -41.548 -50.674  11.963  1.00  0.00    -0.351 N 
HETATM    4  H   UNL     1     -42.462 -50.355  12.268  1.00  0.00     0.163 HD
ENDROOT
BRANCH   1   5
HETATM    5  C   UNL     1     -42.411 -52.811  12.799  1.00  0.00     0.116 A 
HETATM    6  N   UNL     1     -43.621 -52.498  12.449  1.00  0.00    -0.290 N 
HETATM    7  N   UNL     1     -44.644 -53.305  12.939  1.00  0.00    -0.255 N 
ATOM      8  HN  UNL     1     -43.812 -51.699  11.845  1.00  0.00     0.187 HD
HETATM    9  C   UNL     1     -44.447 -54.360  13.827  1.00  0.00     0.262 A 
HETATM   10  C   UNL     1     -43.045 -54.681  14.156  1.00  0.00     0.078 A 
HETATM   11  O   UNL     1     -45.342 -55.024  14.339  1.00  0.00    -0.267 OA
HETATM   12  C   UNL     1     -42.045 -53.948  13.666  1.00  0.00     0.042 A 
BRANCH   7  13
HETATM   13  C   UNL     1     -46.007 -52.944  12.571  1.00  0.00     0.178 C 
BRANCH  13  14
HETATM   14  C   UNL     1     -46.313 -51.480  12.885  1.00  0.00     0.189 C 
BRANCH  14  15
HETATM   15  O   UNL     1     -45.887 -51.173  14.215  1.00  0.00    -0.394 OA
HETATM   16  C   UNL     1     -46.899 -51.480  15.165  1.00  0.00     0.201 C 
ENDBRANCH  14  15
ENDBRANCH  13  14
ENDBRANCH   7  13
ENDBRANCH   1   5
BRANCH   3  17
HETATM   17  C   UNL     1     -40.631 -49.770  11.288  1.00  0.00     0.086 C 
HETATM   18  C   UNL     1     -39.510 -49.262  12.214  1.00  0.00     0.034 C 
HETATM   19  C   UNL     1     -39.908 -48.135  13.204  1.00  0.00    -0.045 C 
HETATM   20  C   UNL     1     -40.634 -48.697  14.440  1.00  0.00     0.015 C 
HETATM   21  C   UNL     1     -38.614 -47.478  13.748  1.00  0.00     0.015 C 
HETATM   22  C   UNL     1     -40.727 -47.029  12.488  1.00  0.00     0.017 C 
HETATM   23  C   UNL     1     -41.866 -47.493  11.551  1.00  0.00    -0.045 C 
HETATM   24  C   UNL     1     -43.114 -47.944  12.330  1.00  0.00     0.015 C 
HETATM   25  C   UNL     1     -42.322 -46.290  10.690  1.00  0.00     0.015 C 
HETATM   26  C   UNL     1     -41.330 -48.584  10.599  1.00  0.00     0.034 C 
ENDBRANCH   3  17
TORSDOF 5
ENDMDL
MODEL 4
REMARK VINA RESULT:      -6.4      4.791      7.151
REMARK  5 active torsions:
REMARK  status: ('A' for Active; 'I' for Inactive)
REMARK    1  A    between atoms: O_2  and  C_3 
REMARK    2  A    between atoms: C_3  and  C_4 
REMARK    3  A    between atoms: C_4  and  N_5 
REMARK    4  A    between atoms: C_8  and  C_13 
REMARK       I    between atoms: C_13  and  N_15 
REMARK    5  A    between atoms: N_15  and  C_16 
ROOT
HETATM    1  C   UNL     1     -43.215 -54.716  15.422  1.00  0.00     0.269 C 
HETATM    2  O   UNL     1     -43.470 -55.905  15.301  1.00  0.00    -0.266 OA
HETATM    3  N   UNL     1     -44.103 -53.682  15.233  1.00  0.00    -0.351 N 
HETATM    4  H   UNL     1     -43.705 -52.749  15.247  1.00  0.00     0.163 HD
ENDROOT
BRANCH   1   5
HETATM    5  C   UNL     1     -41.814 -54.280  15.876  1.00  0.00     0.116 A 
HETATM    6  N   UNL     1     -40.995 -53.768  15.009  1.00  0.00    -0.290 N 
HETATM    7  N   UNL     1     -39.749 -53.368  15.484  1.00  0.00    -0.255 N 
ATOM      8  HN  UNL     1     -41.251 -53.664  14.028  1.00  0.00     0.187 HD
HETATM    9  C   UNL     1     -39.318 -53.557  16.795  1.00  0.00     0.262 A 
HETATM   10  C   UNL     1     -40.311 -54.112  17.734  1.00  0.00     0.078 A 
HETATM   11  O   UNL     1     -38.193 -53.294  17.210  1.00  0.00    -0.267 OA
HETATM   12  C   UNL     1     -41.525 -54.464  17.311  1.00  0.00     0.042 A 
BRANCH   7  13
HETATM   13  C   UNL     1     -38.814 -52.816  14.512  1.00  0.00     0.178 C 
BRANCH  13  14
HETATM   14  C   UNL     1     -39.487 -51.803  13.586  1.00  0.00     0.189 C 
BRANCH  14  15
HETATM   15  O   UNL     1     -40.093 -52.485  12.485  1.00  0.00    -0.394 OA
HETATM   16  C   UNL     1     -41.153 -51.721  11.925  1.00  0.00     0.201 C 
ENDBRANCH  14  15
ENDBRANCH  13  14
ENDBRANCH   7  13
ENDBRANCH   1   5
BRANCH   3  17
HETATM   17  C   UNL     1     -45.520 -53.885  14.976  1.00  0.00     0.086 C 
HETATM   18  C   UNL     1     -45.930 -53.470  13.551  1.00  0.00     0.034 C 
HETATM   19  C   UNL     1     -46.093 -51.947  13.308  1.00  0.00    -0.045 C 
HETATM   20  C   UNL     1     -44.733 -51.259  13.086  1.00  0.00     0.015 C 
HETATM   21  C   UNL     1     -46.881 -51.739  11.990  1.00  0.00     0.015 C 
HETATM   22  C   UNL     1     -46.911 -51.286  14.450  1.00  0.00     0.017 C 
HETATM   23  C   UNL     1     -46.531 -51.670  15.899  1.00  0.00    -0.045 C 
HETATM   24  C   UNL     1     -45.252 -50.958  16.373  1.00  0.00     0.015 C 
HETATM   25  C   UNL     1     -47.654 -51.190  16.850  1.00  0.00     0.015 C 
HETATM   26  C   UNL     1     -46.437 -53.207  16.011  1.00  0.00     0.034 C 
ENDBRANCH   3  17
TORSDOF 5
ENDMDL
MODEL 5
REMARK VINA RESULT:      -6.0      3.455      4.781
REMARK  5 active torsions:
REMARK  status: ('A' for Active; 'I' for Inactive)
REMARK    1  A    between atoms: O_2  and  C_3 
REMARK    2  A    between atoms: C_3  and  C_4 
REMARK    3  A    between atoms: C_4  and  N_5 
REMARK    4  A    between atoms: C_8  and  C_13 
REMARK       I    between atoms: C_13  and  N_15 
REMARK    5  A    between atoms: N_15  and  C_16 
ROOT
HETATM    1  C   UNL     1     -40.869 -52.860  14.634  1.00  0.00     0.269 C 
HETATM    2  O   UNL     1     -40.329 -53.760  15.260  1.00  0.00    -0.266 OA
HETATM    3  N   UNL     1     -42.206 -52.542  14.681  1.00  0.00    -0.351 N 
HETATM    4  H   UNL     1     -42.522 -51.852  14.006  1.00  0.00     0.163 HD
ENDROOT
BRANCH   1   5
HETATM    5  C   UNL     1     -40.023 -51.938  13.743  1.00  0.00     0.116 A 
HETATM    6  N   UNL     1     -40.607 -51.229  12.826  1.00  0.00    -0.290 N 
HETATM    7  N   UNL     1     -39.792 -50.392  12.067  1.00  0.00    -0.255 N 
ATOM      8  HN  UNL     1     -41.613 -51.282  12.668  1.00  0.00     0.187 HD
HETATM    9  C   UNL     1     -38.405 -50.337  12.187  1.00  0.00     0.262 A 
HETATM   10  C   UNL     1     -37.813 -51.143  13.271  1.00  0.00     0.078 A 
HETATM   11  O   UNL     1     -37.664 -49.675  11.468  1.00  0.00    -0.267 OA
HETATM   12  C   UNL     1     -38.578 -51.920  14.039  1.00  0.00     0.042 A 
BRANCH   7  13
HETATM   13  C   UNL     1     -40.436 -49.613  11.018  1.00  0.00     0.178 C 
BRANCH  13  14
HETATM   14  C   UNL     1     -40.953 -48.272  11.540  1.00  0.00     0.189 C 
BRANCH  14  15
HETATM   15  O   UNL     1     -39.971 -47.257  11.313  1.00  0.00    -0.394 OA
HETATM   16  C   UNL     1     -40.564 -46.071  10.799  1.00  0.00     0.201 C 
ENDBRANCH  14  15
ENDBRANCH  13  14
ENDBRANCH   7  13
ENDBRANCH   1   5
BRANCH   3  17
HETATM   17  C   UNL     1     -43.145 -53.174  15.594  1.00  0.00     0.086 C 
HETATM   18  C   UNL     1     -43.758 -54.463  15.017  1.00  0.00     0.034 C 
HETATM   19  C   UNL     1     -44.889 -54.267  13.973  1.00  0.00    -0.045 C 
HETATM   20  C   UNL     1     -44.324 -53.945  12.577  1.00  0.00     0.015 C 
HETATM   21  C   UNL     1     -45.649 -55.608  13.812  1.00  0.00     0.015 C 
HETATM   22  C   UNL     1     -45.914 -53.206  14.455  1.00  0.00     0.017 C 
HETATM   23  C   UNL     1     -45.343 -51.893  15.039  1.00  0.00    -0.045 C 
HETATM   24  C   UNL     1     -44.838 -50.939  13.942  1.00  0.00     0.015 C 
HETATM   25  C   UNL     1     -46.483 -51.134  15.762  1.00  0.00     0.015 C 
HETATM   26  C   UNL     1     -44.258 -52.229  16.085  1.00  0.00     0.034 C 
ENDBRANCH   3  17
TORSDOF 5
ENDMDL
MODEL 6
REMARK VINA RESULT:      -5.9      3.404      5.692
REMARK  5 active torsions:
REMARK  status: ('A' for Active; 'I' for Inactive)
REMARK    1  A    between atoms: O_2  and  C_3 
REMARK    2  A    between atoms: C_3  and  C_4 
REMARK    3  A    between atoms: C_4  and  N_5 
REMARK    4  A    between atoms: C_8  and  C_13 
REMARK       I    between atoms: C_13  and  N_15 
REMARK    5  A    between atoms: N_15  and  C_16 
ROOT
HETATM    1  C   UNL     1     -44.483 -53.293  13.336  1.00  0.00     0.269 C 
HETATM    2  O   UNL     1     -44.972 -54.167  12.636  1.00  0.00    -0.266 OA
HETATM    3  N   UNL     1     -45.081 -52.714  14.431  1.00  0.00    -0.351 N 
HETATM    4  H   UNL     1     -44.598 -51.914  14.829  1.00  0.00     0.163 HD
ENDROOT
BRANCH   1   5
HETATM    5  C   UNL     1     -43.057 -52.796  13.049  1.00  0.00     0.116 A 
HETATM    6  N   UNL     1     -42.886 -51.617  12.534  1.00  0.00    -0.290 N 
HETATM    7  N   UNL     1     -41.571 -51.211  12.321  1.00  0.00    -0.255 N 
ATOM      8  HN  UNL     1     -43.675 -51.017  12.298  1.00  0.00     0.187 HD
HETATM    9  C   UNL     1     -40.459 -52.019  12.553  1.00  0.00     0.262 A 
HETATM   10  C   UNL     1     -40.726 -53.332  13.169  1.00  0.00     0.078 A 
HETATM   11  O   UNL     1     -39.302 -51.713  12.287  1.00  0.00    -0.267 OA
HETATM   12  C   UNL     1     -41.974 -53.726  13.422  1.00  0.00     0.042 A 
BRANCH   7  13
HETATM   13  C   UNL     1     -41.371 -49.900  11.720  1.00  0.00     0.178 C 
BRANCH  13  14
HETATM   14  C   UNL     1     -42.260 -48.836  12.364  1.00  0.00     0.189 C 
BRANCH  14  15
HETATM   15  O   UNL     1     -42.317 -49.047  13.777  1.00  0.00    -0.394 OA
HETATM   16  C   UNL     1     -42.772 -47.884  14.455  1.00  0.00     0.201 C 
ENDBRANCH  14  15
ENDBRANCH  13  14
ENDBRANCH   7  13
ENDBRANCH   1   5
BRANCH   3  17
HETATM   17  C   UNL     1     -46.351 -53.165  14.978  1.00  0.00     0.086 C 
HETATM   18  C   UNL     1     -47.229 -52.002  15.475  1.00  0.00     0.034 C 
HETATM   19  C   UNL     1     -46.839 -51.399  16.851  1.00  0.00    -0.045 C 
HETATM   20  C   UNL     1     -45.660 -50.417  16.726  1.00  0.00     0.015 C 
HETATM   21  C   UNL     1     -48.029 -50.553  17.372  1.00  0.00     0.015 C 
HETATM   22  C   UNL     1     -46.570 -52.518  17.893  1.00  0.00     0.017 C 
HETATM   23  C   UNL     1     -45.689 -53.704  17.438  1.00  0.00    -0.045 C 
HETATM   24  C   UNL     1     -44.194 -53.341  17.408  1.00  0.00     0.015 C 
HETATM   25  C   UNL     1     -45.822 -54.847  18.473  1.00  0.00     0.015 C 
HETATM   26  C   UNL     1     -46.203 -54.230  16.080  1.00  0.00     0.034 C 
ENDBRANCH   3  17
TORSDOF 5
ENDMDL
MODEL 7
REMARK VINA RESULT:      -5.9      4.691      7.243
REMARK  5 active torsions:
REMARK  status: ('A' for Active; 'I' for Inactive)
REMARK    1  A    between atoms: O_2  and  C_3 
REMARK    2  A    between atoms: C_3  and  C_4 
REMARK    3  A    between atoms: C_4  and  N_5 
REMARK    4  A    between atoms: C_8  and  C_13 
REMARK       I    between atoms: C_13  and  N_15 
REMARK    5  A    between atoms: N_15  and  C_16 
ROOT
HETATM    1  C   UNL     1     -44.263 -53.536  13.509  1.00  0.00     0.269 C 
HETATM    2  O   UNL     1     -44.766 -54.354  12.753  1.00  0.00    -0.266 OA
HETATM    3  N   UNL     1     -44.878 -52.969  14.601  1.00  0.00    -0.351 N 
HETATM    4  H   UNL     1     -44.372 -52.212  15.051  1.00  0.00     0.163 HD
ENDROOT
BRANCH   1   5
HETATM    5  C   UNL     1     -42.804 -53.104  13.301  1.00  0.00     0.116 A 
HETATM    6  N   UNL     1     -41.846 -53.906  13.656  1.00  0.00    -0.290 N 
HETATM    7  N   UNL     1     -40.544 -53.472  13.420  1.00  0.00    -0.255 N 
ATOM      8  HN  UNL     1     -42.038 -54.810  14.087  1.00  0.00     0.187 HD
HETATM    9  C   UNL     1     -40.223 -52.217  12.906  1.00  0.00     0.262 A 
HETATM   10  C   UNL     1     -41.359 -51.372  12.494  1.00  0.00     0.078 A 
HETATM   11  O   UNL     1     -39.083 -51.783  12.776  1.00  0.00    -0.267 OA
HETATM   12  C   UNL     1     -42.615 -51.784  12.671  1.00  0.00     0.042 A 
BRANCH   7  13
HETATM   13  C   UNL     1     -39.465 -54.355  13.839  1.00  0.00     0.178 C 
BRANCH  13  14
HETATM   14  C   UNL     1     -39.642 -54.828  15.282  1.00  0.00     0.189 C 
BRANCH  14  15
HETATM   15  O   UNL     1     -38.811 -55.966  15.521  1.00  0.00    -0.394 OA
HETATM   16  C   UNL     1     -37.874 -55.712  16.560  1.00  0.00     0.201 C 
ENDBRANCH  14  15
ENDBRANCH  13  14
ENDBRANCH   7  13
ENDBRANCH   1   5
BRANCH   3  17
HETATM   17  C   UNL     1     -46.191 -53.373  15.076  1.00  0.00     0.086 C 
HETATM   18  C   UNL     1     -47.089 -52.173  15.432  1.00  0.00     0.034 C 
HETATM   19  C   UNL     1     -46.795 -51.488  16.793  1.00  0.00    -0.045 C 
HETATM   20  C   UNL     1     -45.597 -50.527  16.698  1.00  0.00     0.015 C 
HETATM   21  C   UNL     1     -48.009 -50.600  17.169  1.00  0.00     0.015 C 
HETATM   22  C   UNL     1     -46.622 -52.541  17.920  1.00  0.00     0.017 C 
HETATM   23  C   UNL     1     -45.725 -53.762  17.608  1.00  0.00    -0.045 C 
HETATM   24  C   UNL     1     -44.227 -53.415  17.670  1.00  0.00     0.015 C 
HETATM   25  C   UNL     1     -45.952 -54.836  18.700  1.00  0.00     0.015 C 
HETATM   26  C   UNL     1     -46.143 -54.368  16.251  1.00  0.00     0.034 C 
ENDBRANCH   3  17
TORSDOF 5
ENDMDL
MODEL 8
REMARK VINA RESULT:      -5.8      4.767      7.893
REMARK  5 active torsions:
REMARK  status: ('A' for Active; 'I' for Inactive)
REMARK    1  A    between atoms: O_2  and  C_3 
REMARK    2  A    between atoms: C_3  and  C_4 
REMARK    3  A    between atoms: C_4  and  N_5 
REMARK    4  A    between atoms: C_8  and  C_13 
REMARK       I    between atoms: C_13  and  N_15 
REMARK    5  A    between atoms: N_15  and  C_16 
ROOT
HETATM    1  C   UNL     1     -44.805 -53.591  13.901  1.00  0.00     0.269 C 
HETATM    2  O   UNL     1     -45.288 -54.398  13.120  1.00  0.00    -0.266 OA
HETATM    3  N   UNL     1     -43.505 -53.140  13.886  1.00  0.00    -0.351 N 
HETATM    4  H   UNL     1     -43.225 -52.570  14.678  1.00  0.00     0.163 HD
ENDROOT
BRANCH   1   5
HETATM    5  C   UNL     1     -45.691 -52.951  14.980  1.00  0.00     0.116 A 
HETATM    6  N   UNL     1     -45.654 -53.414  16.192  1.00  0.00    -0.290 N 
HETATM    7  N   UNL     1     -46.459 -52.776  17.132  1.00  0.00    -0.255 N 
ATOM      8  HN  UNL     1     -45.062 -54.206  16.444  1.00  0.00     0.187 HD
HETATM    9  C   UNL     1     -47.342 -51.743  16.828  1.00  0.00     0.262 A 
HETATM   10  C   UNL     1     -47.309 -51.245  15.440  1.00  0.00     0.078 A 
HETATM   11  O   UNL     1     -48.124 -51.231  17.622  1.00  0.00    -0.267 OA
HETATM   12  C   UNL     1     -46.514 -51.811  14.532  1.00  0.00     0.042 A 
BRANCH   7  13
HETATM   13  C   UNL     1     -46.442 -53.307  18.489  1.00  0.00     0.178 C 
BRANCH  13  14
HETATM   14  C   UNL     1     -45.584 -54.567  18.597  1.00  0.00     0.189 C 
BRANCH  14  15
HETATM   15  O   UNL     1     -46.420 -55.696  18.865  1.00  0.00    -0.394 OA
HETATM   16  C   UNL     1     -45.936 -56.447  19.971  1.00  0.00     0.201 C 
ENDBRANCH  14  15
ENDBRANCH  13  14
ENDBRANCH   7  13
ENDBRANCH   1   5
BRANCH   3  17
HETATM   17  C   UNL     1     -42.554 -53.484  12.842  1.00  0.00     0.086 C 
HETATM   18  C   UNL     1     -41.382 -54.337  13.363  1.00  0.00     0.034 C 
HETATM   19  C   UNL     1     -40.276 -53.570  14.134  1.00  0.00    -0.045 C 
HETATM   20  C   UNL     1     -40.686 -53.295  15.592  1.00  0.00     0.015 C 
HETATM   21  C   UNL     1     -39.020 -54.474  14.222  1.00  0.00     0.015 C 
HETATM   22  C   UNL     1     -39.867 -52.277  13.380  1.00  0.00     0.017 C 
HETATM   23  C   UNL     1     -41.011 -51.386  12.843  1.00  0.00    -0.045 C 
HETATM   24  C   UNL     1     -41.674 -50.555  13.955  1.00  0.00     0.015 C 
HETATM   25  C   UNL     1     -40.415 -50.358  11.850  1.00  0.00     0.015 C 
HETATM   26  C   UNL     1     -42.020 -52.263  12.070  1.00  0.00     0.034 C 
ENDBRANCH   3  17
TORSDOF 5
ENDMDL
MODEL 9
REMARK VINA RESULT:      -5.8      4.335      7.792
REMARK  5 active torsions:
REMARK  status: ('A' for Active; 'I' for Inactive)
REMARK    1  A    between atoms: O_2  and  C_3 
REMARK    2  A    between atoms: C_3  and  C_4 
REMARK    3  A    between atoms: C_4  and  N_5 
REMARK    4  A    between atoms: C_8  and  C_13 
REMARK       I    between atoms: C_13  and  N_15 
REMARK    5  A    between atoms: N_15  and  C_16 
ROOT
HETATM    1  C   UNL     1     -41.896 -51.587  14.597  1.00  0.00     0.269 C 
HETATM    2  O   UNL     1     -41.410 -50.603  14.060  1.00  0.00    -0.266 OA
HETATM    3  N   UNL     1     -43.205 -51.718  14.998  1.00  0.00    -0.351 N 
HETATM    4  H   UNL     1     -43.421 -52.547  15.543  1.00  0.00     0.163 HD
ENDROOT
BRANCH   1   5
HETATM    5  C   UNL     1     -41.031 -52.838  14.819  1.00  0.00     0.116 A 
HETATM    6  N   UNL     1     -41.444 -53.760  15.634  1.00  0.00    -0.290 N 
HETATM    7  N   UNL     1     -40.631 -54.882  15.775  1.00  0.00    -0.255 N 
ATOM      8  HN  UNL     1     -42.321 -53.668  16.145  1.00  0.00     0.187 HD
HETATM    9  C   UNL     1     -39.388 -55.025  15.162  1.00  0.00     0.262 A 
HETATM   10  C   UNL     1     -38.997 -53.955  14.225  1.00  0.00     0.078 A 
HETATM   11  O   UNL     1     -38.619 -55.963  15.345  1.00  0.00    -0.267 OA
HETATM   12  C   UNL     1     -39.779 -52.891  14.040  1.00  0.00     0.042 A 
BRANCH   7  13
HETATM   13  C   UNL     1     -41.075 -55.910  16.707  1.00  0.00     0.178 C 
BRANCH  13  14
HETATM   14  C   UNL     1     -41.225 -55.365  18.128  1.00  0.00     0.189 C 
BRANCH  14  15
HETATM   15  O   UNL     1     -39.947 -54.962  18.627  1.00  0.00    -0.394 OA
HETATM   16  C   UNL     1     -40.019 -53.697  19.269  1.00  0.00     0.201 C 
ENDBRANCH  14  15
ENDBRANCH  13  14
ENDBRANCH   7  13
ENDBRANCH   1   5
BRANCH   3  17
HETATM   17  C   UNL     1     -44.228 -50.723  14.719  1.00  0.00     0.086 C 
HETATM   18  C   UNL     1     -45.282 -50.625  15.837  1.00  0.00     0.034 C 
HETATM   19  C   UNL     1     -46.358 -51.743  15.853  1.00  0.00    -0.045 C 
HETATM   20  C   UNL     1     -45.828 -53.032  16.506  1.00  0.00     0.015 C 
HETATM   21  C   UNL     1     -47.535 -51.279  16.749  1.00  0.00     0.015 C 
HETATM   22  C   UNL     1     -46.925 -51.990  14.430  1.00  0.00     0.017 C 
HETATM   23  C   UNL     1     -45.902 -52.100  13.276  1.00  0.00    -0.045 C 
HETATM   24  C   UNL     1     -45.192 -53.464  13.255  1.00  0.00     0.015 C 
HETATM   25  C   UNL     1     -46.660 -52.001  11.929  1.00  0.00     0.015 C 
HETATM   26  C   UNL     1     -44.916 -50.914  13.354  1.00  0.00     0.034 C 
ENDBRANCH   3  17
TORSDOF 5
ENDMDL
