MODEL 1
REMARK VINA RESULT:      -6.0      0.000      0.000
REMARK  4 active torsions:
REMARK  status: ('A' for Active; 'I' for Inactive)
REMARK    1  A    between atoms: C_2  and  N_3 
REMARK    2  A    between atoms: C_5  and  N_6 
REMARK       I    between atoms: N_6  and  C_7 
REMARK       I    between atoms: C_7  and  N_9 
REMARK    3  A    between atoms: N_9  and  C_10 
REMARK    4  A    between atoms: C_10  and  C_11 
ROOT
HETATM    1  N   UNL     1     -41.764 -48.386   9.772  1.00  0.00    -0.306 N 
HETATM    2  C   UNL     1     -41.556 -49.054  10.959  1.00  0.00     0.320 C 
HETATM    3  O   UNL     1     -42.203 -48.913  11.990  1.00  0.00    -0.247 OA
HETATM    4  N   UNL     1     -40.471 -49.902  10.898  1.00  0.00    -0.340 N 
HETATM    5  H   UNL     1     -41.142 -48.571   9.001  1.00  0.00     0.171 HD
HETATM    6  H   UNL     1     -40.234 -50.305  10.002  1.00  0.00     0.164 HD
ENDROOT
BRANCH   1   7
HETATM    7  C   UNL     1     -42.744 -47.426   9.586  1.00  0.00     0.070 A 
HETATM    8  C   UNL     1     -44.049 -47.615   9.202  1.00  0.00     0.141 A 
HETATM    9  N   UNL     1     -44.625 -46.382   9.150  1.00  0.00    -0.302 N 
HETATM   10  N   UNL     1     -43.784 -45.384   9.485  1.00  0.00    -0.308 N 
HETATM   11  C   UNL     1     -42.639 -46.025   9.748  1.00  0.00     0.138 A 
ATOM     12  HN  UNL     1     -43.974 -44.383   9.527  1.00  0.00     0.186 HD
BRANCH   9  13
HETATM   13  C   UNL     1     -45.994 -46.101   8.763  1.00  0.00     0.143 C 
HETATM   14  C   UNL     1     -46.917 -47.267   9.069  1.00  0.00     0.028 C 
ENDBRANCH   9  13
ENDBRANCH   1   7
BRANCH   4  15
HETATM   15  C   UNL     1     -40.150 -50.721  12.058  1.00  0.00     0.156 C 
BRANCH  15  16
HETATM   16  C   UNL     1     -40.747 -52.123  11.983  1.00  0.00     0.139 C 
HETATM   17  C   UNL     1     -42.159 -52.249  12.537  1.00  0.00     0.035 C 
HETATM   18  C   UNL     1     -42.196 -53.632  13.154  1.00  0.00     0.029 C 
HETATM   19  C   UNL     1     -40.806 -54.194  12.941  1.00  0.00     0.168 C 
HETATM   20  O   UNL     1     -39.956 -53.062  12.730  1.00  0.00    -0.384 OA
ENDBRANCH  15  16
ENDBRANCH   4  15
TORSDOF 4
ENDMDL
MODEL 2
REMARK VINA RESULT:      -5.9      1.922      6.728
REMARK  4 active torsions:
REMARK  status: ('A' for Active; 'I' for Inactive)
REMARK    1  A    between atoms: C_2  and  N_3 
REMARK    2  A    between atoms: C_5  and  N_6 
REMARK       I    between atoms: N_6  and  C_7 
REMARK       I    between atoms: C_7  and  N_9 
REMARK    3  A    between atoms: N_9  and  C_10 
REMARK    4  A    between atoms: C_10  and  C_11 
ROOT
HETATM    1  N   UNL     1     -40.912 -49.279  10.374  1.00  0.00    -0.306 N 
HETATM    2  C   UNL     1     -41.912 -48.358  10.596  1.00  0.00     0.320 C 
HETATM    3  O   UNL     1     -42.449 -48.120  11.671  1.00  0.00    -0.247 OA
HETATM    4  N   UNL     1     -42.309 -47.729   9.435  1.00  0.00    -0.340 N 
HETATM    5  H   UNL     1     -40.572 -49.402   9.433  1.00  0.00     0.171 HD
HETATM    6  H   UNL     1     -41.627 -47.620   8.698  1.00  0.00     0.164 HD
ENDROOT
BRANCH   1   7
HETATM    7  C   UNL     1     -40.381 -50.098  11.357  1.00  0.00     0.070 A 
HETATM    8  C   UNL     1     -40.926 -51.242  11.887  1.00  0.00     0.141 A 
HETATM    9  N   UNL     1     -40.047 -51.698  12.822  1.00  0.00    -0.302 N 
HETATM   10  N   UNL     1     -38.945 -50.931  12.939  1.00  0.00    -0.308 N 
HETATM   11  C   UNL     1     -39.154 -49.957  12.045  1.00  0.00     0.138 A 
ATOM     12  HN  UNL     1     -38.146 -51.061  13.559  1.00  0.00     0.186 HD
BRANCH   9  13
HETATM   13  C   UNL     1     -40.227 -52.871  13.654  1.00  0.00     0.143 C 
HETATM   14  C   UNL     1     -40.945 -53.985  12.912  1.00  0.00     0.028 C 
ENDBRANCH   9  13
ENDBRANCH   1   7
BRANCH   4  15
HETATM   15  C   UNL     1     -43.322 -46.687   9.510  1.00  0.00     0.156 C 
BRANCH  15  16
HETATM   16  C   UNL     1     -44.569 -47.006   8.691  1.00  0.00     0.139 C 
HETATM   17  C   UNL     1     -45.803 -47.352   9.511  1.00  0.00     0.035 C 
HETATM   18  C   UNL     1     -46.527 -48.390   8.679  1.00  0.00     0.029 C 
HETATM   19  C   UNL     1     -45.652 -48.593   7.459  1.00  0.00     0.168 C 
HETATM   20  O   UNL     1     -44.348 -48.139   7.834  1.00  0.00    -0.384 OA
ENDBRANCH  15  16
ENDBRANCH   4  15
TORSDOF 4
ENDMDL
MODEL 3
REMARK VINA RESULT:      -5.8      2.230      7.001
REMARK  4 active torsions:
REMARK  status: ('A' for Active; 'I' for Inactive)
REMARK    1  A    between atoms: C_2  and  N_3 
REMARK    2  A    between atoms: C_5  and  N_6 
REMARK       I    between atoms: N_6  and  C_7 
REMARK       I    between atoms: C_7  and  N_9 
REMARK    3  A    between atoms: N_9  and  C_10 
REMARK    4  A    between atoms: C_10  and  C_11 
ROOT
HETATM    1  N   UNL     1     -40.883 -49.482  10.307  1.00  0.00    -0.306 N 
HETATM    2  C   UNL     1     -41.716 -48.399  10.480  1.00  0.00     0.320 C 
HETATM    3  O   UNL     1     -41.938 -47.820  11.537  1.00  0.00    -0.247 OA
HETATM    4  N   UNL     1     -42.346 -48.032   9.311  1.00  0.00    -0.340 N 
HETATM    5  H   UNL     1     -40.807 -49.888   9.387  1.00  0.00     0.171 HD
HETATM    6  H   UNL     1     -41.870 -48.214   8.438  1.00  0.00     0.164 HD
ENDROOT
BRANCH   1   7
HETATM    7  C   UNL     1     -40.184 -50.095  11.334  1.00  0.00     0.070 A 
HETATM    8  C   UNL     1     -38.932 -49.783  11.805  1.00  0.00     0.141 A 
HETATM    9  N   UNL     1     -38.665 -50.658  12.814  1.00  0.00    -0.302 N 
HETATM   10  N   UNL     1     -39.668 -51.526  13.050  1.00  0.00    -0.308 N 
HETATM   11  C   UNL     1     -40.591 -51.180  12.144  1.00  0.00     0.138 A 
ATOM     12  HN  UNL     1     -39.713 -52.268  13.748  1.00  0.00     0.186 HD
BRANCH   9  13
HETATM   13  C   UNL     1     -37.438 -50.714  13.584  1.00  0.00     0.143 C 
HETATM   14  C   UNL     1     -37.454 -49.732  14.743  1.00  0.00     0.028 C 
ENDBRANCH   9  13
ENDBRANCH   1   7
BRANCH   4  15
HETATM   15  C   UNL     1     -43.220 -46.868   9.316  1.00  0.00     0.156 C 
BRANCH  15  16
HETATM   16  C   UNL     1     -44.548 -47.114   8.609  1.00  0.00     0.139 C 
HETATM   17  C   UNL     1     -45.717 -47.428   9.531  1.00  0.00     0.035 C 
HETATM   18  C   UNL     1     -46.558 -48.415   8.747  1.00  0.00     0.029 C 
HETATM   19  C   UNL     1     -45.807 -48.624   7.448  1.00  0.00     0.168 C 
HETATM   20  O   UNL     1     -44.456 -48.235   7.711  1.00  0.00    -0.384 OA
ENDBRANCH  15  16
ENDBRANCH   4  15
TORSDOF 4
ENDMDL
MODEL 4
REMARK VINA RESULT:      -5.8      1.929      2.692
REMARK  4 active torsions:
REMARK  status: ('A' for Active; 'I' for Inactive)
REMARK    1  A    between atoms: C_2  and  N_3 
REMARK    2  A    between atoms: C_5  and  N_6 
REMARK       I    between atoms: N_6  and  C_7 
REMARK       I    between atoms: C_7  and  N_9 
REMARK    3  A    between atoms: N_9  and  C_10 
REMARK    4  A    between atoms: C_10  and  C_11 
ROOT
HETATM    1  N   UNL     1     -41.813 -48.250   9.574  1.00  0.00    -0.306 N 
HETATM    2  C   UNL     1     -41.507 -48.918  10.740  1.00  0.00     0.320 C 
HETATM    3  O   UNL     1     -42.127 -48.852  11.794  1.00  0.00    -0.247 OA
HETATM    4  N   UNL     1     -40.356 -49.669  10.625  1.00  0.00    -0.340 N 
HETATM    5  H   UNL     1     -41.204 -48.367   8.779  1.00  0.00     0.171 HD
HETATM    6  H   UNL     1     -40.117 -50.034   9.714  1.00  0.00     0.164 HD
ENDROOT
BRANCH   1   7
HETATM    7  C   UNL     1     -42.877 -47.374   9.440  1.00  0.00     0.070 A 
HETATM    8  C   UNL     1     -44.184 -47.674   9.145  1.00  0.00     0.141 A 
HETATM    9  N   UNL     1     -44.860 -46.492   9.115  1.00  0.00    -0.302 N 
HETATM   10  N   UNL     1     -44.083 -45.424   9.382  1.00  0.00    -0.308 N 
HETATM   11  C   UNL     1     -42.875 -45.967   9.579  1.00  0.00     0.138 A 
ATOM     12  HN  UNL     1     -44.350 -44.441   9.425  1.00  0.00     0.186 HD
BRANCH   9  13
HETATM   13  C   UNL     1     -46.269 -46.328   8.814  1.00  0.00     0.143 C 
HETATM   14  C   UNL     1     -47.045 -47.616   9.028  1.00  0.00     0.028 C 
ENDBRANCH   9  13
ENDBRANCH   1   7
BRANCH   4  15
HETATM   15  C   UNL     1     -39.927 -50.478  11.756  1.00  0.00     0.156 C 
BRANCH  15  16
HETATM   16  C   UNL     1     -38.756 -49.865  12.519  1.00  0.00     0.139 C 
HETATM   17  C   UNL     1     -37.750 -50.869  13.061  1.00  0.00     0.035 C 
HETATM   18  C   UNL     1     -37.282 -50.261  14.368  1.00  0.00     0.029 C 
HETATM   19  C   UNL     1     -38.068 -48.973  14.504  1.00  0.00     0.168 C 
HETATM   20  O   UNL     1     -39.216 -49.125  13.663  1.00  0.00    -0.384 OA
ENDBRANCH  15  16
ENDBRANCH   4  15
TORSDOF 4
ENDMDL
MODEL 5
REMARK VINA RESULT:      -5.6      1.990      7.404
REMARK  4 active torsions:
REMARK  status: ('A' for Active; 'I' for Inactive)
REMARK    1  A    between atoms: C_2  and  N_3 
REMARK    2  A    between atoms: C_5  and  N_6 
REMARK       I    between atoms: N_6  and  C_7 
REMARK       I    between atoms: C_7  and  N_9 
REMARK    3  A    between atoms: N_9  and  C_10 
REMARK    4  A    between atoms: C_10  and  C_11 
ROOT
HETATM    1  N   UNL     1     -40.570 -50.436  11.066  1.00  0.00    -0.306 N 
HETATM    2  C   UNL     1     -41.379 -49.335  11.247  1.00  0.00     0.320 C 
HETATM    3  O   UNL     1     -42.073 -49.102  12.229  1.00  0.00    -0.247 OA
HETATM    4  N   UNL     1     -41.375 -48.499  10.151  1.00  0.00    -0.340 N 
HETATM    5  H   UNL     1     -40.068 -50.526  10.197  1.00  0.00     0.171 HD
HETATM    6  H   UNL     1     -40.542 -48.471   9.579  1.00  0.00     0.164 HD
ENDROOT
BRANCH   1   7
HETATM    7  C   UNL     1     -40.447 -51.465  11.984  1.00  0.00     0.070 A 
HETATM    8  C   UNL     1     -39.588 -51.545  13.053  1.00  0.00     0.141 A 
HETATM    9  N   UNL     1     -39.829 -52.739  13.662  1.00  0.00    -0.302 N 
HETATM   10  N   UNL     1     -40.803 -53.455  13.068  1.00  0.00    -0.308 N 
HETATM   11  C   UNL     1     -41.176 -52.675  12.045  1.00  0.00     0.138 A 
ATOM     12  HN  UNL     1     -41.168 -54.370  13.333  1.00  0.00     0.186 HD
BRANCH   9  13
HETATM   13  C   UNL     1     -39.130 -53.255  14.822  1.00  0.00     0.143 C 
HETATM   14  C   UNL     1     -39.112 -54.774  14.840  1.00  0.00     0.028 C 
ENDBRANCH   9  13
ENDBRANCH   1   7
BRANCH   4  15
HETATM   15  C   UNL     1     -42.139 -47.262  10.205  1.00  0.00     0.156 C 
BRANCH  15  16
HETATM   16  C   UNL     1     -43.419 -47.313   9.377  1.00  0.00     0.139 C 
HETATM   17  C   UNL     1     -43.884 -45.971   8.833  1.00  0.00     0.035 C 
HETATM   18  C   UNL     1     -45.396 -46.058   8.862  1.00  0.00     0.029 C 
HETATM   19  C   UNL     1     -45.698 -47.423   9.445  1.00  0.00     0.168 C 
HETATM   20  O   UNL     1     -44.519 -47.813  10.156  1.00  0.00    -0.384 OA
ENDBRANCH  15  16
ENDBRANCH   4  15
TORSDOF 4
ENDMDL
MODEL 6
REMARK VINA RESULT:      -5.5      2.946      4.294
REMARK  4 active torsions:
REMARK  status: ('A' for Active; 'I' for Inactive)
REMARK    1  A    between atoms: C_2  and  N_3 
REMARK    2  A    between atoms: C_5  and  N_6 
REMARK       I    between atoms: N_6  and  C_7 
REMARK       I    between atoms: C_7  and  N_9 
REMARK    3  A    between atoms: N_9  and  C_10 
REMARK    4  A    between atoms: C_10  and  C_11 
ROOT
HETATM    1  N   UNL     1     -40.882 -51.058  11.205  1.00  0.00    -0.306 N 
HETATM    2  C   UNL     1     -41.128 -51.796  12.342  1.00  0.00     0.320 C 
HETATM    3  O   UNL     1     -41.113 -51.377  13.493  1.00  0.00    -0.247 OA
HETATM    4  N   UNL     1     -41.359 -53.126  12.060  1.00  0.00    -0.340 N 
HETATM    5  H   UNL     1     -40.897 -51.528  10.314  1.00  0.00     0.171 HD
HETATM    6  H   UNL     1     -41.768 -53.357  11.166  1.00  0.00     0.164 HD
ENDROOT
BRANCH   1   7
HETATM    7  C   UNL     1     -40.552 -49.713  11.212  1.00  0.00     0.070 A 
HETATM    8  C   UNL     1     -41.344 -48.648  10.857  1.00  0.00     0.141 A 
HETATM    9  N   UNL     1     -40.590 -47.526  11.023  1.00  0.00    -0.302 N 
HETATM   10  N   UNL     1     -39.347 -47.779  11.476  1.00  0.00    -0.308 N 
HETATM   11  C   UNL     1     -39.328 -49.113  11.589  1.00  0.00     0.138 A 
ATOM     12  HN  UNL     1     -38.600 -47.115  11.683  1.00  0.00     0.186 HD
BRANCH   9  13
HETATM   13  C   UNL     1     -41.016 -46.169  10.741  1.00  0.00     0.143 C 
HETATM   14  C   UNL     1     -39.839 -45.264  10.423  1.00  0.00     0.028 C 
ENDBRANCH   9  13
ENDBRANCH   1   7
BRANCH   4  15
HETATM   15  C   UNL     1     -41.689 -54.030  13.152  1.00  0.00     0.156 C 
BRANCH  15  16
HETATM   16  C   UNL     1     -43.119 -53.863  13.656  1.00  0.00     0.139 C 
HETATM   17  C   UNL     1     -43.653 -55.032  14.470  1.00  0.00     0.035 C 
HETATM   18  C   UNL     1     -45.125 -55.094  14.115  1.00  0.00     0.029 C 
HETATM   19  C   UNL     1     -45.332 -53.983  13.106  1.00  0.00     0.168 C 
HETATM   20  O   UNL     1     -44.038 -53.705  12.561  1.00  0.00    -0.384 OA
ENDBRANCH  15  16
ENDBRANCH   4  15
TORSDOF 4
ENDMDL
MODEL 7
REMARK VINA RESULT:      -5.4      3.060      6.683
REMARK  4 active torsions:
REMARK  status: ('A' for Active; 'I' for Inactive)
REMARK    1  A    between atoms: C_2  and  N_3 
REMARK    2  A    between atoms: C_5  and  N_6 
REMARK       I    between atoms: N_6  and  C_7 
REMARK       I    between atoms: C_7  and  N_9 
REMARK    3  A    between atoms: N_9  and  C_10 
REMARK    4  A    between atoms: C_10  and  C_11 
ROOT
HETATM    1  N   UNL     1     -42.081 -52.408  11.702  1.00  0.00    -0.306 N 
HETATM    2  C   UNL     1     -41.477 -51.240  12.115  1.00  0.00     0.320 C 
HETATM    3  O   UNL     1     -41.463 -50.799  13.258  1.00  0.00    -0.247 OA
HETATM    4  N   UNL     1     -40.901 -50.552  11.069  1.00  0.00    -0.340 N 
HETATM    5  H   UNL     1     -42.045 -52.647  10.724  1.00  0.00     0.171 HD
HETATM    6  H   UNL     1     -40.565 -51.085  10.279  1.00  0.00     0.164 HD
ENDROOT
BRANCH   1   7
HETATM    7  C   UNL     1     -42.791 -53.251  12.540  1.00  0.00     0.070 A 
HETATM    8  C   UNL     1     -44.141 -53.503  12.536  1.00  0.00     0.141 A 
HETATM    9  N   UNL     1     -44.377 -54.392  13.541  1.00  0.00    -0.302 N 
HETATM   10  N   UNL     1     -43.263 -54.753  14.208  1.00  0.00    -0.308 N 
HETATM   11  C   UNL     1     -42.300 -54.054  13.595  1.00  0.00     0.138 A 
ATOM     12  HN  UNL     1     -43.176 -55.402  14.990  1.00  0.00     0.186 HD
BRANCH   9  13
HETATM   13  C   UNL     1     -45.673 -54.920  13.918  1.00  0.00     0.143 C 
HETATM   14  C   UNL     1     -46.482 -53.913  14.717  1.00  0.00     0.028 C 
ENDBRANCH   9  13
ENDBRANCH   1   7
BRANCH   4  15
HETATM   15  C   UNL     1     -40.175 -49.322  11.349  1.00  0.00     0.156 C 
BRANCH  15  16
HETATM   16  C   UNL     1     -40.990 -48.067  11.055  1.00  0.00     0.139 C 
HETATM   17  C   UNL     1     -41.748 -47.501  12.247  1.00  0.00     0.035 C 
HETATM   18  C   UNL     1     -43.024 -46.944  11.650  1.00  0.00     0.029 C 
HETATM   19  C   UNL     1     -42.930 -47.250  10.170  1.00  0.00     0.168 C 
HETATM   20  O   UNL     1     -41.989 -48.323  10.052  1.00  0.00    -0.384 OA
ENDBRANCH  15  16
ENDBRANCH   4  15
TORSDOF 4
ENDMDL
MODEL 8
REMARK VINA RESULT:      -5.4      4.021      6.607
REMARK  4 active torsions:
REMARK  status: ('A' for Active; 'I' for Inactive)
REMARK    1  A    between atoms: C_2  and  N_3 
REMARK    2  A    between atoms: C_5  and  N_6 
REMARK       I    between atoms: N_6  and  C_7 
REMARK       I    between atoms: C_7  and  N_9 
REMARK    3  A    between atoms: N_9  and  C_10 
REMARK    4  A    between atoms: C_10  and  C_11 
ROOT
HETATM    1  N   UNL     1     -41.783 -52.910  12.095  1.00  0.00    -0.306 N 
HETATM    2  C   UNL     1     -41.635 -51.542  12.172  1.00  0.00     0.320 C 
HETATM    3  O   UNL     1     -42.210 -50.796  12.955  1.00  0.00    -0.247 OA
HETATM    4  N   UNL     1     -40.776 -51.056  11.210  1.00  0.00    -0.340 N 
HETATM    5  H   UNL     1     -41.272 -53.410  11.384  1.00  0.00     0.171 HD
HETATM    6  H   UNL     1     -40.037 -51.662  10.883  1.00  0.00     0.164 HD
ENDROOT
BRANCH   1   7
HETATM    7  C   UNL     1     -42.640 -53.642  12.899  1.00  0.00     0.070 A 
HETATM    8  C   UNL     1     -43.981 -53.874  12.712  1.00  0.00     0.141 A 
HETATM    9  N   UNL     1     -44.397 -54.640  13.758  1.00  0.00    -0.302 N 
HETATM   10  N   UNL     1     -43.411 -54.940  14.627  1.00  0.00    -0.308 N 
HETATM   11  C   UNL     1     -42.343 -54.329  14.099  1.00  0.00     0.138 A 
ATOM     12  HN  UNL     1     -43.465 -55.497  15.479  1.00  0.00     0.186 HD
BRANCH   9  13
HETATM   13  C   UNL     1     -45.752 -55.103  13.985  1.00  0.00     0.143 C 
HETATM   14  C   UNL     1     -46.555 -54.115  14.813  1.00  0.00     0.028 C 
ENDBRANCH   9  13
ENDBRANCH   1   7
BRANCH   4  15
HETATM   15  C   UNL     1     -40.472 -49.632  11.191  1.00  0.00     0.156 C 
BRANCH  15  16
HETATM   16  C   UNL     1     -39.176 -49.288  11.918  1.00  0.00     0.139 C 
HETATM   17  C   UNL     1     -38.131 -50.394  11.923  1.00  0.00     0.035 C 
HETATM   18  C   UNL     1     -37.443 -50.254  13.265  1.00  0.00     0.029 C 
HETATM   19  C   UNL     1     -38.153 -49.104  13.951  1.00  0.00     0.168 C 
HETATM   20  O   UNL     1     -39.424 -48.988  13.303  1.00  0.00    -0.384 OA
ENDBRANCH  15  16
ENDBRANCH   4  15
TORSDOF 4
ENDMDL
MODEL 9
REMARK VINA RESULT:      -5.3      2.379      6.927
REMARK  4 active torsions:
REMARK  status: ('A' for Active; 'I' for Inactive)
REMARK    1  A    between atoms: C_2  and  N_3 
REMARK    2  A    between atoms: C_5  and  N_6 
REMARK       I    between atoms: N_6  and  C_7 
REMARK       I    between atoms: C_7  and  N_9 
REMARK    3  A    between atoms: N_9  and  C_10 
REMARK    4  A    between atoms: C_10  and  C_11 
ROOT
HETATM    1  N   UNL     1     -41.574 -51.085  11.434  1.00  0.00    -0.306 N 
HETATM    2  C   UNL     1     -41.617 -49.775  11.857  1.00  0.00     0.320 C 
HETATM    3  O   UNL     1     -41.791 -49.393  13.008  1.00  0.00    -0.247 OA
HETATM    4  N   UNL     1     -41.487 -48.884  10.813  1.00  0.00    -0.340 N 
HETATM    5  H   UNL     1     -41.452 -51.269  10.450  1.00  0.00     0.171 HD
HETATM    6  H   UNL     1     -40.954 -49.174  10.005  1.00  0.00     0.164 HD
ENDROOT
BRANCH   1   7
HETATM    7  C   UNL     1     -41.749 -52.175  12.270  1.00  0.00     0.070 A 
HETATM    8  C   UNL     1     -42.927 -52.672  12.772  1.00  0.00     0.141 A 
HETATM    9  N   UNL     1     -42.601 -53.745  13.545  1.00  0.00    -0.302 N 
HETATM   10  N   UNL     1     -41.278 -53.998  13.579  1.00  0.00    -0.308 N 
HETATM   11  C   UNL     1     -40.763 -53.038  12.801  1.00  0.00     0.138 A 
ATOM     12  HN  UNL     1     -40.788 -54.741  14.077  1.00  0.00     0.186 HD
BRANCH   9  13
HETATM   13  C   UNL     1     -43.533 -54.563  14.296  1.00  0.00     0.143 C 
HETATM   14  C   UNL     1     -44.885 -54.652  13.610  1.00  0.00     0.028 C 
ENDBRANCH   9  13
ENDBRANCH   1   7
BRANCH   4  15
HETATM   15  C   UNL     1     -41.459 -47.458  11.102  1.00  0.00     0.156 C 
BRANCH  15  16
HETATM   16  C   UNL     1     -42.723 -46.732  10.654  1.00  0.00     0.139 C 
HETATM   17  C   UNL     1     -43.924 -47.632  10.404  1.00  0.00     0.035 C 
HETATM   18  C   UNL     1     -44.652 -46.973   9.249  1.00  0.00     0.029 C 
HETATM   19  C   UNL     1     -43.811 -45.765   8.895  1.00  0.00     0.168 C 
HETATM   20  O   UNL     1     -42.505 -46.031   9.417  1.00  0.00    -0.384 OA
ENDBRANCH  15  16
ENDBRANCH   4  15
TORSDOF 4
ENDMDL
