MODEL 1
REMARK VINA RESULT:      -6.8      0.000      0.000
REMARK  6 active torsions:
REMARK  status: ('A' for Active; 'I' for Inactive)
REMARK    1  A    between atoms: C_2  and  O_3 
REMARK    2  A    between atoms: C_2  and  C_11 
REMARK    3  A    between atoms: O_3  and  C_4 
REMARK    4  A    between atoms: C_4  and  C_5 
REMARK       I    between atoms: C_11  and  N_13 
REMARK    5  A    between atoms: N_13  and  C_14 
REMARK    6  A    between atoms: C_18  and  C_21 
ROOT
HETATM    1  C   UNL     1     -39.981 -50.658  11.893  1.00  0.00     0.251 C 
HETATM    2  O   UNL     1     -38.871 -51.156  12.122  1.00  0.00    -0.270 OA
HETATM    3  N   UNL     1     -40.007 -49.448  11.253  1.00  0.00    -0.311 N 
HETATM    4  H   UNL     1     -39.135 -49.195  10.807  1.00  0.00     0.170 HD
ENDROOT
BRANCH   3   5
HETATM    5  C   UNL     1     -41.119 -48.634  11.071  1.00  0.00     0.108 A 
HETATM    6  C   UNL     1     -41.564 -47.910  12.167  1.00  0.00     0.049 A 
HETATM    7  C   UNL     1     -42.547 -46.946  11.961  1.00  0.00     0.006 A 
HETATM    8  C   UNL     1     -43.132 -46.825  10.704  1.00  0.00     0.034 A 
HETATM    9  C   UNL     1     -42.707 -47.663   9.670  1.00  0.00     0.118 A 
HETATM   10  N   UNL     1     -41.655 -48.517   9.848  1.00  0.00    -0.339 N 
ATOM     11  HN  UNL     1     -41.285 -49.056   9.065  1.00  0.00     0.167 HD
BRANCH   9  12
HETATM   12  C   UNL     1     -43.436 -47.644   8.334  1.00  0.00     0.432 C 
HETATM   13  F   UNL     1     -44.731 -48.070   8.425  1.00  0.00    -0.165 F 
HETATM   14  F   UNL     1     -43.500 -46.402   7.774  1.00  0.00    -0.165 F 
HETATM   15  F   UNL     1     -42.857 -48.451   7.401  1.00  0.00    -0.165 F 
ENDBRANCH   9  12
ENDBRANCH   3   5
BRANCH   1  16
HETATM   16  C   UNL     1     -41.323 -51.408  12.188  1.00  0.00     0.209 C 
HETATM   17  C   UNL     1     -41.171 -52.933  12.039  1.00  0.00     0.050 C 
BRANCH  16  18
HETATM   18  O   UNL     1     -41.951 -51.115  13.446  1.00  0.00    -0.374 OA
BRANCH  18  19
HETATM   19  C   UNL     1     -43.355 -50.864  13.385  1.00  0.00     0.200 C 
BRANCH  19  20
HETATM   20  C   UNL     1     -44.170 -52.109  13.766  1.00  0.00     0.145 C 
HETATM   21  C   UNL     1     -45.418 -52.356  12.910  1.00  0.00     0.034 C 
HETATM   22  C   UNL     1     -46.626 -51.525  13.329  1.00  0.00     0.005 C 
HETATM   23  C   UNL     1     -46.802 -51.520  14.843  1.00  0.00     0.026 C 
HETATM   24  C   UNL     1     -45.498 -51.148  15.521  1.00  0.00     0.168 C 
HETATM   25  O   UNL     1     -44.484 -52.091  15.169  1.00  0.00    -0.384 OA
ENDBRANCH  19  20
ENDBRANCH  18  19
ENDBRANCH  16  18
ENDBRANCH   1  16
TORSDOF 6
ENDMDL
MODEL 2
REMARK VINA RESULT:      -6.6      2.518      3.306
REMARK  6 active torsions:
REMARK  status: ('A' for Active; 'I' for Inactive)
REMARK    1  A    between atoms: C_2  and  O_3 
REMARK    2  A    between atoms: C_2  and  C_11 
REMARK    3  A    between atoms: O_3  and  C_4 
REMARK    4  A    between atoms: C_4  and  C_5 
REMARK       I    between atoms: C_11  and  N_13 
REMARK    5  A    between atoms: N_13  and  C_14 
REMARK    6  A    between atoms: C_18  and  C_21 
ROOT
HETATM    1  C   UNL     1     -43.005 -47.375  12.783  1.00  0.00     0.251 C 
HETATM    2  O   UNL     1     -42.837 -46.852  13.892  1.00  0.00    -0.270 OA
HETATM    3  N   UNL     1     -43.304 -46.545  11.736  1.00  0.00    -0.311 N 
HETATM    4  H   UNL     1     -43.114 -45.569  11.913  1.00  0.00     0.170 HD
ENDROOT
BRANCH   3   5
HETATM    5  C   UNL     1     -43.714 -46.935  10.465  1.00  0.00     0.108 A 
HETATM    6  C   UNL     1     -42.819 -46.746   9.423  1.00  0.00     0.049 A 
HETATM    7  C   UNL     1     -43.128 -47.305   8.186  1.00  0.00     0.006 A 
HETATM    8  C   UNL     1     -44.363 -47.920   8.003  1.00  0.00     0.034 A 
HETATM    9  C   UNL     1     -45.260 -47.980   9.072  1.00  0.00     0.118 A 
HETATM   10  N   UNL     1     -44.899 -47.543  10.315  1.00  0.00    -0.339 N 
ATOM     11  HN  UNL     1     -45.519 -47.677  11.114  1.00  0.00     0.167 HD
BRANCH   9  12
HETATM   12  C   UNL     1     -46.667 -48.517   8.849  1.00  0.00     0.432 C 
HETATM   13  F   UNL     1     -46.853 -49.025   7.593  1.00  0.00    -0.165 F 
HETATM   14  F   UNL     1     -46.998 -49.528   9.702  1.00  0.00    -0.165 F 
HETATM   15  F   UNL     1     -47.629 -47.565   8.997  1.00  0.00    -0.165 F 
ENDBRANCH   9  12
ENDBRANCH   3   5
BRANCH   1  16
HETATM   16  C   UNL     1     -42.766 -48.900  12.521  1.00  0.00     0.209 C 
HETATM   17  C   UNL     1     -41.631 -49.460  13.397  1.00  0.00     0.050 C 
BRANCH  16  18
HETATM   18  O   UNL     1     -43.916 -49.752  12.633  1.00  0.00    -0.374 OA
BRANCH  18  19
HETATM   19  C   UNL     1     -43.750 -50.897  13.469  1.00  0.00     0.200 C 
BRANCH  19  20
HETATM   20  C   UNL     1     -44.808 -51.972  13.174  1.00  0.00     0.145 C 
HETATM   21  C   UNL     1     -46.260 -51.482  13.209  1.00  0.00     0.034 C 
HETATM   22  C   UNL     1     -46.846 -51.395  14.615  1.00  0.00     0.005 C 
HETATM   23  C   UNL     1     -46.499 -52.627  15.442  1.00  0.00     0.026 C 
HETATM   24  C   UNL     1     -45.009 -52.897  15.381  1.00  0.00     0.168 C 
HETATM   25  O   UNL     1     -44.611 -53.113  14.026  1.00  0.00    -0.384 OA
ENDBRANCH  19  20
ENDBRANCH  18  19
ENDBRANCH  16  18
ENDBRANCH   1  16
TORSDOF 6
ENDMDL
MODEL 3
REMARK VINA RESULT:      -6.5      1.659      2.078
REMARK  6 active torsions:
REMARK  status: ('A' for Active; 'I' for Inactive)
REMARK    1  A    between atoms: C_2  and  O_3 
REMARK    2  A    between atoms: C_2  and  C_11 
REMARK    3  A    between atoms: O_3  and  C_4 
REMARK    4  A    between atoms: C_4  and  C_5 
REMARK       I    between atoms: C_11  and  N_13 
REMARK    5  A    between atoms: N_13  and  C_14 
REMARK    6  A    between atoms: C_18  and  C_21 
ROOT
HETATM    1  C   UNL     1     -40.812 -52.010  12.295  1.00  0.00     0.251 C 
HETATM    2  O   UNL     1     -40.370 -53.165  12.239  1.00  0.00    -0.270 OA
HETATM    3  N   UNL     1     -40.410 -51.136  11.321  1.00  0.00    -0.311 N 
HETATM    4  H   UNL     1     -39.993 -51.578  10.513  1.00  0.00     0.170 HD
ENDROOT
BRANCH   3   5
HETATM    5  C   UNL     1     -40.630 -49.763  11.302  1.00  0.00     0.108 A 
HETATM    6  C   UNL     1     -39.660 -48.955  11.876  1.00  0.00     0.049 A 
HETATM    7  C   UNL     1     -39.763 -47.579  11.696  1.00  0.00     0.006 A 
HETATM    8  C   UNL     1     -40.885 -47.056  11.060  1.00  0.00     0.034 A 
HETATM    9  C   UNL     1     -41.877 -47.925  10.601  1.00  0.00     0.118 A 
HETATM   10  N   UNL     1     -41.707 -49.280  10.669  1.00  0.00    -0.339 N 
ATOM     11  HN  UNL     1     -42.387 -49.910  10.245  1.00  0.00     0.167 HD
BRANCH   9  12
HETATM   12  C   UNL     1     -43.174 -47.362  10.037  1.00  0.00     0.432 C 
HETATM   13  F   UNL     1     -44.271 -47.698  10.780  1.00  0.00    -0.165 F 
HETATM   14  F   UNL     1     -43.184 -46.000   9.971  1.00  0.00    -0.165 F 
HETATM   15  F   UNL     1     -43.443 -47.805   8.778  1.00  0.00    -0.165 F 
ENDBRANCH   9  12
ENDBRANCH   3   5
BRANCH   1  16
HETATM   16  C   UNL     1     -41.889 -51.565  13.341  1.00  0.00     0.209 C 
HETATM   17  C   UNL     1     -41.276 -50.710  14.465  1.00  0.00     0.050 C 
BRANCH  16  18
HETATM   18  O   UNL     1     -43.046 -50.898  12.815  1.00  0.00    -0.374 OA
BRANCH  18  19
HETATM   19  C   UNL     1     -44.156 -50.804  13.707  1.00  0.00     0.200 C 
BRANCH  19  20
HETATM   20  C   UNL     1     -45.421 -51.439  13.107  1.00  0.00     0.145 C 
HETATM   21  C   UNL     1     -46.664 -51.383  14.003  1.00  0.00     0.034 C 
HETATM   22  C   UNL     1     -46.705 -52.477  15.066  1.00  0.00     0.005 C 
HETATM   23  C   UNL     1     -46.316 -53.832  14.488  1.00  0.00     0.026 C 
HETATM   24  C   UNL     1     -45.008 -53.722  13.729  1.00  0.00     0.168 C 
HETATM   25  O   UNL     1     -45.145 -52.779  12.664  1.00  0.00    -0.384 OA
ENDBRANCH  19  20
ENDBRANCH  18  19
ENDBRANCH  16  18
ENDBRANCH   1  16
TORSDOF 6
ENDMDL
MODEL 4
REMARK VINA RESULT:      -6.2      3.105      5.826
REMARK  6 active torsions:
REMARK  status: ('A' for Active; 'I' for Inactive)
REMARK    1  A    between atoms: C_2  and  O_3 
REMARK    2  A    between atoms: C_2  and  C_11 
REMARK    3  A    between atoms: O_3  and  C_4 
REMARK    4  A    between atoms: C_4  and  C_5 
REMARK       I    between atoms: C_11  and  N_13 
REMARK    5  A    between atoms: N_13  and  C_14 
REMARK    6  A    between atoms: C_18  and  C_21 
ROOT
HETATM    1  C   UNL     1     -40.645 -50.589  11.844  1.00  0.00     0.251 C 
HETATM    2  O   UNL     1     -39.944 -50.020  10.998  1.00  0.00    -0.270 OA
HETATM    3  N   UNL     1     -41.139 -51.825  11.521  1.00  0.00    -0.311 N 
HETATM    4  H   UNL     1     -40.683 -52.261  10.732  1.00  0.00     0.170 HD
ENDROOT
BRANCH   3   5
HETATM    5  C   UNL     1     -42.089 -52.546  12.236  1.00  0.00     0.108 A 
HETATM    6  C   UNL     1     -41.648 -53.654  12.943  1.00  0.00     0.049 A 
HETATM    7  C   UNL     1     -42.539 -54.270  13.817  1.00  0.00     0.006 A 
HETATM    8  C   UNL     1     -43.861 -53.838  13.862  1.00  0.00     0.034 A 
HETATM    9  C   UNL     1     -44.263 -52.782  13.041  1.00  0.00     0.118 A 
HETATM   10  N   UNL     1     -43.353 -52.101  12.281  1.00  0.00    -0.339 N 
ATOM     11  HN  UNL     1     -43.630 -51.270  11.759  1.00  0.00     0.167 HD
BRANCH   9  12
HETATM   12  C   UNL     1     -45.733 -52.395  12.971  1.00  0.00     0.432 C 
HETATM   13  F   UNL     1     -45.964 -51.099  13.336  1.00  0.00    -0.165 F 
HETATM   14  F   UNL     1     -46.263 -52.520  11.720  1.00  0.00    -0.165 F 
HETATM   15  F   UNL     1     -46.519 -53.146  13.792  1.00  0.00    -0.165 F 
ENDBRANCH   9  12
ENDBRANCH   3   5
BRANCH   1  16
HETATM   16  C   UNL     1     -40.872 -50.014  13.283  1.00  0.00     0.209 C 
HETATM   17  C   UNL     1     -39.701 -49.122  13.734  1.00  0.00     0.050 C 
BRANCH  16  18
HETATM   18  O   UNL     1     -42.109 -49.319  13.500  1.00  0.00    -0.374 OA
BRANCH  18  19
HETATM   19  C   UNL     1     -42.002 -47.900  13.613  1.00  0.00     0.200 C 
BRANCH  19  20
HETATM   20  C   UNL     1     -43.025 -47.181  12.719  1.00  0.00     0.145 C 
HETATM   21  C   UNL     1     -43.326 -47.878  11.387  1.00  0.00     0.034 C 
HETATM   22  C   UNL     1     -42.290 -47.603  10.301  1.00  0.00     0.005 C 
HETATM   23  C   UNL     1     -41.911 -46.128  10.253  1.00  0.00     0.026 C 
HETATM   24  C   UNL     1     -41.537 -45.637  11.638  1.00  0.00     0.168 C 
HETATM   25  O   UNL     1     -42.642 -45.809  12.526  1.00  0.00    -0.384 OA
ENDBRANCH  19  20
ENDBRANCH  18  19
ENDBRANCH  16  18
ENDBRANCH   1  16
TORSDOF 6
ENDMDL
MODEL 5
REMARK VINA RESULT:      -6.1      1.849      2.577
REMARK  6 active torsions:
REMARK  status: ('A' for Active; 'I' for Inactive)
REMARK    1  A    between atoms: C_2  and  O_3 
REMARK    2  A    between atoms: C_2  and  C_11 
REMARK    3  A    between atoms: O_3  and  C_4 
REMARK    4  A    between atoms: C_4  and  C_5 
REMARK       I    between atoms: C_11  and  N_13 
REMARK    5  A    between atoms: N_13  and  C_14 
REMARK    6  A    between atoms: C_18  and  C_21 
ROOT
HETATM    1  C   UNL     1     -40.646 -51.054  12.247  1.00  0.00     0.251 C 
HETATM    2  O   UNL     1     -40.038 -52.132  12.276  1.00  0.00    -0.270 OA
HETATM    3  N   UNL     1     -40.520 -50.291  11.117  1.00  0.00    -0.311 N 
HETATM    4  H   UNL     1     -40.148 -50.789  10.320  1.00  0.00     0.170 HD
ENDROOT
BRANCH   3   5
HETATM    5  C   UNL     1     -40.955 -48.981  10.954  1.00  0.00     0.108 A 
HETATM    6  C   UNL     1     -40.150 -47.974  11.462  1.00  0.00     0.049 A 
HETATM    7  C   UNL     1     -40.464 -46.657  11.140  1.00  0.00     0.006 A 
HETATM    8  C   UNL     1     -41.631 -46.388  10.429  1.00  0.00     0.034 A 
HETATM    9  C   UNL     1     -42.453 -47.448  10.040  1.00  0.00     0.118 A 
HETATM   10  N   UNL     1     -42.071 -48.744  10.250  1.00  0.00    -0.339 N 
ATOM     11  HN  UNL     1     -42.625 -49.515   9.878  1.00  0.00     0.167 HD
BRANCH   9  12
HETATM   12  C   UNL     1     -43.801 -47.162   9.393  1.00  0.00     0.432 C 
HETATM   13  F   UNL     1     -43.945 -45.857   9.012  1.00  0.00    -0.165 F 
HETATM   14  F   UNL     1     -44.023 -47.897   8.266  1.00  0.00    -0.165 F 
HETATM   15  F   UNL     1     -44.852 -47.412  10.223  1.00  0.00    -0.165 F 
ENDBRANCH   9  12
ENDBRANCH   3   5
BRANCH   1  16
HETATM   16  C   UNL     1     -41.632 -50.608  13.379  1.00  0.00     0.209 C 
HETATM   17  C   UNL     1     -43.085 -51.004  13.060  1.00  0.00     0.050 C 
BRANCH  16  18
HETATM   18  O   UNL     1     -41.306 -51.034  14.710  1.00  0.00    -0.374 OA
BRANCH  18  19
HETATM   19  C   UNL     1     -42.414 -51.446  15.510  1.00  0.00     0.200 C 
BRANCH  19  20
HETATM   20  C   UNL     1     -42.201 -52.852  16.092  1.00  0.00     0.145 C 
HETATM   21  C   UNL     1     -41.431 -53.821  15.187  1.00  0.00     0.034 C 
HETATM   22  C   UNL     1     -42.293 -54.474  14.111  1.00  0.00     0.005 C 
HETATM   23  C   UNL     1     -43.626 -54.950  14.677  1.00  0.00     0.026 C 
HETATM   24  C   UNL     1     -44.298 -53.830  15.448  1.00  0.00     0.168 C 
HETATM   25  O   UNL     1     -43.455 -53.409  16.522  1.00  0.00    -0.384 OA
ENDBRANCH  19  20
ENDBRANCH  18  19
ENDBRANCH  16  18
ENDBRANCH   1  16
TORSDOF 6
ENDMDL
MODEL 6
REMARK VINA RESULT:      -6.1      3.462      4.947
REMARK  6 active torsions:
REMARK  status: ('A' for Active; 'I' for Inactive)
REMARK    1  A    between atoms: C_2  and  O_3 
REMARK    2  A    between atoms: C_2  and  C_11 
REMARK    3  A    between atoms: O_3  and  C_4 
REMARK    4  A    between atoms: C_4  and  C_5 
REMARK       I    between atoms: C_11  and  N_13 
REMARK    5  A    between atoms: N_13  and  C_14 
REMARK    6  A    between atoms: C_18  and  C_21 
ROOT
HETATM    1  C   UNL     1     -41.748 -48.499  10.850  1.00  0.00     0.251 C 
HETATM    2  O   UNL     1     -42.434 -48.051   9.923  1.00  0.00    -0.270 OA
HETATM    3  N   UNL     1     -40.698 -49.313  10.518  1.00  0.00    -0.311 N 
HETATM    4  H   UNL     1     -40.430 -49.269   9.545  1.00  0.00     0.170 HD
ENDROOT
BRANCH   3   5
HETATM    5  C   UNL     1     -39.927 -50.066  11.398  1.00  0.00     0.108 A 
HETATM    6  C   UNL     1     -38.669 -49.581  11.717  1.00  0.00     0.049 A 
HETATM    7  C   UNL     1     -37.964 -50.210  12.739  1.00  0.00     0.006 A 
HETATM    8  C   UNL     1     -38.483 -51.365  13.316  1.00  0.00     0.034 A 
HETATM    9  C   UNL     1     -39.711 -51.859  12.869  1.00  0.00     0.118 A 
HETATM   10  N   UNL     1     -40.454 -51.164  11.956  1.00  0.00    -0.339 N 
ATOM     11  HN  UNL     1     -41.393 -51.476  11.705  1.00  0.00     0.167 HD
BRANCH   9  12
HETATM   12  C   UNL     1     -40.221 -53.197  13.385  1.00  0.00     0.432 C 
HETATM   13  F   UNL     1     -39.224 -54.002  13.861  1.00  0.00    -0.165 F 
HETATM   14  F   UNL     1     -41.110 -53.074  14.412  1.00  0.00    -0.165 F 
HETATM   15  F   UNL     1     -40.849 -53.932  12.425  1.00  0.00    -0.165 F 
ENDBRANCH   9  12
ENDBRANCH   3   5
BRANCH   1  16
HETATM   16  C   UNL     1     -41.958 -48.074  12.343  1.00  0.00     0.209 C 
HETATM   17  C   UNL     1     -42.880 -46.847  12.463  1.00  0.00     0.050 C 
BRANCH  16  18
HETATM   18  O   UNL     1     -42.415 -49.100  13.237  1.00  0.00    -0.374 OA
BRANCH  18  19
HETATM   19  C   UNL     1     -43.659 -49.706  12.888  1.00  0.00     0.200 C 
BRANCH  19  20
HETATM   20  C   UNL     1     -43.793 -51.112  13.495  1.00  0.00     0.145 C 
HETATM   21  C   UNL     1     -45.100 -51.841  13.161  1.00  0.00     0.034 C 
HETATM   22  C   UNL     1     -46.277 -51.427  14.039  1.00  0.00     0.005 C 
HETATM   23  C   UNL     1     -45.875 -51.341  15.507  1.00  0.00     0.026 C 
HETATM   24  C   UNL     1     -44.628 -50.492  15.660  1.00  0.00     0.168 C 
HETATM   25  O   UNL     1     -43.556 -51.069  14.913  1.00  0.00    -0.384 OA
ENDBRANCH  19  20
ENDBRANCH  18  19
ENDBRANCH  16  18
ENDBRANCH   1  16
TORSDOF 6
ENDMDL
MODEL 7
REMARK VINA RESULT:      -6.0      3.147      6.100
REMARK  6 active torsions:
REMARK  status: ('A' for Active; 'I' for Inactive)
REMARK    1  A    between atoms: C_2  and  O_3 
REMARK    2  A    between atoms: C_2  and  C_11 
REMARK    3  A    between atoms: O_3  and  C_4 
REMARK    4  A    between atoms: C_4  and  C_5 
REMARK       I    between atoms: C_11  and  N_13 
REMARK    5  A    between atoms: N_13  and  C_14 
REMARK    6  A    between atoms: C_18  and  C_21 
ROOT
HETATM    1  C   UNL     1     -41.072 -50.531  11.671  1.00  0.00     0.251 C 
HETATM    2  O   UNL     1     -40.243 -50.059  10.882  1.00  0.00    -0.270 OA
HETATM    3  N   UNL     1     -41.240 -51.890  11.669  1.00  0.00    -0.311 N 
HETATM    4  H   UNL     1     -40.499 -52.398  11.206  1.00  0.00     0.170 HD
ENDROOT
BRANCH   3   5
HETATM    5  C   UNL     1     -42.237 -52.599  12.328  1.00  0.00     0.108 A 
HETATM    6  C   UNL     1     -41.854 -53.727  13.037  1.00  0.00     0.049 A 
HETATM    7  C   UNL     1     -42.796 -54.336  13.860  1.00  0.00     0.006 A 
HETATM    8  C   UNL     1     -44.110 -53.875  13.851  1.00  0.00     0.034 A 
HETATM    9  C   UNL     1     -44.450 -52.798  13.029  1.00  0.00     0.118 A 
HETATM   10  N   UNL     1     -43.492 -52.127  12.322  1.00  0.00    -0.339 N 
ATOM     11  HN  UNL     1     -43.727 -51.283  11.801  1.00  0.00     0.167 HD
BRANCH   9  12
HETATM   12  C   UNL     1     -45.907 -52.378  12.898  1.00  0.00     0.432 C 
HETATM   13  F   UNL     1     -46.385 -52.495  11.623  1.00  0.00    -0.165 F 
HETATM   14  F   UNL     1     -46.752 -53.118  13.672  1.00  0.00    -0.165 F 
HETATM   15  F   UNL     1     -46.118 -51.077  13.243  1.00  0.00    -0.165 F 
ENDBRANCH   9  12
ENDBRANCH   3   5
BRANCH   1  16
HETATM   16  C   UNL     1     -41.821 -49.659  12.735  1.00  0.00     0.209 C 
HETATM   17  C   UNL     1     -40.853 -48.746  13.510  1.00  0.00     0.050 C 
BRANCH  16  18
HETATM   18  O   UNL     1     -42.925 -48.879  12.252  1.00  0.00    -0.374 OA
BRANCH  18  19
HETATM   19  C   UNL     1     -42.646 -47.497  12.028  1.00  0.00     0.200 C 
BRANCH  19  20
HETATM   20  C   UNL     1     -42.197 -47.237  10.582  1.00  0.00     0.145 C 
HETATM   21  C   UNL     1     -42.048 -45.759  10.203  1.00  0.00     0.034 C 
HETATM   22  C   UNL     1     -43.365 -45.081   9.841  1.00  0.00     0.005 C 
HETATM   23  C   UNL     1     -44.212 -45.958   8.926  1.00  0.00     0.026 C 
HETATM   24  C   UNL     1     -44.344 -47.350   9.511  1.00  0.00     0.168 C 
HETATM   25  O   UNL     1     -43.051 -47.938   9.660  1.00  0.00    -0.384 OA
ENDBRANCH  19  20
ENDBRANCH  18  19
ENDBRANCH  16  18
ENDBRANCH   1  16
TORSDOF 6
ENDMDL
MODEL 8
REMARK VINA RESULT:      -6.0      4.309      6.783
REMARK  6 active torsions:
REMARK  status: ('A' for Active; 'I' for Inactive)
REMARK    1  A    between atoms: C_2  and  O_3 
REMARK    2  A    between atoms: C_2  and  C_11 
REMARK    3  A    between atoms: O_3  and  C_4 
REMARK    4  A    between atoms: C_4  and  C_5 
REMARK       I    between atoms: C_11  and  N_13 
REMARK    5  A    between atoms: N_13  and  C_14 
REMARK    6  A    between atoms: C_18  and  C_21 
ROOT
HETATM    1  C   UNL     1     -43.054 -49.959  15.719  1.00  0.00     0.251 C 
HETATM    2  O   UNL     1     -42.176 -49.411  16.397  1.00  0.00    -0.270 OA
HETATM    3  N   UNL     1     -43.951 -50.756  16.378  1.00  0.00    -0.311 N 
HETATM    4  H   UNL     1     -43.965 -50.624  17.380  1.00  0.00     0.170 HD
ENDROOT
BRANCH   3   5
HETATM    5  C   UNL     1     -44.887 -51.603  15.795  1.00  0.00     0.108 A 
HETATM    6  C   UNL     1     -46.220 -51.234  15.880  1.00  0.00     0.049 A 
HETATM    7  C   UNL     1     -47.149 -51.959  15.139  1.00  0.00     0.006 A 
HETATM    8  C   UNL     1     -46.734 -53.090  14.442  1.00  0.00     0.034 A 
HETATM    9  C   UNL     1     -45.389 -53.465  14.488  1.00  0.00     0.118 A 
HETATM   10  N   UNL     1     -44.464 -52.677  15.113  1.00  0.00    -0.339 N 
ATOM     11  HN  UNL     1     -43.471 -52.902  15.061  1.00  0.00     0.167 HD
BRANCH   9  12
HETATM   12  C   UNL     1     -44.948 -54.777  13.856  1.00  0.00     0.432 C 
HETATM   13  F   UNL     1     -44.432 -54.619  12.600  1.00  0.00    -0.165 F 
HETATM   14  F   UNL     1     -43.979 -55.419  14.568  1.00  0.00    -0.165 F 
HETATM   15  F   UNL     1     -45.969 -55.669  13.715  1.00  0.00    -0.165 F 
ENDBRANCH   9  12
ENDBRANCH   3   5
BRANCH   1  16
HETATM   16  C   UNL     1     -43.246 -49.673  14.191  1.00  0.00     0.209 C 
HETATM   17  C   UNL     1     -42.818 -48.242  13.818  1.00  0.00     0.050 C 
BRANCH  16  18
HETATM   18  O   UNL     1     -42.628 -50.603  13.289  1.00  0.00    -0.374 OA
BRANCH  18  19
HETATM   19  C   UNL     1     -41.245 -50.862  13.530  1.00  0.00     0.200 C 
BRANCH  19  20
HETATM   20  C   UNL     1     -40.714 -51.986  12.626  1.00  0.00     0.145 C 
HETATM   21  C   UNL     1     -41.467 -53.317  12.734  1.00  0.00     0.034 C 
HETATM   22  C   UNL     1     -41.041 -54.170  13.924  1.00  0.00     0.005 C 
HETATM   23  C   UNL     1     -39.525 -54.207  14.071  1.00  0.00     0.026 C 
HETATM   24  C   UNL     1     -38.962 -52.799  14.054  1.00  0.00     0.168 C 
HETATM   25  O   UNL     1     -39.300 -52.158  12.823  1.00  0.00    -0.384 OA
ENDBRANCH  19  20
ENDBRANCH  18  19
ENDBRANCH  16  18
ENDBRANCH   1  16
TORSDOF 6
ENDMDL
MODEL 9
REMARK VINA RESULT:      -6.0      2.729      3.712
REMARK  6 active torsions:
REMARK  status: ('A' for Active; 'I' for Inactive)
REMARK    1  A    between atoms: C_2  and  O_3 
REMARK    2  A    between atoms: C_2  and  C_11 
REMARK    3  A    between atoms: O_3  and  C_4 
REMARK    4  A    between atoms: C_4  and  C_5 
REMARK       I    between atoms: C_11  and  N_13 
REMARK    5  A    between atoms: N_13  and  C_14 
REMARK    6  A    between atoms: C_18  and  C_21 
ROOT
HETATM    1  C   UNL     1     -42.438 -49.170  13.038  1.00  0.00     0.251 C 
HETATM    2  O   UNL     1     -42.388 -49.504  14.229  1.00  0.00    -0.270 OA
HETATM    3  N   UNL     1     -42.993 -47.952  12.751  1.00  0.00    -0.311 N 
HETATM    4  H   UNL     1     -43.081 -47.337  13.548  1.00  0.00     0.170 HD
ENDROOT
BRANCH   3   5
HETATM    5  C   UNL     1     -43.317 -47.470  11.487  1.00  0.00     0.108 A 
HETATM    6  C   UNL     1     -42.458 -46.540  10.921  1.00  0.00     0.049 A 
HETATM    7  C   UNL     1     -42.654 -46.195   9.587  1.00  0.00     0.006 A 
HETATM    8  C   UNL     1     -43.763 -46.692   8.908  1.00  0.00     0.034 A 
HETATM    9  C   UNL     1     -44.647 -47.543   9.576  1.00  0.00     0.118 A 
HETATM   10  N   UNL     1     -44.378 -47.977  10.844  1.00  0.00    -0.339 N 
ATOM     11  HN  UNL     1     -44.973 -48.673  11.291  1.00  0.00     0.167 HD
BRANCH   9  12
HETATM   12  C   UNL     1     -45.938 -47.976   8.896  1.00  0.00     0.432 C 
HETATM   13  F   UNL     1     -45.729 -48.589   7.692  1.00  0.00    -0.165 F 
HETATM   14  F   UNL     1     -46.662 -48.865   9.634  1.00  0.00    -0.165 F 
HETATM   15  F   UNL     1     -46.774 -46.934   8.629  1.00  0.00    -0.165 F 
ENDBRANCH   9  12
ENDBRANCH   3   5
BRANCH   1  16
HETATM   16  C   UNL     1     -41.786 -50.015  11.893  1.00  0.00     0.209 C 
HETATM   17  C   UNL     1     -40.323 -49.607  11.641  1.00  0.00     0.050 C 
BRANCH  16  18
HETATM   18  O   UNL     1     -41.862 -51.442  12.035  1.00  0.00    -0.374 OA
BRANCH  18  19
HETATM   19  C   UNL     1     -40.639 -52.088  12.384  1.00  0.00     0.200 C 
BRANCH  19  20
HETATM   20  C   UNL     1     -40.833 -53.599  12.585  1.00  0.00     0.145 C 
HETATM   21  C   UNL     1     -42.183 -54.006  13.188  1.00  0.00     0.034 C 
HETATM   22  C   UNL     1     -42.244 -53.869  14.706  1.00  0.00     0.005 C 
HETATM   23  C   UNL     1     -40.985 -54.417  15.368  1.00  0.00     0.026 C 
HETATM   24  C   UNL     1     -39.751 -53.823  14.717  1.00  0.00     0.168 C 
HETATM   25  O   UNL     1     -39.732 -54.150  13.327  1.00  0.00    -0.384 OA
ENDBRANCH  19  20
ENDBRANCH  18  19
ENDBRANCH  16  18
ENDBRANCH   1  16
TORSDOF 6
ENDMDL
