MODEL 1
REMARK VINA RESULT:      -7.4      0.000      0.000
REMARK  5 active torsions:
REMARK  status: ('A' for Active; 'I' for Inactive)
REMARK    1  A    between atoms: N_1  and  C_7 
REMARK    2  A    between atoms: N_2  and  C_10 
REMARK    3  A    between atoms: C_7  and  C_8 
REMARK       I    between atoms: C_8  and  N_9 
REMARK    4  A    between atoms: C_18  and  C_21 
REMARK    5  A    between atoms: C_18  and  C_22 
ROOT
HETATM    1  C   UNL     1     -38.767 -51.669  14.492  1.00  0.00     0.240 C 
ENDROOT
BRANCH   1   2
HETATM    2  N   UNL     1     -38.750 -50.723  13.368  1.00  0.00    -0.255 N 
HETATM    3  C   UNL     1     -39.619 -49.641  13.411  1.00  0.00     0.334 C 
HETATM    4  N   UNL     1     -39.710 -48.871  12.254  1.00  0.00    -0.279 N 
HETATM    5  O   UNL     1     -40.268 -49.344  14.417  1.00  0.00    -0.246 OA
HETATM    6  C   UNL     1     -38.761 -48.950  11.261  1.00  0.00     0.146 C 
HETATM    7  C   UNL     1     -37.764 -49.829  11.336  1.00  0.00     0.200 C 
HETATM    8  C   UNL     1     -37.721 -50.820  12.438  1.00  0.00     0.292 C 
HETATM    9  F   UNL     1     -36.795 -49.891  10.404  1.00  0.00    -0.199 F 
HETATM   10  O   UNL     1     -36.793 -51.622  12.504  1.00  0.00    -0.264 OA
BRANCH   4  11
HETATM   11  C   UNL     1     -40.951 -48.147  12.061  1.00  0.00     0.232 C 
HETATM   12  O   UNL     1     -41.735 -48.838  11.070  1.00  0.00    -0.366 OA
HETATM   13  C   UNL     1     -42.593 -47.872  10.443  1.00  0.00     0.170 C 
HETATM   14  C   UNL     1     -42.325 -46.538  11.115  1.00  0.00     0.031 C 
HETATM   15  C   UNL     1     -40.895 -46.703  11.590  1.00  0.00     0.056 C 
ENDBRANCH   4  11
ENDBRANCH   1   2
BRANCH   1  16
HETATM   16  C   UNL     1     -39.369 -53.064  14.176  1.00  0.00     0.238 C 
HETATM   17  N   UNL     1     -40.696 -53.354  14.516  1.00  0.00    -0.351 N 
HETATM   18  C   UNL     1     -41.721 -52.368  14.820  1.00  0.00     0.126 C 
HETATM   19  C   UNL     1     -41.222 -54.707  14.303  1.00  0.00     0.126 C 
HETATM   20  C   UNL     1     -42.546 -52.764  16.037  1.00  0.00     0.025 C 
HETATM   21  C   UNL     1     -43.141 -54.180  15.946  1.00  0.00    -0.007 C 
HETATM   22  C   UNL     1     -42.055 -55.180  15.501  1.00  0.00     0.025 C 
HETATM   23  O   UNL     1     -38.657 -53.924  13.655  1.00  0.00    -0.272 OA
BRANCH  21  24
HETATM   24  C   UNL     1     -44.406 -54.192  15.061  1.00  0.00     0.043 C 
BRANCH  24  25
HETATM   25  C   UNL     1     -45.467 -53.188  15.454  1.00  0.00    -0.058 A 
HETATM   26  C   UNL     1     -45.996 -53.154  16.753  1.00  0.00     0.007 A 
HETATM   27  C   UNL     1     -46.953 -52.200  17.105  1.00  0.00     0.001 A 
HETATM   28  C   UNL     1     -47.382 -51.260  16.175  1.00  0.00     0.000 A 
HETATM   29  C   UNL     1     -46.860 -51.276  14.887  1.00  0.00     0.001 A 
HETATM   30  C   UNL     1     -45.903 -52.230  14.528  1.00  0.00     0.007 A 
ENDBRANCH  24  25
ENDBRANCH  21  24
ENDBRANCH   1  16
TORSDOF 5
ENDMDL
MODEL 2
REMARK VINA RESULT:      -7.4      2.751      4.309
REMARK  5 active torsions:
REMARK  status: ('A' for Active; 'I' for Inactive)
REMARK    1  A    between atoms: N_1  and  C_7 
REMARK    2  A    between atoms: N_2  and  C_10 
REMARK    3  A    between atoms: C_7  and  C_8 
REMARK       I    between atoms: C_8  and  N_9 
REMARK    4  A    between atoms: C_18  and  C_21 
REMARK    5  A    between atoms: C_18  and  C_22 
ROOT
HETATM    1  C   UNL     1     -40.394 -47.694  13.631  1.00  0.00     0.240 C 
ENDROOT
BRANCH   1   2
HETATM    2  N   UNL     1     -40.914 -46.969  12.465  1.00  0.00    -0.255 N 
HETATM    3  C   UNL     1     -42.141 -47.361  11.945  1.00  0.00     0.334 C 
HETATM    4  N   UNL     1     -42.516 -46.780  10.736  1.00  0.00    -0.279 N 
HETATM    5  O   UNL     1     -42.885 -48.160  12.516  1.00  0.00    -0.246 OA
HETATM    6  C   UNL     1     -41.900 -45.644  10.261  1.00  0.00     0.146 C 
HETATM    7  C   UNL     1     -40.864 -45.110  10.902  1.00  0.00     0.200 C 
HETATM    8  C   UNL     1     -40.280 -45.792  12.082  1.00  0.00     0.292 C 
HETATM    9  F   UNL     1     -40.277 -43.972  10.487  1.00  0.00    -0.199 F 
HETATM   10  O   UNL     1     -39.329 -45.287  12.673  1.00  0.00    -0.264 OA
BRANCH   4  11
HETATM   11  C   UNL     1     -43.436 -47.543   9.915  1.00  0.00     0.232 C 
HETATM   12  O   UNL     1     -42.796 -47.833   8.658  1.00  0.00    -0.366 OA
HETATM   13  C   UNL     1     -43.827 -48.002   7.674  1.00  0.00     0.170 C 
HETATM   14  C   UNL     1     -45.155 -47.829   8.388  1.00  0.00     0.031 C 
HETATM   15  C   UNL     1     -44.778 -46.930   9.549  1.00  0.00     0.056 C 
ENDBRANCH   4  11
ENDBRANCH   1   2
BRANCH   1  16
HETATM   16  C   UNL     1     -39.420 -48.859  13.308  1.00  0.00     0.238 C 
HETATM   17  N   UNL     1     -39.821 -50.187  13.494  1.00  0.00    -0.351 N 
HETATM   18  C   UNL     1     -41.197 -50.640  13.623  1.00  0.00     0.126 C 
HETATM   19  C   UNL     1     -38.858 -51.274  13.280  1.00  0.00     0.126 C 
HETATM   20  C   UNL     1     -41.357 -51.657  14.745  1.00  0.00     0.025 C 
HETATM   21  C   UNL     1     -40.384 -52.845  14.647  1.00  0.00    -0.007 C 
HETATM   22  C   UNL     1     -38.953 -52.333  14.386  1.00  0.00     0.025 C 
HETATM   23  O   UNL     1     -38.279 -48.601  12.920  1.00  0.00    -0.272 OA
BRANCH  21  24
HETATM   24  C   UNL     1     -40.878 -53.879  13.613  1.00  0.00     0.043 C 
BRANCH  24  25
HETATM   25  C   UNL     1     -42.367 -54.143  13.638  1.00  0.00    -0.058 A 
HETATM   26  C   UNL     1     -42.968 -54.846  14.693  1.00  0.00     0.007 A 
HETATM   27  C   UNL     1     -44.349 -55.053  14.714  1.00  0.00     0.001 A 
HETATM   28  C   UNL     1     -45.149 -54.548  13.695  1.00  0.00     0.000 A 
HETATM   29  C   UNL     1     -44.569 -53.842  12.648  1.00  0.00     0.001 A 
HETATM   30  C   UNL     1     -43.187 -53.634  12.621  1.00  0.00     0.007 A 
ENDBRANCH  24  25
ENDBRANCH  21  24
ENDBRANCH   1  16
TORSDOF 5
ENDMDL
MODEL 3
REMARK VINA RESULT:      -6.7      2.519      2.924
REMARK  5 active torsions:
REMARK  status: ('A' for Active; 'I' for Inactive)
REMARK    1  A    between atoms: N_1  and  C_7 
REMARK    2  A    between atoms: N_2  and  C_10 
REMARK    3  A    between atoms: C_7  and  C_8 
REMARK       I    between atoms: C_8  and  N_9 
REMARK    4  A    between atoms: C_18  and  C_21 
REMARK    5  A    between atoms: C_18  and  C_22 
ROOT
HETATM    1  C   UNL     1     -38.812 -51.081  15.474  1.00  0.00     0.240 C 
ENDROOT
BRANCH   1   2
HETATM    2  N   UNL     1     -38.336 -49.693  15.412  1.00  0.00    -0.255 N 
HETATM    3  C   UNL     1     -39.275 -48.688  15.214  1.00  0.00     0.334 C 
HETATM    4  N   UNL     1     -38.775 -47.410  14.976  1.00  0.00    -0.279 N 
HETATM    5  O   UNL     1     -40.490 -48.889  15.266  1.00  0.00    -0.246 OA
HETATM    6  C   UNL     1     -37.469 -47.083  15.263  1.00  0.00     0.146 C 
HETATM    7  C   UNL     1     -36.614 -48.004  15.700  1.00  0.00     0.200 C 
HETATM    8  C   UNL     1     -37.022 -49.427  15.781  1.00  0.00     0.292 C 
HETATM    9  F   UNL     1     -35.347 -47.699  16.036  1.00  0.00    -0.199 F 
HETATM   10  O   UNL     1     -36.229 -50.269  16.194  1.00  0.00    -0.264 OA
BRANCH   4  11
HETATM   11  C   UNL     1     -39.634 -46.514  14.227  1.00  0.00     0.232 C 
HETATM   12  O   UNL     1     -39.515 -46.830  12.826  1.00  0.00    -0.366 OA
HETATM   13  C   UNL     1     -39.821 -45.640  12.085  1.00  0.00     0.170 C 
HETATM   14  C   UNL     1     -40.166 -44.563  13.096  1.00  0.00     0.031 C 
HETATM   15  C   UNL     1     -39.396 -45.016  14.320  1.00  0.00     0.056 C 
ENDBRANCH   4  11
ENDBRANCH   1   2
BRANCH   1  16
HETATM   16  C   UNL     1     -39.067 -51.758  14.101  1.00  0.00     0.238 C 
HETATM   17  N   UNL     1     -40.320 -52.310  13.808  1.00  0.00    -0.351 N 
HETATM   18  C   UNL     1     -41.556 -52.014  14.514  1.00  0.00     0.126 C 
HETATM   19  C   UNL     1     -40.518 -53.034  12.547  1.00  0.00     0.126 C 
HETATM   20  C   UNL     1     -42.363 -53.274  14.799  1.00  0.00     0.025 C 
HETATM   21  C   UNL     1     -42.623 -54.137  13.553  1.00  0.00    -0.007 C 
HETATM   22  C   UNL     1     -41.314 -54.327  12.761  1.00  0.00     0.025 C 
HETATM   23  O   UNL     1     -38.147 -51.832  13.285  1.00  0.00    -0.272 OA
BRANCH  21  24
HETATM   24  C   UNL     1     -43.784 -53.561  12.715  1.00  0.00     0.043 C 
BRANCH  24  25
HETATM   25  C   UNL     1     -44.995 -53.133  13.515  1.00  0.00    -0.058 A 
HETATM   26  C   UNL     1     -45.751 -54.059  14.249  1.00  0.00     0.007 A 
HETATM   27  C   UNL     1     -46.847 -53.640  15.006  1.00  0.00     0.001 A 
HETATM   28  C   UNL     1     -47.193 -52.294  15.054  1.00  0.00     0.000 A 
HETATM   29  C   UNL     1     -46.448 -51.364  14.339  1.00  0.00     0.001 A 
HETATM   30  C   UNL     1     -45.351 -51.778  13.578  1.00  0.00     0.007 A 
ENDBRANCH  24  25
ENDBRANCH  21  24
ENDBRANCH   1  16
TORSDOF 5
ENDMDL
MODEL 4
REMARK VINA RESULT:      -6.7      2.192      3.086
REMARK  5 active torsions:
REMARK  status: ('A' for Active; 'I' for Inactive)
REMARK    1  A    between atoms: N_1  and  C_7 
REMARK    2  A    between atoms: N_2  and  C_10 
REMARK    3  A    between atoms: C_7  and  C_8 
REMARK       I    between atoms: C_8  and  N_9 
REMARK    4  A    between atoms: C_18  and  C_21 
REMARK    5  A    between atoms: C_18  and  C_22 
ROOT
HETATM    1  C   UNL     1     -40.226 -49.112  13.715  1.00  0.00     0.240 C 
ENDROOT
BRANCH   1   2
HETATM    2  N   UNL     1     -40.501 -47.879  12.966  1.00  0.00    -0.255 N 
HETATM    3  C   UNL     1     -41.784 -47.689  12.467  1.00  0.00     0.334 C 
HETATM    4  N   UNL     1     -41.962 -46.606  11.610  1.00  0.00    -0.279 N 
HETATM    5  O   UNL     1     -42.734 -48.411  12.773  1.00  0.00    -0.246 OA
HETATM    6  C   UNL     1     -41.037 -45.589  11.532  1.00  0.00     0.146 C 
HETATM    7  C   UNL     1     -39.897 -45.649  12.215  1.00  0.00     0.200 C 
HETATM    8  C   UNL     1     -39.549 -46.867  12.987  1.00  0.00     0.292 C 
HETATM    9  F   UNL     1     -38.999 -44.646  12.196  1.00  0.00    -0.199 F 
HETATM   10  O   UNL     1     -38.498 -46.910  13.621  1.00  0.00    -0.264 OA
BRANCH   4  11
HETATM   11  C   UNL     1     -43.056 -46.709  10.664  1.00  0.00     0.232 C 
HETATM   12  O   UNL     1     -42.720 -47.709   9.683  1.00  0.00    -0.366 OA
HETATM   13  C   UNL     1     -43.431 -47.390   8.477  1.00  0.00     0.170 C 
HETATM   14  C   UNL     1     -44.255 -46.148   8.762  1.00  0.00     0.031 C 
HETATM   15  C   UNL     1     -43.455 -45.481   9.863  1.00  0.00     0.056 C 
ENDBRANCH   4  11
ENDBRANCH   1   2
BRANCH   1  16
HETATM   16  C   UNL     1     -40.131 -50.403  12.858  1.00  0.00     0.238 C 
HETATM   17  N   UNL     1     -40.990 -51.480  13.105  1.00  0.00    -0.351 N 
HETATM   18  C   UNL     1     -42.232 -51.410  13.856  1.00  0.00     0.126 C 
HETATM   19  C   UNL     1     -40.822 -52.730  12.354  1.00  0.00     0.126 C 
HETATM   20  C   UNL     1     -42.379 -52.578  14.821  1.00  0.00     0.025 C 
HETATM   21  C   UNL     1     -42.204 -53.955  14.157  1.00  0.00    -0.007 C 
HETATM   22  C   UNL     1     -40.943 -53.955  13.269  1.00  0.00     0.025 C 
HETATM   23  O   UNL     1     -39.268 -50.481  11.981  1.00  0.00    -0.272 OA
BRANCH  21  24
HETATM   24  C   UNL     1     -43.491 -54.379  13.419  1.00  0.00     0.043 C 
BRANCH  24  25
HETATM   25  C   UNL     1     -44.739 -53.631  13.833  1.00  0.00    -0.058 A 
HETATM   26  C   UNL     1     -45.302 -53.796  15.107  1.00  0.00     0.007 A 
HETATM   27  C   UNL     1     -46.436 -53.073  15.481  1.00  0.00     0.001 A 
HETATM   28  C   UNL     1     -47.012 -52.166  14.600  1.00  0.00     0.000 A 
HETATM   29  C   UNL     1     -46.461 -51.986  13.337  1.00  0.00     0.001 A 
HETATM   30  C   UNL     1     -45.326 -52.708  12.956  1.00  0.00     0.007 A 
ENDBRANCH  24  25
ENDBRANCH  21  24
ENDBRANCH   1  16
TORSDOF 5
ENDMDL
MODEL 5
REMARK VINA RESULT:      -6.6      2.903      7.609
REMARK  5 active torsions:
REMARK  status: ('A' for Active; 'I' for Inactive)
REMARK    1  A    between atoms: N_1  and  C_7 
REMARK    2  A    between atoms: N_2  and  C_10 
REMARK    3  A    between atoms: C_7  and  C_8 
REMARK       I    between atoms: C_8  and  N_9 
REMARK    4  A    between atoms: C_18  and  C_21 
REMARK    5  A    between atoms: C_18  and  C_22 
ROOT
HETATM    1  C   UNL     1     -40.902 -52.769  12.167  1.00  0.00     0.240 C 
ENDROOT
BRANCH   1   2
HETATM    2  N   UNL     1     -41.771 -53.338  13.206  1.00  0.00    -0.255 N 
HETATM    3  C   UNL     1     -43.141 -53.135  13.095  1.00  0.00     0.334 C 
HETATM    4  N   UNL     1     -43.915 -53.526  14.185  1.00  0.00    -0.279 N 
HETATM    5  O   UNL     1     -43.668 -52.661  12.087  1.00  0.00    -0.246 OA
HETATM    6  C   UNL     1     -43.422 -54.369  15.154  1.00  0.00     0.146 C 
HETATM    7  C   UNL     1     -42.155 -54.775  15.126  1.00  0.00     0.200 C 
HETATM    8  C   UNL     1     -41.218 -54.236  14.111  1.00  0.00     0.292 C 
HETATM    9  F   UNL     1     -41.662 -55.639  16.032  1.00  0.00    -0.199 F 
HETATM   10  O   UNL     1     -40.052 -54.622  14.087  1.00  0.00    -0.264 OA
BRANCH   4  11
HETATM   11  C   UNL     1     -45.182 -52.839  14.351  1.00  0.00     0.232 C 
HETATM   12  O   UNL     1     -44.938 -51.582  15.011  1.00  0.00    -0.366 OA
HETATM   13  C   UNL     1     -46.138 -51.218  15.710  1.00  0.00     0.170 C 
HETATM   14  C   UNL     1     -47.161 -52.303  15.431  1.00  0.00     0.031 C 
HETATM   15  C   UNL     1     -46.282 -53.507  15.159  1.00  0.00     0.056 C 
ENDBRANCH   4  11
ENDBRANCH   1   2
BRANCH   1  16
HETATM   16  C   UNL     1     -39.967 -51.622  12.638  1.00  0.00     0.238 C 
HETATM   17  N   UNL     1     -40.356 -50.286  12.486  1.00  0.00    -0.351 N 
HETATM   18  C   UNL     1     -41.716 -49.827  12.256  1.00  0.00     0.126 C 
HETATM   19  C   UNL     1     -39.422 -49.212  12.844  1.00  0.00     0.126 C 
HETATM   20  C   UNL     1     -41.777 -48.752  11.178  1.00  0.00     0.025 C 
HETATM   21  C   UNL     1     -40.822 -47.572  11.427  1.00  0.00    -0.007 C 
HETATM   22  C   UNL     1     -39.420 -48.097  11.791  1.00  0.00     0.025 C 
HETATM   23  O   UNL     1     -38.866 -51.901  13.116  1.00  0.00    -0.272 OA
BRANCH  21  24
HETATM   24  C   UNL     1     -41.414 -46.593  12.463  1.00  0.00     0.043 C 
BRANCH  24  25
HETATM   25  C   UNL     1     -41.002 -45.148  12.281  1.00  0.00    -0.058 A 
HETATM   26  C   UNL     1     -41.691 -44.297  11.405  1.00  0.00     0.007 A 
HETATM   27  C   UNL     1     -41.316 -42.958  11.274  1.00  0.00     0.001 A 
HETATM   28  C   UNL     1     -40.262 -42.449  12.024  1.00  0.00     0.000 A 
HETATM   29  C   UNL     1     -39.575 -43.279  12.902  1.00  0.00     0.001 A 
HETATM   30  C   UNL     1     -39.945 -44.620  13.036  1.00  0.00     0.007 A 
ENDBRANCH  24  25
ENDBRANCH  21  24
ENDBRANCH   1  16
TORSDOF 5
ENDMDL
MODEL 6
REMARK VINA RESULT:      -6.6      2.870      7.737
REMARK  5 active torsions:
REMARK  status: ('A' for Active; 'I' for Inactive)
REMARK    1  A    between atoms: N_1  and  C_7 
REMARK    2  A    between atoms: N_2  and  C_10 
REMARK    3  A    between atoms: C_7  and  C_8 
REMARK       I    between atoms: C_8  and  N_9 
REMARK    4  A    between atoms: C_18  and  C_21 
REMARK    5  A    between atoms: C_18  and  C_22 
ROOT
HETATM    1  C   UNL     1     -39.342 -53.441  13.962  1.00  0.00     0.240 C 
ENDROOT
BRANCH   1   2
HETATM    2  N   UNL     1     -40.386 -54.206  14.656  1.00  0.00    -0.255 N 
HETATM    3  C   UNL     1     -41.665 -54.208  14.115  1.00  0.00     0.334 C 
HETATM    4  N   UNL     1     -42.666 -54.786  14.891  1.00  0.00    -0.279 N 
HETATM    5  O   UNL     1     -41.919 -53.752  12.998  1.00  0.00    -0.246 OA
HETATM    6  C   UNL     1     -42.370 -55.608  15.954  1.00  0.00     0.146 C 
HETATM    7  C   UNL     1     -41.109 -55.813  16.328  1.00  0.00     0.200 C 
HETATM    8  C   UNL     1     -40.004 -55.068  15.677  1.00  0.00     0.292 C 
HETATM    9  F   UNL     1     -40.789 -56.651  17.331  1.00  0.00    -0.199 F 
HETATM   10  O   UNL     1     -38.843 -55.270  16.024  1.00  0.00    -0.264 OA
BRANCH   4  11
HETATM   11  C   UNL     1     -44.017 -54.314  14.652  1.00  0.00     0.232 C 
HETATM   12  O   UNL     1     -44.597 -53.929  15.913  1.00  0.00    -0.366 OA
HETATM   13  C   UNL     1     -46.021 -54.067  15.795  1.00  0.00     0.170 C 
HETATM   14  C   UNL     1     -46.307 -54.534  14.380  1.00  0.00     0.031 C 
HETATM   15  C   UNL     1     -45.025 -55.258  14.019  1.00  0.00     0.056 C 
ENDBRANCH   4  11
ENDBRANCH   1   2
BRANCH   1  16
HETATM   16  C   UNL     1     -39.099 -52.006  14.503  1.00  0.00     0.238 C 
HETATM   17  N   UNL     1     -39.432 -50.892  13.724  1.00  0.00    -0.351 N 
HETATM   18  C   UNL     1     -40.328 -50.903  12.579  1.00  0.00     0.126 C 
HETATM   19  C   UNL     1     -39.104 -49.545  14.206  1.00  0.00     0.126 C 
HETATM   20  C   UNL     1     -39.772 -50.094  11.415  1.00  0.00     0.025 C 
HETATM   21  C   UNL     1     -39.368 -48.659  11.796  1.00  0.00    -0.007 C 
HETATM   22  C   UNL     1     -38.523 -48.674  13.085  1.00  0.00     0.025 C 
HETATM   23  O   UNL     1     -38.578 -51.860  15.610  1.00  0.00    -0.272 OA
BRANCH  21  24
HETATM   24  C   UNL     1     -40.606 -47.739  11.869  1.00  0.00     0.043 C 
BRANCH  24  25
HETATM   25  C   UNL     1     -40.300 -46.257  11.839  1.00  0.00    -0.058 A 
HETATM   26  C   UNL     1     -40.332 -45.529  10.641  1.00  0.00     0.007 A 
HETATM   27  C   UNL     1     -40.077 -44.156  10.638  1.00  0.00     0.001 A 
HETATM   28  C   UNL     1     -39.805 -43.490  11.828  1.00  0.00     0.000 A 
HETATM   29  C   UNL     1     -39.778 -44.198  13.024  1.00  0.00     0.001 A 
HETATM   30  C   UNL     1     -40.031 -45.573  13.032  1.00  0.00     0.007 A 
ENDBRANCH  24  25
ENDBRANCH  21  24
ENDBRANCH   1  16
TORSDOF 5
ENDMDL
MODEL 7
REMARK VINA RESULT:      -6.6      3.392      8.172
REMARK  5 active torsions:
REMARK  status: ('A' for Active; 'I' for Inactive)
REMARK    1  A    between atoms: N_1  and  C_7 
REMARK    2  A    between atoms: N_2  and  C_10 
REMARK    3  A    between atoms: C_7  and  C_8 
REMARK       I    between atoms: C_8  and  N_9 
REMARK    4  A    between atoms: C_18  and  C_21 
REMARK    5  A    between atoms: C_18  and  C_22 
ROOT
HETATM    1  C   UNL     1     -39.952 -49.999  13.694  1.00  0.00     0.240 C 
ENDROOT
BRANCH   1   2
HETATM    2  N   UNL     1     -41.001 -51.019  13.559  1.00  0.00    -0.255 N 
HETATM    3  C   UNL     1     -42.325 -50.600  13.564  1.00  0.00     0.334 C 
HETATM    4  N   UNL     1     -43.292 -51.601  13.621  1.00  0.00    -0.279 N 
HETATM    5  O   UNL     1     -42.651 -49.414  13.497  1.00  0.00    -0.246 OA
HETATM    6  C   UNL     1     -42.988 -52.913  13.338  1.00  0.00     0.146 C 
HETATM    7  C   UNL     1     -41.736 -53.284  13.080  1.00  0.00     0.200 C 
HETATM    8  C   UNL     1     -40.625 -52.310  13.205  1.00  0.00     0.292 C 
HETATM    9  F   UNL     1     -41.420 -54.550  12.751  1.00  0.00    -0.199 F 
HETATM   10  O   UNL     1     -39.474 -52.659  12.957  1.00  0.00    -0.264 OA
BRANCH   4  11
HETATM   11  C   UNL     1     -44.572 -51.225  14.190  1.00  0.00     0.232 C 
HETATM   12  O   UNL     1     -44.732 -51.909  15.448  1.00  0.00    -0.366 OA
HETATM   13  C   UNL     1     -46.140 -52.051  15.688  1.00  0.00     0.170 C 
HETATM   14  C   UNL     1     -46.858 -51.394  14.524  1.00  0.00     0.031 C 
HETATM   15  C   UNL     1     -45.841 -51.523  13.408  1.00  0.00     0.056 C 
ENDBRANCH   4  11
ENDBRANCH   1   2
BRANCH   1  16
HETATM   16  C   UNL     1     -39.691 -49.144  12.425  1.00  0.00     0.238 C 
HETATM   17  N   UNL     1     -39.858 -47.755  12.463  1.00  0.00    -0.351 N 
HETATM   18  C   UNL     1     -39.910 -46.946  13.671  1.00  0.00     0.126 C 
HETATM   19  C   UNL     1     -39.704 -46.970  11.232  1.00  0.00     0.126 C 
HETATM   20  C   UNL     1     -41.025 -45.911  13.613  1.00  0.00     0.025 C 
HETATM   21  C   UNL     1     -40.988 -45.031  12.352  1.00  0.00    -0.007 C 
HETATM   22  C   UNL     1     -40.807 -45.912  11.100  1.00  0.00     0.025 C 
HETATM   23  O   UNL     1     -39.367 -49.704  11.377  1.00  0.00    -0.272 OA
BRANCH  21  24
HETATM   24  C   UNL     1     -39.932 -43.913  12.490  1.00  0.00     0.043 C 
BRANCH  24  25
HETATM   25  C   UNL     1     -40.441 -42.517  12.205  1.00  0.00    -0.058 A 
HETATM   26  C   UNL     1     -39.817 -41.386  12.750  1.00  0.00     0.007 A 
HETATM   27  C   UNL     1     -40.283 -40.104  12.451  1.00  0.00     0.001 A 
HETATM   28  C   UNL     1     -41.365 -39.933  11.595  1.00  0.00     0.000 A 
HETATM   29  C   UNL     1     -41.989 -41.045  11.041  1.00  0.00     0.001 A 
HETATM   30  C   UNL     1     -41.527 -42.331  11.338  1.00  0.00     0.007 A 
ENDBRANCH  24  25
ENDBRANCH  21  24
ENDBRANCH   1  16
TORSDOF 5
ENDMDL
MODEL 8
REMARK VINA RESULT:      -6.5      2.806      7.027
REMARK  5 active torsions:
REMARK  status: ('A' for Active; 'I' for Inactive)
REMARK    1  A    between atoms: N_1  and  C_7 
REMARK    2  A    between atoms: N_2  and  C_10 
REMARK    3  A    between atoms: C_7  and  C_8 
REMARK       I    between atoms: C_8  and  N_9 
REMARK    4  A    between atoms: C_18  and  C_21 
REMARK    5  A    between atoms: C_18  and  C_22 
ROOT
HETATM    1  C   UNL     1     -39.769 -52.524  13.955  1.00  0.00     0.240 C 
ENDROOT
BRANCH   1   2
HETATM    2  N   UNL     1     -41.101 -53.122  14.109  1.00  0.00    -0.255 N 
HETATM    3  C   UNL     1     -42.146 -52.592  13.364  1.00  0.00     0.334 C 
HETATM    4  N   UNL     1     -43.424 -53.056  13.669  1.00  0.00    -0.279 N 
HETATM    5  O   UNL     1     -41.974 -51.772  12.460  1.00  0.00    -0.246 OA
HETATM    6  C   UNL     1     -43.617 -54.205  14.401  1.00  0.00     0.146 C 
HETATM    7  C   UNL     1     -42.584 -54.869  14.915  1.00  0.00     0.200 C 
HETATM    8  C   UNL     1     -41.211 -54.320  14.805  1.00  0.00     0.292 C 
HETATM    9  F   UNL     1     -42.742 -56.022  15.591  1.00  0.00    -0.199 F 
HETATM   10  O   UNL     1     -40.263 -54.944  15.276  1.00  0.00    -0.264 OA
BRANCH   4  11
HETATM   11  C   UNL     1     -44.523 -52.162  13.357  1.00  0.00     0.232 C 
HETATM   12  O   UNL     1     -45.151 -51.761  14.589  1.00  0.00    -0.366 OA
HETATM   13  C   UNL     1     -46.517 -51.434  14.294  1.00  0.00     0.170 C 
HETATM   14  C   UNL     1     -46.707 -51.626  12.801  1.00  0.00     0.031 C 
HETATM   15  C   UNL     1     -45.655 -52.667  12.477  1.00  0.00     0.056 C 
ENDBRANCH   4  11
ENDBRANCH   1   2
BRANCH   1  16
HETATM   16  C   UNL     1     -39.369 -51.501  15.052  1.00  0.00     0.238 C 
HETATM   17  N   UNL     1     -39.306 -50.134  14.755  1.00  0.00    -0.351 N 
HETATM   18  C   UNL     1     -39.925 -49.495  13.606  1.00  0.00     0.126 C 
HETATM   19  C   UNL     1     -38.830 -49.190  15.773  1.00  0.00     0.126 C 
HETATM   20  C   UNL     1     -38.989 -48.494  12.940  1.00  0.00     0.025 C 
HETATM   21  C   UNL     1     -38.403 -47.455  13.911  1.00  0.00    -0.007 C 
HETATM   22  C   UNL     1     -37.867 -48.158  15.174  1.00  0.00     0.025 C 
HETATM   23  O   UNL     1     -39.074 -51.908  16.177  1.00  0.00    -0.272 OA
BRANCH  21  24
HETATM   24  C   UNL     1     -39.423 -46.334  14.202  1.00  0.00     0.043 C 
BRANCH  24  25
HETATM   25  C   UNL     1     -40.232 -45.883  13.005  1.00  0.00    -0.058 A 
HETATM   26  C   UNL     1     -39.636 -45.203  11.934  1.00  0.00     0.007 A 
HETATM   27  C   UNL     1     -40.393 -44.822  10.825  1.00  0.00     0.001 A 
HETATM   28  C   UNL     1     -41.748 -45.128  10.761  1.00  0.00     0.000 A 
HETATM   29  C   UNL     1     -42.351 -45.809  11.813  1.00  0.00     0.001 A 
HETATM   30  C   UNL     1     -41.598 -46.191  12.926  1.00  0.00     0.007 A 
ENDBRANCH  24  25
ENDBRANCH  21  24
ENDBRANCH   1  16
TORSDOF 5
ENDMDL
MODEL 9
REMARK VINA RESULT:      -6.5      2.774      7.050
REMARK  5 active torsions:
REMARK  status: ('A' for Active; 'I' for Inactive)
REMARK    1  A    between atoms: N_1  and  C_7 
REMARK    2  A    between atoms: N_2  and  C_10 
REMARK    3  A    between atoms: C_7  and  C_8 
REMARK       I    between atoms: C_8  and  N_9 
REMARK    4  A    between atoms: C_18  and  C_21 
REMARK    5  A    between atoms: C_18  and  C_22 
ROOT
HETATM    1  C   UNL     1     -40.836 -54.131  13.334  1.00  0.00     0.240 C 
ENDROOT
BRANCH   1   2
HETATM    2  N   UNL     1     -41.881 -54.128  14.366  1.00  0.00    -0.255 N 
HETATM    3  C   UNL     1     -43.102 -53.542  14.059  1.00  0.00     0.334 C 
HETATM    4  N   UNL     1     -44.000 -53.392  15.112  1.00  0.00    -0.279 N 
HETATM    5  O   UNL     1     -43.407 -53.190  12.918  1.00  0.00    -0.246 OA
HETATM    6  C   UNL     1     -43.848 -54.082  16.293  1.00  0.00     0.146 C 
HETATM    7  C   UNL     1     -42.786 -54.857  16.499  1.00  0.00     0.200 C 
HETATM    8  C   UNL     1     -41.687 -54.903  15.504  1.00  0.00     0.292 C 
HETATM    9  F   UNL     1     -42.638 -55.582  17.623  1.00  0.00    -0.199 F 
HETATM   10  O   UNL     1     -40.714 -55.627  15.698  1.00  0.00    -0.264 OA
BRANCH   4  11
HETATM   11  C   UNL     1     -44.974 -52.326  14.978  1.00  0.00     0.232 C 
HETATM   12  O   UNL     1     -44.979 -51.555  16.195  1.00  0.00    -0.366 OA
HETATM   13  C   UNL     1     -46.278 -50.955  16.324  1.00  0.00     0.170 C 
HETATM   14  C   UNL     1     -47.082 -51.371  15.106  1.00  0.00     0.031 C 
HETATM   15  C   UNL     1     -46.430 -52.685  14.727  1.00  0.00     0.056 C 
ENDBRANCH   4  11
ENDBRANCH   1   2
BRANCH   1  16
HETATM   16  C   UNL     1     -39.572 -53.293  13.665  1.00  0.00     0.238 C 
HETATM   17  N   UNL     1     -39.500 -51.946  13.291  1.00  0.00    -0.351 N 
HETATM   18  C   UNL     1     -40.634 -51.111  12.929  1.00  0.00     0.126 C 
HETATM   19  C   UNL     1     -38.261 -51.193  13.521  1.00  0.00     0.126 C 
HETATM   20  C   UNL     1     -40.345 -50.264  11.697  1.00  0.00     0.025 C 
HETATM   21  C   UNL     1     -39.052 -49.436  11.805  1.00  0.00    -0.007 C 
HETATM   22  C   UNL     1     -37.899 -50.325  12.310  1.00  0.00     0.025 C 
HETATM   23  O   UNL     1     -38.621 -53.835  14.230  1.00  0.00    -0.272 OA
BRANCH  21  24
HETATM   24  C   UNL     1     -39.280 -48.164  12.649  1.00  0.00     0.043 C 
BRANCH  24  25
HETATM   25  C   UNL     1     -40.338 -47.225  12.112  1.00  0.00    -0.058 A 
HETATM   26  C   UNL     1     -41.577 -47.077  12.753  1.00  0.00     0.007 A 
HETATM   27  C   UNL     1     -42.529 -46.182  12.260  1.00  0.00     0.001 A 
HETATM   28  C   UNL     1     -42.253 -45.414  11.134  1.00  0.00     0.000 A 
HETATM   29  C   UNL     1     -41.027 -45.545  10.493  1.00  0.00     0.001 A 
HETATM   30  C   UNL     1     -40.071 -46.440  10.982  1.00  0.00     0.007 A 
ENDBRANCH  24  25
ENDBRANCH  21  24
ENDBRANCH   1  16
TORSDOF 5
ENDMDL
