MODEL 1
REMARK VINA RESULT:      -5.6      0.000      0.000
REMARK  3 active torsions:
REMARK  status: ('A' for Active; 'I' for Inactive)
REMARK    1  A    between atoms: N_7  and  C_8 
REMARK    2  A    between atoms: C_8  and  C_9 
REMARK       I    between atoms: C_9  and  N_11 
REMARK       I    between atoms: N_11  and  C_12 
REMARK       I    between atoms: C_12  and  N_14 
REMARK    3  A    between atoms: N_14  and  C_15 
ROOT
HETATM    1  C   UNL     1     -40.882 -52.315  12.410  1.00  0.00     0.243 C 
HETATM    2  O   UNL     1     -40.501 -53.424  12.026  1.00  0.00    -0.271 OA
HETATM    3  N   UNL     1     -40.766 -51.231  11.554  1.00  0.00    -0.278 N 
HETATM    4  C   UNL     1     -41.504 -50.082  11.657  1.00  0.00     0.323 C 
HETATM    5  O   UNL     1     -42.321 -49.866  12.545  1.00  0.00    -0.247 OA
HETATM    6  N   UNL     1     -41.249 -49.158  10.669  1.00  0.00    -0.338 N 
HETATM    7  H   UNL     1     -40.384 -51.467  10.652  1.00  0.00     0.173 HD
HETATM    8  H   UNL     1     -40.302 -49.157  10.318  1.00  0.00     0.164 HD
ENDROOT
BRANCH   1   9
HETATM    9  C   UNL     1     -41.566 -52.056  13.760  1.00  0.00     0.233 C 
BRANCH   9  10
HETATM   10  N   UNL     1     -42.614 -53.010  14.083  1.00  0.00    -0.329 N 
HETATM   11  C   UNL     1     -43.809 -53.004  13.402  1.00  0.00     0.144 A 
HETATM   12  N   UNL     1     -44.290 -52.147  12.578  1.00  0.00    -0.379 N 
HETATM   13  S   UNL     1     -44.704 -54.498  13.762  1.00  0.00    -0.065 SA
HETATM   14  H   UNL     1     -45.196 -52.517  12.269  1.00  0.00     0.158 HD
ATOM     15  HN  UNL     1     -43.858 -51.270  12.288  1.00  0.00     0.158 HD
HETATM   16  C   UNL     1     -43.394 -55.060  14.780  1.00  0.00     0.070 A 
HETATM   17  C   UNL     1     -42.403 -54.160  14.829  1.00  0.00     0.101 A 
ENDBRANCH   9  10
ENDBRANCH   1   9
BRANCH   6  18
HETATM   18  C   UNL     1     -41.889 -47.856  10.809  1.00  0.00     0.086 C 
HETATM   19  C   UNL     1     -42.945 -47.568   9.727  1.00  0.00     0.025 C 
HETATM   20  C   UNL     1     -42.857 -46.078   9.418  1.00  0.00     0.002 C 
HETATM   21  C   UNL     1     -41.833 -45.511  10.389  1.00  0.00     0.002 C 
HETATM   22  C   UNL     1     -40.920 -46.687  10.705  1.00  0.00     0.025 C 
ENDBRANCH   6  18
TORSDOF 3
ENDMDL
MODEL 2
REMARK VINA RESULT:      -5.6      2.670      6.607
REMARK  3 active torsions:
REMARK  status: ('A' for Active; 'I' for Inactive)
REMARK    1  A    between atoms: N_7  and  C_8 
REMARK    2  A    between atoms: C_8  and  C_9 
REMARK       I    between atoms: C_9  and  N_11 
REMARK       I    between atoms: N_11  and  C_12 
REMARK       I    between atoms: C_12  and  N_14 
REMARK    3  A    between atoms: N_14  and  C_15 
ROOT
HETATM    1  C   UNL     1     -39.822 -49.987  11.525  1.00  0.00     0.243 C 
HETATM    2  O   UNL     1     -38.716 -49.948  10.981  1.00  0.00    -0.271 OA
HETATM    3  N   UNL     1     -40.515 -51.187  11.553  1.00  0.00    -0.278 N 
HETATM    4  C   UNL     1     -41.503 -51.490  12.452  1.00  0.00     0.323 C 
HETATM    5  O   UNL     1     -41.916 -50.714  13.307  1.00  0.00    -0.247 OA
HETATM    6  N   UNL     1     -42.020 -52.758  12.316  1.00  0.00    -0.338 N 
HETATM    7  H   UNL     1     -40.017 -51.951  11.125  1.00  0.00     0.173 HD
HETATM    8  H   UNL     1     -42.025 -53.120  11.373  1.00  0.00     0.164 HD
ENDROOT
BRANCH   1   9
HETATM    9  C   UNL     1     -40.464 -48.804  12.264  1.00  0.00     0.233 C 
BRANCH   9  10
HETATM   10  N   UNL     1     -41.001 -47.779  11.384  1.00  0.00    -0.329 N 
HETATM   11  C   UNL     1     -42.342 -47.739  11.082  1.00  0.00     0.144 A 
HETATM   12  N   UNL     1     -43.269 -48.597  11.308  1.00  0.00    -0.379 N 
HETATM   13  S   UNL     1     -42.731 -46.184  10.314  1.00  0.00    -0.065 SA
HETATM   14  H   UNL     1     -44.139 -48.186  10.951  1.00  0.00     0.158 HD
ATOM     15  HN  UNL     1     -43.163 -49.507  11.755  1.00  0.00     0.158 HD
HETATM   16  C   UNL     1     -41.067 -45.663  10.483  1.00  0.00     0.070 A 
HETATM   17  C   UNL     1     -40.320 -46.617  11.053  1.00  0.00     0.101 A 
ENDBRANCH   9  10
ENDBRANCH   1   9
BRANCH   6  18
HETATM   18  C   UNL     1     -43.176 -53.085  13.140  1.00  0.00     0.086 C 
HETATM   19  C   UNL     1     -42.857 -54.050  14.296  1.00  0.00     0.025 C 
HETATM   20  C   UNL     1     -44.075 -54.951  14.462  1.00  0.00     0.002 C 
HETATM   21  C   UNL     1     -45.112 -54.433  13.478  1.00  0.00     0.002 C 
HETATM   22  C   UNL     1     -44.294 -53.779  12.374  1.00  0.00     0.025 C 
ENDBRANCH   6  18
TORSDOF 3
ENDMDL
MODEL 3
REMARK VINA RESULT:      -5.5      3.793      6.859
REMARK  3 active torsions:
REMARK  status: ('A' for Active; 'I' for Inactive)
REMARK    1  A    between atoms: N_7  and  C_8 
REMARK    2  A    between atoms: C_8  and  C_9 
REMARK       I    between atoms: C_9  and  N_11 
REMARK       I    between atoms: N_11  and  C_12 
REMARK       I    between atoms: C_12  and  N_14 
REMARK    3  A    between atoms: N_14  and  C_15 
ROOT
HETATM    1  C   UNL     1     -40.729 -45.631  10.345  1.00  0.00     0.243 C 
HETATM    2  O   UNL     1     -40.336 -44.690   9.649  1.00  0.00    -0.271 OA
HETATM    3  N   UNL     1     -39.863 -46.680  10.606  1.00  0.00    -0.278 N 
HETATM    4  C   UNL     1     -39.987 -47.543  11.664  1.00  0.00     0.323 C 
HETATM    5  O   UNL     1     -40.907 -47.507  12.475  1.00  0.00    -0.247 OA
HETATM    6  N   UNL     1     -38.985 -48.481  11.748  1.00  0.00    -0.338 N 
HETATM    7  H   UNL     1     -38.947 -46.560  10.203  1.00  0.00     0.173 HD
HETATM    8  H   UNL     1     -38.596 -48.773  10.862  1.00  0.00     0.164 HD
ENDROOT
BRANCH   1   9
HETATM    9  C   UNL     1     -42.104 -45.687  11.027  1.00  0.00     0.233 C 
BRANCH   9  10
HETATM   10  N   UNL     1     -43.167 -46.186  10.171  1.00  0.00    -0.329 N 
HETATM   11  C   UNL     1     -43.757 -47.404  10.416  1.00  0.00     0.144 A 
HETATM   12  N   UNL     1     -43.416 -48.345  11.218  1.00  0.00    -0.379 N 
HETATM   13  S   UNL     1     -45.242 -47.549   9.449  1.00  0.00    -0.065 SA
HETATM   14  H   UNL     1     -44.127 -49.079  11.125  1.00  0.00     0.158 HD
ATOM     15  HN  UNL     1     -42.600 -48.360  11.829  1.00  0.00     0.158 HD
HETATM   16  C   UNL     1     -45.001 -45.939   8.802  1.00  0.00     0.070 A 
HETATM   17  C   UNL     1     -43.878 -45.391   9.285  1.00  0.00     0.101 A 
ENDBRANCH   9  10
ENDBRANCH   1   9
BRANCH   6  18
HETATM   18  C   UNL     1     -39.143 -49.519  12.758  1.00  0.00     0.086 C 
HETATM   19  C   UNL     1     -37.808 -50.044  13.317  1.00  0.00     0.025 C 
HETATM   20  C   UNL     1     -38.000 -51.533  13.577  1.00  0.00     0.002 C 
HETATM   21  C   UNL     1     -39.460 -51.826  13.267  1.00  0.00     0.002 C 
HETATM   22  C   UNL     1     -39.848 -50.767  12.244  1.00  0.00     0.025 C 
ENDBRANCH   6  18
TORSDOF 3
ENDMDL
MODEL 4
REMARK VINA RESULT:      -5.5      4.971      8.149
REMARK  3 active torsions:
REMARK  status: ('A' for Active; 'I' for Inactive)
REMARK    1  A    between atoms: N_7  and  C_8 
REMARK    2  A    between atoms: C_8  and  C_9 
REMARK       I    between atoms: C_9  and  N_11 
REMARK       I    between atoms: N_11  and  C_12 
REMARK       I    between atoms: C_12  and  N_14 
REMARK    3  A    between atoms: N_14  and  C_15 
ROOT
HETATM    1  C   UNL     1     -41.983 -46.018  10.286  1.00  0.00     0.243 C 
HETATM    2  O   UNL     1     -42.465 -45.612   9.226  1.00  0.00    -0.271 OA
HETATM    3  N   UNL     1     -41.287 -47.217  10.293  1.00  0.00    -0.278 N 
HETATM    4  C   UNL     1     -40.365 -47.572  11.242  1.00  0.00     0.323 C 
HETATM    5  O   UNL     1     -40.083 -46.885  12.218  1.00  0.00    -0.247 OA
HETATM    6  N   UNL     1     -39.769 -48.792  11.020  1.00  0.00    -0.338 N 
HETATM    7  H   UNL     1     -41.221 -47.651   9.386  1.00  0.00     0.173 HD
HETATM    8  H   UNL     1     -40.351 -49.475  10.557  1.00  0.00     0.164 HD
ENDROOT
BRANCH   1   9
HETATM    9  C   UNL     1     -42.023 -45.238  11.609  1.00  0.00     0.233 C 
BRANCH   9  10
HETATM   10  N   UNL     1     -41.611 -43.849  11.488  1.00  0.00    -0.329 N 
HETATM   11  C   UNL     1     -42.515 -42.872  11.143  1.00  0.00     0.144 A 
HETATM   12  N   UNL     1     -43.718 -42.971  10.707  1.00  0.00    -0.379 N 
HETATM   13  S   UNL     1     -41.803 -41.272  11.448  1.00  0.00    -0.065 SA
HETATM   14  H   UNL     1     -44.065 -42.012  10.591  1.00  0.00     0.158 HD
ATOM     15  HN  UNL     1     -44.228 -43.832  10.515  1.00  0.00     0.158 HD
HETATM   16  C   UNL     1     -40.342 -42.017  12.062  1.00  0.00     0.070 A 
HETATM   17  C   UNL     1     -40.423 -43.353  12.002  1.00  0.00     0.101 A 
ENDBRANCH   9  10
ENDBRANCH   1   9
BRANCH   6  18
HETATM   18  C   UNL     1     -38.894 -49.294  12.071  1.00  0.00     0.086 C 
HETATM   19  C   UNL     1     -37.552 -49.838  11.550  1.00  0.00     0.025 C 
HETATM   20  C   UNL     1     -37.191 -51.028  12.431  1.00  0.00     0.002 C 
HETATM   21  C   UNL     1     -38.267 -51.091  13.505  1.00  0.00     0.002 C 
HETATM   22  C   UNL     1     -39.488 -50.455  12.855  1.00  0.00     0.025 C 
ENDBRANCH   6  18
TORSDOF 3
ENDMDL
MODEL 5
REMARK VINA RESULT:      -5.3      3.057      6.461
REMARK  3 active torsions:
REMARK  status: ('A' for Active; 'I' for Inactive)
REMARK    1  A    between atoms: N_7  and  C_8 
REMARK    2  A    between atoms: C_8  and  C_9 
REMARK       I    between atoms: C_9  and  N_11 
REMARK       I    between atoms: N_11  and  C_12 
REMARK       I    between atoms: C_12  and  N_14 
REMARK    3  A    between atoms: N_14  and  C_15 
ROOT
HETATM    1  C   UNL     1     -40.831 -49.617  11.390  1.00  0.00     0.243 C 
HETATM    2  O   UNL     1     -40.979 -48.569  10.756  1.00  0.00    -0.271 OA
HETATM    3  N   UNL     1     -41.954 -50.308  11.816  1.00  0.00    -0.278 N 
HETATM    4  C   UNL     1     -41.969 -51.641  12.133  1.00  0.00     0.323 C 
HETATM    5  O   UNL     1     -40.978 -52.364  12.115  1.00  0.00    -0.247 OA
HETATM    6  N   UNL     1     -43.208 -52.122  12.490  1.00  0.00    -0.338 N 
HETATM    7  H   UNL     1     -42.823 -49.881  11.537  1.00  0.00     0.173 HD
HETATM    8  H   UNL     1     -43.810 -51.455  12.952  1.00  0.00     0.164 HD
ENDROOT
BRANCH   1   9
HETATM    9  C   UNL     1     -39.471 -50.271  11.675  1.00  0.00     0.233 C 
BRANCH   9  10
HETATM   10  N   UNL     1     -38.861 -49.846  12.924  1.00  0.00    -0.329 N 
HETATM   11  C   UNL     1     -38.412 -50.768  13.840  1.00  0.00     0.144 A 
HETATM   12  N   UNL     1     -38.586 -52.038  13.893  1.00  0.00    -0.379 N 
HETATM   13  S   UNL     1     -37.398 -49.953  15.052  1.00  0.00    -0.065 SA
HETATM   14  H   UNL     1     -38.070 -52.368  14.717  1.00  0.00     0.158 HD
ATOM     15  HN  UNL     1     -39.129 -52.607  13.245  1.00  0.00     0.158 HD
HETATM   16  C   UNL     1     -37.609 -48.422  14.228  1.00  0.00     0.070 A 
HETATM   17  C   UNL     1     -38.396 -48.560  13.153  1.00  0.00     0.101 A 
ENDBRANCH   9  10
ENDBRANCH   1   9
BRANCH   6  18
HETATM   18  C   UNL     1     -43.262 -53.492  12.984  1.00  0.00     0.086 C 
HETATM   19  C   UNL     1     -44.629 -54.169  12.779  1.00  0.00     0.025 C 
HETATM   20  C   UNL     1     -44.857 -55.067  13.989  1.00  0.00     0.002 C 
HETATM   21  C   UNL     1     -43.585 -54.978  14.818  1.00  0.00     0.002 C 
HETATM   22  C   UNL     1     -43.007 -53.611  14.480  1.00  0.00     0.025 C 
ENDBRANCH   6  18
TORSDOF 3
ENDMDL
MODEL 6
REMARK VINA RESULT:      -5.3      2.260      2.861
REMARK  3 active torsions:
REMARK  status: ('A' for Active; 'I' for Inactive)
REMARK    1  A    between atoms: N_7  and  C_8 
REMARK    2  A    between atoms: C_8  and  C_9 
REMARK       I    between atoms: C_9  and  N_11 
REMARK       I    between atoms: N_11  and  C_12 
REMARK       I    between atoms: C_12  and  N_14 
REMARK    3  A    between atoms: N_14  and  C_15 
ROOT
HETATM    1  C   UNL     1     -39.037 -49.739  13.359  1.00  0.00     0.243 C 
HETATM    2  O   UNL     1     -38.202 -49.523  14.241  1.00  0.00    -0.271 OA
HETATM    3  N   UNL     1     -39.908 -48.724  12.996  1.00  0.00    -0.278 N 
HETATM    4  C   UNL     1     -40.569 -48.662  11.798  1.00  0.00     0.323 C 
HETATM    5  O   UNL     1     -40.495 -49.522  10.926  1.00  0.00    -0.247 OA
HETATM    6  N   UNL     1     -41.348 -47.539  11.641  1.00  0.00    -0.338 N 
HETATM    7  H   UNL     1     -39.756 -47.862  13.495  1.00  0.00     0.173 HD
HETATM    8  H   UNL     1     -41.750 -47.174  12.493  1.00  0.00     0.164 HD
ENDROOT
BRANCH   1   9
HETATM    9  C   UNL     1     -39.131 -51.046  12.558  1.00  0.00     0.233 C 
BRANCH   9  10
HETATM   10  N   UNL     1     -40.013 -52.038  13.147  1.00  0.00    -0.329 N 
HETATM   11  C   UNL     1     -40.937 -52.707  12.379  1.00  0.00     0.144 A 
HETATM   12  N   UNL     1     -41.323 -52.496  11.174  1.00  0.00    -0.379 N 
HETATM   13  S   UNL     1     -41.578 -54.091  13.293  1.00  0.00    -0.065 SA
HETATM   14  H   UNL     1     -42.009 -53.228  10.956  1.00  0.00     0.158 HD
ATOM     15  HN  UNL     1     -41.011 -51.748  10.556  1.00  0.00     0.158 HD
HETATM   16  C   UNL     1     -40.531 -53.708  14.644  1.00  0.00     0.070 A 
HETATM   17  C   UNL     1     -39.798 -52.616  14.390  1.00  0.00     0.101 A 
ENDBRANCH   9  10
ENDBRANCH   1   9
BRANCH   6  18
HETATM   18  C   UNL     1     -42.193 -47.488  10.454  1.00  0.00     0.086 C 
HETATM   19  C   UNL     1     -42.215 -46.109   9.771  1.00  0.00     0.025 C 
HETATM   20  C   UNL     1     -43.628 -45.911   9.234  1.00  0.00     0.002 C 
HETATM   21  C   UNL     1     -44.367 -47.209   9.520  1.00  0.00     0.002 C 
HETATM   22  C   UNL     1     -43.658 -47.789  10.736  1.00  0.00     0.025 C 
ENDBRANCH   6  18
TORSDOF 3
ENDMDL
MODEL 7
REMARK VINA RESULT:      -5.2      3.007      4.122
REMARK  3 active torsions:
REMARK  status: ('A' for Active; 'I' for Inactive)
REMARK    1  A    between atoms: N_7  and  C_8 
REMARK    2  A    between atoms: C_8  and  C_9 
REMARK       I    between atoms: C_9  and  N_11 
REMARK       I    between atoms: N_11  and  C_12 
REMARK       I    between atoms: C_12  and  N_14 
REMARK    3  A    between atoms: N_14  and  C_15 
ROOT
HETATM    1  C   UNL     1     -43.940 -53.144  12.560  1.00  0.00     0.243 C 
HETATM    2  O   UNL     1     -44.906 -53.516  11.889  1.00  0.00    -0.271 OA
HETATM    3  N   UNL     1     -42.836 -52.614  11.912  1.00  0.00    -0.278 N 
HETATM    4  C   UNL     1     -41.910 -51.795  12.502  1.00  0.00     0.323 C 
HETATM    5  O   UNL     1     -41.932 -51.473  13.686  1.00  0.00    -0.247 OA
HETATM    6  N   UNL     1     -40.923 -51.354  11.651  1.00  0.00    -0.338 N 
HETATM    7  H   UNL     1     -42.941 -52.561  10.911  1.00  0.00     0.173 HD
HETATM    8  H   UNL     1     -40.674 -51.997  10.913  1.00  0.00     0.164 HD
ENDROOT
BRANCH   1   9
HETATM    9  C   UNL     1     -43.901 -53.146  14.096  1.00  0.00     0.233 C 
BRANCH   9  10
HETATM   10  N   UNL     1     -44.981 -52.395  14.714  1.00  0.00    -0.329 N 
HETATM   11  C   UNL     1     -46.234 -52.943  14.851  1.00  0.00     0.144 A 
HETATM   12  N   UNL     1     -46.730 -54.015  14.350  1.00  0.00    -0.379 N 
HETATM   13  S   UNL     1     -47.199 -51.947  15.962  1.00  0.00    -0.065 SA
HETATM   14  H   UNL     1     -47.689 -54.088  14.710  1.00  0.00     0.158 HD
ATOM     15  HN  UNL     1     -46.264 -54.667  13.720  1.00  0.00     0.158 HD
HETATM   16  C   UNL     1     -45.840 -50.871  16.209  1.00  0.00     0.070 A 
HETATM   17  C   UNL     1     -44.783 -51.257  15.482  1.00  0.00     0.101 A 
ENDBRANCH   9  10
ENDBRANCH   1   9
BRANCH   6  18
HETATM   18  C   UNL     1     -39.826 -50.605  12.252  1.00  0.00     0.086 C 
HETATM   19  C   UNL     1     -39.064 -49.717  11.253  1.00  0.00     0.025 C 
HETATM   20  C   UNL     1     -37.600 -49.742  11.674  1.00  0.00     0.002 C 
HETATM   21  C   UNL     1     -37.552 -50.553  12.960  1.00  0.00     0.002 C 
HETATM   22  C   UNL     1     -38.748 -51.489  12.863  1.00  0.00     0.025 C 
ENDBRANCH   6  18
TORSDOF 3
ENDMDL
MODEL 8
REMARK VINA RESULT:      -5.2      3.586      7.465
REMARK  3 active torsions:
REMARK  status: ('A' for Active; 'I' for Inactive)
REMARK    1  A    between atoms: N_7  and  C_8 
REMARK    2  A    between atoms: C_8  and  C_9 
REMARK       I    between atoms: C_9  and  N_11 
REMARK       I    between atoms: N_11  and  C_12 
REMARK       I    between atoms: C_12  and  N_14 
REMARK    3  A    between atoms: N_14  and  C_15 
ROOT
HETATM    1  C   UNL     1     -41.887 -47.749  10.546  1.00  0.00     0.243 C 
HETATM    2  O   UNL     1     -42.483 -47.203   9.614  1.00  0.00    -0.271 OA
HETATM    3  N   UNL     1     -42.381 -48.940  11.054  1.00  0.00    -0.278 N 
HETATM    4  C   UNL     1     -41.637 -49.851  11.756  1.00  0.00     0.323 C 
HETATM    5  O   UNL     1     -40.456 -49.693  12.051  1.00  0.00    -0.247 OA
HETATM    6  N   UNL     1     -42.329 -50.982  12.124  1.00  0.00    -0.338 N 
HETATM    7  H   UNL     1     -43.205 -49.272  10.578  1.00  0.00     0.173 HD
HETATM    8  H   UNL     1     -43.313 -50.842  12.305  1.00  0.00     0.164 HD
ENDROOT
BRANCH   1   9
HETATM    9  C   UNL     1     -40.565 -47.242  11.142  1.00  0.00     0.233 C 
BRANCH   9  10
HETATM   10  N   UNL     1     -40.586 -45.838  11.517  1.00  0.00    -0.329 N 
HETATM   11  C   UNL     1     -40.063 -44.877  10.684  1.00  0.00     0.144 A 
HETATM   12  N   UNL     1     -39.350 -44.997   9.624  1.00  0.00    -0.379 N 
HETATM   13  S   UNL     1     -40.575 -43.268  11.240  1.00  0.00    -0.065 SA
HETATM   14  H   UNL     1     -39.181 -44.045   9.278  1.00  0.00     0.158 HD
ATOM     15  HN  UNL     1     -39.016 -45.865   9.208  1.00  0.00     0.158 HD
HETATM   16  C   UNL     1     -41.499 -43.990  12.541  1.00  0.00     0.070 A 
HETATM   17  C   UNL     1     -41.384 -45.325  12.528  1.00  0.00     0.101 A 
ENDBRANCH   9  10
ENDBRANCH   1   9
BRANCH   6  18
HETATM   18  C   UNL     1     -41.637 -51.916  13.002  1.00  0.00     0.086 C 
HETATM   19  C   UNL     1     -40.913 -53.048  12.251  1.00  0.00     0.025 C 
HETATM   20  C   UNL     1     -41.038 -54.296  13.116  1.00  0.00     0.002 C 
HETATM   21  C   UNL     1     -41.736 -53.849  14.392  1.00  0.00     0.002 C 
HETATM   22  C   UNL     1     -42.561 -52.642  13.969  1.00  0.00     0.025 C 
ENDBRANCH   6  18
TORSDOF 3
ENDMDL
MODEL 9
REMARK VINA RESULT:      -5.0      3.258      5.776
REMARK  3 active torsions:
REMARK  status: ('A' for Active; 'I' for Inactive)
REMARK    1  A    between atoms: N_7  and  C_8 
REMARK    2  A    between atoms: C_8  and  C_9 
REMARK       I    between atoms: C_9  and  N_11 
REMARK       I    between atoms: N_11  and  C_12 
REMARK       I    between atoms: C_12  and  N_14 
REMARK    3  A    between atoms: N_14  and  C_15 
ROOT
HETATM    1  C   UNL     1     -40.839 -53.679  13.236  1.00  0.00     0.243 C 
HETATM    2  O   UNL     1     -39.872 -54.436  13.114  1.00  0.00    -0.271 OA
HETATM    3  N   UNL     1     -42.109 -54.163  12.969  1.00  0.00    -0.278 N 
HETATM    4  C   UNL     1     -43.266 -53.610  13.452  1.00  0.00     0.323 C 
HETATM    5  O   UNL     1     -43.308 -52.596  14.142  1.00  0.00    -0.247 OA
HETATM    6  N   UNL     1     -44.408 -54.286  13.092  1.00  0.00    -0.338 N 
HETATM    7  H   UNL     1     -42.126 -55.136  12.711  1.00  0.00     0.173 HD
HETATM    8  H   UNL     1     -44.369 -54.744  12.192  1.00  0.00     0.164 HD
ENDROOT
BRANCH   1   9
HETATM    9  C   UNL     1     -40.746 -52.235  13.753  1.00  0.00     0.233 C 
BRANCH   9  10
HETATM   10  N   UNL     1     -40.301 -51.278  12.754  1.00  0.00    -0.329 N 
HETATM   11  C   UNL     1     -41.203 -50.481  12.089  1.00  0.00     0.144 A 
HETATM   12  N   UNL     1     -42.484 -50.531  12.050  1.00  0.00    -0.379 N 
HETATM   13  S   UNL     1     -40.333 -49.185  11.237  1.00  0.00    -0.065 SA
HETATM   14  H   UNL     1     -42.788 -49.747  11.462  1.00  0.00     0.158 HD
ATOM     15  HN  UNL     1     -43.082 -51.215  12.512  1.00  0.00     0.158 HD
HETATM   16  C   UNL     1     -38.806 -49.773  11.862  1.00  0.00     0.070 A 
HETATM   17  C   UNL     1     -38.985 -50.861  12.622  1.00  0.00     0.101 A 
ENDBRANCH   9  10
ENDBRANCH   1   9
BRANCH   6  18
HETATM   18  C   UNL     1     -45.678 -53.663  13.445  1.00  0.00     0.086 C 
HETATM   19  C   UNL     1     -45.872 -52.266  12.829  1.00  0.00     0.025 C 
HETATM   20  C   UNL     1     -46.627 -51.436  13.860  1.00  0.00     0.002 C 
HETATM   21  C   UNL     1     -46.947 -52.385  15.005  1.00  0.00     0.002 C 
HETATM   22  C   UNL     1     -45.850 -53.438  14.941  1.00  0.00     0.025 C 
ENDBRANCH   6  18
TORSDOF 3
ENDMDL
