MODEL 1
REMARK VINA RESULT:      -6.4      0.000      0.000
REMARK  6 active torsions:
REMARK  status: ('A' for Active; 'I' for Inactive)
REMARK    1  A    between atoms: CA_2  and  C_3 
REMARK    2  A    between atoms: CA_2  and  N_5 
REMARK    3  A    between atoms: C_3  and  O_4 
REMARK       I    between atoms: N_5  and  C_8 
REMARK       I    between atoms: C_8  and  N_10 
REMARK    4  A    between atoms: N_10  and  C_11 
REMARK    5  A    between atoms: C_11  and  C_12 
REMARK    6  A    between atoms: C_17  and  N_19 
ROOT
HETATM    1  C   UNK A   0     -41.684 -51.350  12.521  1.00  0.00    -0.035 A 
HETATM    2  C   UNK A   0     -40.676 -52.308  12.567  1.00  0.00     0.026 A 
HETATM    3  C   UNK A   0     -41.045 -53.636  12.697  1.00  0.00     0.090 A 
HETATM    4  N   UNK A   0     -42.330 -54.070  12.776  1.00  0.00    -0.352 N 
ATOM      5  HN  UNK A   0     -42.545 -55.062  12.877  1.00  0.00     0.166 HD
HETATM    6  C   UNK A   0     -43.311 -53.151  12.718  1.00  0.00     0.103 A 
HETATM    7  C   UNK A   0     -43.007 -51.790  12.624  1.00  0.00     0.057 A 
ENDROOT
BRANCH   1   8
HETATM    8  C   UNK A   0     -41.385 -49.890  12.357  1.00  0.00     0.163 C 
BRANCH   8   9
HETATM    9  N   UNK A   0     -41.872 -49.358  11.106  1.00  0.00    -0.339 N 
HETATM   10  C   UNK A   0     -42.825 -48.372  11.144  1.00  0.00     0.316 C 
ATOM     11  N   ALA A   1     -43.346 -48.103   9.910  1.00  0.00    -0.337 N 
HETATM   12  O   UNK A   0     -43.187 -47.820  12.175  1.00  0.00    -0.247 OA
ATOM     13  H   ALA A   1     -42.818 -48.379   9.095  1.00  0.00     0.164 HD
HETATM   14  H   UNK A   0     -41.869 -49.962  10.299  1.00  0.00     0.164 HD
BRANCH  11  15
ATOM     15  CA  ALA A   1     -44.352 -47.060   9.720  1.00  0.00     0.105 C 
ATOM     16  CB  ALA A   1     -43.813 -45.960   8.806  1.00  0.00     0.034 C 
BRANCH  15  17
ATOM     17  C   ALA A   1     -45.652 -47.670   9.172  1.00  0.00     0.189 C 
BRANCH  17  18
ATOM     18  O   ALA A   1     -46.395 -46.721   8.408  1.00  0.00    -0.399 OA
ATOM     19  H   ALA A   1     -47.332 -46.826   8.647  1.00  0.00     0.209 HD
ENDBRANCH  17  18
ENDBRANCH  15  17
ENDBRANCH  11  15
ENDBRANCH   8   9
ENDBRANCH   1   8
BRANCH   6  20
HETATM   20  N   UNK A   0     -44.639 -53.543  12.785  1.00  0.00    -0.363 N 
HETATM   21  C   UNK A   0     -45.705 -52.554  12.588  1.00  0.00     0.150 C 
HETATM   22  C   UNK A   0     -46.491 -52.274  13.876  1.00  0.00     0.187 C 
HETATM   23  O   UNK A   0     -46.927 -53.487  14.513  1.00  0.00    -0.388 OA
HETATM   24  C   UNK A   0     -45.785 -54.278  14.865  1.00  0.00     0.187 C 
HETATM   25  C   UNK A   0     -44.991 -54.702  13.622  1.00  0.00     0.150 C 
ENDBRANCH   6  20
TORSDOF 6
ENDMDL
MODEL 2
REMARK VINA RESULT:      -5.9      2.958      4.139
REMARK  6 active torsions:
REMARK  status: ('A' for Active; 'I' for Inactive)
REMARK    1  A    between atoms: CA_2  and  C_3 
REMARK    2  A    between atoms: CA_2  and  N_5 
REMARK    3  A    between atoms: C_3  and  O_4 
REMARK       I    between atoms: N_5  and  C_8 
REMARK       I    between atoms: C_8  and  N_10 
REMARK    4  A    between atoms: N_10  and  C_11 
REMARK    5  A    between atoms: C_11  and  C_12 
REMARK    6  A    between atoms: C_17  and  N_19 
ROOT
HETATM    1  C   UNK A   0     -41.843 -54.347  13.898  1.00  0.00    -0.035 A 
HETATM    2  C   UNK A   0     -41.535 -54.729  15.200  1.00  0.00     0.026 A 
HETATM    3  C   UNK A   0     -42.542 -54.682  16.148  1.00  0.00     0.090 A 
HETATM    4  N   UNK A   0     -43.818 -54.293  15.892  1.00  0.00    -0.352 N 
ATOM      5  HN  UNK A   0     -44.520 -54.273  16.632  1.00  0.00     0.166 HD
HETATM    6  C   UNK A   0     -44.128 -53.935  14.633  1.00  0.00     0.103 A 
HETATM    7  C   UNK A   0     -43.150 -53.926  13.634  1.00  0.00     0.057 A 
ENDROOT
BRANCH   1   8
HETATM    8  C   UNK A   0     -40.827 -54.388  12.795  1.00  0.00     0.163 C 
BRANCH   8   9
HETATM    9  N   UNK A   0     -40.830 -53.191  11.988  1.00  0.00    -0.339 N 
HETATM   10  C   UNK A   0     -40.099 -52.114  12.419  1.00  0.00     0.316 C 
ATOM     11  N   ALA A   1     -40.347 -50.989  11.684  1.00  0.00    -0.337 N 
HETATM   12  O   UNK A   0     -39.334 -52.152  13.374  1.00  0.00    -0.247 OA
ATOM     13  H   ALA A   1     -40.754 -51.094  10.765  1.00  0.00     0.164 HD
HETATM   14  H   UNK A   0     -41.645 -52.998  11.427  1.00  0.00     0.164 HD
BRANCH  11  15
ATOM     15  CA  ALA A   1     -39.647 -49.734  11.952  1.00  0.00     0.105 C 
ATOM     16  CB  ALA A   1     -38.214 -49.801  11.422  1.00  0.00     0.034 C 
BRANCH  15  17
ATOM     17  C   ALA A   1     -40.424 -48.553  11.351  1.00  0.00     0.189 C 
BRANCH  17  18
ATOM     18  O   ALA A   1     -41.176 -48.950  10.204  1.00  0.00    -0.399 OA
ATOM     19  H   ALA A   1     -42.005 -49.346  10.525  1.00  0.00     0.209 HD
ENDBRANCH  17  18
ENDBRANCH  15  17
ENDBRANCH  11  15
ENDBRANCH   8   9
ENDBRANCH   1   8
BRANCH   6  20
HETATM   20  N   UNK A   0     -45.419 -53.540  14.318  1.00  0.00    -0.363 N 
HETATM   21  C   UNK A   0     -45.720 -53.027  12.976  1.00  0.00     0.150 C 
HETATM   22  C   UNK A   0     -46.053 -51.529  12.982  1.00  0.00     0.187 C 
HETATM   23  O   UNK A   0     -47.044 -51.203  13.971  1.00  0.00    -0.388 OA
HETATM   24  C   UNK A   0     -46.550 -51.543  15.273  1.00  0.00     0.187 C 
HETATM   25  C   UNK A   0     -46.290 -53.050  15.399  1.00  0.00     0.150 C 
ENDBRANCH   6  20
TORSDOF 6
ENDMDL
MODEL 3
REMARK VINA RESULT:      -5.9      3.609      8.457
REMARK  6 active torsions:
REMARK  status: ('A' for Active; 'I' for Inactive)
REMARK    1  A    between atoms: CA_2  and  C_3 
REMARK    2  A    between atoms: CA_2  and  N_5 
REMARK    3  A    between atoms: C_3  and  O_4 
REMARK       I    between atoms: N_5  and  C_8 
REMARK       I    between atoms: C_8  and  N_10 
REMARK    4  A    between atoms: N_10  and  C_11 
REMARK    5  A    between atoms: C_11  and  C_12 
REMARK    6  A    between atoms: C_17  and  N_19 
ROOT
HETATM    1  C   UNK A   0     -41.789 -47.295  10.848  1.00  0.00    -0.035 A 
HETATM    2  C   UNK A   0     -42.673 -47.382   9.776  1.00  0.00     0.026 A 
HETATM    3  C   UNK A   0     -43.430 -46.265   9.465  1.00  0.00     0.090 A 
HETATM    4  N   UNK A   0     -43.364 -45.084  10.134  1.00  0.00    -0.352 N 
ATOM      5  HN  UNK A   0     -43.951 -44.294   9.864  1.00  0.00     0.166 HD
HETATM    6  C   UNK A   0     -42.503 -44.988  11.162  1.00  0.00     0.103 A 
HETATM    7  C   UNK A   0     -41.733 -46.088  11.552  1.00  0.00     0.057 A 
ENDROOT
BRANCH   1   8
HETATM    8  C   UNK A   0     -40.908 -48.441  11.246  1.00  0.00     0.163 C 
BRANCH   8   9
HETATM    9  N   UNK A   0     -41.544 -49.725  11.063  1.00  0.00    -0.339 N 
HETATM   10  C   UNK A   0     -41.720 -50.526  12.162  1.00  0.00     0.316 C 
ATOM     11  N   ALA A   1     -42.140 -51.783  11.827  1.00  0.00    -0.337 N 
HETATM   12  O   UNK A   0     -41.497 -50.162  13.309  1.00  0.00    -0.247 OA
ATOM     13  H   ALA A   1     -42.566 -51.923  10.923  1.00  0.00     0.164 HD
HETATM   14  H   UNK A   0     -41.440 -50.183  10.172  1.00  0.00     0.164 HD
BRANCH  11  15
ATOM     15  CA  ALA A   1     -42.423 -52.788  12.850  1.00  0.00     0.105 C 
ATOM     16  CB  ALA A   1     -43.784 -53.437  12.596  1.00  0.00     0.034 C 
BRANCH  15  17
ATOM     17  C   ALA A   1     -41.294 -53.829  12.899  1.00  0.00     0.189 C 
BRANCH  17  18
ATOM     18  O   ALA A   1     -40.497 -53.793  11.714  1.00  0.00    -0.399 OA
ATOM     19  H   ALA A   1     -39.906 -53.024  11.787  1.00  0.00     0.209 HD
ENDBRANCH  17  18
ENDBRANCH  15  17
ENDBRANCH  11  15
ENDBRANCH   8   9
ENDBRANCH   1   8
BRANCH   6  20
HETATM   20  N   UNK A   0     -42.390 -43.801  11.869  1.00  0.00    -0.363 N 
HETATM   21  C   UNK A   0     -43.083 -42.597  11.394  1.00  0.00     0.150 C 
HETATM   22  C   UNK A   0     -42.111 -41.525  10.884  1.00  0.00     0.187 C 
HETATM   23  O   UNK A   0     -41.057 -41.262  11.826  1.00  0.00    -0.388 OA
HETATM   24  C   UNK A   0     -40.304 -42.461  12.045  1.00  0.00     0.187 C 
HETATM   25  C   UNK A   0     -41.172 -43.566  12.662  1.00  0.00     0.150 C 
ENDBRANCH   6  20
TORSDOF 6
ENDMDL
MODEL 4
REMARK VINA RESULT:      -5.8      1.862      2.102
REMARK  6 active torsions:
REMARK  status: ('A' for Active; 'I' for Inactive)
REMARK    1  A    between atoms: CA_2  and  C_3 
REMARK    2  A    between atoms: CA_2  and  N_5 
REMARK    3  A    between atoms: C_3  and  O_4 
REMARK       I    between atoms: N_5  and  C_8 
REMARK       I    between atoms: C_8  and  N_10 
REMARK    4  A    between atoms: N_10  and  C_11 
REMARK    5  A    between atoms: C_11  and  C_12 
REMARK    6  A    between atoms: C_17  and  N_19 
ROOT
HETATM    1  C   UNK A   0     -41.261 -52.409  12.810  1.00  0.00    -0.035 A 
HETATM    2  C   UNK A   0     -40.535 -53.284  13.610  1.00  0.00     0.026 A 
HETATM    3  C   UNK A   0     -41.214 -54.323  14.224  1.00  0.00     0.090 A 
HETATM    4  N   UNK A   0     -42.547 -54.550  14.090  1.00  0.00    -0.352 N 
ATOM      5  HN  UNK A   0     -42.998 -55.330  14.570  1.00  0.00     0.166 HD
HETATM    6  C   UNK A   0     -43.255 -53.718  13.306  1.00  0.00     0.103 A 
HETATM    7  C   UNK A   0     -42.637 -52.628  12.686  1.00  0.00     0.057 A 
ENDROOT
BRANCH   1   8
HETATM    8  C   UNK A   0     -40.611 -51.270  12.083  1.00  0.00     0.163 C 
BRANCH   8   9
HETATM    9  N   UNK A   0     -41.552 -50.484  11.320  1.00  0.00    -0.339 N 
HETATM   10  C   UNK A   0     -41.281 -49.154  11.123  1.00  0.00     0.316 C 
ATOM     11  N   ALA A   1     -42.335 -48.485  10.569  1.00  0.00    -0.337 N 
HETATM   12  O   UNK A   0     -40.222 -48.625  11.437  1.00  0.00    -0.247 OA
ATOM     13  H   ALA A   1     -43.044 -49.018  10.087  1.00  0.00     0.164 HD
HETATM   14  H   UNK A   0     -42.521 -50.758  11.334  1.00  0.00     0.164 HD
BRANCH  11  15
ATOM     15  CA  ALA A   1     -42.247 -47.063  10.243  1.00  0.00     0.105 C 
ATOM     16  CB  ALA A   1     -43.191 -46.721   9.090  1.00  0.00     0.034 C 
BRANCH  15  17
ATOM     17  C   ALA A   1     -42.539 -46.213  11.490  1.00  0.00     0.189 C 
BRANCH  17  18
ATOM     18  O   ALA A   1     -41.341 -45.892  12.197  1.00  0.00    -0.399 OA
ATOM     19  H   ALA A   1     -41.590 -45.704  13.119  1.00  0.00     0.209 HD
ENDBRANCH  17  18
ENDBRANCH  15  17
ENDBRANCH  11  15
ENDBRANCH   8   9
ENDBRANCH   1   8
BRANCH   6  20
HETATM   20  N   UNK A   0     -44.616 -53.913  13.130  1.00  0.00    -0.363 N 
HETATM   21  C   UNK A   0     -45.468 -52.792  12.715  1.00  0.00     0.150 C 
HETATM   22  C   UNK A   0     -46.427 -52.343  13.826  1.00  0.00     0.187 C 
HETATM   23  O   UNK A   0     -47.147 -53.449  14.394  1.00  0.00    -0.388 OA
HETATM   24  C   UNK A   0     -46.220 -54.377  14.971  1.00  0.00     0.187 C 
HETATM   25  C   UNK A   0     -45.283 -54.969  13.909  1.00  0.00     0.150 C 
ENDBRANCH   6  20
TORSDOF 6
ENDMDL
MODEL 5
REMARK VINA RESULT:      -5.8      2.249      6.622
REMARK  6 active torsions:
REMARK  status: ('A' for Active; 'I' for Inactive)
REMARK    1  A    between atoms: CA_2  and  C_3 
REMARK    2  A    between atoms: CA_2  and  N_5 
REMARK    3  A    between atoms: C_3  and  O_4 
REMARK       I    between atoms: N_5  and  C_8 
REMARK       I    between atoms: C_8  and  N_10 
REMARK    4  A    between atoms: N_10  and  C_11 
REMARK    5  A    between atoms: C_11  and  C_12 
REMARK    6  A    between atoms: C_17  and  N_19 
ROOT
HETATM    1  C   UNK A   0     -40.227 -50.890  12.042  1.00  0.00    -0.035 A 
HETATM    2  C   UNK A   0     -38.856 -50.673  12.132  1.00  0.00     0.026 A 
HETATM    3  C   UNK A   0     -38.397 -49.369  12.057  1.00  0.00     0.090 A 
HETATM    4  N   UNK A   0     -39.198 -48.282  11.909  1.00  0.00    -0.352 N 
ATOM      5  HN  UNK A   0     -38.804 -47.342  11.854  1.00  0.00     0.166 HD
HETATM    6  C   UNK A   0     -40.526 -48.481  11.835  1.00  0.00     0.103 A 
HETATM    7  C   UNK A   0     -41.054 -49.775  11.868  1.00  0.00     0.057 A 
ENDROOT
BRANCH   1   8
HETATM    8  C   UNK A   0     -40.823 -52.263  12.139  1.00  0.00     0.163 C 
BRANCH   8   9
HETATM    9  N   UNK A   0     -42.221 -52.292  11.778  1.00  0.00    -0.339 N 
HETATM   10  C   UNK A   0     -43.153 -52.223  12.780  1.00  0.00     0.316 C 
ATOM     11  N   ALA A   1     -44.420 -52.464  12.330  1.00  0.00    -0.337 N 
HETATM   12  O   UNK A   0     -42.874 -51.999  13.951  1.00  0.00    -0.247 OA
ATOM     13  H   ALA A   1     -44.609 -52.359  11.344  1.00  0.00     0.164 HD
HETATM   14  H   UNK A   0     -42.484 -52.782  10.938  1.00  0.00     0.164 HD
BRANCH  11  15
ATOM     15  CA  ALA A   1     -45.572 -52.406  13.229  1.00  0.00     0.105 C 
ATOM     16  CB  ALA A   1     -46.790 -51.841  12.498  1.00  0.00     0.034 C 
BRANCH  15  17
ATOM     17  C   ALA A   1     -45.855 -53.796  13.820  1.00  0.00     0.189 C 
BRANCH  17  18
ATOM     18  O   ALA A   1     -45.432 -54.836  12.938  1.00  0.00    -0.399 OA
ATOM     19  H   ALA A   1     -46.217 -55.142  12.453  1.00  0.00     0.209 HD
ENDBRANCH  17  18
ENDBRANCH  15  17
ENDBRANCH  11  15
ENDBRANCH   8   9
ENDBRANCH   1   8
BRANCH   6  20
HETATM   20  N   UNK A   0     -41.387 -47.404  11.693  1.00  0.00    -0.363 N 
HETATM   21  C   UNK A   0     -42.644 -47.565  10.952  1.00  0.00     0.150 C 
HETATM   22  C   UNK A   0     -42.644 -46.793   9.626  1.00  0.00     0.187 C 
HETATM   23  O   UNK A   0     -42.236 -45.426   9.800  1.00  0.00    -0.388 OA
HETATM   24  C   UNK A   0     -40.901 -45.389  10.322  1.00  0.00     0.187 C 
HETATM   25  C   UNK A   0     -40.823 -46.045  11.707  1.00  0.00     0.150 C 
ENDBRANCH   6  20
TORSDOF 6
ENDMDL
MODEL 6
REMARK VINA RESULT:      -5.6      2.965      7.430
REMARK  6 active torsions:
REMARK  status: ('A' for Active; 'I' for Inactive)
REMARK    1  A    between atoms: CA_2  and  C_3 
REMARK    2  A    between atoms: CA_2  and  N_5 
REMARK    3  A    between atoms: C_3  and  O_4 
REMARK       I    between atoms: N_5  and  C_8 
REMARK       I    between atoms: C_8  and  N_10 
REMARK    4  A    between atoms: N_10  and  C_11 
REMARK    5  A    between atoms: C_11  and  C_12 
REMARK    6  A    between atoms: C_17  and  N_19 
ROOT
HETATM    1  C   UNK A   0     -40.082 -49.196  12.185  1.00  0.00    -0.035 A 
HETATM    2  C   UNK A   0     -39.386 -48.849  13.338  1.00  0.00     0.026 A 
HETATM    3  C   UNK A   0     -39.103 -47.511  13.551  1.00  0.00     0.090 A 
HETATM    4  N   UNK A   0     -39.467 -46.508  12.709  1.00  0.00    -0.352 N 
ATOM      5  HN  UNK A   0     -39.227 -45.538  12.913  1.00  0.00     0.166 HD
HETATM    6  C   UNK A   0     -40.153 -46.833  11.599  1.00  0.00     0.103 A 
HETATM    7  C   UNK A   0     -40.441 -48.169  11.306  1.00  0.00     0.057 A 
ENDROOT
BRANCH   1   8
HETATM    8  C   UNK A   0     -40.458 -50.615  11.879  1.00  0.00     0.163 C 
BRANCH   8   9
HETATM    9  N   UNK A   0     -41.886 -50.807  11.786  1.00  0.00    -0.339 N 
HETATM   10  C   UNK A   0     -42.555 -51.267  12.891  1.00  0.00     0.316 C 
ATOM     11  N   ALA A   1     -43.851 -51.599  12.614  1.00  0.00    -0.337 N 
HETATM   12  O   UNK A   0     -42.036 -51.393  13.993  1.00  0.00    -0.247 OA
ATOM     13  H   ALA A   1     -44.280 -51.213  11.785  1.00  0.00     0.164 HD
HETATM   14  H   UNK A   0     -42.276 -51.034  10.885  1.00  0.00     0.164 HD
BRANCH  11  15
ATOM     15  CA  ALA A   1     -44.753 -52.079  13.659  1.00  0.00     0.105 C 
ATOM     16  CB  ALA A   1     -46.151 -51.490  13.466  1.00  0.00     0.034 C 
BRANCH  15  17
ATOM     17  C   ALA A   1     -44.778 -53.615  13.675  1.00  0.00     0.189 C 
BRANCH  17  18
ATOM     18  O   ALA A   1     -45.897 -54.128  12.952  1.00  0.00    -0.399 OA
ATOM     19  H   ALA A   1     -46.695 -53.705  13.313  1.00  0.00     0.209 HD
ENDBRANCH  17  18
ENDBRANCH  15  17
ENDBRANCH  11  15
ENDBRANCH   8   9
ENDBRANCH   1   8
BRANCH   6  20
HETATM   20  N   UNK A   0     -40.556 -45.845  10.714  1.00  0.00    -0.363 N 
HETATM   21  C   UNK A   0     -39.752 -44.627  10.561  1.00  0.00     0.150 C 
HETATM   22  C   UNK A   0     -40.460 -43.384  11.117  1.00  0.00     0.187 C 
HETATM   23  O   UNK A   0     -41.805 -43.266  10.623  1.00  0.00    -0.388 OA
HETATM   24  C   UNK A   0     -42.564 -44.413  11.025  1.00  0.00     0.187 C 
HETATM   25  C   UNK A   0     -41.992 -45.703  10.423  1.00  0.00     0.150 C 
ENDBRANCH   6  20
TORSDOF 6
ENDMDL
MODEL 7
REMARK VINA RESULT:      -5.5      3.177      7.446
REMARK  6 active torsions:
REMARK  status: ('A' for Active; 'I' for Inactive)
REMARK    1  A    between atoms: CA_2  and  C_3 
REMARK    2  A    between atoms: CA_2  and  N_5 
REMARK    3  A    between atoms: C_3  and  O_4 
REMARK       I    between atoms: N_5  and  C_8 
REMARK       I    between atoms: C_8  and  N_10 
REMARK    4  A    between atoms: N_10  and  C_11 
REMARK    5  A    between atoms: C_11  and  C_12 
REMARK    6  A    between atoms: C_17  and  N_19 
ROOT
HETATM    1  C   UNK A   0     -38.778 -49.627  13.154  1.00  0.00    -0.035 A 
HETATM    2  C   UNK A   0     -38.472 -48.864  14.276  1.00  0.00     0.026 A 
HETATM    3  C   UNK A   0     -38.760 -47.510  14.240  1.00  0.00     0.090 A 
HETATM    4  N   UNK A   0     -39.331 -46.876  13.183  1.00  0.00    -0.352 N 
ATOM      5  HN  UNK A   0     -39.517 -45.873  13.209  1.00  0.00     0.166 HD
HETATM    6  C   UNK A   0     -39.643 -47.609  12.100  1.00  0.00     0.103 A 
HETATM    7  C   UNK A   0     -39.346 -48.975  12.055  1.00  0.00     0.057 A 
ENDROOT
BRANCH   1   8
HETATM    8  C   UNK A   0     -38.527 -51.105  13.106  1.00  0.00     0.163 C 
BRANCH   8   9
HETATM    9  N   UNK A   0     -39.440 -51.854  13.937  1.00  0.00    -0.339 N 
HETATM   10  C   UNK A   0     -40.372 -52.652  13.325  1.00  0.00     0.316 C 
ATOM     11  N   ALA A   1     -41.297 -53.140  14.204  1.00  0.00    -0.337 N 
HETATM   12  O   UNK A   0     -40.388 -52.875  12.121  1.00  0.00    -0.247 OA
ATOM     13  H   ALA A   1     -41.066 -53.153  15.188  1.00  0.00     0.164 HD
HETATM   14  H   UNK A   0     -39.680 -51.475  14.839  1.00  0.00     0.164 HD
BRANCH  11  15
ATOM     15  CA  ALA A   1     -42.361 -54.042  13.767  1.00  0.00     0.105 C 
ATOM     16  CB  ALA A   1     -42.770 -54.975  14.907  1.00  0.00     0.034 C 
BRANCH  15  17
ATOM     17  C   ALA A   1     -43.555 -53.235  13.235  1.00  0.00     0.189 C 
BRANCH  17  18
ATOM     18  O   ALA A   1     -43.485 -53.069  11.818  1.00  0.00    -0.399 OA
ATOM     19  H   ALA A   1     -42.661 -52.591  11.623  1.00  0.00     0.209 HD
ENDBRANCH  17  18
ENDBRANCH  15  17
ENDBRANCH  11  15
ENDBRANCH   8   9
ENDBRANCH   1   8
BRANCH   6  20
HETATM   20  N   UNK A   0     -40.236 -47.011  10.999  1.00  0.00    -0.363 N 
HETATM   21  C   UNK A   0     -39.888 -45.631  10.639  1.00  0.00     0.150 C 
HETATM   22  C   UNK A   0     -41.050 -44.655  10.869  1.00  0.00     0.187 C 
HETATM   23  O   UNK A   0     -42.272 -45.126  10.276  1.00  0.00    -0.388 OA
HETATM   24  C   UNK A   0     -42.637 -46.380  10.866  1.00  0.00     0.187 C 
HETATM   25  C   UNK A   0     -41.579 -47.457  10.592  1.00  0.00     0.150 C 
ENDBRANCH   6  20
TORSDOF 6
ENDMDL
MODEL 8
REMARK VINA RESULT:      -5.5      2.749      3.828
REMARK  6 active torsions:
REMARK  status: ('A' for Active; 'I' for Inactive)
REMARK    1  A    between atoms: CA_2  and  C_3 
REMARK    2  A    between atoms: CA_2  and  N_5 
REMARK    3  A    between atoms: C_3  and  O_4 
REMARK       I    between atoms: N_5  and  C_8 
REMARK       I    between atoms: C_8  and  N_10 
REMARK    4  A    between atoms: N_10  and  C_11 
REMARK    5  A    between atoms: C_11  and  C_12 
REMARK    6  A    between atoms: C_17  and  N_19 
ROOT
HETATM    1  C   UNK A   0     -39.467 -48.983  13.145  1.00  0.00    -0.035 A 
HETATM    2  C   UNK A   0     -38.483 -48.718  14.093  1.00  0.00     0.026 A 
HETATM    3  C   UNK A   0     -37.961 -49.784  14.805  1.00  0.00     0.090 A 
HETATM    4  N   UNK A   0     -38.341 -51.078  14.635  1.00  0.00    -0.352 N 
ATOM      5  HN  UNK A   0     -37.926 -51.825  15.192  1.00  0.00     0.166 HD
HETATM    6  C   UNK A   0     -39.281 -51.344  13.711  1.00  0.00     0.103 A 
HETATM    7  C   UNK A   0     -39.875 -50.310  12.982  1.00  0.00     0.057 A 
ENDROOT
BRANCH   1   8
HETATM    8  C   UNK A   0     -40.074 -47.898  12.306  1.00  0.00     0.163 C 
BRANCH   8   9
HETATM    9  N   UNK A   0     -40.850 -48.414  11.203  1.00  0.00    -0.339 N 
HETATM   10  C   UNK A   0     -41.615 -47.537  10.478  1.00  0.00     0.316 C 
ATOM     11  N   ALA A   1     -42.449 -48.173   9.603  1.00  0.00    -0.337 N 
HETATM   12  O   UNK A   0     -41.573 -46.322  10.623  1.00  0.00    -0.247 OA
ATOM     13  H   ALA A   1     -42.235 -49.124   9.338  1.00  0.00     0.164 HD
HETATM   14  H   UNK A   0     -41.168 -49.369  11.251  1.00  0.00     0.164 HD
BRANCH  11  15
ATOM     15  CA  ALA A   1     -43.328 -47.424   8.707  1.00  0.00     0.105 C 
ATOM     16  CB  ALA A   1     -43.403 -48.107   7.341  1.00  0.00     0.034 C 
BRANCH  15  17
ATOM     17  C   ALA A   1     -44.718 -47.261   9.341  1.00  0.00     0.189 C 
BRANCH  17  18
ATOM     18  O   ALA A   1     -45.162 -45.905   9.289  1.00  0.00    -0.399 OA
ATOM     19  H   ALA A   1     -44.510 -45.406   8.767  1.00  0.00     0.209 HD
ENDBRANCH  17  18
ENDBRANCH  15  17
ENDBRANCH  11  15
ENDBRANCH   8   9
ENDBRANCH   1   8
BRANCH   6  20
HETATM   20  N   UNK A   0     -39.696 -52.649  13.493  1.00  0.00    -0.363 N 
HETATM   21  C   UNK A   0     -40.796 -52.921  12.560  1.00  0.00     0.150 C 
HETATM   22  C   UNK A   0     -42.060 -53.420  13.273  1.00  0.00     0.187 C 
HETATM   23  O   UNK A   0     -41.775 -54.502  14.176  1.00  0.00    -0.388 OA
HETATM   24  C   UNK A   0     -40.857 -54.055  15.183  1.00  0.00     0.187 C 
HETATM   25  C   UNK A   0     -39.514 -53.635  14.571  1.00  0.00     0.150 C 
ENDBRANCH   6  20
TORSDOF 6
ENDMDL
MODEL 9
REMARK VINA RESULT:      -5.3      4.446      8.118
REMARK  6 active torsions:
REMARK  status: ('A' for Active; 'I' for Inactive)
REMARK    1  A    between atoms: CA_2  and  C_3 
REMARK    2  A    between atoms: CA_2  and  N_5 
REMARK    3  A    between atoms: C_3  and  O_4 
REMARK       I    between atoms: N_5  and  C_8 
REMARK       I    between atoms: C_8  and  N_10 
REMARK    4  A    between atoms: N_10  and  C_11 
REMARK    5  A    between atoms: C_11  and  C_12 
REMARK    6  A    between atoms: C_17  and  N_19 
ROOT
HETATM    1  C   UNK A   0     -40.859 -53.643  13.308  1.00  0.00    -0.035 A 
HETATM    2  C   UNK A   0     -40.580 -52.428  12.690  1.00  0.00     0.026 A 
HETATM    3  C   UNK A   0     -41.639 -51.706  12.167  1.00  0.00     0.090 A 
HETATM    4  N   UNK A   0     -42.938 -52.101  12.223  1.00  0.00    -0.352 N 
ATOM      5  HN  UNK A   0     -43.679 -51.530  11.815  1.00  0.00     0.166 HD
HETATM    6  C   UNK A   0     -43.217 -53.267  12.831  1.00  0.00     0.103 A 
HETATM    7  C   UNK A   0     -42.192 -54.064  13.349  1.00  0.00     0.057 A 
ENDROOT
BRANCH   1   8
HETATM    8  C   UNK A   0     -39.783 -54.485  13.927  1.00  0.00     0.163 C 
BRANCH   8   9
HETATM    9  N   UNK A   0     -40.057 -54.816  15.305  1.00  0.00    -0.339 N 
HETATM   10  C   UNK A   0     -39.164 -55.614  15.973  1.00  0.00     0.316 C 
ATOM     11  N   ALA A   1     -39.635 -56.019  17.190  1.00  0.00    -0.337 N 
HETATM   12  O   UNK A   0     -38.080 -55.950  15.513  1.00  0.00    -0.247 OA
ATOM     13  H   ALA A   1     -40.385 -55.492  17.615  1.00  0.00     0.164 HD
HETATM   14  H   UNK A   0     -41.019 -54.855  15.602  1.00  0.00     0.164 HD
BRANCH  11  15
ATOM     15  CA  ALA A   1     -38.828 -56.849  18.081  1.00  0.00     0.105 C 
ATOM     16  CB  ALA A   1     -38.328 -56.025  19.268  1.00  0.00     0.034 C 
BRANCH  15  17
ATOM     17  C   ALA A   1     -39.632 -58.076  18.538  1.00  0.00     0.189 C 
BRANCH  17  18
ATOM     18  O   ALA A   1     -39.324 -59.227  17.750  1.00  0.00    -0.399 OA
ATOM     19  H   ALA A   1     -39.126 -58.917  16.850  1.00  0.00     0.209 HD
ENDBRANCH  17  18
ENDBRANCH  15  17
ENDBRANCH  11  15
ENDBRANCH   8   9
ENDBRANCH   1   8
BRANCH   6  20
HETATM   20  N   UNK A   0     -44.528 -53.710  12.923  1.00  0.00    -0.363 N 
HETATM   21  C   UNK A   0     -45.632 -52.807  12.578  1.00  0.00     0.150 C 
HETATM   22  C   UNK A   0     -46.462 -52.400  13.803  1.00  0.00     0.187 C 
HETATM   23  O   UNK A   0     -46.858 -53.539  14.585  1.00  0.00    -0.388 OA
HETATM   24  C   UNK A   0     -45.691 -54.222  15.060  1.00  0.00     0.187 C 
HETATM   25  C   UNK A   0     -44.848 -54.766  13.898  1.00  0.00     0.150 C 
ENDBRANCH   6  20
TORSDOF 6
ENDMDL
