MODEL 1
REMARK VINA RESULT:      -4.9      0.000      0.000
REMARK  1 active torsions:
REMARK  status: ('A' for Active; 'I' for Inactive)
REMARK    1  A    between atoms: C_5  and  C_7 
ROOT
HETATM    1  C   UNL     1     -42.965 -53.502  12.676  1.00  0.00     0.017 A 
HETATM    2  C   UNL     1     -42.020 -54.248  13.359  1.00  0.00     0.042 A 
HETATM    3  C   UNL     1     -40.699 -53.942  13.112  1.00  0.00     0.091 A 
HETATM    4  N   UNL     1     -40.306 -52.978  12.264  1.00  0.00    -0.362 N 
ATOM      5  HN  UNL     1     -39.322 -52.771  12.093  1.00  0.00     0.165 HD
HETATM    6  C   UNL     1     -41.295 -52.306  11.658  1.00  0.00     0.180 A 
HETATM    7  N   UNL     1     -42.612 -52.513  11.826  1.00  0.00    -0.355 N 
ATOM      8  HN  UNL     1     -43.309 -51.952  11.338  1.00  0.00     0.166 HD
ENDROOT
BRANCH   1   9
HETATM    9  C   UNL     1     -44.442 -53.745  12.920  1.00  0.00     0.064 C 
HETATM   10  C   UNL     1     -45.248 -52.434  13.015  1.00  0.00     0.280 C 
HETATM   11  N   UNL     1     -46.677 -52.686  13.263  1.00  0.00     0.084 N 
HETATM   12  C   UNL     1     -46.867 -53.430  14.510  1.00  0.00     0.269 C 
HETATM   13  H   UNL     1     -47.159 -51.790  13.335  1.00  0.00     0.315 HD
HETATM   14  C   UNL     1     -46.137 -54.771  14.473  1.00  0.00     0.031 C 
HETATM   15  C   UNL     1     -44.648 -54.586  14.187  1.00  0.00     0.014 C 
ENDBRANCH   1   9
TORSDOF 1
ENDMDL
MODEL 2
REMARK VINA RESULT:      -4.7      6.550      8.015
REMARK  1 active torsions:
REMARK  status: ('A' for Active; 'I' for Inactive)
REMARK    1  A    between atoms: C_5  and  C_7 
ROOT
HETATM    1  C   UNL     1     -43.416 -47.478   9.626  1.00  0.00     0.017 A 
HETATM    2  C   UNL     1     -44.786 -47.467   9.822  1.00  0.00     0.042 A 
HETATM    3  C   UNL     1     -45.565 -47.829   8.744  1.00  0.00     0.091 A 
HETATM    4  N   UNL     1     -45.062 -48.181   7.550  1.00  0.00    -0.362 N 
ATOM      5  HN  UNL     1     -45.658 -48.441   6.764  1.00  0.00     0.165 HD
HETATM    6  C   UNL     1     -43.725 -48.169   7.462  1.00  0.00     0.180 A 
HETATM    7  N   UNL     1     -42.870 -47.842   8.445  1.00  0.00    -0.355 N 
ATOM      8  HN  UNL     1     -41.860 -47.867   8.307  1.00  0.00     0.166 HD
ENDROOT
BRANCH   1   9
HETATM    9  C   UNL     1     -42.484 -47.133  10.772  1.00  0.00     0.064 C 
HETATM   10  C   UNL     1     -41.480 -46.023  10.402  1.00  0.00     0.280 C 
HETATM   11  N   UNL     1     -40.575 -45.709  11.520  1.00  0.00     0.084 N 
HETATM   12  C   UNL     1     -39.816 -46.893  11.926  1.00  0.00     0.269 C 
HETATM   13  H   UNL     1     -39.923 -44.985  11.218  1.00  0.00     0.315 HD
HETATM   14  C   UNL     1     -40.745 -48.026  12.357  1.00  0.00     0.031 C 
HETATM   15  C   UNL     1     -41.736 -48.384  11.253  1.00  0.00     0.014 C 
ENDBRANCH   1   9
TORSDOF 1
ENDMDL
MODEL 3
REMARK VINA RESULT:      -4.7      1.264      1.821
REMARK  1 active torsions:
REMARK  status: ('A' for Active; 'I' for Inactive)
REMARK    1  A    between atoms: C_5  and  C_7 
ROOT
HETATM    1  C   UNL     1     -42.996 -52.769  13.374  1.00  0.00     0.017 A 
HETATM    2  C   UNL     1     -42.277 -53.927  13.618  1.00  0.00     0.042 A 
HETATM    3  C   UNL     1     -41.169 -54.141  12.826  1.00  0.00     0.091 A 
HETATM    4  N   UNL     1     -40.772 -53.296  11.861  1.00  0.00    -0.362 N 
ATOM      5  HN  UNL     1     -39.951 -53.477  11.283  1.00  0.00     0.165 HD
HETATM    6  C   UNL     1     -41.528 -52.200  11.707  1.00  0.00     0.180 A 
HETATM    7  N   UNL     1     -42.621 -51.887  12.423  1.00  0.00    -0.355 N 
ATOM      8  HN  UNL     1     -43.141 -51.026  12.257  1.00  0.00     0.166 HD
ENDROOT
BRANCH   1   9
HETATM    9  C   UNL     1     -44.206 -52.435  14.226  1.00  0.00     0.064 C 
HETATM   10  C   UNL     1     -44.805 -53.678  14.914  1.00  0.00     0.280 C 
HETATM   11  N   UNL     1     -45.984 -53.339  15.727  1.00  0.00     0.084 N 
HETATM   12  C   UNL     1     -47.028 -52.727  14.903  1.00  0.00     0.269 C 
HETATM   13  H   UNL     1     -46.350 -54.196  16.143  1.00  0.00     0.315 HD
HETATM   14  C   UNL     1     -46.524 -51.455  14.225  1.00  0.00     0.031 C 
HETATM   15  C   UNL     1     -45.277 -51.727  13.387  1.00  0.00     0.014 C 
ENDBRANCH   1   9
TORSDOF 1
ENDMDL
MODEL 4
REMARK VINA RESULT:      -4.6      5.582      7.827
REMARK  1 active torsions:
REMARK  status: ('A' for Active; 'I' for Inactive)
REMARK    1  A    between atoms: C_5  and  C_7 
ROOT
HETATM    1  C   UNL     1     -43.304 -47.398   9.985  1.00  0.00     0.017 A 
HETATM    2  C   UNL     1     -43.129 -46.152   9.409  1.00  0.00     0.042 A 
HETATM    3  C   UNL     1     -44.249 -45.564   8.862  1.00  0.00     0.091 A 
HETATM    4  N   UNL     1     -45.465 -46.134   8.870  1.00  0.00    -0.362 N 
ATOM      5  HN  UNL     1     -46.281 -45.683   8.455  1.00  0.00     0.165 HD
HETATM    6  C   UNL     1     -45.534 -47.336   9.459  1.00  0.00     0.180 A 
HETATM    7  N   UNL     1     -44.513 -47.998  10.028  1.00  0.00    -0.355 N 
ATOM      8  HN  UNL     1     -44.644 -48.908  10.469  1.00  0.00     0.166 HD
ENDROOT
BRANCH   1   9
HETATM    9  C   UNL     1     -42.132 -48.098  10.646  1.00  0.00     0.064 C 
HETATM   10  C   UNL     1     -42.537 -48.837  11.937  1.00  0.00     0.280 C 
HETATM   11  N   UNL     1     -41.387 -49.500  12.573  1.00  0.00     0.084 N 
HETATM   12  C   UNL     1     -40.345 -48.529  12.912  1.00  0.00     0.269 C 
HETATM   13  H   UNL     1     -41.705 -49.956  13.428  1.00  0.00     0.315 HD
HETATM   14  C   UNL     1     -39.853 -47.788  11.670  1.00  0.00     0.031 C 
HETATM   15  C   UNL     1     -41.004 -47.100  10.940  1.00  0.00     0.014 C 
ENDBRANCH   1   9
TORSDOF 1
ENDMDL
MODEL 5
REMARK VINA RESULT:      -4.4      4.808      7.166
REMARK  1 active torsions:
REMARK  status: ('A' for Active; 'I' for Inactive)
REMARK    1  A    between atoms: C_5  and  C_7 
ROOT
HETATM    1  C   UNL     1     -41.499 -48.176  10.843  1.00  0.00     0.017 A 
HETATM    2  C   UNL     1     -41.098 -46.852  10.798  1.00  0.00     0.042 A 
HETATM    3  C   UNL     1     -42.093 -45.914  10.628  1.00  0.00     0.091 A 
HETATM    4  N   UNL     1     -43.394 -46.224  10.510  1.00  0.00    -0.362 N 
ATOM      5  HN  UNL     1     -44.114 -45.514  10.380  1.00  0.00     0.165 HD
HETATM    6  C   UNL     1     -43.683 -47.532  10.575  1.00  0.00     0.180 A 
HETATM    7  N   UNL     1     -42.799 -48.529  10.744  1.00  0.00    -0.355 N 
ATOM      8  HN  UNL     1     -43.094 -49.504  10.796  1.00  0.00     0.166 HD
ENDROOT
BRANCH   1   9
HETATM    9  C   UNL     1     -40.473 -49.271  11.069  1.00  0.00     0.064 C 
HETATM   10  C   UNL     1     -41.053 -50.474  11.837  1.00  0.00     0.280 C 
HETATM   11  N   UNL     1     -40.043 -51.521  12.059  1.00  0.00     0.084 N 
HETATM   12  C   UNL     1     -38.907 -50.999  12.821  1.00  0.00     0.269 C 
HETATM   13  H   UNL     1     -40.473 -52.283  12.584  1.00  0.00     0.315 HD
HETATM   14  C   UNL     1     -38.244 -49.830  12.095  1.00  0.00     0.031 C 
HETATM   15  C   UNL     1     -39.245 -48.715  11.803  1.00  0.00     0.014 C 
ENDBRANCH   1   9
TORSDOF 1
ENDMDL
MODEL 6
REMARK VINA RESULT:      -4.4      1.854      4.901
REMARK  1 active torsions:
REMARK  status: ('A' for Active; 'I' for Inactive)
REMARK    1  A    between atoms: C_5  and  C_7 
ROOT
HETATM    1  C   UNL     1     -45.098 -52.938  13.347  1.00  0.00     0.017 A 
HETATM    2  C   UNL     1     -46.194 -52.511  14.078  1.00  0.00     0.042 A 
HETATM    3  C   UNL     1     -46.959 -53.493  14.668  1.00  0.00     0.091 A 
HETATM    4  N   UNL     1     -46.691 -54.805  14.566  1.00  0.00    -0.362 N 
ATOM      5  HN  UNL     1     -47.275 -55.516  15.008  1.00  0.00     0.165 HD
HETATM    6  C   UNL     1     -45.605 -55.117  13.845  1.00  0.00     0.180 A 
HETATM    7  N   UNL     1     -44.785 -54.247  13.233  1.00  0.00    -0.355 N 
ATOM      8  HN  UNL     1     -43.967 -54.558  12.710  1.00  0.00     0.166 HD
ENDROOT
BRANCH   1   9
HETATM    9  C   UNL     1     -44.178 -51.921  12.698  1.00  0.00     0.064 C 
HETATM   10  C   UNL     1     -42.764 -52.481  12.446  1.00  0.00     0.280 C 
HETATM   11  N   UNL     1     -41.880 -51.479  11.828  1.00  0.00     0.084 N 
HETATM   12  C   UNL     1     -41.756 -50.295  12.680  1.00  0.00     0.269 C 
HETATM   13  H   UNL     1     -40.957 -51.894  11.700  1.00  0.00     0.315 HD
HETATM   14  C   UNL     1     -43.116 -49.651  12.936  1.00  0.00     0.031 C 
HETATM   15  C   UNL     1     -44.098 -50.646  13.549  1.00  0.00     0.014 C 
ENDBRANCH   1   9
TORSDOF 1
ENDMDL
MODEL 7
REMARK VINA RESULT:      -4.4      1.301      4.882
REMARK  1 active torsions:
REMARK  status: ('A' for Active; 'I' for Inactive)
REMARK    1  A    between atoms: C_5  and  C_7 
ROOT
HETATM    1  C   UNL     1     -43.657 -53.505  13.118  1.00  0.00     0.017 A 
HETATM    2  C   UNL     1     -44.205 -54.510  13.896  1.00  0.00     0.042 A 
HETATM    3  C   UNL     1     -45.580 -54.537  13.986  1.00  0.00     0.091 A 
HETATM    4  N   UNL     1     -46.382 -53.657  13.366  1.00  0.00    -0.362 N 
ATOM      5  HN  UNL     1     -47.398 -53.693  13.450  1.00  0.00     0.165 HD
HETATM    6  C   UNL     1     -45.758 -52.728  12.629  1.00  0.00     0.180 A 
HETATM    7  N   UNL     1     -44.430 -52.610  12.465  1.00  0.00    -0.355 N 
ATOM      8  HN  UNL     1     -44.025 -51.882  11.877  1.00  0.00     0.166 HD
ENDROOT
BRANCH   1   9
HETATM    9  C   UNL     1     -42.154 -53.427  12.931  1.00  0.00     0.064 C 
HETATM   10  C   UNL     1     -41.382 -54.196  14.022  1.00  0.00     0.280 C 
HETATM   11  N   UNL     1     -39.925 -54.100  13.834  1.00  0.00     0.084 N 
HETATM   12  C   UNL     1     -39.486 -52.703  13.863  1.00  0.00     0.269 C 
HETATM   13  H   UNL     1     -39.465 -54.608  14.589  1.00  0.00     0.315 HD
HETATM   14  C   UNL     1     -40.171 -51.883  12.773  1.00  0.00     0.031 C 
HETATM   15  C   UNL     1     -41.692 -51.964  12.888  1.00  0.00     0.014 C 
ENDBRANCH   1   9
TORSDOF 1
ENDMDL
MODEL 8
REMARK VINA RESULT:      -4.3      1.827      2.483
REMARK  1 active torsions:
REMARK  status: ('A' for Active; 'I' for Inactive)
REMARK    1  A    between atoms: C_5  and  C_7 
ROOT
HETATM    1  C   UNL     1     -41.508 -54.345  14.082  1.00  0.00     0.017 A 
HETATM    2  C   UNL     1     -41.450 -54.549  15.450  1.00  0.00     0.042 A 
HETATM    3  C   UNL     1     -40.195 -54.569  16.017  1.00  0.00     0.091 A 
HETATM    4  N   UNL     1     -39.061 -54.401  15.317  1.00  0.00    -0.362 N 
ATOM      5  HN  UNL     1     -38.141 -54.423  15.757  1.00  0.00     0.165 HD
HETATM    6  C   UNL     1     -39.221 -54.201  14.002  1.00  0.00     0.180 A 
HETATM    7  N   UNL     1     -40.392 -54.156  13.345  1.00  0.00    -0.355 N 
ATOM      8  HN  UNL     1     -40.436 -53.988  12.340  1.00  0.00     0.166 HD
ENDROOT
BRANCH   1   9
HETATM    9  C   UNL     1     -42.852 -54.268  13.383  1.00  0.00     0.064 C 
HETATM   10  C   UNL     1     -43.170 -52.850  12.869  1.00  0.00     0.280 C 
HETATM   11  N   UNL     1     -44.482 -52.790  12.204  1.00  0.00     0.084 N 
HETATM   12  C   UNL     1     -45.550 -53.193  13.120  1.00  0.00     0.269 C 
HETATM   13  H   UNL     1     -44.649 -51.830  11.901  1.00  0.00     0.315 HD
HETATM   14  C   UNL     1     -45.332 -54.614  13.636  1.00  0.00     0.031 C 
HETATM   15  C   UNL     1     -43.971 -54.758  14.312  1.00  0.00     0.014 C 
ENDBRANCH   1   9
TORSDOF 1
ENDMDL
MODEL 9
REMARK VINA RESULT:      -4.3      6.034      7.857
REMARK  1 active torsions:
REMARK  status: ('A' for Active; 'I' for Inactive)
REMARK    1  A    between atoms: C_5  and  C_7 
ROOT
HETATM    1  C   UNL     1     -42.271 -47.409  10.210  1.00  0.00     0.017 A 
HETATM    2  C   UNL     1     -42.811 -46.140  10.329  1.00  0.00     0.042 A 
HETATM    3  C   UNL     1     -43.659 -45.735   9.322  1.00  0.00     0.091 A 
HETATM    4  N   UNL     1     -43.973 -46.500   8.264  1.00  0.00    -0.362 N 
ATOM      5  HN  UNL     1     -44.601 -46.178   7.526  1.00  0.00     0.165 HD
HETATM    6  C   UNL     1     -43.408 -47.714   8.243  1.00  0.00     0.180 A 
HETATM    7  N   UNL     1     -42.575 -48.215   9.170  1.00  0.00    -0.355 N 
ATOM      8  HN  UNL     1     -42.191 -49.157   9.093  1.00  0.00     0.166 HD
ENDROOT
BRANCH   1   9
HETATM    9  C   UNL     1     -41.360 -47.950  11.296  1.00  0.00     0.064 C 
HETATM   10  C   UNL     1     -40.156 -47.027  11.570  1.00  0.00     0.280 C 
HETATM   11  N   UNL     1     -39.276 -47.571  12.617  1.00  0.00     0.084 N 
HETATM   12  C   UNL     1     -38.762 -48.888  12.234  1.00  0.00     0.269 C 
HETATM   13  H   UNL     1     -38.490 -46.934  12.746  1.00  0.00     0.315 HD
HETATM   14  C   UNL     1     -39.900 -49.878  11.993  1.00  0.00     0.031 C 
HETATM   15  C   UNL     1     -40.874 -49.361  10.937  1.00  0.00     0.014 C 
ENDBRANCH   1   9
TORSDOF 1
ENDMDL
