MODEL 1
REMARK VINA RESULT:      -6.7      0.000      0.000
REMARK  6 active torsions:
REMARK  status: ('A' for Active; 'I' for Inactive)
REMARK    1  A    between atoms: C_4  and  N_5 
REMARK       I    between atoms: N_5  and  C_6 
REMARK       I    between atoms: C_6  and  N_8 
REMARK    2  A    between atoms: N_8  and  C_9 
REMARK    3  A    between atoms: C_9  and  C_10 
REMARK    4  A    between atoms: C_10  and  O_11 
REMARK    5  A    between atoms: C_10  and  C_12 
REMARK    6  A    between atoms: C_12  and  N_13 
ROOT
HETATM    1  N   UNL     1     -41.566 -48.579   9.944  1.00  0.00    -0.293 N 
HETATM    2  C   UNL     1     -41.475 -49.373  11.123  1.00  0.00     0.321 C 
HETATM    3  O   UNL     1     -42.218 -49.257  12.075  1.00  0.00    -0.247 OA
HETATM    4  N   UNL     1     -40.470 -50.274  11.014  1.00  0.00    -0.340 N 
HETATM    5  H   UNL     1     -40.986 -48.819   9.160  1.00  0.00     0.172 HD
HETATM    6  H   UNL     1     -39.701 -50.116  10.376  1.00  0.00     0.164 HD
ENDROOT
BRANCH   4   7
HETATM    7  C   UNL     1     -40.175 -51.158  12.138  1.00  0.00     0.157 C 
BRANCH   7   8
HETATM    8  C   UNL     1     -41.155 -52.335  12.128  1.00  0.00     0.164 C 
BRANCH   8   9
HETATM    9  O   UNL     1     -40.478 -53.359  11.373  1.00  0.00    -0.392 OA
HETATM   10  H   UNL     1     -41.151 -54.001  11.086  1.00  0.00     0.210 HD
ENDBRANCH   8   9
BRANCH   8  11
HETATM   11  C   UNL     1     -41.549 -52.776  13.562  1.00  0.00     0.305 C 
BRANCH  11  12
HETATM   12  N   UNL     1     -42.881 -52.326  14.023  1.00  0.00     0.090 N 
HETATM   13  C   UNL     1     -43.312 -53.019  15.253  1.00  0.00     0.272 C 
HETATM   14  C   UNL     1     -43.667 -54.496  15.040  1.00  0.00     0.030 C 
HETATM   15  C   UNL     1     -44.642 -54.703  13.880  1.00  0.00     0.003 C 
HETATM   16  C   UNL     1     -44.258 -53.889  12.648  1.00  0.00     0.030 C 
HETATM   17  C   UNL     1     -43.956 -52.438  13.025  1.00  0.00     0.272 C 
ENDBRANCH  11  12
ENDBRANCH   8  11
ENDBRANCH   7   8
ENDBRANCH   4   7
BRANCH   1  18
HETATM   18  C   UNL     1     -42.497 -47.553   9.811  1.00  0.00     0.127 A 
HETATM   19  C   UNL     1     -43.783 -47.656   9.336  1.00  0.00     0.076 A 
HETATM   20  C   UNL     1     -44.305 -46.352   9.323  1.00  0.00     0.025 A 
HETATM   21  C   UNL     1     -45.637 -45.932   8.829  1.00  0.00     0.070 C 
HETATM   22  N   UNL     1     -43.426 -45.470   9.810  1.00  0.00    -0.302 N 
HETATM   23  N   UNL     1     -42.345 -46.217  10.118  1.00  0.00    -0.281 N 
ATOM     24  HN  UNL     1     -43.545 -44.464   9.923  1.00  0.00     0.186 HD
HETATM   25  C   UNL     1     -41.197 -45.544  10.673  1.00  0.00     0.179 C 
ENDBRANCH   1  18
TORSDOF 6
ENDMDL
MODEL 2
REMARK VINA RESULT:      -6.4      1.073      2.006
REMARK  6 active torsions:
REMARK  status: ('A' for Active; 'I' for Inactive)
REMARK    1  A    between atoms: C_4  and  N_5 
REMARK       I    between atoms: N_5  and  C_6 
REMARK       I    between atoms: C_6  and  N_8 
REMARK    2  A    between atoms: N_8  and  C_9 
REMARK    3  A    between atoms: C_9  and  C_10 
REMARK    4  A    between atoms: C_10  and  O_11 
REMARK    5  A    between atoms: C_10  and  C_12 
REMARK    6  A    between atoms: C_12  and  N_13 
ROOT
HETATM    1  N   UNL     1     -41.268 -48.163  10.220  1.00  0.00    -0.293 N 
HETATM    2  C   UNL     1     -41.310 -49.075  11.312  1.00  0.00     0.321 C 
HETATM    3  O   UNL     1     -41.954 -48.889  12.324  1.00  0.00    -0.247 OA
HETATM    4  N   UNL     1     -40.556 -50.169  11.049  1.00  0.00    -0.340 N 
HETATM    5  H   UNL     1     -40.804 -48.448   9.377  1.00  0.00     0.172 HD
HETATM    6  H   UNL     1     -39.805 -50.128  10.372  1.00  0.00     0.164 HD
ENDROOT
BRANCH   4   7
HETATM    7  C   UNL     1     -40.424 -51.209  12.064  1.00  0.00     0.157 C 
BRANCH   7   8
HETATM    8  C   UNL     1     -41.409 -52.342  11.760  1.00  0.00     0.164 C 
BRANCH   8   9
HETATM    9  O   UNL     1     -40.573 -53.456  11.388  1.00  0.00    -0.392 OA
HETATM   10  H   UNL     1     -39.717 -53.339  11.837  1.00  0.00     0.210 HD
ENDBRANCH   8   9
BRANCH   8  11
HETATM   11  C   UNL     1     -42.343 -52.640  12.962  1.00  0.00     0.305 C 
BRANCH  11  12
HETATM   12  N   UNL     1     -43.778 -52.787  12.632  1.00  0.00     0.090 N 
HETATM   13  C   UNL     1     -44.619 -51.799  13.337  1.00  0.00     0.272 C 
HETATM   14  C   UNL     1     -44.738 -52.050  14.845  1.00  0.00     0.030 C 
HETATM   15  C   UNL     1     -45.132 -53.491  15.170  1.00  0.00     0.003 C 
HETATM   16  C   UNL     1     -44.343 -54.506  14.351  1.00  0.00     0.030 C 
HETATM   17  C   UNL     1     -44.337 -54.126  12.869  1.00  0.00     0.272 C 
ENDBRANCH  11  12
ENDBRANCH   8  11
ENDBRANCH   7   8
ENDBRANCH   4   7
BRANCH   1  18
HETATM   18  C   UNL     1     -41.932 -46.940  10.249  1.00  0.00     0.127 A 
HETATM   19  C   UNL     1     -41.532 -45.793  10.894  1.00  0.00     0.076 A 
HETATM   20  C   UNL     1     -42.555 -44.851  10.696  1.00  0.00     0.025 A 
HETATM   21  C   UNL     1     -42.622 -43.481  11.254  1.00  0.00     0.070 C 
HETATM   22  N   UNL     1     -43.530 -45.345   9.925  1.00  0.00    -0.302 N 
HETATM   23  N   UNL     1     -43.127 -46.603   9.649  1.00  0.00    -0.281 N 
ATOM     24  HN  UNL     1     -44.382 -44.877   9.617  1.00  0.00     0.186 HD
HETATM   25  C   UNL     1     -43.983 -47.417   8.823  1.00  0.00     0.179 C 
ENDBRANCH   1  18
TORSDOF 6
ENDMDL
MODEL 3
REMARK VINA RESULT:      -6.4      2.424      6.475
REMARK  6 active torsions:
REMARK  status: ('A' for Active; 'I' for Inactive)
REMARK    1  A    between atoms: C_4  and  N_5 
REMARK       I    between atoms: N_5  and  C_6 
REMARK       I    between atoms: C_6  and  N_8 
REMARK    2  A    between atoms: N_8  and  C_9 
REMARK    3  A    between atoms: C_9  and  C_10 
REMARK    4  A    between atoms: C_10  and  O_11 
REMARK    5  A    between atoms: C_10  and  C_12 
REMARK    6  A    between atoms: C_12  and  N_13 
ROOT
HETATM    1  N   UNL     1     -44.391 -52.254  12.638  1.00  0.00    -0.293 N 
HETATM    2  C   UNL     1     -43.016 -52.545  12.869  1.00  0.00     0.321 C 
HETATM    3  O   UNL     1     -42.584 -52.978  13.917  1.00  0.00    -0.247 OA
HETATM    4  N   UNL     1     -42.282 -52.292  11.760  1.00  0.00    -0.340 N 
HETATM    5  H   UNL     1     -44.677 -52.009  11.707  1.00  0.00     0.172 HD
HETATM    6  H   UNL     1     -42.615 -51.644  11.057  1.00  0.00     0.164 HD
ENDROOT
BRANCH   4   7
HETATM    7  C   UNL     1     -40.835 -52.478  11.800  1.00  0.00     0.157 C 
BRANCH   7   8
HETATM    8  C   UNL     1     -40.164 -51.158  12.190  1.00  0.00     0.164 C 
BRANCH   8   9
HETATM    9  O   UNL     1     -38.754 -51.456  12.188  1.00  0.00    -0.392 OA
HETATM   10  H   UNL     1     -38.597 -52.109  11.484  1.00  0.00     0.210 HD
ENDBRANCH   8   9
BRANCH   8  11
HETATM   11  C   UNL     1     -40.557 -50.001  11.235  1.00  0.00     0.305 C 
BRANCH  11  12
HETATM   12  N   UNL     1     -40.713 -48.674  11.871  1.00  0.00     0.090 N 
HETATM   13  C   UNL     1     -41.762 -48.671  12.910  1.00  0.00     0.272 C 
HETATM   14  C   UNL     1     -43.186 -48.788  12.352  1.00  0.00     0.030 C 
HETATM   15  C   UNL     1     -43.464 -47.780  11.236  1.00  0.00     0.003 C 
HETATM   16  C   UNL     1     -42.321 -47.701  10.229  1.00  0.00     0.030 C 
HETATM   17  C   UNL     1     -40.974 -47.565  10.942  1.00  0.00     0.272 C 
ENDBRANCH  11  12
ENDBRANCH   8  11
ENDBRANCH   7   8
ENDBRANCH   4   7
BRANCH   1  18
HETATM   18  C   UNL     1     -45.356 -52.396  13.630  1.00  0.00     0.127 A 
HETATM   19  C   UNL     1     -45.997 -51.391  14.315  1.00  0.00     0.076 A 
HETATM   20  C   UNL     1     -46.826 -52.021  15.258  1.00  0.00     0.025 A 
HETATM   21  C   UNL     1     -47.669 -51.361  16.281  1.00  0.00     0.070 C 
HETATM   22  N   UNL     1     -46.762 -53.352  15.151  1.00  0.00    -0.302 N 
HETATM   23  N   UNL     1     -45.883 -53.561  14.149  1.00  0.00    -0.281 N 
ATOM     24  HN  UNL     1     -47.263 -54.050  15.700  1.00  0.00     0.186 HD
HETATM   25  C   UNL     1     -45.588 -54.925  13.785  1.00  0.00     0.179 C 
ENDBRANCH   1  18
TORSDOF 6
ENDMDL
MODEL 4
REMARK VINA RESULT:      -6.3      1.663      2.134
REMARK  6 active torsions:
REMARK  status: ('A' for Active; 'I' for Inactive)
REMARK    1  A    between atoms: C_4  and  N_5 
REMARK       I    between atoms: N_5  and  C_6 
REMARK       I    between atoms: C_6  and  N_8 
REMARK    2  A    between atoms: N_8  and  C_9 
REMARK    3  A    between atoms: C_9  and  C_10 
REMARK    4  A    between atoms: C_10  and  O_11 
REMARK    5  A    between atoms: C_10  and  C_12 
REMARK    6  A    between atoms: C_12  and  N_13 
ROOT
HETATM    1  N   UNL     1     -41.169 -49.079  10.365  1.00  0.00    -0.293 N 
HETATM    2  C   UNL     1     -41.246 -49.800  11.590  1.00  0.00     0.321 C 
HETATM    3  O   UNL     1     -41.924 -49.455  12.536  1.00  0.00    -0.247 OA
HETATM    4  N   UNL     1     -40.484 -50.918  11.534  1.00  0.00    -0.340 N 
HETATM    5  H   UNL     1     -40.676 -49.496   9.595  1.00  0.00     0.172 HD
HETATM    6  H   UNL     1     -39.710 -50.984  10.885  1.00  0.00     0.164 HD
ENDROOT
BRANCH   4   7
HETATM    7  C   UNL     1     -40.386 -51.777  12.710  1.00  0.00     0.157 C 
BRANCH   7   8
HETATM    8  C   UNL     1     -41.085 -53.109  12.425  1.00  0.00     0.164 C 
BRANCH   8   9
HETATM    9  O   UNL     1     -40.556 -53.528  11.151  1.00  0.00    -0.392 OA
HETATM   10  H   UNL     1     -39.708 -53.068  11.024  1.00  0.00     0.210 HD
ENDBRANCH   8   9
BRANCH   8  11
HETATM   11  C   UNL     1     -40.860 -54.140  13.562  1.00  0.00     0.305 C 
BRANCH  11  12
HETATM   12  N   UNL     1     -41.028 -53.619  14.936  1.00  0.00     0.090 N 
HETATM   13  C   UNL     1     -39.946 -54.060  15.838  1.00  0.00     0.272 C 
HETATM   14  C   UNL     1     -39.999 -55.552  16.187  1.00  0.00     0.030 C 
HETATM   15  C   UNL     1     -41.381 -55.992  16.673  1.00  0.00     0.003 C 
HETATM   16  C   UNL     1     -42.504 -55.435  15.805  1.00  0.00     0.030 C 
HETATM   17  C   UNL     1     -42.318 -53.935  15.569  1.00  0.00     0.272 C 
ENDBRANCH  11  12
ENDBRANCH   8  11
ENDBRANCH   7   8
ENDBRANCH   4   7
BRANCH   1  18
HETATM   18  C   UNL     1     -41.834 -47.872  10.171  1.00  0.00     0.127 A 
HETATM   19  C   UNL     1     -43.072 -47.689   9.601  1.00  0.00     0.076 A 
HETATM   20  C   UNL     1     -43.287 -46.301   9.560  1.00  0.00     0.025 A 
HETATM   21  C   UNL     1     -44.450 -45.599   8.972  1.00  0.00     0.070 C 
HETATM   22  N   UNL     1     -42.271 -45.634  10.117  1.00  0.00    -0.302 N 
HETATM   23  N   UNL     1     -41.410 -46.601  10.498  1.00  0.00    -0.281 N 
ATOM     24  HN  UNL     1     -42.169 -44.625  10.229  1.00  0.00     0.186 HD
HETATM   25  C   UNL     1     -40.185 -46.196  11.142  1.00  0.00     0.179 C 
ENDBRANCH   1  18
TORSDOF 6
ENDMDL
MODEL 5
REMARK VINA RESULT:      -6.1      2.573      3.822
REMARK  6 active torsions:
REMARK  status: ('A' for Active; 'I' for Inactive)
REMARK    1  A    between atoms: C_4  and  N_5 
REMARK       I    between atoms: N_5  and  C_6 
REMARK       I    between atoms: C_6  and  N_8 
REMARK    2  A    between atoms: N_8  and  C_9 
REMARK    3  A    between atoms: C_9  and  C_10 
REMARK    4  A    between atoms: C_10  and  O_11 
REMARK    5  A    between atoms: C_10  and  C_12 
REMARK    6  A    between atoms: C_12  and  N_13 
ROOT
HETATM    1  N   UNL     1     -40.929 -51.184  11.366  1.00  0.00    -0.293 N 
HETATM    2  C   UNL     1     -41.008 -51.912  12.587  1.00  0.00     0.321 C 
HETATM    3  O   UNL     1     -40.833 -51.417  13.681  1.00  0.00    -0.247 OA
HETATM    4  N   UNL     1     -41.324 -53.206  12.350  1.00  0.00    -0.340 N 
HETATM    5  H   UNL     1     -41.202 -51.644  10.516  1.00  0.00     0.172 HD
HETATM    6  H   UNL     1     -41.137 -53.628  11.449  1.00  0.00     0.164 HD
ENDROOT
BRANCH   4   7
HETATM    7  C   UNL     1     -41.408 -54.140  13.470  1.00  0.00     0.157 C 
BRANCH   7   8
HETATM    8  C   UNL     1     -42.866 -54.566  13.667  1.00  0.00     0.164 C 
BRANCH   8   9
HETATM    9  O   UNL     1     -42.862 -55.298  14.908  1.00  0.00    -0.392 OA
HETATM   10  H   UNL     1     -42.334 -54.785  15.546  1.00  0.00     0.210 HD
ENDBRANCH   8   9
BRANCH   8  11
HETATM   11  C   UNL     1     -43.832 -53.353  13.663  1.00  0.00     0.305 C 
BRANCH  11  12
HETATM   12  N   UNL     1     -45.244 -53.664  13.348  1.00  0.00     0.090 N 
HETATM   13  C   UNL     1     -45.888 -52.601  12.552  1.00  0.00     0.272 C 
HETATM   14  C   UNL     1     -46.143 -51.308  13.336  1.00  0.00     0.030 C 
HETATM   15  C   UNL     1     -46.859 -51.558  14.664  1.00  0.00     0.003 C 
HETATM   16  C   UNL     1     -46.264 -52.736  15.429  1.00  0.00     0.030 C 
HETATM   17  C   UNL     1     -46.093 -53.951  14.514  1.00  0.00     0.272 C 
ENDBRANCH  11  12
ENDBRANCH   8  11
ENDBRANCH   7   8
ENDBRANCH   4   7
BRANCH   1  18
HETATM   18  C   UNL     1     -40.586 -49.835  11.327  1.00  0.00     0.127 A 
HETATM   19  C   UNL     1     -41.431 -48.769  11.130  1.00  0.00     0.076 A 
HETATM   20  C   UNL     1     -40.621 -47.622  11.101  1.00  0.00     0.025 A 
HETATM   21  C   UNL     1     -41.058 -46.230  10.846  1.00  0.00     0.070 C 
HETATM   22  N   UNL     1     -39.337 -47.927  11.319  1.00  0.00    -0.302 N 
HETATM   23  N   UNL     1     -39.337 -49.268  11.472  1.00  0.00    -0.281 N 
ATOM     24  HN  UNL     1     -38.540 -47.292  11.360  1.00  0.00     0.186 HD
HETATM   25  C   UNL     1     -38.074 -49.917  11.722  1.00  0.00     0.179 C 
ENDBRANCH   1  18
TORSDOF 6
ENDMDL
MODEL 6
REMARK VINA RESULT:      -6.0      3.509      7.081
REMARK  6 active torsions:
REMARK  status: ('A' for Active; 'I' for Inactive)
REMARK    1  A    between atoms: C_4  and  N_5 
REMARK       I    between atoms: N_5  and  C_6 
REMARK       I    between atoms: C_6  and  N_8 
REMARK    2  A    between atoms: N_8  and  C_9 
REMARK    3  A    between atoms: C_9  and  C_10 
REMARK    4  A    between atoms: C_10  and  O_11 
REMARK    5  A    between atoms: C_10  and  C_12 
REMARK    6  A    between atoms: C_12  and  N_13 
ROOT
HETATM    1  N   UNL     1     -41.966 -52.956  11.939  1.00  0.00    -0.293 N 
HETATM    2  C   UNL     1     -41.462 -51.659  12.242  1.00  0.00     0.321 C 
HETATM    3  O   UNL     1     -41.673 -51.080  13.287  1.00  0.00    -0.247 OA
HETATM    4  N   UNL     1     -40.709 -51.190  11.219  1.00  0.00    -0.340 N 
HETATM    5  H   UNL     1     -41.649 -53.408  11.101  1.00  0.00     0.172 HD
HETATM    6  H   UNL     1     -40.835 -51.544  10.280  1.00  0.00     0.164 HD
ENDROOT
BRANCH   4   7
HETATM    7  C   UNL     1     -40.136 -49.850  11.308  1.00  0.00     0.157 C 
BRANCH   7   8
HETATM    8  C   UNL     1     -38.666 -49.955  11.727  1.00  0.00     0.164 C 
BRANCH   8   9
HETATM    9  O   UNL     1     -37.934 -49.897  10.487  1.00  0.00    -0.392 OA
HETATM   10  H   UNL     1     -38.493 -49.430   9.841  1.00  0.00     0.210 HD
ENDBRANCH   8   9
BRANCH   8  11
HETATM   11  C   UNL     1     -38.268 -48.847  12.737  1.00  0.00     0.305 C 
BRANCH  11  12
HETATM   12  N   UNL     1     -38.875 -48.963  14.081  1.00  0.00     0.090 N 
HETATM   13  C   UNL     1     -38.597 -47.784  14.925  1.00  0.00     0.272 C 
HETATM   14  C   UNL     1     -37.136 -47.676  15.378  1.00  0.00     0.030 C 
HETATM   15  C   UNL     1     -36.618 -48.974  15.999  1.00  0.00     0.003 C 
HETATM   16  C   UNL     1     -37.010 -50.202  15.185  1.00  0.00     0.030 C 
HETATM   17  C   UNL     1     -38.498 -50.171  14.832  1.00  0.00     0.272 C 
ENDBRANCH  11  12
ENDBRANCH   8  11
ENDBRANCH   7   8
ENDBRANCH   4   7
BRANCH   1  18
HETATM   18  C   UNL     1     -42.799 -53.651  12.812  1.00  0.00     0.127 A 
HETATM   19  C   UNL     1     -44.151 -53.865  12.675  1.00  0.00     0.076 A 
HETATM   20  C   UNL     1     -44.561 -54.549  13.831  1.00  0.00     0.025 A 
HETATM   21  C   UNL     1     -45.943 -54.946  14.186  1.00  0.00     0.070 C 
HETATM   22  N   UNL     1     -43.526 -54.806  14.638  1.00  0.00    -0.302 N 
HETATM   23  N   UNL     1     -42.466 -54.273  13.996  1.00  0.00    -0.281 N 
ATOM     24  HN  UNL     1     -43.536 -55.295  15.534  1.00  0.00     0.186 HD
HETATM   25  C   UNL     1     -41.173 -54.383  14.625  1.00  0.00     0.179 C 
ENDBRANCH   1  18
TORSDOF 6
ENDMDL
MODEL 7
REMARK VINA RESULT:      -5.8      2.677      7.634
REMARK  6 active torsions:
REMARK  status: ('A' for Active; 'I' for Inactive)
REMARK    1  A    between atoms: C_4  and  N_5 
REMARK       I    between atoms: N_5  and  C_6 
REMARK       I    between atoms: C_6  and  N_8 
REMARK    2  A    between atoms: N_8  and  C_9 
REMARK    3  A    between atoms: C_9  and  C_10 
REMARK    4  A    between atoms: C_10  and  O_11 
REMARK    5  A    between atoms: C_10  and  C_12 
REMARK    6  A    between atoms: C_12  and  N_13 
ROOT
HETATM    1  N   UNL     1     -40.777 -49.647  10.649  1.00  0.00    -0.293 N 
HETATM    2  C   UNL     1     -41.863 -48.760  10.899  1.00  0.00     0.321 C 
HETATM    3  O   UNL     1     -42.396 -48.633  11.982  1.00  0.00    -0.247 OA
HETATM    4  N   UNL     1     -42.190 -48.080   9.775  1.00  0.00    -0.340 N 
HETATM    5  H   UNL     1     -40.322 -49.606   9.755  1.00  0.00     0.172 HD
HETATM    6  H   UNL     1     -41.956 -48.447   8.862  1.00  0.00     0.164 HD
ENDROOT
BRANCH   4   7
HETATM    7  C   UNL     1     -43.316 -47.150   9.803  1.00  0.00     0.157 C 
BRANCH   7   8
HETATM    8  C   UNL     1     -42.792 -45.716   9.672  1.00  0.00     0.164 C 
BRANCH   8   9
HETATM    9  O   UNL     1     -43.950 -44.942   9.304  1.00  0.00    -0.392 OA
HETATM   10  H   UNL     1     -43.641 -44.202   8.753  1.00  0.00     0.210 HD
ENDBRANCH   8   9
BRANCH   8  11
HETATM   11  C   UNL     1     -42.104 -45.227  10.974  1.00  0.00     0.305 C 
BRANCH  11  12
HETATM   12  N   UNL     1     -40.626 -45.179  10.933  1.00  0.00     0.090 N 
HETATM   13  C   UNL     1     -40.013 -45.783  12.133  1.00  0.00     0.272 C 
HETATM   14  C   UNL     1     -40.201 -44.952  13.409  1.00  0.00     0.030 C 
HETATM   15  C   UNL     1     -39.799 -43.489  13.220  1.00  0.00     0.003 C 
HETATM   16  C   UNL     1     -40.336 -42.904  11.918  1.00  0.00     0.030 C 
HETATM   17  C   UNL     1     -40.051 -43.839  10.741  1.00  0.00     0.272 C 
ENDBRANCH  11  12
ENDBRANCH   8  11
ENDBRANCH   7   8
ENDBRANCH   4   7
BRANCH   1  18
HETATM   18  C   UNL     1     -40.267 -50.491  11.632  1.00  0.00     0.127 A 
HETATM   19  C   UNL     1     -40.795 -51.688  12.053  1.00  0.00     0.076 A 
HETATM   20  C   UNL     1     -39.975 -52.133  13.104  1.00  0.00     0.025 A 
HETATM   21  C   UNL     1     -40.171 -53.345  13.932  1.00  0.00     0.070 C 
HETATM   22  N   UNL     1     -38.951 -51.298  13.310  1.00  0.00    -0.302 N 
HETATM   23  N   UNL     1     -39.133 -50.320  12.399  1.00  0.00    -0.281 N 
ATOM     24  HN  UNL     1     -38.204 -51.381  14.000  1.00  0.00     0.186 HD
HETATM   25  C   UNL     1     -38.176 -49.243  12.367  1.00  0.00     0.179 C 
ENDBRANCH   1  18
TORSDOF 6
ENDMDL
MODEL 8
REMARK VINA RESULT:      -5.8      2.880      6.715
REMARK  6 active torsions:
REMARK  status: ('A' for Active; 'I' for Inactive)
REMARK    1  A    between atoms: C_4  and  N_5 
REMARK       I    between atoms: N_5  and  C_6 
REMARK       I    between atoms: C_6  and  N_8 
REMARK    2  A    between atoms: N_8  and  C_9 
REMARK    3  A    between atoms: C_9  and  C_10 
REMARK    4  A    between atoms: C_10  and  O_11 
REMARK    5  A    between atoms: C_10  and  C_12 
REMARK    6  A    between atoms: C_12  and  N_13 
ROOT
HETATM    1  N   UNL     1     -42.197 -52.207  11.844  1.00  0.00    -0.293 N 
HETATM    2  C   UNL     1     -42.102 -50.845  12.248  1.00  0.00     0.321 C 
HETATM    3  O   UNL     1     -42.529 -50.421  13.302  1.00  0.00    -0.247 OA
HETATM    4  N   UNL     1     -41.458 -50.113  11.309  1.00  0.00    -0.340 N 
HETATM    5  H   UNL     1     -41.716 -52.493  11.010  1.00  0.00     0.172 HD
HETATM    6  H   UNL     1     -41.423 -50.423  10.346  1.00  0.00     0.164 HD
ENDROOT
BRANCH   4   7
HETATM    7  C   UNL     1     -41.297 -48.675  11.507  1.00  0.00     0.157 C 
BRANCH   7   8
HETATM    8  C   UNL     1     -39.805 -48.339  11.589  1.00  0.00     0.164 C 
BRANCH   8   9
HETATM    9  O   UNL     1     -39.674 -47.100  10.865  1.00  0.00    -0.392 OA
HETATM   10  H   UNL     1     -39.133 -46.501  11.410  1.00  0.00     0.210 HD
ENDBRANCH   8   9
BRANCH   8  11
HETATM   11  C   UNL     1     -39.306 -48.258  13.056  1.00  0.00     0.305 C 
BRANCH  11  12
HETATM   12  N   UNL     1     -37.959 -48.817  13.302  1.00  0.00     0.090 N 
HETATM   13  C   UNL     1     -37.807 -50.177  12.748  1.00  0.00     0.272 C 
HETATM   14  C   UNL     1     -38.603 -51.247  13.504  1.00  0.00     0.030 C 
HETATM   15  C   UNL     1     -38.362 -51.200  15.014  1.00  0.00     0.003 C 
HETATM   16  C   UNL     1     -38.402 -49.778  15.563  1.00  0.00     0.030 C 
HETATM   17  C   UNL     1     -37.543 -48.840  14.713  1.00  0.00     0.272 C 
ENDBRANCH  11  12
ENDBRANCH   8  11
ENDBRANCH   7   8
ENDBRANCH   4   7
BRANCH   1  18
HETATM   18  C   UNL     1     -42.845 -53.166  12.616  1.00  0.00     0.127 A 
HETATM   19  C   UNL     1     -44.169 -53.531  12.548  1.00  0.00     0.076 A 
HETATM   20  C   UNL     1     -44.371 -54.479  13.564  1.00  0.00     0.025 A 
HETATM   21  C   UNL     1     -45.651 -55.122  13.939  1.00  0.00     0.070 C 
HETATM   22  N   UNL     1     -43.233 -54.747  14.214  1.00  0.00    -0.302 N 
HETATM   23  N   UNL     1     -42.317 -53.958  13.614  1.00  0.00    -0.281 N 
ATOM     24  HN  UNL     1     -43.090 -55.399  14.985  1.00  0.00     0.186 HD
HETATM   25  C   UNL     1     -40.960 -54.013  14.100  1.00  0.00     0.179 C 
ENDBRANCH   1  18
TORSDOF 6
ENDMDL
MODEL 9
REMARK VINA RESULT:      -5.7      1.335      2.487
REMARK  6 active torsions:
REMARK  status: ('A' for Active; 'I' for Inactive)
REMARK    1  A    between atoms: C_4  and  N_5 
REMARK       I    between atoms: N_5  and  C_6 
REMARK       I    between atoms: C_6  and  N_8 
REMARK    2  A    between atoms: N_8  and  C_9 
REMARK    3  A    between atoms: C_9  and  C_10 
REMARK    4  A    between atoms: C_10  and  O_11 
REMARK    5  A    between atoms: C_10  and  C_12 
REMARK    6  A    between atoms: C_12  and  N_13 
ROOT
HETATM    1  N   UNL     1     -40.238 -48.220  10.808  1.00  0.00    -0.293 N 
HETATM    2  C   UNL     1     -40.588 -49.189  11.791  1.00  0.00     0.321 C 
HETATM    3  O   UNL     1     -41.333 -48.968  12.723  1.00  0.00    -0.247 OA
HETATM    4  N   UNL     1     -39.995 -50.376  11.520  1.00  0.00    -0.340 N 
HETATM    5  H   UNL     1     -39.710 -48.518  10.009  1.00  0.00     0.172 HD
HETATM    6  H   UNL     1     -39.158 -50.419  10.954  1.00  0.00     0.164 HD
ENDROOT
BRANCH   4   7
HETATM    7  C   UNL     1     -40.186 -51.497  12.437  1.00  0.00     0.157 C 
BRANCH   7   8
HETATM    8  C   UNL     1     -41.288 -52.413  11.895  1.00  0.00     0.164 C 
BRANCH   8   9
HETATM    9  O   UNL     1     -40.590 -53.597  11.463  1.00  0.00    -0.392 OA
HETATM   10  H   UNL     1     -40.860 -53.773  10.544  1.00  0.00     0.210 HD
ENDBRANCH   8   9
BRANCH   8  11
HETATM   11  C   UNL     1     -42.387 -52.689  12.954  1.00  0.00     0.305 C 
BRANCH  11  12
HETATM   12  N   UNL     1     -41.897 -53.031  14.307  1.00  0.00     0.090 N 
HETATM   13  C   UNL     1     -42.017 -54.473  14.599  1.00  0.00     0.272 C 
HETATM   14  C   UNL     1     -43.463 -54.948  14.789  1.00  0.00     0.030 C 
HETATM   15  C   UNL     1     -44.238 -54.084  15.784  1.00  0.00     0.003 C 
HETATM   16  C   UNL     1     -44.015 -52.593  15.553  1.00  0.00     0.030 C 
HETATM   17  C   UNL     1     -42.524 -52.281  15.405  1.00  0.00     0.272 C 
ENDBRANCH  11  12
ENDBRANCH   8  11
ENDBRANCH   7   8
ENDBRANCH   4   7
BRANCH   1  18
HETATM   18  C   UNL     1     -40.688 -46.904  10.871  1.00  0.00     0.127 A 
HETATM   19  C   UNL     1     -39.998 -45.812  11.344  1.00  0.00     0.076 A 
HETATM   20  C   UNL     1     -40.883 -44.724  11.272  1.00  0.00     0.025 A 
HETATM   21  C   UNL     1     -40.628 -43.339  11.731  1.00  0.00     0.070 C 
HETATM   22  N   UNL     1     -42.055 -45.083  10.736  1.00  0.00    -0.302 N 
HETATM   23  N   UNL     1     -41.912 -46.401  10.483  1.00  0.00    -0.281 N 
ATOM     24  HN  UNL     1     -42.870 -44.495  10.560  1.00  0.00     0.186 HD
HETATM   25  C   UNL     1     -43.029 -47.097   9.894  1.00  0.00     0.179 C 
ENDBRANCH   1  18
TORSDOF 6
ENDMDL
