MODEL 1
REMARK VINA RESULT:      -6.2      0.000      0.000
REMARK  5 active torsions:
REMARK  status: ('A' for Active; 'I' for Inactive)
REMARK    1  A    between atoms: O_2  and  C_3 
REMARK    2  A    between atoms: C_3  and  C_4 
REMARK    3  A    between atoms: C_4  and  N_5 
REMARK    4  A    between atoms: C_6  and  C_7 
REMARK    5  A    between atoms: C_7  and  N_8 
ROOT
HETATM    1  N   UNL     1     -40.766 -48.807  11.999  1.00  0.00    -0.325 N 
HETATM    2  C   UNL     1     -41.837 -49.671  12.178  1.00  0.00     0.114 A 
HETATM    3  N   UNL     1     -42.896 -49.244  11.500  1.00  0.00    -0.328 N 
ATOM      4  HN  UNL     1     -43.799 -49.708  11.410  1.00  0.00     0.169 HD
HETATM    5  C   UNL     1     -42.523 -48.061  10.954  1.00  0.00     0.145 A 
HETATM    6  N   UNL     1     -43.315 -47.247  10.177  1.00  0.00    -0.288 N 
HETATM    7  C   UNL     1     -44.674 -47.591   9.830  1.00  0.00     0.163 C 
HETATM    8  C   UNL     1     -42.777 -46.059   9.695  1.00  0.00     0.330 A 
HETATM    9  O   UNL     1     -43.399 -45.271   8.982  1.00  0.00    -0.246 OA
HETATM   10  N   UNL     1     -41.473 -45.771  10.039  1.00  0.00    -0.273 N 
HETATM   11  C   UNL     1     -40.623 -46.539  10.799  1.00  0.00     0.280 A 
HETATM   12  O   UNL     1     -39.474 -46.184  11.034  1.00  0.00    -0.265 OA
HETATM   13  C   UNL     1     -41.228 -47.746  11.255  1.00  0.00     0.149 A 
HETATM   14  H   UNL     1     -41.102 -44.903   9.685  1.00  0.00     0.173 HD
ENDROOT
BRANCH   2  15
HETATM   15  C   UNL     1     -41.830 -50.938  12.994  1.00  0.00     0.349 C 
BRANCH  15  16
HETATM   16  N   UNL     1     -42.003 -52.164  12.192  1.00  0.00     0.099 N 
HETATM   17  C   UNL     1     -43.259 -52.863  12.573  1.00  0.00     0.299 C 
HETATM   18  C   UNL     1     -43.205 -53.597  13.929  1.00  0.00     0.198 C 
HETATM   19  O   UNL     1     -42.096 -54.498  14.001  1.00  0.00    -0.388 OA
HETATM   20  C   UNL     1     -40.862 -53.812  13.746  1.00  0.00     0.198 C 
HETATM   21  C   UNL     1     -40.891 -53.132  12.369  1.00  0.00     0.299 C 
ENDBRANCH  15  16
ENDBRANCH   2  15
BRANCH   1  22
HETATM   22  C   UNL     1     -39.401 -49.006  12.452  1.00  0.00     0.157 C 
BRANCH  22  23
HETATM   23  C   UNL     1     -38.586 -49.850  11.475  1.00  0.00     0.187 C 
BRANCH  23  24
HETATM   24  O   UNL     1     -38.135 -51.041  12.120  1.00  0.00    -0.394 OA
HETATM   25  C   UNL     1     -38.087 -50.875  13.533  1.00  0.00     0.201 C 
ENDBRANCH  23  24
ENDBRANCH  22  23
ENDBRANCH   1  22
TORSDOF 5
ENDMDL
MODEL 2
REMARK VINA RESULT:      -5.8      1.624      6.053
REMARK  5 active torsions:
REMARK  status: ('A' for Active; 'I' for Inactive)
REMARK    1  A    between atoms: O_2  and  C_3 
REMARK    2  A    between atoms: C_3  and  C_4 
REMARK    3  A    between atoms: C_4  and  N_5 
REMARK    4  A    between atoms: C_6  and  C_7 
REMARK    5  A    between atoms: C_7  and  N_8 
ROOT
HETATM    1  N   UNL     1     -41.335 -50.537  12.379  1.00  0.00    -0.325 N 
HETATM    2  C   UNL     1     -42.281 -49.521  12.348  1.00  0.00     0.114 A 
HETATM    3  N   UNL     1     -43.498 -50.015  12.544  1.00  0.00    -0.328 N 
ATOM      4  HN  UNL     1     -44.371 -49.493  12.621  1.00  0.00     0.169 HD
HETATM    5  C   UNL     1     -43.336 -51.359  12.619  1.00  0.00     0.145 A 
HETATM    6  N   UNL     1     -44.340 -52.282  12.799  1.00  0.00    -0.288 N 
HETATM    7  C   UNL     1     -45.724 -51.902  12.957  1.00  0.00     0.163 C 
HETATM    8  C   UNL     1     -44.002 -53.630  12.851  1.00  0.00     0.330 A 
HETATM    9  O   UNL     1     -44.824 -54.531  13.022  1.00  0.00    -0.246 OA
HETATM   10  N   UNL     1     -42.669 -53.953  12.707  1.00  0.00    -0.273 N 
HETATM   11  C   UNL     1     -41.616 -53.086  12.535  1.00  0.00     0.280 A 
HETATM   12  O   UNL     1     -40.464 -53.489  12.427  1.00  0.00    -0.265 OA
HETATM   13  C   UNL     1     -42.024 -51.721  12.500  1.00  0.00     0.149 A 
HETATM   14  H   UNL     1     -42.445 -54.935  12.742  1.00  0.00     0.173 HD
ENDROOT
BRANCH   2  15
HETATM   15  C   UNL     1     -42.004 -48.053  12.151  1.00  0.00     0.349 C 
BRANCH  15  16
HETATM   16  N   UNL     1     -41.448 -47.724  10.825  1.00  0.00     0.099 N 
HETATM   17  C   UNL     1     -40.869 -46.355  10.828  1.00  0.00     0.299 C 
HETATM   18  C   UNL     1     -41.908 -45.214  10.824  1.00  0.00     0.198 C 
HETATM   19  O   UNL     1     -42.845 -45.352   9.752  1.00  0.00    -0.388 OA
HETATM   20  C   UNL     1     -43.496 -46.630   9.803  1.00  0.00     0.198 C 
HETATM   21  C   UNL     1     -42.465 -47.768   9.745  1.00  0.00     0.299 C 
ENDBRANCH  15  16
ENDBRANCH   2  15
BRANCH   1  22
HETATM   22  C   UNL     1     -39.892 -50.383  12.354  1.00  0.00     0.157 C 
BRANCH  22  23
HETATM   23  C   UNL     1     -39.286 -50.383  13.755  1.00  0.00     0.187 C 
BRANCH  23  24
HETATM   24  O   UNL     1     -38.017 -51.036  13.737  1.00  0.00    -0.394 OA
HETATM   25  C   UNL     1     -37.391 -50.906  12.465  1.00  0.00     0.201 C 
ENDBRANCH  23  24
ENDBRANCH  22  23
ENDBRANCH   1  22
TORSDOF 5
ENDMDL
MODEL 3
REMARK VINA RESULT:      -5.7      1.429      6.190
REMARK  5 active torsions:
REMARK  status: ('A' for Active; 'I' for Inactive)
REMARK    1  A    between atoms: O_2  and  C_3 
REMARK    2  A    between atoms: C_3  and  C_4 
REMARK    3  A    between atoms: C_4  and  N_5 
REMARK    4  A    between atoms: C_6  and  C_7 
REMARK    5  A    between atoms: C_7  and  N_8 
ROOT
HETATM    1  N   UNL     1     -40.114 -49.927  11.963  1.00  0.00    -0.325 N 
HETATM    2  C   UNL     1     -41.341 -49.521  11.456  1.00  0.00     0.114 A 
HETATM    3  N   UNL     1     -42.284 -50.404  11.763  1.00  0.00    -0.328 N 
ATOM      4  HN  UNL     1     -43.282 -50.336  11.565  1.00  0.00     0.169 HD
HETATM    5  C   UNL     1     -41.641 -51.416  12.397  1.00  0.00     0.145 A 
HETATM    6  N   UNL     1     -42.225 -52.563  12.881  1.00  0.00    -0.288 N 
HETATM    7  C   UNL     1     -43.644 -52.812  12.783  1.00  0.00     0.163 C 
HETATM    8  C   UNL     1     -41.418 -53.507  13.506  1.00  0.00     0.330 A 
HETATM    9  O   UNL     1     -41.846 -54.558  13.984  1.00  0.00    -0.246 OA
HETATM   10  N   UNL     1     -40.070 -53.229  13.591  1.00  0.00    -0.273 N 
HETATM   11  C   UNL     1     -39.422 -52.103  13.140  1.00  0.00     0.280 A 
HETATM   12  O   UNL     1     -38.213 -51.959  13.280  1.00  0.00    -0.265 OA
HETATM   13  C   UNL     1     -40.302 -51.170  12.520  1.00  0.00     0.149 A 
HETATM   14  H   UNL     1     -39.500 -53.927  14.042  1.00  0.00     0.173 HD
ENDROOT
BRANCH   2  15
HETATM   15  C   UNL     1     -41.611 -48.254  10.687  1.00  0.00     0.349 C 
BRANCH  15  16
HETATM   16  N   UNL     1     -42.890 -47.606  11.034  1.00  0.00     0.099 N 
HETATM   17  C   UNL     1     -43.742 -47.455   9.826  1.00  0.00     0.299 C 
HETATM   18  C   UNL     1     -43.291 -46.345   8.852  1.00  0.00     0.198 C 
HETATM   19  O   UNL     1     -43.143 -45.086   9.515  1.00  0.00    -0.388 OA
HETATM   20  C   UNL     1     -42.233 -45.192  10.619  1.00  0.00     0.198 C 
HETATM   21  C   UNL     1     -42.713 -46.254  11.620  1.00  0.00     0.299 C 
ENDBRANCH  15  16
ENDBRANCH   2  15
BRANCH   1  22
HETATM   22  C   UNL     1     -38.878 -49.165  11.964  1.00  0.00     0.157 C 
BRANCH  22  23
HETATM   23  C   UNL     1     -38.649 -48.439  13.288  1.00  0.00     0.187 C 
BRANCH  23  24
HETATM   24  O   UNL     1     -39.261 -47.150  13.249  1.00  0.00    -0.394 OA
HETATM   25  C   UNL     1     -40.274 -47.031  14.243  1.00  0.00     0.201 C 
ENDBRANCH  23  24
ENDBRANCH  22  23
ENDBRANCH   1  22
TORSDOF 5
ENDMDL
MODEL 4
REMARK VINA RESULT:      -5.6      2.049      4.093
REMARK  5 active torsions:
REMARK  status: ('A' for Active; 'I' for Inactive)
REMARK    1  A    between atoms: O_2  and  C_3 
REMARK    2  A    between atoms: C_3  and  C_4 
REMARK    3  A    between atoms: C_4  and  N_5 
REMARK    4  A    between atoms: C_6  and  C_7 
REMARK    5  A    between atoms: C_7  and  N_8 
ROOT
HETATM    1  N   UNL     1     -41.204 -52.380  12.559  1.00  0.00    -0.325 N 
HETATM    2  C   UNL     1     -42.567 -52.120  12.509  1.00  0.00     0.114 A 
HETATM    3  N   UNL     1     -42.786 -50.854  12.177  1.00  0.00    -0.328 N 
ATOM      4  HN  UNL     1     -43.687 -50.404  12.017  1.00  0.00     0.169 HD
HETATM    5  C   UNL     1     -41.558 -50.283  12.096  1.00  0.00     0.145 A 
HETATM    6  N   UNL     1     -41.301 -48.966  11.794  1.00  0.00    -0.288 N 
HETATM    7  C   UNL     1     -42.350 -48.019  11.498  1.00  0.00     0.163 C 
HETATM    8  C   UNL     1     -39.978 -48.539  11.753  1.00  0.00     0.330 A 
HETATM    9  O   UNL     1     -39.643 -47.386  11.480  1.00  0.00    -0.246 OA
HETATM   10  N   UNL     1     -39.004 -49.475  12.031  1.00  0.00    -0.273 N 
HETATM   11  C   UNL     1     -39.188 -50.805  12.329  1.00  0.00     0.280 A 
HETATM   12  O   UNL     1     -38.240 -51.550  12.551  1.00  0.00    -0.265 OA
HETATM   13  C   UNL     1     -40.561 -51.183  12.345  1.00  0.00     0.149 A 
HETATM   14  H   UNL     1     -38.052 -49.146  12.003  1.00  0.00     0.173 HD
ENDROOT
BRANCH   2  15
HETATM   15  C   UNL     1     -43.671 -53.114  12.761  1.00  0.00     0.349 C 
BRANCH  15  16
HETATM   16  N   UNL     1     -43.877 -53.428  14.187  1.00  0.00     0.099 N 
HETATM   17  C   UNL     1     -44.224 -54.863  14.359  1.00  0.00     0.299 C 
HETATM   18  C   UNL     1     -45.659 -55.237  13.932  1.00  0.00     0.198 C 
HETATM   19  O   UNL     1     -46.636 -54.410  14.573  1.00  0.00    -0.388 OA
HETATM   20  C   UNL     1     -46.377 -53.022  14.321  1.00  0.00     0.198 C 
HETATM   21  C   UNL     1     -44.970 -52.635  14.802  1.00  0.00     0.299 C 
ENDBRANCH  15  16
ENDBRANCH   2  15
BRANCH   1  22
HETATM   22  C   UNL     1     -40.571 -53.673  12.740  1.00  0.00     0.157 C 
BRANCH  22  23
HETATM   23  C   UNL     1     -40.216 -53.944  14.200  1.00  0.00     0.187 C 
BRANCH  23  24
HETATM   24  O   UNL     1     -39.050 -54.764  14.274  1.00  0.00    -0.394 OA
HETATM   25  C   UNL     1     -38.768 -55.135  15.620  1.00  0.00     0.201 C 
ENDBRANCH  23  24
ENDBRANCH  22  23
ENDBRANCH   1  22
TORSDOF 5
ENDMDL
MODEL 5
REMARK VINA RESULT:      -5.6      1.867      3.047
REMARK  5 active torsions:
REMARK  status: ('A' for Active; 'I' for Inactive)
REMARK    1  A    between atoms: O_2  and  C_3 
REMARK    2  A    between atoms: C_3  and  C_4 
REMARK    3  A    between atoms: C_4  and  N_5 
REMARK    4  A    between atoms: C_6  and  C_7 
REMARK    5  A    between atoms: C_7  and  N_8 
ROOT
HETATM    1  N   UNL     1     -41.656 -50.901  12.965  1.00  0.00    -0.325 N 
HETATM    2  C   UNL     1     -43.039 -50.817  13.055  1.00  0.00     0.114 A 
HETATM    3  N   UNL     1     -43.481 -49.744  12.410  1.00  0.00    -0.328 N 
ATOM      4  HN  UNL     1     -44.452 -49.465  12.270  1.00  0.00     0.169 HD
HETATM    5  C   UNL     1     -42.370 -49.098  11.977  1.00  0.00     0.145 A 
HETATM    6  N   UNL     1     -42.349 -47.917  11.272  1.00  0.00    -0.288 N 
HETATM    7  C   UNL     1     -43.555 -47.224  10.883  1.00  0.00     0.163 C 
HETATM    8  C   UNL     1     -41.118 -47.384  10.904  1.00  0.00     0.330 A 
HETATM    9  O   UNL     1     -40.994 -46.341  10.262  1.00  0.00    -0.246 OA
HETATM   10  N   UNL     1     -39.990 -48.080  11.285  1.00  0.00    -0.273 N 
HETATM   11  C   UNL     1     -39.937 -49.266  11.979  1.00  0.00     0.280 A 
HETATM   12  O   UNL     1     -38.870 -49.801  12.255  1.00  0.00    -0.265 OA
HETATM   13  C   UNL     1     -41.227 -49.766  12.317  1.00  0.00     0.149 A 
HETATM   14  H   UNL     1     -39.107 -47.675  11.015  1.00  0.00     0.173 HD
ENDROOT
BRANCH   2  15
HETATM   15  C   UNL     1     -43.945 -51.798  13.752  1.00  0.00     0.349 C 
BRANCH  15  16
HETATM   16  N   UNL     1     -44.750 -52.624  12.831  1.00  0.00     0.099 N 
HETATM   17  C   UNL     1     -46.189 -52.558  13.197  1.00  0.00     0.299 C 
HETATM   18  C   UNL     1     -46.572 -53.356  14.461  1.00  0.00     0.198 C 
HETATM   19  O   UNL     1     -46.144 -54.719  14.377  1.00  0.00    -0.388 OA
HETATM   20  C   UNL     1     -44.732 -54.798  14.136  1.00  0.00     0.198 C 
HETATM   21  C   UNL     1     -44.358 -54.055  12.845  1.00  0.00     0.299 C 
ENDBRANCH  15  16
ENDBRANCH   2  15
BRANCH   1  22
HETATM   22  C   UNL     1     -40.820 -52.001  13.409  1.00  0.00     0.157 C 
BRANCH  22  23
HETATM   23  C   UNL     1     -40.773 -53.139  12.392  1.00  0.00     0.187 C 
BRANCH  23  24
HETATM   24  O   UNL     1     -40.668 -54.392  13.067  1.00  0.00    -0.394 OA
HETATM   25  C   UNL     1     -39.520 -54.428  13.909  1.00  0.00     0.201 C 
ENDBRANCH  23  24
ENDBRANCH  22  23
ENDBRANCH   1  22
TORSDOF 5
ENDMDL
MODEL 6
REMARK VINA RESULT:      -5.5      1.522      1.761
REMARK  5 active torsions:
REMARK  status: ('A' for Active; 'I' for Inactive)
REMARK    1  A    between atoms: O_2  and  C_3 
REMARK    2  A    between atoms: C_3  and  C_4 
REMARK    3  A    between atoms: C_4  and  N_5 
REMARK    4  A    between atoms: C_6  and  C_7 
REMARK    5  A    between atoms: C_7  and  N_8 
ROOT
HETATM    1  N   UNL     1     -41.374 -50.004  13.014  1.00  0.00    -0.325 N 
HETATM    2  C   UNL     1     -42.695 -50.426  12.931  1.00  0.00     0.114 A 
HETATM    3  N   UNL     1     -43.380 -49.640  12.109  1.00  0.00    -0.328 N 
ATOM      4  HN  UNL     1     -44.353 -49.747  11.822  1.00  0.00     0.169 HD
HETATM    5  C   UNL     1     -42.515 -48.667  11.732  1.00  0.00     0.145 A 
HETATM    6  N   UNL     1     -42.802 -47.616  10.891  1.00  0.00    -0.288 N 
HETATM    7  C   UNL     1     -44.099 -47.444  10.279  1.00  0.00     0.163 C 
HETATM    8  C   UNL     1     -41.797 -46.698  10.607  1.00  0.00     0.330 A 
HETATM    9  O   UNL     1     -41.949 -45.733   9.857  1.00  0.00    -0.246 OA
HETATM   10  N   UNL     1     -40.570 -46.902  11.201  1.00  0.00    -0.273 N 
HETATM   11  C   UNL     1     -40.211 -47.931  12.040  1.00  0.00     0.280 A 
HETATM   12  O   UNL     1     -39.080 -48.016  12.504  1.00  0.00    -0.265 OA
HETATM   13  C   UNL     1     -41.278 -48.842  12.284  1.00  0.00     0.149 A 
HETATM   14  H   UNL     1     -39.855 -46.224  10.988  1.00  0.00     0.173 HD
ENDROOT
BRANCH   2  15
HETATM   15  C   UNL     1     -43.294 -51.616  13.634  1.00  0.00     0.349 C 
BRANCH  15  16
HETATM   16  N   UNL     1     -43.115 -52.888  12.909  1.00  0.00     0.099 N 
HETATM   17  C   UNL     1     -44.434 -53.474  12.553  1.00  0.00     0.299 C 
HETATM   18  C   UNL     1     -45.204 -54.101  13.734  1.00  0.00     0.198 C 
HETATM   19  O   UNL     1     -44.408 -55.061  14.436  1.00  0.00    -0.388 OA
HETATM   20  C   UNL     1     -43.178 -54.476  14.886  1.00  0.00     0.198 C 
HETATM   21  C   UNL     1     -42.382 -53.906  13.702  1.00  0.00     0.299 C 
ENDBRANCH  15  16
ENDBRANCH   2  15
BRANCH   1  22
HETATM   22  C   UNL     1     -40.284 -50.685  13.689  1.00  0.00     0.157 C 
BRANCH  22  23
HETATM   23  C   UNL     1     -39.497 -51.590  12.744  1.00  0.00     0.187 C 
BRANCH  23  24
HETATM   24  O   UNL     1     -38.193 -51.829  13.273  1.00  0.00    -0.394 OA
HETATM   25  C   UNL     1     -37.212 -51.053  12.592  1.00  0.00     0.201 C 
ENDBRANCH  23  24
ENDBRANCH  22  23
ENDBRANCH   1  22
TORSDOF 5
ENDMDL
MODEL 7
REMARK VINA RESULT:      -5.0      4.568      6.708
REMARK  5 active torsions:
REMARK  status: ('A' for Active; 'I' for Inactive)
REMARK    1  A    between atoms: O_2  and  C_3 
REMARK    2  A    between atoms: C_3  and  C_4 
REMARK    3  A    between atoms: C_4  and  N_5 
REMARK    4  A    between atoms: C_6  and  C_7 
REMARK    5  A    between atoms: C_7  and  N_8 
ROOT
HETATM    1  N   UNL     1     -43.889 -53.151  14.031  1.00  0.00    -0.325 N 
HETATM    2  C   UNL     1     -43.311 -53.851  15.082  1.00  0.00     0.114 A 
HETATM    3  N   UNL     1     -44.093 -53.807  16.154  1.00  0.00    -0.328 N 
ATOM      4  HN  UNL     1     -43.944 -54.275  17.047  1.00  0.00     0.169 HD
HETATM    5  C   UNL     1     -45.133 -53.007  15.811  1.00  0.00     0.145 A 
HETATM    6  N   UNL     1     -46.187 -52.661  16.626  1.00  0.00    -0.288 N 
HETATM    7  C   UNL     1     -46.313 -53.151  17.978  1.00  0.00     0.163 C 
HETATM    8  C   UNL     1     -47.174 -51.824  16.117  1.00  0.00     0.330 A 
HETATM    9  O   UNL     1     -48.161 -51.469  16.761  1.00  0.00    -0.246 OA
HETATM   10  N   UNL     1     -47.023 -51.386  14.818  1.00  0.00    -0.273 N 
HETATM   11  C   UNL     1     -46.006 -51.699  13.947  1.00  0.00     0.280 A 
HETATM   12  O   UNL     1     -45.981 -51.255  12.805  1.00  0.00    -0.265 OA
HETATM   13  C   UNL     1     -45.033 -52.566  14.521  1.00  0.00     0.149 A 
HETATM   14  H   UNL     1     -47.746 -50.776  14.469  1.00  0.00     0.173 HD
ENDROOT
BRANCH   2  15
HETATM   15  C   UNL     1     -42.001 -54.594  15.042  1.00  0.00     0.349 C 
BRANCH  15  16
HETATM   16  N   UNL     1     -41.022 -54.131  16.044  1.00  0.00     0.099 N 
HETATM   17  C   UNL     1     -39.711 -53.853  15.402  1.00  0.00     0.299 C 
HETATM   18  C   UNL     1     -38.908 -55.108  15.002  1.00  0.00     0.198 C 
HETATM   19  O   UNL     1     -38.739 -56.004  16.105  1.00  0.00    -0.388 OA
HETATM   20  C   UNL     1     -40.008 -56.371  16.665  1.00  0.00     0.198 C 
HETATM   21  C   UNL     1     -40.783 -55.124  17.120  1.00  0.00     0.299 C 
ENDBRANCH  15  16
ENDBRANCH   2  15
BRANCH   1  22
HETATM   22  C   UNL     1     -43.416 -53.093  12.660  1.00  0.00     0.157 C 
BRANCH  22  23
HETATM   23  C   UNL     1     -42.408 -51.966  12.444  1.00  0.00     0.187 C 
BRANCH  23  24
HETATM   24  O   UNL     1     -41.100 -52.509  12.271  1.00  0.00    -0.394 OA
HETATM   25  C   UNL     1     -40.099 -51.518  12.482  1.00  0.00     0.201 C 
ENDBRANCH  23  24
ENDBRANCH  22  23
ENDBRANCH   1  22
TORSDOF 5
ENDMDL
MODEL 8
REMARK VINA RESULT:      -5.0      4.391      7.627
REMARK  5 active torsions:
REMARK  status: ('A' for Active; 'I' for Inactive)
REMARK    1  A    between atoms: O_2  and  C_3 
REMARK    2  A    between atoms: C_3  and  C_4 
REMARK    3  A    between atoms: C_4  and  N_5 
REMARK    4  A    between atoms: C_6  and  C_7 
REMARK    5  A    between atoms: C_7  and  N_8 
ROOT
HETATM    1  N   UNL     1     -41.588 -53.160  14.634  1.00  0.00    -0.325 N 
HETATM    2  C   UNL     1     -42.684 -53.464  15.429  1.00  0.00     0.114 A 
HETATM    3  N   UNL     1     -42.365 -54.393  16.322  1.00  0.00    -0.328 N 
ATOM      4  HN  UNL     1     -42.958 -54.766  17.063  1.00  0.00     0.169 HD
HETATM    5  C   UNL     1     -41.084 -54.740  16.043  1.00  0.00     0.145 A 
HETATM    6  N   UNL     1     -40.343 -55.689  16.708  1.00  0.00    -0.288 N 
HETATM    7  C   UNL     1     -40.864 -56.429  17.834  1.00  0.00     0.163 C 
HETATM    8  C   UNL     1     -39.039 -55.927  16.291  1.00  0.00     0.330 A 
HETATM    9  O   UNL     1     -38.291 -56.745  16.829  1.00  0.00    -0.246 OA
HETATM   10  N   UNL     1     -38.575 -55.193  15.220  1.00  0.00    -0.273 N 
HETATM   11  C   UNL     1     -39.253 -54.226  14.517  1.00  0.00     0.280 A 
HETATM   12  O   UNL     1     -38.733 -53.627  13.582  1.00  0.00    -0.265 OA
HETATM   13  C   UNL     1     -40.578 -54.020  14.997  1.00  0.00     0.149 A 
HETATM   14  H   UNL     1     -37.629 -55.384  14.928  1.00  0.00     0.173 HD
ENDROOT
BRANCH   2  15
HETATM   15  C   UNL     1     -44.049 -52.833  15.340  1.00  0.00     0.349 C 
BRANCH  15  16
HETATM   16  N   UNL     1     -45.093 -53.739  14.825  1.00  0.00     0.099 N 
HETATM   17  C   UNL     1     -44.651 -54.376  13.558  1.00  0.00     0.299 C 
HETATM   18  C   UNL     1     -44.663 -53.444  12.327  1.00  0.00     0.198 C 
HETATM   19  O   UNL     1     -45.938 -52.819  12.148  1.00  0.00    -0.388 OA
HETATM   20  C   UNL     1     -46.327 -52.104  13.329  1.00  0.00     0.198 C 
HETATM   21  C   UNL     1     -46.374 -53.044  14.544  1.00  0.00     0.299 C 
ENDBRANCH  15  16
ENDBRANCH   2  15
BRANCH   1  22
HETATM   22  C   UNL     1     -41.495 -52.097  13.649  1.00  0.00     0.157 C 
BRANCH  22  23
HETATM   23  C   UNL     1     -40.891 -50.821  14.231  1.00  0.00     0.187 C 
BRANCH  23  24
HETATM   24  O   UNL     1     -41.638 -49.686  13.794  1.00  0.00    -0.394 OA
HETATM   25  C   UNL     1     -41.256 -48.514  14.508  1.00  0.00     0.201 C 
ENDBRANCH  23  24
ENDBRANCH  22  23
ENDBRANCH   1  22
TORSDOF 5
ENDMDL
MODEL 9
REMARK VINA RESULT:      -4.9      2.035      6.496
REMARK  5 active torsions:
REMARK  status: ('A' for Active; 'I' for Inactive)
REMARK    1  A    between atoms: O_2  and  C_3 
REMARK    2  A    between atoms: C_3  and  C_4 
REMARK    3  A    between atoms: C_4  and  N_5 
REMARK    4  A    between atoms: C_6  and  C_7 
REMARK    5  A    between atoms: C_7  and  N_8 
ROOT
HETATM    1  N   UNL     1     -41.056 -51.936  13.223  1.00  0.00    -0.325 N 
HETATM    2  C   UNL     1     -41.826 -51.061  12.468  1.00  0.00     0.114 A 
HETATM    3  N   UNL     1     -43.096 -51.448  12.461  1.00  0.00    -0.328 N 
ATOM      4  HN  UNL     1     -43.885 -50.966  12.031  1.00  0.00     0.169 HD
HETATM    5  C   UNL     1     -43.122 -52.618  13.146  1.00  0.00     0.145 A 
HETATM    6  N   UNL     1     -44.236 -53.393  13.374  1.00  0.00    -0.288 N 
HETATM    7  C   UNL     1     -45.551 -53.016  12.912  1.00  0.00     0.163 C 
HETATM    8  C   UNL     1     -44.088 -54.572  14.096  1.00  0.00     0.330 A 
HETATM    9  O   UNL     1     -45.024 -55.326  14.365  1.00  0.00    -0.246 OA
HETATM   10  N   UNL     1     -42.819 -54.893  14.530  1.00  0.00    -0.273 N 
HETATM   11  C   UNL     1     -41.668 -54.164  14.347  1.00  0.00     0.280 A 
HETATM   12  O   UNL     1     -40.590 -54.545  14.789  1.00  0.00    -0.265 OA
HETATM   13  C   UNL     1     -41.885 -52.964  13.611  1.00  0.00     0.149 A 
HETATM   14  H   UNL     1     -42.731 -55.754  15.046  1.00  0.00     0.173 HD
ENDROOT
BRANCH   2  15
HETATM   15  C   UNL     1     -41.333 -49.822  11.767  1.00  0.00     0.349 C 
BRANCH  15  16
HETATM   16  N   UNL     1     -41.920 -48.571  12.282  1.00  0.00     0.099 N 
HETATM   17  C   UNL     1     -42.955 -48.058  11.347  1.00  0.00     0.299 C 
HETATM   18  C   UNL     1     -42.401 -47.423  10.054  1.00  0.00     0.198 C 
HETATM   19  O   UNL     1     -41.438 -46.402  10.335  1.00  0.00    -0.388 OA
HETATM   20  C   UNL     1     -40.371 -46.915  11.146  1.00  0.00     0.198 C 
HETATM   21  C   UNL     1     -40.916 -47.492  12.461  1.00  0.00     0.299 C 
ENDBRANCH  15  16
ENDBRANCH   2  15
BRANCH   1  22
HETATM   22  C   UNL     1     -39.662 -51.774  13.590  1.00  0.00     0.157 C 
BRANCH  22  23
HETATM   23  C   UNL     1     -39.494 -51.001  14.897  1.00  0.00     0.187 C 
BRANCH  23  24
HETATM   24  O   UNL     1     -40.754 -50.480  15.319  1.00  0.00    -0.394 OA
HETATM   25  C   UNL     1     -40.625 -49.144  15.795  1.00  0.00     0.201 C 
ENDBRANCH  23  24
ENDBRANCH  22  23
ENDBRANCH   1  22
TORSDOF 5
ENDMDL
