MODEL 1
REMARK VINA RESULT:      -6.3      0.000      0.000
REMARK  2 active torsions:
REMARK  status: ('A' for Active; 'I' for Inactive)
REMARK    1  A    between atoms: C_5  and  N_8 
REMARK       I    between atoms: N_8  and  C_9 
REMARK       I    between atoms: C_9  and  N_11 
REMARK    2  A    between atoms: N_11  and  C_12 
ROOT
HETATM    1  N   UNL     1     -42.088 -50.005  11.760  1.00  0.00    -0.338 N 
HETATM    2  C   UNL     1     -42.618 -48.744  11.597  1.00  0.00     0.321 C 
HETATM    3  O   UNL     1     -43.082 -48.091  12.518  1.00  0.00    -0.247 OA
HETATM    4  N   UNL     1     -42.626 -48.374  10.268  1.00  0.00    -0.305 N 
HETATM    5  H   UNL     1     -41.305 -50.216  11.155  1.00  0.00     0.164 HD
HETATM    6  H   UNL     1     -42.790 -49.143   9.634  1.00  0.00     0.171 HD
ENDROOT
BRANCH   1   7
HETATM    7  C   UNL     1     -42.104 -50.632  13.082  1.00  0.00     0.089 C 
HETATM    8  C   UNL     1     -40.824 -51.423  13.372  1.00  0.00     0.055 C 
HETATM    9  C   UNL     1     -40.791 -52.752  12.618  1.00  0.00     0.274 C 
HETATM   10  N   UNL     1     -41.985 -53.582  12.812  1.00  0.00     0.084 N 
HETATM   11  C   UNL     1     -42.017 -54.203  14.137  1.00  0.00     0.309 C 
HETATM   12  C   UNL     1     -43.215 -52.842  12.516  1.00  0.00     0.274 C 
HETATM   13  C   UNL     1     -43.343 -51.513  13.256  1.00  0.00     0.055 C 
ENDBRANCH   1   7
BRANCH   4  14
HETATM   14  C   UNL     1     -43.139 -47.140   9.888  1.00  0.00     0.092 A 
HETATM   15  C   UNL     1     -44.392 -46.790   9.313  1.00  0.00     0.058 A 
HETATM   16  C   UNL     1     -45.577 -47.633   9.027  1.00  0.00     0.072 C 
HETATM   17  N   UNL     1     -44.465 -45.470   9.087  1.00  0.00    -0.263 N 
HETATM   18  O   UNL     1     -43.258 -44.946   9.505  1.00  0.00    -0.240 OA
ATOM     19  HN  UNL     1     -45.251 -44.958   8.687  1.00  0.00     0.194 HD
HETATM   20  C   UNL     1     -42.473 -45.941   9.996  1.00  0.00     0.101 A 
HETATM   21  C   UNL     1     -41.121 -45.547  10.430  1.00  0.00     0.081 C 
ENDBRANCH   4  14
TORSDOF 2
ENDMDL
MODEL 2
REMARK VINA RESULT:      -6.0      1.799      2.791
REMARK  2 active torsions:
REMARK  status: ('A' for Active; 'I' for Inactive)
REMARK    1  A    between atoms: C_5  and  N_8 
REMARK       I    between atoms: N_8  and  C_9 
REMARK       I    between atoms: C_9  and  N_11 
REMARK    2  A    between atoms: N_11  and  C_12 
ROOT
HETATM    1  N   UNL     1     -43.067 -50.651  12.439  1.00  0.00    -0.338 N 
HETATM    2  C   UNL     1     -42.865 -49.306  12.219  1.00  0.00     0.321 C 
HETATM    3  O   UNL     1     -43.207 -48.442  13.011  1.00  0.00    -0.247 OA
HETATM    4  N   UNL     1     -42.314 -49.080  10.974  1.00  0.00    -0.305 N 
HETATM    5  H   UNL     1     -42.341 -51.252  12.072  1.00  0.00     0.164 HD
HETATM    6  H   UNL     1     -42.633 -49.727  10.267  1.00  0.00     0.171 HD
ENDROOT
BRANCH   1   7
HETATM    7  C   UNL     1     -43.757 -51.091  13.651  1.00  0.00     0.089 C 
HETATM    8  C   UNL     1     -43.111 -52.332  14.276  1.00  0.00     0.055 C 
HETATM    9  C   UNL     1     -43.442 -53.603  13.492  1.00  0.00     0.274 C 
HETATM   10  N   UNL     1     -44.876 -53.808  13.258  1.00  0.00     0.084 N 
HETATM   11  C   UNL     1     -45.577 -54.236  14.469  1.00  0.00     0.309 C 
HETATM   12  C   UNL     1     -45.499 -52.634  12.640  1.00  0.00     0.274 C 
HETATM   13  C   UNL     1     -45.245 -51.324  13.381  1.00  0.00     0.055 C 
ENDBRANCH   1   7
BRANCH   4  14
HETATM   14  C   UNL     1     -42.048 -47.784  10.550  1.00  0.00     0.092 A 
HETATM   15  C   UNL     1     -40.955 -46.919  10.830  1.00  0.00     0.058 A 
HETATM   16  C   UNL     1     -39.710 -47.174  11.593  1.00  0.00     0.072 C 
HETATM   17  N   UNL     1     -41.111 -45.735  10.220  1.00  0.00    -0.263 N 
HETATM   18  O   UNL     1     -42.311 -45.812   9.542  1.00  0.00    -0.240 OA
ATOM     19  HN  UNL     1     -40.474 -44.939  10.252  1.00  0.00     0.194 HD
HETATM   20  C   UNL     1     -42.863 -47.040   9.727  1.00  0.00     0.101 A 
HETATM   21  C   UNL     1     -44.183 -47.258   9.111  1.00  0.00     0.081 C 
ENDBRANCH   4  14
TORSDOF 2
ENDMDL
MODEL 3
REMARK VINA RESULT:      -6.0      2.252      2.787
REMARK  2 active torsions:
REMARK  status: ('A' for Active; 'I' for Inactive)
REMARK    1  A    between atoms: C_5  and  N_8 
REMARK       I    between atoms: N_8  and  C_9 
REMARK       I    between atoms: C_9  and  N_11 
REMARK    2  A    between atoms: N_11  and  C_12 
ROOT
HETATM    1  N   UNL     1     -43.191 -51.055  12.794  1.00  0.00    -0.338 N 
HETATM    2  C   UNL     1     -42.836 -49.742  12.573  1.00  0.00     0.321 C 
HETATM    3  O   UNL     1     -43.172 -48.828  13.309  1.00  0.00    -0.247 OA
HETATM    4  N   UNL     1     -42.139 -49.604  11.391  1.00  0.00    -0.305 N 
HETATM    5  H   UNL     1     -42.493 -51.733  12.517  1.00  0.00     0.164 HD
HETATM    6  H   UNL     1     -42.444 -50.237  10.665  1.00  0.00     0.171 HD
ENDROOT
BRANCH   1   7
HETATM    7  C   UNL     1     -44.042 -51.394  13.934  1.00  0.00     0.089 C 
HETATM    8  C   UNL     1     -43.610 -52.691  14.625  1.00  0.00     0.055 C 
HETATM    9  C   UNL     1     -44.006 -53.927  13.818  1.00  0.00     0.274 C 
HETATM   10  N   UNL     1     -45.425 -53.970  13.443  1.00  0.00     0.084 N 
HETATM   11  C   UNL     1     -46.287 -54.295  14.580  1.00  0.00     0.309 C 
HETATM   12  C   UNL     1     -45.844 -52.742  12.761  1.00  0.00     0.274 C 
HETATM   13  C   UNL     1     -45.514 -51.458  13.518  1.00  0.00     0.055 C 
ENDBRANCH   1   7
BRANCH   4  14
HETATM   14  C   UNL     1     -41.705 -48.352  10.975  1.00  0.00     0.092 A 
HETATM   15  C   UNL     1     -42.304 -47.401  10.103  1.00  0.00     0.058 A 
HETATM   16  C   UNL     1     -43.628 -47.420   9.438  1.00  0.00     0.072 C 
HETATM   17  N   UNL     1     -41.523 -46.319   9.963  1.00  0.00    -0.263 N 
HETATM   18  O   UNL     1     -40.405 -46.555  10.738  1.00  0.00    -0.240 OA
ATOM     19  HN  UNL     1     -41.716 -45.491   9.400  1.00  0.00     0.194 HD
HETATM   20  C   UNL     1     -40.520 -47.762  11.352  1.00  0.00     0.101 A 
HETATM   21  C   UNL     1     -39.372 -48.185  12.172  1.00  0.00     0.081 C 
ENDBRANCH   4  14
TORSDOF 2
ENDMDL
MODEL 4
REMARK VINA RESULT:      -5.6      1.560      2.354
REMARK  2 active torsions:
REMARK  status: ('A' for Active; 'I' for Inactive)
REMARK    1  A    between atoms: C_5  and  N_8 
REMARK       I    between atoms: N_8  and  C_9 
REMARK       I    between atoms: C_9  and  N_11 
REMARK    2  A    between atoms: N_11  and  C_12 
ROOT
HETATM    1  N   UNL     1     -41.966 -50.468  11.863  1.00  0.00    -0.338 N 
HETATM    2  C   UNL     1     -41.767 -49.204  11.355  1.00  0.00     0.321 C 
HETATM    3  O   UNL     1     -40.658 -48.722  11.179  1.00  0.00    -0.247 OA
HETATM    4  N   UNL     1     -42.965 -48.548  11.160  1.00  0.00    -0.305 N 
HETATM    5  H   UNL     1     -42.771 -50.952  11.487  1.00  0.00     0.164 HD
HETATM    6  H   UNL     1     -43.668 -48.776  11.848  1.00  0.00     0.171 HD
ENDROOT
BRANCH   1   7
HETATM    7  C   UNL     1     -40.815 -51.281  12.256  1.00  0.00     0.089 C 
HETATM    8  C   UNL     1     -41.023 -52.771  11.967  1.00  0.00     0.055 C 
HETATM    9  C   UNL     1     -41.969 -53.422  12.976  1.00  0.00     0.274 C 
HETATM   10  N   UNL     1     -41.597 -53.197  14.379  1.00  0.00     0.084 N 
HETATM   11  C   UNL     1     -40.439 -53.996  14.778  1.00  0.00     0.309 C 
HETATM   12  C   UNL     1     -41.418 -51.772  14.671  1.00  0.00     0.274 C 
HETATM   13  C   UNL     1     -40.459 -51.052  13.727  1.00  0.00     0.055 C 
ENDBRANCH   1   7
BRANCH   4  14
HETATM   14  C   UNL     1     -42.981 -47.249  10.669  1.00  0.00     0.092 A 
HETATM   15  C   UNL     1     -42.802 -46.002  11.329  1.00  0.00     0.058 A 
HETATM   16  C   UNL     1     -42.450 -45.713  12.740  1.00  0.00     0.072 C 
HETATM   17  N   UNL     1     -42.915 -44.981  10.467  1.00  0.00    -0.263 N 
HETATM   18  O   UNL     1     -43.176 -45.550   9.236  1.00  0.00    -0.240 OA
ATOM     19  HN  UNL     1     -42.827 -43.987  10.677  1.00  0.00     0.194 HD
HETATM   20  C   UNL     1     -43.201 -46.904   9.355  1.00  0.00     0.101 A 
HETATM   21  C   UNL     1     -43.528 -47.657   8.132  1.00  0.00     0.081 C 
ENDBRANCH   4  14
TORSDOF 2
ENDMDL
MODEL 5
REMARK VINA RESULT:      -5.5      2.777      6.651
REMARK  2 active torsions:
REMARK  status: ('A' for Active; 'I' for Inactive)
REMARK    1  A    between atoms: C_5  and  N_8 
REMARK       I    between atoms: N_8  and  C_9 
REMARK       I    between atoms: C_9  and  N_11 
REMARK    2  A    between atoms: N_11  and  C_12 
ROOT
HETATM    1  N   UNL     1     -42.421 -49.789  12.323  1.00  0.00    -0.338 N 
HETATM    2  C   UNL     1     -43.323 -50.602  12.973  1.00  0.00     0.321 C 
HETATM    3  O   UNL     1     -43.930 -50.257  13.975  1.00  0.00    -0.247 OA
HETATM    4  N   UNL     1     -43.376 -51.853  12.395  1.00  0.00    -0.305 N 
HETATM    5  H   UNL     1     -42.399 -49.901  11.318  1.00  0.00     0.164 HD
HETATM    6  H   UNL     1     -42.487 -52.170  12.034  1.00  0.00     0.171 HD
ENDROOT
BRANCH   1   7
HETATM    7  C   UNL     1     -42.127 -48.460  12.858  1.00  0.00     0.089 C 
HETATM    8  C   UNL     1     -42.759 -47.339  12.026  1.00  0.00     0.055 C 
HETATM    9  C   UNL     1     -42.002 -47.103  10.718  1.00  0.00     0.274 C 
HETATM   10  N   UNL     1     -40.560 -46.892  10.889  1.00  0.00     0.084 N 
HETATM   11  C   UNL     1     -40.256 -45.570  11.436  1.00  0.00     0.309 C 
HETATM   12  C   UNL     1     -39.941 -47.971  11.665  1.00  0.00     0.274 C 
HETATM   13  C   UNL     1     -40.618 -48.250  13.004  1.00  0.00     0.055 C 
ENDBRANCH   1   7
BRANCH   4  14
HETATM   14  C   UNL     1     -44.215 -52.831  12.915  1.00  0.00     0.092 A 
HETATM   15  C   UNL     1     -45.631 -52.957  12.880  1.00  0.00     0.058 A 
HETATM   16  C   UNL     1     -46.645 -52.123  12.192  1.00  0.00     0.072 C 
HETATM   17  N   UNL     1     -46.031 -54.059  13.530  1.00  0.00    -0.263 N 
HETATM   18  O   UNL     1     -44.881 -54.661  14.002  1.00  0.00    -0.240 OA
ATOM     19  HN  UNL     1     -46.990 -54.387  13.652  1.00  0.00     0.194 HD
HETATM   20  C   UNL     1     -43.797 -53.935  13.622  1.00  0.00     0.101 A 
HETATM   21  C   UNL     1     -42.491 -54.419  14.103  1.00  0.00     0.081 C 
ENDBRANCH   4  14
TORSDOF 2
ENDMDL
MODEL 6
REMARK VINA RESULT:      -5.3      2.755      6.857
REMARK  2 active torsions:
REMARK  status: ('A' for Active; 'I' for Inactive)
REMARK    1  A    between atoms: C_5  and  N_8 
REMARK       I    between atoms: N_8  and  C_9 
REMARK       I    between atoms: C_9  and  N_11 
REMARK    2  A    between atoms: N_11  and  C_12 
ROOT
HETATM    1  N   UNL     1     -42.486 -49.696  12.220  1.00  0.00    -0.338 N 
HETATM    2  C   UNL     1     -43.252 -50.579  12.949  1.00  0.00     0.321 C 
HETATM    3  O   UNL     1     -43.749 -50.297  14.028  1.00  0.00    -0.247 OA
HETATM    4  N   UNL     1     -43.302 -51.817  12.343  1.00  0.00    -0.305 N 
HETATM    5  H   UNL     1     -42.583 -49.782  11.216  1.00  0.00     0.164 HD
HETATM    6  H   UNL     1     -42.448 -52.070  11.866  1.00  0.00     0.171 HD
ENDROOT
BRANCH   1   7
HETATM    7  C   UNL     1     -42.206 -48.365  12.756  1.00  0.00     0.089 C 
HETATM    8  C   UNL     1     -42.774 -47.246  11.877  1.00  0.00     0.055 C 
HETATM    9  C   UNL     1     -41.939 -47.035  10.614  1.00  0.00     0.274 C 
HETATM   10  N   UNL     1     -40.506 -46.840  10.866  1.00  0.00     0.084 N 
HETATM   11  C   UNL     1     -40.217 -45.515  11.416  1.00  0.00     0.309 C 
HETATM   12  C   UNL     1     -39.948 -47.917  11.689  1.00  0.00     0.274 C 
HETATM   13  C   UNL     1     -40.706 -48.172  12.989  1.00  0.00     0.055 C 
ENDBRANCH   1   7
BRANCH   4  14
HETATM   14  C   UNL     1     -44.011 -52.857  12.930  1.00  0.00     0.092 A 
HETATM   15  C   UNL     1     -43.564 -53.996  13.656  1.00  0.00     0.058 A 
HETATM   16  C   UNL     1     -42.197 -54.374  14.087  1.00  0.00     0.072 C 
HETATM   17  N   UNL     1     -44.599 -54.762  14.033  1.00  0.00    -0.263 N 
HETATM   18  O   UNL     1     -45.731 -54.135  13.552  1.00  0.00    -0.240 OA
ATOM     19  HN  UNL     1     -44.557 -55.630  14.566  1.00  0.00     0.194 HD
HETATM   20  C   UNL     1     -45.381 -52.991  12.907  1.00  0.00     0.101 A 
HETATM   21  C   UNL     1     -46.481 -52.235  12.282  1.00  0.00     0.081 C 
ENDBRANCH   4  14
TORSDOF 2
ENDMDL
MODEL 7
REMARK VINA RESULT:      -5.2      4.180      8.123
REMARK  2 active torsions:
REMARK  status: ('A' for Active; 'I' for Inactive)
REMARK    1  A    between atoms: C_5  and  N_8 
REMARK       I    between atoms: N_8  and  C_9 
REMARK       I    between atoms: C_9  and  N_11 
REMARK    2  A    between atoms: N_11  and  C_12 
ROOT
HETATM    1  N   UNL     1     -42.868 -43.412  12.390  1.00  0.00    -0.338 N 
HETATM    2  C   UNL     1     -42.412 -44.311  11.451  1.00  0.00     0.321 C 
HETATM    3  O   UNL     1     -41.592 -44.022  10.594  1.00  0.00    -0.247 OA
HETATM    4  N   UNL     1     -43.062 -45.523  11.563  1.00  0.00    -0.305 N 
HETATM    5  H   UNL     1     -43.071 -43.815  13.296  1.00  0.00     0.164 HD
HETATM    6  H   UNL     1     -44.028 -45.441  11.844  1.00  0.00     0.171 HD
ENDROOT
BRANCH   1   7
HETATM    7  C   UNL     1     -42.393 -42.029  12.359  1.00  0.00     0.089 C 
HETATM    8  C   UNL     1     -42.226 -41.435  13.762  1.00  0.00     0.055 C 
HETATM    9  C   UNL     1     -43.571 -41.077  14.394  1.00  0.00     0.274 C 
HETATM   10  N   UNL     1     -44.423 -40.228  13.553  1.00  0.00     0.084 N 
HETATM   11  C   UNL     1     -43.949 -38.845  13.505  1.00  0.00     0.309 C 
HETATM   12  C   UNL     1     -44.608 -40.799  12.216  1.00  0.00     0.274 C 
HETATM   13  C   UNL     1     -43.308 -41.155  11.499  1.00  0.00     0.055 C 
ENDBRANCH   1   7
BRANCH   4  14
HETATM   14  C   UNL     1     -42.759 -46.563  10.693  1.00  0.00     0.092 A 
HETATM   15  C   UNL     1     -41.701 -47.514  10.711  1.00  0.00     0.058 A 
HETATM   16  C   UNL     1     -40.642 -47.742  11.723  1.00  0.00     0.072 C 
HETATM   17  N   UNL     1     -41.779 -48.339   9.656  1.00  0.00    -0.263 N 
HETATM   18  O   UNL     1     -42.884 -47.932   8.936  1.00  0.00    -0.240 OA
ATOM     19  HN  UNL     1     -41.149 -49.110   9.432  1.00  0.00     0.194 HD
HETATM   20  C   UNL     1     -43.476 -46.882   9.563  1.00  0.00     0.101 A 
HETATM   21  C   UNL     1     -44.643 -46.293   8.881  1.00  0.00     0.081 C 
ENDBRANCH   4  14
TORSDOF 2
ENDMDL
MODEL 8
REMARK VINA RESULT:      -5.0      5.239      7.729
REMARK  2 active torsions:
REMARK  status: ('A' for Active; 'I' for Inactive)
REMARK    1  A    between atoms: C_5  and  N_8 
REMARK       I    between atoms: N_8  and  C_9 
REMARK       I    between atoms: C_9  and  N_11 
REMARK    2  A    between atoms: N_11  and  C_12 
ROOT
HETATM    1  N   UNL     1     -37.804 -50.068  15.465  1.00  0.00    -0.338 N 
HETATM    2  C   UNL     1     -38.167 -50.744  14.321  1.00  0.00     0.321 C 
HETATM    3  O   UNL     1     -37.432 -50.857  13.352  1.00  0.00    -0.247 OA
HETATM    4  N   UNL     1     -39.472 -51.186  14.394  1.00  0.00    -0.305 N 
HETATM    5  H   UNL     1     -38.176 -50.458  16.322  1.00  0.00     0.164 HD
HETATM    6  H   UNL     1     -40.083 -50.561  14.899  1.00  0.00     0.171 HD
ENDROOT
BRANCH   1   7
HETATM    7  C   UNL     1     -36.499 -49.412  15.537  1.00  0.00     0.089 C 
HETATM    8  C   UNL     1     -35.658 -49.904  16.720  1.00  0.00     0.055 C 
HETATM    9  C   UNL     1     -36.148 -49.324  18.047  1.00  0.00     0.274 C 
HETATM   10  N   UNL     1     -36.273 -47.861  18.053  1.00  0.00     0.084 N 
HETATM   11  C   UNL     1     -34.971 -47.195  18.111  1.00  0.00     0.309 C 
HETATM   12  C   UNL     1     -37.094 -47.382  16.937  1.00  0.00     0.274 C 
HETATM   13  C   UNL     1     -36.651 -47.890  15.568  1.00  0.00     0.055 C 
ENDBRANCH   1   7
BRANCH   4  14
HETATM   14  C   UNL     1     -40.038 -51.877  13.330  1.00  0.00     0.092 A 
HETATM   15  C   UNL     1     -40.658 -51.407  12.139  1.00  0.00     0.058 A 
HETATM   16  C   UNL     1     -40.809 -50.025  11.625  1.00  0.00     0.072 C 
HETATM   17  N   UNL     1     -41.085 -52.430  11.384  1.00  0.00    -0.263 N 
HETATM   18  O   UNL     1     -40.755 -53.577  12.077  1.00  0.00    -0.240 OA
ATOM     19  HN  UNL     1     -41.559 -52.372  10.483  1.00  0.00     0.194 HD
HETATM   20  C   UNL     1     -40.117 -53.247  13.231  1.00  0.00     0.101 A 
HETATM   21  C   UNL     1     -39.751 -54.368  14.114  1.00  0.00     0.081 C 
ENDBRANCH   4  14
TORSDOF 2
ENDMDL
MODEL 9
REMARK VINA RESULT:      -5.0      4.090      8.073
REMARK  2 active torsions:
REMARK  status: ('A' for Active; 'I' for Inactive)
REMARK    1  A    between atoms: C_5  and  N_8 
REMARK       I    between atoms: N_8  and  C_9 
REMARK       I    between atoms: C_9  and  N_11 
REMARK    2  A    between atoms: N_11  and  C_12 
ROOT
HETATM    1  N   UNL     1     -43.080 -43.337  11.720  1.00  0.00    -0.338 N 
HETATM    2  C   UNL     1     -42.334 -44.341  11.143  1.00  0.00     0.321 C 
HETATM    3  O   UNL     1     -41.473 -44.133  10.302  1.00  0.00    -0.247 OA
HETATM    4  N   UNL     1     -42.746 -45.584  11.577  1.00  0.00    -0.305 N 
HETATM    5  H   UNL     1     -43.325 -43.498  12.688  1.00  0.00     0.164 HD
HETATM    6  H   UNL     1     -43.740 -45.645  11.746  1.00  0.00     0.171 HD
ENDROOT
BRANCH   1   7
HETATM    7  C   UNL     1     -42.881 -41.952  11.297  1.00  0.00     0.089 C 
HETATM    8  C   UNL     1     -41.641 -41.316  11.933  1.00  0.00     0.055 C 
HETATM    9  C   UNL     1     -41.875 -40.952  13.399  1.00  0.00     0.274 C 
HETATM   10  N   UNL     1     -43.072 -40.135  13.632  1.00  0.00     0.084 N 
HETATM   11  C   UNL     1     -42.888 -38.749  13.199  1.00  0.00     0.309 C 
HETATM   12  C   UNL     1     -44.269 -40.746  13.046  1.00  0.00     0.274 C 
HETATM   13  C   UNL     1     -44.130 -41.111  11.570  1.00  0.00     0.055 C 
ENDBRANCH   1   7
BRANCH   4  14
HETATM   14  C   UNL     1     -42.131 -46.734  11.098  1.00  0.00     0.092 A 
HETATM   15  C   UNL     1     -42.428 -47.548   9.970  1.00  0.00     0.058 A 
HETATM   16  C   UNL     1     -43.439 -47.363   8.902  1.00  0.00     0.072 C 
HETATM   17  N   UNL     1     -41.579 -48.583   9.888  1.00  0.00    -0.263 N 
HETATM   18  O   UNL     1     -40.723 -48.459  10.964  1.00  0.00    -0.240 OA
ATOM     19  HN  UNL     1     -41.568 -49.313   9.176  1.00  0.00     0.194 HD
HETATM   20  C   UNL     1     -41.044 -47.347  11.677  1.00  0.00     0.101 A 
HETATM   21  C   UNL     1     -40.254 -47.109  12.898  1.00  0.00     0.081 C 
ENDBRANCH   4  14
TORSDOF 2
ENDMDL
