MODEL 1
REMARK VINA RESULT:      -5.3      0.000      0.000
REMARK  3 active torsions:
REMARK  status: ('A' for Active; 'I' for Inactive)
REMARK    1  A    between atoms: O_1  and  C_2 
REMARK    2  A    between atoms: C_2  and  CA_4 
REMARK    3  A    between atoms: C_10  and  N_11 
ROOT
HETATM    1  CA  UNL     1     -41.529 -50.255  12.129  1.00  0.00     0.130 A 
HETATM    2  N   UNL     1     -42.325 -49.204  12.489  1.00  0.00    -0.357 N 
ATOM      3  HN  UNL     1     -42.074 -48.238  12.279  1.00  0.00     0.165 HD
HETATM    4  C   UNL     1     -43.461 -49.523  13.137  1.00  0.00     0.115 A 
HETATM    5  C   UNL     1     -43.816 -50.817  13.516  1.00  0.00     0.077 A 
HETATM    6 CL   UNL     1     -45.242 -50.929  14.495  1.00  0.00    -0.080 Cl
HETATM    7  C   UNL     1     -42.987 -51.922  13.175  1.00  0.00     0.078 A 
HETATM    8  C   UNL     1     -41.807 -51.599  12.427  1.00  0.00     0.095 A 
HETATM    9 CL   UNL     1     -40.748 -52.839  11.833  1.00  0.00    -0.079 Cl
ENDROOT
BRANCH   7  10
HETATM   10  N   UNL     1     -43.317 -53.230  13.526  1.00  0.00    -0.374 N 
HETATM   11  C   UNL     1     -44.214 -54.105  12.744  1.00  0.00     0.149 C 
HETATM   12  C   UNL     1     -45.305 -54.670  13.679  1.00  0.00     0.187 C 
HETATM   13  O   UNL     1     -44.711 -55.402  14.767  1.00  0.00    -0.388 OA
HETATM   14  C   UNL     1     -43.860 -54.541  15.541  1.00  0.00     0.187 C 
HETATM   15  C   UNL     1     -42.736 -53.924  14.691  1.00  0.00     0.149 C 
ENDBRANCH   7  10
BRANCH   1  16
HETATM   16  C   UNL     1     -40.295 -49.795  11.398  1.00  0.00     0.195 C 
HETATM   17  OXT UNL     1     -39.257 -49.374  11.879  1.00  0.00    -0.645 OA
BRANCH  16  18
HETATM   18  O   UNL     1     -40.488 -49.910  10.058  1.00  0.00    -0.772 OA
HETATM   19  H   UNL     1     -40.473 -50.864   9.805  1.00  0.00     0.167 HD
ENDBRANCH  16  18
ENDBRANCH   1  16
TORSDOF 3
ENDMDL
MODEL 2
REMARK VINA RESULT:      -5.3      2.229      2.919
REMARK  3 active torsions:
REMARK  status: ('A' for Active; 'I' for Inactive)
REMARK    1  A    between atoms: O_1  and  C_2 
REMARK    2  A    between atoms: C_2  and  CA_4 
REMARK    3  A    between atoms: C_10  and  N_11 
ROOT
HETATM    1  CA  UNL     1     -41.034 -50.807  12.146  1.00  0.00     0.130 A 
HETATM    2  N   UNL     1     -40.136 -51.833  12.233  1.00  0.00    -0.357 N 
ATOM      3  HN  UNL     1     -39.205 -51.774  11.821  1.00  0.00     0.165 HD
HETATM    4  C   UNL     1     -40.556 -52.927  12.895  1.00  0.00     0.115 A 
HETATM    5  C   UNL     1     -41.842 -53.091  13.411  1.00  0.00     0.077 A 
HETATM    6 CL   UNL     1     -42.175 -54.663  14.060  1.00  0.00    -0.080 Cl
HETATM    7  C   UNL     1     -42.800 -52.045  13.307  1.00  0.00     0.078 A 
HETATM    8  C   UNL     1     -42.341 -50.851  12.660  1.00  0.00     0.095 A 
HETATM    9 CL   UNL     1     -43.346 -49.439  12.551  1.00  0.00    -0.079 Cl
ENDROOT
BRANCH   7  10
HETATM   10  N   UNL     1     -44.089 -52.170  13.821  1.00  0.00    -0.374 N 
HETATM   11  C   UNL     1     -45.264 -52.604  13.038  1.00  0.00     0.149 C 
HETATM   12  C   UNL     1     -46.398 -51.573  13.218  1.00  0.00     0.187 C 
HETATM   13  O   UNL     1     -46.743 -51.437  14.608  1.00  0.00    -0.388 OA
HETATM   14  C   UNL     1     -45.606 -50.988  15.363  1.00  0.00     0.187 C 
HETATM   15  C   UNL     1     -44.416 -51.955  15.243  1.00  0.00     0.149 C 
ENDBRANCH   7  10
BRANCH   1  16
HETATM   16  C   UNL     1     -40.463 -49.628  11.402  1.00  0.00     0.195 C 
HETATM   17  OXT UNL     1     -40.007 -48.600  11.871  1.00  0.00    -0.645 OA
BRANCH  16  18
HETATM   18  O   UNL     1     -40.522 -49.860  10.064  1.00  0.00    -0.772 OA
HETATM   19  H   UNL     1     -40.413 -50.825   9.894  1.00  0.00     0.167 HD
ENDBRANCH  16  18
ENDBRANCH   1  16
TORSDOF 3
ENDMDL
MODEL 3
REMARK VINA RESULT:      -5.3      5.916      8.246
REMARK  3 active torsions:
REMARK  status: ('A' for Active; 'I' for Inactive)
REMARK    1  A    between atoms: O_1  and  C_2 
REMARK    2  A    between atoms: C_2  and  CA_4 
REMARK    3  A    between atoms: C_10  and  N_11 
ROOT
HETATM    1  CA  UNL     1     -42.709 -47.418   9.437  1.00  0.00     0.130 A 
HETATM    2  N   UNL     1     -41.961 -48.512   9.769  1.00  0.00    -0.357 N 
ATOM      3  HN  UNL     1     -42.085 -49.413   9.307  1.00  0.00     0.165 HD
HETATM    4  C   UNL     1     -41.052 -48.328  10.744  1.00  0.00     0.115 A 
HETATM    5  C   UNL     1     -40.892 -47.142  11.461  1.00  0.00     0.077 A 
HETATM    6 CL   UNL     1     -39.773 -47.229  12.781  1.00  0.00    -0.080 Cl
HETATM    7  C   UNL     1     -41.680 -46.000  11.149  1.00  0.00     0.078 A 
HETATM    8  C   UNL     1     -42.607 -46.166  10.068  1.00  0.00     0.095 A 
HETATM    9 CL   UNL     1     -43.562 -44.839   9.485  1.00  0.00    -0.079 Cl
ENDROOT
BRANCH   7  10
HETATM   10  N   UNL     1     -41.539 -44.795  11.836  1.00  0.00    -0.374 N 
HETATM   11  C   UNL     1     -42.411 -44.358  12.946  1.00  0.00     0.149 C 
HETATM   12  C   UNL     1     -42.939 -42.941  12.643  1.00  0.00     0.187 C 
HETATM   13  O   UNL     1     -41.847 -42.019  12.469  1.00  0.00    -0.388 OA
HETATM   14  C   UNL     1     -41.016 -42.432  11.371  1.00  0.00     0.187 C 
HETATM   15  C   UNL     1     -40.442 -43.843  11.581  1.00  0.00     0.149 C 
ENDBRANCH   7  10
BRANCH   1  16
HETATM   16  C   UNL     1     -43.683 -47.723   8.329  1.00  0.00     0.195 C 
HETATM   17  OXT UNL     1     -44.891 -47.861   8.417  1.00  0.00    -0.645 OA
BRANCH  16  18
HETATM   18  O   UNL     1     -43.015 -47.834   7.151  1.00  0.00    -0.772 OA
HETATM   19  H   UNL     1     -42.046 -47.873   7.326  1.00  0.00     0.167 HD
ENDBRANCH  16  18
ENDBRANCH   1  16
TORSDOF 3
ENDMDL
MODEL 4
REMARK VINA RESULT:      -5.1      2.822      3.444
REMARK  3 active torsions:
REMARK  status: ('A' for Active; 'I' for Inactive)
REMARK    1  A    between atoms: O_1  and  C_2 
REMARK    2  A    between atoms: C_2  and  CA_4 
REMARK    3  A    between atoms: C_10  and  N_11 
ROOT
HETATM    1  CA  UNL     1     -40.482 -53.155  14.117  1.00  0.00     0.130 A 
HETATM    2  N   UNL     1     -40.172 -51.949  13.555  1.00  0.00    -0.357 N 
ATOM      3  HN  UNL     1     -39.207 -51.646  13.421  1.00  0.00     0.165 HD
HETATM    4  C   UNL     1     -41.218 -51.184  13.190  1.00  0.00     0.115 A 
HETATM    5  C   UNL     1     -42.554 -51.514  13.419  1.00  0.00     0.077 A 
HETATM    6 CL   UNL     1     -43.694 -50.274  13.011  1.00  0.00    -0.080 Cl
HETATM    7  C   UNL     1     -42.897 -52.753  14.028  1.00  0.00     0.078 A 
HETATM    8  C   UNL     1     -41.791 -53.603  14.361  1.00  0.00     0.095 A 
HETATM    9 CL   UNL     1     -42.039 -55.196  15.004  1.00  0.00    -0.079 Cl
ENDROOT
BRANCH   7  10
HETATM   10  N   UNL     1     -44.221 -53.121  14.261  1.00  0.00    -0.374 N 
HETATM   11  C   UNL     1     -44.989 -52.760  15.471  1.00  0.00     0.149 C 
HETATM   12  C   UNL     1     -45.604 -54.040  16.075  1.00  0.00     0.187 C 
HETATM   13  O   UNL     1     -46.454 -54.695  15.116  1.00  0.00    -0.388 OA
HETATM   14  C   UNL     1     -45.699 -55.068  13.952  1.00  0.00     0.187 C 
HETATM   15  C   UNL     1     -45.041 -53.853  13.278  1.00  0.00     0.149 C 
ENDBRANCH   7  10
BRANCH   1  16
HETATM   16  C   UNL     1     -39.246 -53.938  14.475  1.00  0.00     0.195 C 
HETATM   17  OXT UNL     1     -38.732 -54.057  15.574  1.00  0.00    -0.645 OA
BRANCH  16  18
HETATM   18  O   UNL     1     -38.742 -54.531  13.361  1.00  0.00    -0.772 OA
HETATM   19  H   UNL     1     -37.855 -54.910  13.564  1.00  0.00     0.167 HD
ENDBRANCH  16  18
ENDBRANCH   1  16
TORSDOF 3
ENDMDL
MODEL 5
REMARK VINA RESULT:      -5.0      5.160      7.176
REMARK  3 active torsions:
REMARK  status: ('A' for Active; 'I' for Inactive)
REMARK    1  A    between atoms: O_1  and  C_2 
REMARK    2  A    between atoms: C_2  and  CA_4 
REMARK    3  A    between atoms: C_10  and  N_11 
ROOT
HETATM    1  CA  UNL     1     -39.889 -49.127  11.453  1.00  0.00     0.130 A 
HETATM    2  N   UNL     1     -40.843 -49.380  10.509  1.00  0.00    -0.357 N 
ATOM      3  HN  UNL     1     -40.868 -50.255   9.986  1.00  0.00     0.165 HD
HETATM    4  C   UNL     1     -41.747 -48.403  10.311  1.00  0.00     0.115 A 
HETATM    5  C   UNL     1     -41.715 -47.159  10.941  1.00  0.00     0.077 A 
HETATM    6 CL   UNL     1     -42.892 -46.020  10.375  1.00  0.00    -0.080 Cl
HETATM    7  C   UNL     1     -40.714 -46.866  11.907  1.00  0.00     0.078 A 
HETATM    8  C   UNL     1     -39.784 -47.925  12.173  1.00  0.00     0.095 A 
HETATM    9 CL   UNL     1     -38.571 -47.774  13.405  1.00  0.00    -0.079 Cl
ENDROOT
BRANCH   7  10
HETATM   10  N   UNL     1     -40.658 -45.639  12.566  1.00  0.00    -0.374 N 
HETATM   11  C   UNL     1     -40.071 -44.409  11.995  1.00  0.00     0.149 C 
HETATM   12  C   UNL     1     -39.048 -43.830  12.995  1.00  0.00     0.187 C 
HETATM   13  O   UNL     1     -39.678 -43.547  14.258  1.00  0.00    -0.388 OA
HETATM   14  C   UNL     1     -40.225 -44.749  14.823  1.00  0.00     0.187 C 
HETATM   15  C   UNL     1     -41.259 -45.406  13.893  1.00  0.00     0.149 C 
ENDBRANCH   7  10
BRANCH   1  16
HETATM   16  C   UNL     1     -38.937 -50.285  11.609  1.00  0.00     0.195 C 
HETATM   17  OXT UNL     1     -39.036 -51.233  12.368  1.00  0.00    -0.645 OA
BRANCH  16  18
HETATM   18  O   UNL     1     -37.892 -50.136  10.753  1.00  0.00    -0.772 OA
HETATM   19  H   UNL     1     -37.530 -49.222  10.833  1.00  0.00     0.167 HD
ENDBRANCH  16  18
ENDBRANCH   1  16
TORSDOF 3
ENDMDL
MODEL 6
REMARK VINA RESULT:      -4.9      3.418      6.469
REMARK  3 active torsions:
REMARK  status: ('A' for Active; 'I' for Inactive)
REMARK    1  A    between atoms: O_1  and  C_2 
REMARK    2  A    between atoms: C_2  and  CA_4 
REMARK    3  A    between atoms: C_10  and  N_11 
ROOT
HETATM    1  CA  UNL     1     -41.234 -50.759  12.258  1.00  0.00     0.130 A 
HETATM    2  N   UNL     1     -42.571 -50.671  12.523  1.00  0.00    -0.357 N 
ATOM      3  HN  UNL     1     -43.172 -51.495  12.556  1.00  0.00     0.165 HD
HETATM    4  C   UNL     1     -43.046 -49.430  12.739  1.00  0.00     0.115 A 
HETATM    5  C   UNL     1     -42.287 -48.265  12.632  1.00  0.00     0.077 A 
HETATM    6 CL   UNL     1     -43.184 -46.790  12.785  1.00  0.00    -0.080 Cl
HETATM    7  C   UNL     1     -40.899 -48.334  12.330  1.00  0.00     0.078 A 
HETATM    8  C   UNL     1     -40.370 -49.655  12.162  1.00  0.00     0.095 A 
HETATM    9 CL   UNL     1     -38.674 -49.922  11.903  1.00  0.00    -0.079 Cl
ENDROOT
BRANCH   7  10
HETATM   10  N   UNL     1     -40.107 -47.191  12.227  1.00  0.00    -0.374 N 
HETATM   11  C   UNL     1     -39.273 -46.651  13.320  1.00  0.00     0.149 C 
HETATM   12  C   UNL     1     -39.604 -45.156  13.513  1.00  0.00     0.187 C 
HETATM   13  O   UNL     1     -39.373 -44.425  12.295  1.00  0.00    -0.388 OA
HETATM   14  C   UNL     1     -40.205 -44.935  11.241  1.00  0.00     0.187 C 
HETATM   15  C   UNL     1     -39.949 -46.428  10.975  1.00  0.00     0.149 C 
ENDBRANCH   7  10
BRANCH   1  16
HETATM   16  C   UNL     1     -40.799 -52.187  12.047  1.00  0.00     0.195 C 
HETATM   17  OXT UNL     1     -40.074 -52.857  12.760  1.00  0.00    -0.645 OA
BRANCH  16  18
HETATM   18  O   UNL     1     -41.345 -52.665  10.898  1.00  0.00    -0.772 OA
HETATM   19  H   UNL     1     -40.919 -52.224  10.125  1.00  0.00     0.167 HD
ENDBRANCH  16  18
ENDBRANCH   1  16
TORSDOF 3
ENDMDL
MODEL 7
REMARK VINA RESULT:      -4.9      2.746      3.851
REMARK  3 active torsions:
REMARK  status: ('A' for Active; 'I' for Inactive)
REMARK    1  A    between atoms: O_1  and  C_2 
REMARK    2  A    between atoms: C_2  and  CA_4 
REMARK    3  A    between atoms: C_10  and  N_11 
ROOT
HETATM    1  CA  UNL     1     -40.747 -49.016  11.465  1.00  0.00     0.130 A 
HETATM    2  N   UNL     1     -39.481 -48.596  11.170  1.00  0.00    -0.357 N 
ATOM      3  HN  UNL     1     -39.304 -47.784  10.578  1.00  0.00     0.165 HD
HETATM    4  C   UNL     1     -38.482 -49.321  11.707  1.00  0.00     0.115 A 
HETATM    5  C   UNL     1     -38.665 -50.481  12.459  1.00  0.00     0.077 A 
HETATM    6 CL   UNL     1     -37.207 -51.318  12.880  1.00  0.00    -0.080 Cl
HETATM    7  C   UNL     1     -39.975 -50.950  12.754  1.00  0.00     0.078 A 
HETATM    8  C   UNL     1     -41.046 -50.148  12.240  1.00  0.00     0.095 A 
HETATM    9 CL   UNL     1     -42.704 -50.515  12.606  1.00  0.00    -0.079 Cl
ENDROOT
BRANCH   7  10
HETATM   10  N   UNL     1     -40.195 -52.099  13.512  1.00  0.00    -0.374 N 
HETATM   11  C   UNL     1     -40.447 -53.440  12.944  1.00  0.00     0.149 C 
HETATM   12  C   UNL     1     -41.731 -54.019  13.574  1.00  0.00     0.187 C 
HETATM   13  O   UNL     1     -41.604 -54.094  15.006  1.00  0.00    -0.388 OA
HETATM   14  C   UNL     1     -41.387 -52.785  15.557  1.00  0.00     0.187 C 
HETATM   15  C   UNL     1     -40.123 -52.121  14.985  1.00  0.00     0.149 C 
ENDBRANCH   7  10
BRANCH   1  16
HETATM   16  C   UNL     1     -41.790 -48.132  10.830  1.00  0.00     0.195 C 
HETATM   17  OXT UNL     1     -42.509 -47.317  11.379  1.00  0.00    -0.645 OA
BRANCH  16  18
HETATM   18  O   UNL     1     -41.835 -48.368   9.492  1.00  0.00    -0.772 OA
HETATM   19  H   UNL     1     -40.917 -48.433   9.139  1.00  0.00     0.167 HD
ENDBRANCH  16  18
ENDBRANCH   1  16
TORSDOF 3
ENDMDL
MODEL 8
REMARK VINA RESULT:      -4.8      5.656      7.293
REMARK  3 active torsions:
REMARK  status: ('A' for Active; 'I' for Inactive)
REMARK    1  A    between atoms: O_1  and  C_2 
REMARK    2  A    between atoms: C_2  and  CA_4 
REMARK    3  A    between atoms: C_10  and  N_11 
ROOT
HETATM    1  CA  UNL     1     -42.570 -46.954   9.872  1.00  0.00     0.130 A 
HETATM    2  N   UNL     1     -42.226 -48.272   9.760  1.00  0.00    -0.357 N 
ATOM      3  HN  UNL     1     -42.582 -48.862   9.009  1.00  0.00     0.165 HD
HETATM    4  C   UNL     1     -41.388 -48.742  10.703  1.00  0.00     0.115 A 
HETATM    5  C   UNL     1     -40.931 -48.001  11.792  1.00  0.00     0.077 A 
HETATM    6 CL   UNL     1     -40.006 -48.898  12.952  1.00  0.00    -0.080 Cl
HETATM    7  C   UNL     1     -41.300 -46.636  11.942  1.00  0.00     0.078 A 
HETATM    8  C   UNL     1     -42.140 -46.108  10.908  1.00  0.00     0.095 A 
HETATM    9 CL   UNL     1     -42.588 -44.431  10.877  1.00  0.00    -0.079 Cl
ENDROOT
BRANCH   7  10
HETATM   10  N   UNL     1     -40.853 -45.862  13.012  1.00  0.00    -0.374 N 
HETATM   11  C   UNL     1     -39.560 -45.147  13.044  1.00  0.00     0.149 C 
HETATM   12  C   UNL     1     -38.809 -45.527  14.338  1.00  0.00     0.187 C 
HETATM   13  O   UNL     1     -39.596 -45.195  15.497  1.00  0.00    -0.388 OA
HETATM   14  C   UNL     1     -40.841 -45.912  15.476  1.00  0.00     0.187 C 
HETATM   15  C   UNL     1     -41.664 -45.600  14.215  1.00  0.00     0.149 C 
ENDBRANCH   7  10
BRANCH   1  16
HETATM   16  C   UNL     1     -43.496 -46.523   8.764  1.00  0.00     0.195 C 
HETATM   17  OXT UNL     1     -44.713 -46.573   8.750  1.00  0.00    -0.645 OA
BRANCH  16  18
HETATM   18  O   UNL     1     -42.768 -46.045   7.721  1.00  0.00    -0.772 OA
HETATM   19  H   UNL     1     -42.308 -45.217   7.994  1.00  0.00     0.167 HD
ENDBRANCH  16  18
ENDBRANCH   1  16
TORSDOF 3
ENDMDL
MODEL 9
REMARK VINA RESULT:      -4.7      2.926      3.656
REMARK  3 active torsions:
REMARK  status: ('A' for Active; 'I' for Inactive)
REMARK    1  A    between atoms: O_1  and  C_2 
REMARK    2  A    between atoms: C_2  and  CA_4 
REMARK    3  A    between atoms: C_10  and  N_11 
ROOT
HETATM    1  CA  UNL     1     -42.359 -53.147  13.029  1.00  0.00     0.130 A 
HETATM    2  N   UNL     1     -43.296 -53.080  12.037  1.00  0.00    -0.357 N 
ATOM      3  HN  UNL     1     -43.043 -53.123  11.050  1.00  0.00     0.165 HD
HETATM    4  C   UNL     1     -44.573 -52.955  12.442  1.00  0.00     0.115 A 
HETATM    5  C   UNL     1     -44.968 -52.816  13.773  1.00  0.00     0.077 A 
HETATM    6 CL   UNL     1     -46.655 -52.492  14.006  1.00  0.00    -0.080 Cl
HETATM    7  C   UNL     1     -44.006 -52.855  14.819  1.00  0.00     0.078 A 
HETATM    8  C   UNL     1     -42.649 -53.054  14.401  1.00  0.00     0.095 A 
HETATM    9 CL   UNL     1     -41.366 -53.241  15.556  1.00  0.00    -0.079 Cl
ENDROOT
BRANCH   7  10
HETATM   10  N   UNL     1     -44.366 -52.732  16.160  1.00  0.00    -0.374 N 
HETATM   11  C   UNL     1     -44.646 -53.870  17.059  1.00  0.00     0.149 C 
HETATM   12  C   UNL     1     -46.016 -53.651  17.735  1.00  0.00     0.187 C 
HETATM   13  O   UNL     1     -46.026 -52.415  18.471  1.00  0.00    -0.388 OA
HETATM   14  C   UNL     1     -45.779 -51.307  17.589  1.00  0.00     0.187 C 
HETATM   15  C   UNL     1     -44.430 -51.437  16.863  1.00  0.00     0.149 C 
ENDBRANCH   7  10
BRANCH   1  16
HETATM   16  C   UNL     1     -40.967 -53.302  12.473  1.00  0.00     0.195 C 
HETATM   17  OXT UNL     1     -40.101 -52.449  12.387  1.00  0.00    -0.645 OA
BRANCH  16  18
HETATM   18  O   UNL     1     -40.782 -54.582  12.054  1.00  0.00    -0.772 OA
HETATM   19  H   UNL     1     -39.854 -54.856  12.239  1.00  0.00     0.167 HD
ENDBRANCH  16  18
ENDBRANCH   1  16
TORSDOF 3
ENDMDL
