MODEL 1
REMARK VINA RESULT:      -5.8      0.000      0.000
REMARK  3 active torsions:
REMARK  status: ('A' for Active; 'I' for Inactive)
REMARK    1  A    between atoms: C_2  and  C_3 
REMARK       I    between atoms: C_2  and  N_12 
REMARK    2  A    between atoms: C_3  and  N_4 
REMARK    3  A    between atoms: N_12  and  C_13 
ROOT
HETATM    1  N   UNL     1     -26.859 -62.387  15.805  1.00  0.00    -0.301 N 
HETATM    2  C   UNL     1     -28.069 -61.723  15.801  1.00  0.00     0.102 A 
HETATM    3  C   UNL     1     -29.219 -62.360  15.569  1.00  0.00     0.092 A 
HETATM    4  C   UNL     1     -29.189 -63.809  15.314  1.00  0.00     0.250 A 
HETATM    5  O   UNL     1     -30.223 -64.449  15.171  1.00  0.00    -0.268 OA
HETATM    6  N   UNL     1     -27.950 -64.380  15.269  1.00  0.00    -0.275 N 
HETATM    7  C   UNL     1     -26.775 -63.752  15.579  1.00  0.00     0.329 A 
HETATM    8  O   UNL     1     -25.729 -64.389  15.695  1.00  0.00    -0.246 OA
HETATM    9  H   UNL     1     -27.914 -65.377  15.134  1.00  0.00     0.173 HD
ENDROOT
BRANCH   1  10
HETATM   10  C   UNL     1     -25.634 -61.647  16.122  1.00  0.00     0.235 C 
BRANCH  10  11
HETATM   11  C   UNL     1     -24.954 -61.109  14.863  1.00  0.00     0.236 C 
HETATM   12  O   UNL     1     -24.329 -61.846  14.101  1.00  0.00    -0.272 OA
HETATM   13  N   UNL     1     -25.047 -59.739  14.703  1.00  0.00    -0.355 N 
HETATM   14  H   UNL     1     -25.497 -59.197  15.442  1.00  0.00     0.162 HD
BRANCH  13  15
HETATM   15  C   UNL     1     -24.448 -59.043  13.611  1.00  0.00     0.084 A 
HETATM   16  C   UNL     1     -25.063 -57.775  13.086  1.00  0.00     0.027 A 
HETATM   17  C   UNL     1     -25.111 -59.027  12.261  1.00  0.00     0.027 A 
ENDBRANCH  13  15
ENDBRANCH  10  11
ENDBRANCH   1  10
TORSDOF 3
ENDMDL
MODEL 2
REMARK VINA RESULT:      -5.3     18.462     20.388
REMARK  3 active torsions:
REMARK  status: ('A' for Active; 'I' for Inactive)
REMARK    1  A    between atoms: C_2  and  C_3 
REMARK       I    between atoms: C_2  and  N_12 
REMARK    2  A    between atoms: C_3  and  N_4 
REMARK    3  A    between atoms: N_12  and  C_13 
ROOT
HETATM    1  N   UNL     1     -43.790 -54.156  13.481  1.00  0.00    -0.301 N 
HETATM    2  C   UNL     1     -42.479 -54.276  13.890  1.00  0.00     0.102 A 
HETATM    3  C   UNL     1     -41.494 -53.592  13.304  1.00  0.00     0.092 A 
HETATM    4  C   UNL     1     -41.824 -52.686  12.192  1.00  0.00     0.250 A 
HETATM    5  O   UNL     1     -40.967 -51.982  11.672  1.00  0.00    -0.268 OA
HETATM    6  N   UNL     1     -43.132 -52.673  11.803  1.00  0.00    -0.275 N 
HETATM    7  C   UNL     1     -44.157 -53.311  12.445  1.00  0.00     0.329 A 
HETATM    8  O   UNL     1     -45.329 -53.093  12.137  1.00  0.00    -0.246 OA
HETATM    9  H   UNL     1     -43.381 -52.030  11.069  1.00  0.00     0.173 HD
ENDROOT
BRANCH   1  10
HETATM   10  C   UNL     1     -44.838 -54.888  14.199  1.00  0.00     0.235 C 
BRANCH  10  11
HETATM   11  C   UNL     1     -45.210 -54.202  15.513  1.00  0.00     0.236 C 
HETATM   12  O   UNL     1     -44.806 -54.620  16.597  1.00  0.00    -0.272 OA
HETATM   13  N   UNL     1     -46.080 -53.137  15.375  1.00  0.00    -0.355 N 
HETATM   14  H   UNL     1     -46.444 -52.929  14.445  1.00  0.00     0.162 HD
BRANCH  13  15
HETATM   15  C   UNL     1     -46.574 -52.390  16.486  1.00  0.00     0.084 A 
HETATM   16  C   UNL     1     -47.637 -51.343  16.290  1.00  0.00     0.027 A 
HETATM   17  C   UNL     1     -46.236 -50.931  16.636  1.00  0.00     0.027 A 
ENDBRANCH  13  15
ENDBRANCH  10  11
ENDBRANCH   1  10
TORSDOF 3
ENDMDL
MODEL 3
REMARK VINA RESULT:      -5.2     20.492     21.730
REMARK  3 active torsions:
REMARK  status: ('A' for Active; 'I' for Inactive)
REMARK    1  A    between atoms: C_2  and  C_3 
REMARK       I    between atoms: C_2  and  N_12 
REMARK    2  A    between atoms: C_3  and  N_4 
REMARK    3  A    between atoms: N_12  and  C_13 
ROOT
HETATM    1  N   UNL     1     -41.536 -48.131  11.585  1.00  0.00    -0.301 N 
HETATM    2  C   UNL     1     -41.682 -49.496  11.719  1.00  0.00     0.102 A 
HETATM    3  C   UNL     1     -40.631 -50.318  11.741  1.00  0.00     0.092 A 
HETATM    4  C   UNL     1     -39.281 -49.745  11.619  1.00  0.00     0.250 A 
HETATM    5  O   UNL     1     -38.282 -50.449  11.708  1.00  0.00    -0.268 OA
HETATM    6  N   UNL     1     -39.222 -48.396  11.423  1.00  0.00    -0.275 N 
HETATM    7  C   UNL     1     -40.287 -47.539  11.476  1.00  0.00     0.329 A 
HETATM    8  O   UNL     1     -40.119 -46.320  11.476  1.00  0.00    -0.246 OA
HETATM    9  H   UNL     1     -38.304 -47.982  11.376  1.00  0.00     0.173 HD
ENDROOT
BRANCH   1  10
HETATM   10  C   UNL     1     -42.723 -47.273  11.625  1.00  0.00     0.235 C 
BRANCH  10  11
HETATM   11  C   UNL     1     -43.379 -47.147  10.250  1.00  0.00     0.236 C 
HETATM   12  O   UNL     1     -42.809 -46.597   9.310  1.00  0.00    -0.272 OA
HETATM   13  N   UNL     1     -44.671 -47.636  10.187  1.00  0.00    -0.355 N 
HETATM   14  H   UNL     1     -45.100 -47.980  11.047  1.00  0.00     0.162 HD
BRANCH  13  15
HETATM   15  C   UNL     1     -45.464 -47.578   9.002  1.00  0.00     0.084 A 
HETATM   16  C   UNL     1     -46.891 -47.104   9.062  1.00  0.00     0.027 A 
HETATM   17  C   UNL     1     -46.593 -48.549   8.792  1.00  0.00     0.027 A 
ENDBRANCH  13  15
ENDBRANCH  10  11
ENDBRANCH   1  10
TORSDOF 3
ENDMDL
MODEL 4
REMARK VINA RESULT:      -5.0     19.483     20.544
REMARK  3 active torsions:
REMARK  status: ('A' for Active; 'I' for Inactive)
REMARK    1  A    between atoms: C_2  and  C_3 
REMARK       I    between atoms: C_2  and  N_12 
REMARK    2  A    between atoms: C_3  and  N_4 
REMARK    3  A    between atoms: N_12  and  C_13 
ROOT
HETATM    1  N   UNL     1     -42.798 -50.970  12.735  1.00  0.00    -0.301 N 
HETATM    2  C   UNL     1     -44.068 -50.892  13.267  1.00  0.00     0.102 A 
HETATM    3  C   UNL     1     -44.916 -51.922  13.217  1.00  0.00     0.092 A 
HETATM    4  C   UNL     1     -44.477 -53.171  12.575  1.00  0.00     0.250 A 
HETATM    5  O   UNL     1     -45.191 -54.166  12.570  1.00  0.00    -0.268 OA
HETATM    6  N   UNL     1     -43.233 -53.147  12.015  1.00  0.00    -0.275 N 
HETATM    7  C   UNL     1     -42.331 -52.126  12.128  1.00  0.00     0.329 A 
HETATM    8  O   UNL     1     -41.167 -52.265  11.752  1.00  0.00    -0.246 OA
HETATM    9  H   UNL     1     -42.902 -54.006  11.606  1.00  0.00     0.173 HD
ENDROOT
BRANCH   1  10
HETATM   10  C   UNL     1     -41.890 -49.827  12.870  1.00  0.00     0.235 C 
BRANCH  10  11
HETATM   11  C   UNL     1     -42.477 -48.559  12.249  1.00  0.00     0.236 C 
HETATM   12  O   UNL     1     -42.900 -47.636  12.943  1.00  0.00    -0.272 OA
HETATM   13  N   UNL     1     -42.551 -48.580  10.869  1.00  0.00    -0.355 N 
HETATM   14  H   UNL     1     -42.273 -49.434  10.384  1.00  0.00     0.162 HD
BRANCH  13  15
HETATM   15  C   UNL     1     -43.101 -47.507  10.106  1.00  0.00     0.084 A 
HETATM   16  C   UNL     1     -44.533 -47.553   9.646  1.00  0.00     0.027 A 
HETATM   17  C   UNL     1     -43.422 -47.694   8.648  1.00  0.00     0.027 A 
ENDBRANCH  13  15
ENDBRANCH  10  11
ENDBRANCH   1  10
TORSDOF 3
ENDMDL
MODEL 5
REMARK VINA RESULT:      -4.9     18.249     19.794
REMARK  3 active torsions:
REMARK  status: ('A' for Active; 'I' for Inactive)
REMARK    1  A    between atoms: C_2  and  C_3 
REMARK       I    between atoms: C_2  and  N_12 
REMARK    2  A    between atoms: C_3  and  N_4 
REMARK    3  A    between atoms: N_12  and  C_13 
ROOT
HETATM    1  N   UNL     1     -45.192 -53.222  13.378  1.00  0.00    -0.301 N 
HETATM    2  C   UNL     1     -45.752 -51.966  13.267  1.00  0.00     0.102 A 
HETATM    3  C   UNL     1     -46.669 -51.526  14.131  1.00  0.00     0.092 A 
HETATM    4  C   UNL     1     -47.089 -52.409  15.231  1.00  0.00     0.250 A 
HETATM    5  O   UNL     1     -47.871 -52.022  16.091  1.00  0.00    -0.268 OA
HETATM    6  N   UNL     1     -46.539 -53.658  15.235  1.00  0.00    -0.275 N 
HETATM    7  C   UNL     1     -45.545 -54.090  14.401  1.00  0.00     0.329 A 
HETATM    8  O   UNL     1     -44.978 -55.165  14.596  1.00  0.00    -0.246 OA
HETATM    9  H   UNL     1     -46.786 -54.261  16.003  1.00  0.00     0.173 HD
ENDROOT
BRANCH   1  10
HETATM   10  C   UNL     1     -44.148 -53.631  12.435  1.00  0.00     0.235 C 
BRANCH  10  11
HETATM   11  C   UNL     1     -42.778 -53.080  12.831  1.00  0.00     0.236 C 
HETATM   12  O   UNL     1     -42.321 -52.057  12.323  1.00  0.00    -0.272 OA
HETATM   13  N   UNL     1     -42.090 -53.860  13.741  1.00  0.00    -0.355 N 
HETATM   14  H   UNL     1     -42.506 -54.747  14.028  1.00  0.00     0.162 HD
BRANCH  13  15
HETATM   15  C   UNL     1     -40.781 -53.535  14.207  1.00  0.00     0.084 A 
HETATM   16  C   UNL     1     -39.601 -54.387  13.826  1.00  0.00     0.027 A 
HETATM   17  C   UNL     1     -40.104 -54.395  15.240  1.00  0.00     0.027 A 
ENDBRANCH  13  15
ENDBRANCH  10  11
ENDBRANCH   1  10
TORSDOF 3
ENDMDL
MODEL 6
REMARK VINA RESULT:      -4.9     18.786     20.137
REMARK  3 active torsions:
REMARK  status: ('A' for Active; 'I' for Inactive)
REMARK    1  A    between atoms: C_2  and  C_3 
REMARK       I    between atoms: C_2  and  N_12 
REMARK    2  A    between atoms: C_3  and  N_4 
REMARK    3  A    between atoms: N_12  and  C_13 
ROOT
HETATM    1  N   UNL     1     -45.234 -53.215  13.344  1.00  0.00    -0.301 N 
HETATM    2  C   UNL     1     -45.553 -51.877  13.440  1.00  0.00     0.102 A 
HETATM    3  C   UNL     1     -46.424 -51.425  14.345  1.00  0.00     0.092 A 
HETATM    4  C   UNL     1     -47.057 -52.386  15.262  1.00  0.00     0.250 A 
HETATM    5  O   UNL     1     -47.805 -52.011  16.157  1.00  0.00    -0.268 OA
HETATM    6  N   UNL     1     -46.741 -53.698  15.060  1.00  0.00    -0.275 N 
HETATM    7  C   UNL     1     -45.795 -54.162  14.188  1.00  0.00     0.329 A 
HETATM    8  O   UNL     1     -45.442 -55.340  14.205  1.00  0.00    -0.246 OA
HETATM    9  H   UNL     1     -47.136 -54.365  15.703  1.00  0.00     0.173 HD
ENDROOT
BRANCH   1  10
HETATM   10  C   UNL     1     -44.228 -53.647  12.369  1.00  0.00     0.235 C 
BRANCH  10  11
HETATM   11  C   UNL     1     -42.829 -53.160  12.746  1.00  0.00     0.236 C 
HETATM   12  O   UNL     1     -42.271 -53.532  13.777  1.00  0.00    -0.272 OA
HETATM   13  N   UNL     1     -42.293 -52.230  11.874  1.00  0.00    -0.355 N 
HETATM   14  H   UNL     1     -42.874 -51.903  11.101  1.00  0.00     0.162 HD
BRANCH  13  15
HETATM   15  C   UNL     1     -41.013 -51.630  12.072  1.00  0.00     0.084 A 
HETATM   16  C   UNL     1     -40.881 -50.361  12.870  1.00  0.00     0.027 A 
HETATM   17  C   UNL     1     -40.663 -50.338  11.385  1.00  0.00     0.027 A 
ENDBRANCH  13  15
ENDBRANCH  10  11
ENDBRANCH   1  10
TORSDOF 3
ENDMDL
MODEL 7
REMARK VINA RESULT:      -4.8     16.640     17.687
REMARK  3 active torsions:
REMARK  status: ('A' for Active; 'I' for Inactive)
REMARK    1  A    between atoms: C_2  and  C_3 
REMARK       I    between atoms: C_2  and  N_12 
REMARK    2  A    between atoms: C_3  and  N_4 
REMARK    3  A    between atoms: N_12  and  C_13 
ROOT
HETATM    1  N   UNL     1     -42.272 -53.331  13.026  1.00  0.00    -0.301 N 
HETATM    2  C   UNL     1     -41.299 -53.686  13.937  1.00  0.00     0.102 A 
HETATM    3  C   UNL     1     -41.545 -54.541  14.932  1.00  0.00     0.092 A 
HETATM    4  C   UNL     1     -42.893 -55.117  15.054  1.00  0.00     0.250 A 
HETATM    5  O   UNL     1     -43.147 -55.962  15.905  1.00  0.00    -0.268 OA
HETATM    6  N   UNL     1     -43.817 -54.667  14.157  1.00  0.00    -0.275 N 
HETATM    7  C   UNL     1     -43.556 -53.852  13.090  1.00  0.00     0.329 A 
HETATM    8  O   UNL     1     -44.408 -53.648  12.226  1.00  0.00    -0.246 OA
HETATM    9  H   UNL     1     -44.735 -55.080  14.202  1.00  0.00     0.173 HD
ENDROOT
BRANCH   1  10
HETATM   10  C   UNL     1     -41.929 -52.433  11.920  1.00  0.00     0.235 C 
BRANCH  10  11
HETATM   11  C   UNL     1     -41.079 -51.253  12.390  1.00  0.00     0.236 C 
HETATM   12  O   UNL     1     -41.529 -50.393  13.147  1.00  0.00    -0.272 OA
HETATM   13  N   UNL     1     -39.811 -51.206  11.841  1.00  0.00    -0.355 N 
HETATM   14  H   UNL     1     -39.563 -51.906  11.141  1.00  0.00     0.162 HD
BRANCH  13  15
HETATM   15  C   UNL     1     -38.880 -50.164  12.128  1.00  0.00     0.084 A 
HETATM   16  C   UNL     1     -37.622 -50.020  11.315  1.00  0.00     0.027 A 
HETATM   17  C   UNL     1     -37.543 -50.482  12.740  1.00  0.00     0.027 A 
ENDBRANCH  13  15
ENDBRANCH  10  11
ENDBRANCH   1  10
TORSDOF 3
ENDMDL
MODEL 8
REMARK VINA RESULT:      -4.8     17.323     19.197
REMARK  3 active torsions:
REMARK  status: ('A' for Active; 'I' for Inactive)
REMARK    1  A    between atoms: C_2  and  C_3 
REMARK       I    between atoms: C_2  and  N_12 
REMARK    2  A    between atoms: C_3  and  N_4 
REMARK    3  A    between atoms: N_12  and  C_13 
ROOT
HETATM    1  N   UNL     1     -42.212 -54.099  14.581  1.00  0.00    -0.301 N 
HETATM    2  C   UNL     1     -41.933 -54.254  13.239  1.00  0.00     0.102 A 
HETATM    3  C   UNL     1     -40.954 -53.571  12.641  1.00  0.00     0.092 A 
HETATM    4  C   UNL     1     -40.155 -52.630  13.441  1.00  0.00     0.250 A 
HETATM    5  O   UNL     1     -39.199 -52.037  12.955  1.00  0.00    -0.268 OA
HETATM    6  N   UNL     1     -40.535 -52.484  14.744  1.00  0.00    -0.275 N 
HETATM    7  C   UNL     1     -41.484 -53.232  15.383  1.00  0.00     0.329 A 
HETATM    8  O   UNL     1     -41.631 -53.162  16.602  1.00  0.00    -0.246 OA
HETATM    9  H   UNL     1     -39.974 -51.872  15.315  1.00  0.00     0.173 HD
ENDROOT
BRANCH   1  10
HETATM   10  C   UNL     1     -43.261 -54.917  15.197  1.00  0.00     0.235 C 
BRANCH  10  11
HETATM   11  C   UNL     1     -44.640 -54.601  14.619  1.00  0.00     0.236 C 
HETATM   12  O   UNL     1     -45.294 -55.445  14.007  1.00  0.00    -0.272 OA
HETATM   13  N   UNL     1     -45.042 -53.288  14.783  1.00  0.00    -0.355 N 
HETATM   14  H   UNL     1     -44.386 -52.634  15.212  1.00  0.00     0.162 HD
BRANCH  13  15
HETATM   15  C   UNL     1     -46.281 -52.788  14.283  1.00  0.00     0.084 A 
HETATM   16  C   UNL     1     -46.305 -51.610  13.346  1.00  0.00     0.027 A 
HETATM   17  C   UNL     1     -46.812 -51.461  14.751  1.00  0.00     0.027 A 
ENDBRANCH  13  15
ENDBRANCH  10  11
ENDBRANCH   1  10
TORSDOF 3
ENDMDL
MODEL 9
REMARK VINA RESULT:      -4.8     18.825     20.507
REMARK  3 active torsions:
REMARK  status: ('A' for Active; 'I' for Inactive)
REMARK    1  A    between atoms: C_2  and  C_3 
REMARK       I    between atoms: C_2  and  N_12 
REMARK    2  A    between atoms: C_3  and  N_4 
REMARK    3  A    between atoms: N_12  and  C_13 
ROOT
HETATM    1  N   UNL     1     -46.170 -53.627  15.116  1.00  0.00    -0.301 N 
HETATM    2  C   UNL     1     -46.757 -52.513  14.553  1.00  0.00     0.102 A 
HETATM    3  C   UNL     1     -47.092 -51.448  15.285  1.00  0.00     0.092 A 
HETATM    4  C   UNL     1     -46.823 -51.469  16.732  1.00  0.00     0.250 A 
HETATM    5  O   UNL     1     -47.043 -50.489  17.432  1.00  0.00    -0.268 OA
HETATM    6  N   UNL     1     -46.302 -52.631  17.223  1.00  0.00    -0.275 N 
HETATM    7  C   UNL     1     -45.886 -53.695  16.472  1.00  0.00     0.329 A 
HETATM    8  O   UNL     1     -45.257 -54.622  16.981  1.00  0.00    -0.246 OA
HETATM    9  H   UNL     1     -46.076 -52.648  18.205  1.00  0.00     0.173 HD
ENDROOT
BRANCH   1  10
HETATM   10  C   UNL     1     -45.771 -54.743  14.254  1.00  0.00     0.235 C 
BRANCH  10  11
HETATM   11  C   UNL     1     -44.481 -54.440  13.492  1.00  0.00     0.236 C 
HETATM   12  O   UNL     1     -44.485 -54.193  12.287  1.00  0.00    -0.272 OA
HETATM   13  N   UNL     1     -43.331 -54.536  14.254  1.00  0.00    -0.355 N 
HETATM   14  H   UNL     1     -43.418 -54.849  15.221  1.00  0.00     0.162 HD
BRANCH  13  15
HETATM   15  C   UNL     1     -42.026 -54.325  13.717  1.00  0.00     0.084 A 
HETATM   16  C   UNL     1     -40.835 -54.214  14.629  1.00  0.00     0.027 A 
HETATM   17  C   UNL     1     -41.332 -53.002  13.897  1.00  0.00     0.027 A 
ENDBRANCH  13  15
ENDBRANCH  10  11
ENDBRANCH   1  10
TORSDOF 3
ENDMDL
