MODEL 1
REMARK VINA RESULT:      -6.9      0.000      0.000
REMARK  5 active torsions:
REMARK  status: ('A' for Active; 'I' for Inactive)
REMARK    1  A    between atoms: C_2  and  N_4 
REMARK    2  A    between atoms: N_3  and  C_15 
REMARK    3  A    between atoms: C_9  and  C_14 
REMARK       I    between atoms: C_14  and  N_20 
REMARK    4  A    between atoms: C_15  and  C_17 
REMARK    5  A    between atoms: C_17  and  O_24 
ROOT
HETATM    1  C   UNL     1     -41.991 -49.012  12.727  1.00  0.00     0.117 A 
HETATM    2  C   UNL     1     -41.081 -48.329  11.885  1.00  0.00     0.115 A 
HETATM    3  N   UNL     1     -42.944 -50.799  13.552  1.00  0.00    -0.324 N 
HETATM    4  C   UNL     1     -42.012 -50.398  12.642  1.00  0.00     0.140 A 
HETATM    5  N   UNL     1     -42.916 -48.581  13.662  1.00  0.00    -0.346 N 
ATOM      6  HN  UNL     1     -43.135 -47.618  13.918  1.00  0.00     0.167 HD
HETATM    7  C   UNL     1     -43.454 -49.677  14.150  1.00  0.00     0.185 A 
HETATM    8  N   UNL     1     -40.334 -49.094  11.042  1.00  0.00    -0.341 N 
ATOM      9  HN  UNL     1     -39.682 -48.654  10.393  1.00  0.00     0.167 HD
HETATM   10  N   UNL     1     -41.276 -51.180  11.840  1.00  0.00    -0.336 N 
ATOM     11  HN  UNL     1     -41.327 -52.199  11.816  1.00  0.00     0.168 HD
HETATM   12  C   UNL     1     -40.461 -50.439  11.069  1.00  0.00     0.183 A 
ENDROOT
BRANCH   2  13
HETATM   13  N   UNL     1     -40.964 -46.941  11.846  1.00  0.00    -0.254 NA
HETATM   14  C   UNL     1     -40.915 -46.292  10.511  1.00  0.00     0.156 C 
HETATM   15  C   UNL     1     -40.321 -44.901  10.807  1.00  0.00     0.031 C 
HETATM   16  C   UNL     1     -39.990 -44.896  12.298  1.00  0.00     0.017 C 
HETATM   17  C   UNL     1     -39.898 -46.371  12.663  1.00  0.00     0.098 C 
BRANCH  14  18
HETATM   18  C   UNL     1     -42.302 -46.180   9.862  1.00  0.00     0.235 C 
HETATM   19  O   UNL     1     -43.022 -45.195  10.025  1.00  0.00    -0.272 OA
HETATM   20  N   UNL     1     -42.703 -47.304   9.171  1.00  0.00    -0.364 N 
HETATM   21  C   UNL     1     -43.909 -47.344   8.388  1.00  0.00     0.149 C 
HETATM   22  H   UNL     1     -41.989 -48.016   9.044  1.00  0.00     0.161 HD
ENDBRANCH  14  18
ENDBRANCH   2  13
BRANCH   3  23
HETATM   23  C   UNL     1     -43.220 -52.170  13.934  1.00  0.00     0.169 C 
BRANCH  23  24
HETATM   24  C   UNL     1     -44.272 -52.911  13.077  1.00  0.00     0.078 C 
HETATM   25  C   UNL     1     -45.498 -51.995  12.903  1.00  0.00     0.066 C 
HETATM   26  C   UNL     1     -46.388 -52.004  14.136  1.00  0.00     0.170 C 
HETATM   27  O   UNL     1     -46.838 -53.331  14.388  1.00  0.00    -0.391 OA
HETATM   28  C   UNL     1     -45.765 -54.208  14.724  1.00  0.00     0.170 C 
HETATM   29  C   UNL     1     -44.728 -54.285  13.607  1.00  0.00     0.066 C 
BRANCH  24  30
HETATM   30  O   UNL     1     -43.709 -53.086  11.763  1.00  0.00    -0.388 OA
HETATM   31  H   UNL     1     -44.138 -53.850  11.338  1.00  0.00     0.210 HD
ENDBRANCH  24  30
ENDBRANCH  23  24
ENDBRANCH   3  23
TORSDOF 5
ENDMDL
MODEL 2
REMARK VINA RESULT:      -6.8      2.509      3.171
REMARK  5 active torsions:
REMARK  status: ('A' for Active; 'I' for Inactive)
REMARK    1  A    between atoms: C_2  and  N_4 
REMARK    2  A    between atoms: N_3  and  C_15 
REMARK    3  A    between atoms: C_9  and  C_14 
REMARK       I    between atoms: C_14  and  N_20 
REMARK    4  A    between atoms: C_15  and  C_17 
REMARK    5  A    between atoms: C_17  and  O_24 
ROOT
HETATM    1  C   UNL     1     -41.348 -49.566  12.071  1.00  0.00     0.117 A 
HETATM    2  C   UNL     1     -40.779 -48.305  11.773  1.00  0.00     0.115 A 
HETATM    3  N   UNL     1     -41.277 -51.726  12.401  1.00  0.00    -0.324 N 
HETATM    4  C   UNL     1     -40.494 -50.660  12.073  1.00  0.00     0.140 A 
HETATM    5  N   UNL     1     -42.637 -49.971  12.372  1.00  0.00    -0.346 N 
ATOM      6  HN  UNL     1     -43.474 -49.388  12.419  1.00  0.00     0.167 HD
HETATM    7  C   UNL     1     -42.554 -51.266  12.583  1.00  0.00     0.185 A 
HETATM    8  N   UNL     1     -39.449 -48.287  11.480  1.00  0.00    -0.341 N 
ATOM      9  HN  UNL     1     -38.991 -47.410  11.231  1.00  0.00     0.167 HD
HETATM   10  N   UNL     1     -39.179 -50.673  11.810  1.00  0.00    -0.336 N 
ATOM     11  HN  UNL     1     -38.592 -51.507  11.827  1.00  0.00     0.168 HD
HETATM   12  C   UNL     1     -38.739 -49.435  11.521  1.00  0.00     0.183 A 
ENDROOT
BRANCH   2  13
HETATM   13  N   UNL     1     -41.515 -47.123  11.714  1.00  0.00    -0.254 NA
HETATM   14  C   UNL     1     -41.850 -46.587  10.369  1.00  0.00     0.156 C 
HETATM   15  C   UNL     1     -42.210 -45.115  10.646  1.00  0.00     0.031 C 
HETATM   16  C   UNL     1     -41.964 -44.897  12.138  1.00  0.00     0.017 C 
HETATM   17  C   UNL     1     -41.011 -46.020  12.525  1.00  0.00     0.098 C 
BRANCH  14  18
HETATM   18  C   UNL     1     -43.022 -47.336   9.716  1.00  0.00     0.235 C 
HETATM   19  O   UNL     1     -43.973 -47.760  10.372  1.00  0.00    -0.272 OA
HETATM   20  N   UNL     1     -42.869 -47.570   8.366  1.00  0.00    -0.364 N 
HETATM   21  C   UNL     1     -43.913 -48.138   7.554  1.00  0.00     0.149 C 
HETATM   22  H   UNL     1     -42.080 -47.102   7.928  1.00  0.00     0.161 HD
ENDBRANCH  14  18
ENDBRANCH   2  13
BRANCH   3  23
HETATM   23  C   UNL     1     -40.808 -53.070  12.672  1.00  0.00     0.169 C 
BRANCH  23  24
HETATM   24  C   UNL     1     -39.958 -53.244  13.952  1.00  0.00     0.078 C 
HETATM   25  C   UNL     1     -40.205 -54.655  14.518  1.00  0.00     0.066 C 
HETATM   26  C   UNL     1     -41.513 -54.732  15.289  1.00  0.00     0.170 C 
HETATM   27  O   UNL     1     -41.487 -53.803  16.366  1.00  0.00    -0.391 OA
HETATM   28  C   UNL     1     -41.427 -52.453  15.912  1.00  0.00     0.170 C 
HETATM   29  C   UNL     1     -40.186 -52.198  15.061  1.00  0.00     0.066 C 
BRANCH  24  30
HETATM   30  O   UNL     1     -38.573 -53.204  13.556  1.00  0.00    -0.388 OA
HETATM   31  H   UNL     1     -38.242 -54.118  13.487  1.00  0.00     0.210 HD
ENDBRANCH  24  30
ENDBRANCH  23  24
ENDBRANCH   3  23
TORSDOF 5
ENDMDL
MODEL 3
REMARK VINA RESULT:      -6.7      1.918      2.431
REMARK  5 active torsions:
REMARK  status: ('A' for Active; 'I' for Inactive)
REMARK    1  A    between atoms: C_2  and  N_4 
REMARK    2  A    between atoms: N_3  and  C_15 
REMARK    3  A    between atoms: C_9  and  C_14 
REMARK       I    between atoms: C_14  and  N_20 
REMARK    4  A    between atoms: C_15  and  C_17 
REMARK    5  A    between atoms: C_17  and  O_24 
ROOT
HETATM    1  C   UNL     1     -42.666 -49.191  11.863  1.00  0.00     0.117 A 
HETATM    2  C   UNL     1     -42.201 -48.312  10.855  1.00  0.00     0.115 A 
HETATM    3  N   UNL     1     -42.536 -50.959  13.143  1.00  0.00    -0.324 N 
HETATM    4  C   UNL     1     -41.883 -50.303  12.142  1.00  0.00     0.140 A 
HETATM    5  N   UNL     1     -43.790 -49.188  12.671  1.00  0.00    -0.346 N 
ATOM      6  HN  UNL     1     -44.551 -48.508  12.671  1.00  0.00     0.167 HD
HETATM    7  C   UNL     1     -43.669 -50.249  13.438  1.00  0.00     0.185 A 
HETATM    8  N   UNL     1     -41.044 -48.659  10.226  1.00  0.00    -0.341 N 
ATOM      9  HN  UNL     1     -40.676 -48.078   9.473  1.00  0.00     0.167 HD
HETATM   10  N   UNL     1     -40.731 -50.661  11.557  1.00  0.00    -0.336 N 
ATOM     11  HN  UNL     1     -40.190 -51.490  11.801  1.00  0.00     0.168 HD
HETATM   12  C   UNL     1     -40.386 -49.776  10.605  1.00  0.00     0.183 A 
ENDROOT
BRANCH   2  13
HETATM   13  N   UNL     1     -42.890 -47.170  10.454  1.00  0.00    -0.254 NA
HETATM   14  C   UNL     1     -43.057 -46.943   8.995  1.00  0.00     0.156 C 
HETATM   15  C   UNL     1     -43.401 -45.444   8.899  1.00  0.00     0.031 C 
HETATM   16  C   UNL     1     -43.314 -44.903  10.325  1.00  0.00     0.017 C 
HETATM   17  C   UNL     1     -42.446 -45.916  11.055  1.00  0.00     0.098 C 
BRANCH  14  18
HETATM   18  C   UNL     1     -44.172 -47.811   8.392  1.00  0.00     0.235 C 
HETATM   19  O   UNL     1     -44.035 -48.396   7.317  1.00  0.00    -0.272 OA
HETATM   20  N   UNL     1     -45.354 -47.800   9.101  1.00  0.00    -0.364 N 
HETATM   21  C   UNL     1     -46.466 -48.649   8.770  1.00  0.00     0.149 C 
HETATM   22  H   UNL     1     -45.313 -47.343  10.009  1.00  0.00     0.161 HD
ENDBRANCH  14  18
ENDBRANCH   2  13
BRANCH   3  23
HETATM   23  C   UNL     1     -42.032 -52.105  13.873  1.00  0.00     0.169 C 
BRANCH  23  24
HETATM   24  C   UNL     1     -42.261 -53.483  13.209  1.00  0.00     0.078 C 
HETATM   25  C   UNL     1     -43.735 -53.580  12.773  1.00  0.00     0.066 C 
HETATM   26  C   UNL     1     -44.648 -53.910  13.942  1.00  0.00     0.170 C 
HETATM   27  O   UNL     1     -44.256 -55.152  14.516  1.00  0.00    -0.391 OA
HETATM   28  C   UNL     1     -42.955 -55.091  15.095  1.00  0.00     0.170 C 
HETATM   29  C   UNL     1     -41.896 -54.713  14.064  1.00  0.00     0.066 C 
BRANCH  24  30
HETATM   30  O   UNL     1     -41.479 -53.511  12.000  1.00  0.00    -0.388 OA
HETATM   31  H   UNL     1     -40.616 -53.921  12.195  1.00  0.00     0.210 HD
ENDBRANCH  24  30
ENDBRANCH  23  24
ENDBRANCH   3  23
TORSDOF 5
ENDMDL
MODEL 4
REMARK VINA RESULT:      -6.7      1.669      2.838
REMARK  5 active torsions:
REMARK  status: ('A' for Active; 'I' for Inactive)
REMARK    1  A    between atoms: C_2  and  N_4 
REMARK    2  A    between atoms: N_3  and  C_15 
REMARK    3  A    between atoms: C_9  and  C_14 
REMARK       I    between atoms: C_14  and  N_20 
REMARK    4  A    between atoms: C_15  and  C_17 
REMARK    5  A    between atoms: C_17  and  O_24 
ROOT
HETATM    1  C   UNL     1     -42.042 -49.423  11.887  1.00  0.00     0.117 A 
HETATM    2  C   UNL     1     -41.234 -48.608  11.058  1.00  0.00     0.115 A 
HETATM    3  N   UNL     1     -42.408 -51.111  13.228  1.00  0.00    -0.324 N 
HETATM    4  C   UNL     1     -41.431 -50.517  12.484  1.00  0.00     0.140 A 
HETATM    5  N   UNL     1     -43.377 -49.370  12.247  1.00  0.00    -0.346 N 
ATOM      6  HN  UNL     1     -44.074 -48.690  11.942  1.00  0.00     0.167 HD
HETATM    7  C   UNL     1     -43.557 -50.383  13.066  1.00  0.00     0.185 A 
HETATM    8  N   UNL     1     -39.938 -48.994  10.896  1.00  0.00    -0.341 N 
ATOM      9  HN  UNL     1     -39.316 -48.460  10.288  1.00  0.00     0.167 HD
HETATM   10  N   UNL     1     -40.156 -50.912  12.362  1.00  0.00    -0.336 N 
ATOM     11  HN  UNL     1     -39.753 -51.726  12.826  1.00  0.00     0.168 HD
HETATM   12  C   UNL     1     -39.479 -50.087  11.543  1.00  0.00     0.183 A 
ENDROOT
BRANCH   2  13
HETATM   13  N   UNL     1     -41.713 -47.491  10.377  1.00  0.00    -0.254 NA
HETATM   14  C   UNL     1     -41.893 -46.237  11.152  1.00  0.00     0.156 C 
HETATM   15  C   UNL     1     -42.843 -45.400  10.272  1.00  0.00     0.031 C 
HETATM   16  C   UNL     1     -43.206 -46.292   9.085  1.00  0.00     0.017 C 
HETATM   17  C   UNL     1     -42.915 -47.702   9.577  1.00  0.00     0.098 C 
BRANCH  14  18
HETATM   18  C   UNL     1     -40.567 -45.502  11.396  1.00  0.00     0.235 C 
HETATM   19  O   UNL     1     -39.883 -45.064  10.471  1.00  0.00    -0.272 OA
HETATM   20  N   UNL     1     -40.168 -45.464  12.716  1.00  0.00    -0.364 N 
HETATM   21  C   UNL     1     -39.026 -44.711  13.159  1.00  0.00     0.149 C 
HETATM   22  H   UNL     1     -40.856 -45.791  13.389  1.00  0.00     0.161 HD
ENDBRANCH  14  18
ENDBRANCH   2  13
BRANCH   3  23
HETATM   23  C   UNL     1     -42.218 -52.211  14.152  1.00  0.00     0.169 C 
BRANCH  23  24
HETATM   24  C   UNL     1     -42.293 -53.629  13.538  1.00  0.00     0.078 C 
HETATM   25  C   UNL     1     -43.693 -53.826  12.927  1.00  0.00     0.066 C 
HETATM   26  C   UNL     1     -44.731 -54.152  13.989  1.00  0.00     0.170 C 
HETATM   27  O   UNL     1     -44.356 -55.342  14.672  1.00  0.00    -0.391 OA
HETATM   28  C   UNL     1     -43.143 -55.183  15.405  1.00  0.00     0.170 C 
HETATM   29  C   UNL     1     -41.981 -54.796  14.496  1.00  0.00     0.066 C 
BRANCH  24  30
HETATM   30  O   UNL     1     -41.363 -53.670  12.439  1.00  0.00    -0.388 OA
HETATM   31  H   UNL     1     -41.828 -53.998  11.648  1.00  0.00     0.210 HD
ENDBRANCH  24  30
ENDBRANCH  23  24
ENDBRANCH   3  23
TORSDOF 5
ENDMDL
MODEL 5
REMARK VINA RESULT:      -6.7      3.424      5.106
REMARK  5 active torsions:
REMARK  status: ('A' for Active; 'I' for Inactive)
REMARK    1  A    between atoms: C_2  and  N_4 
REMARK    2  A    between atoms: N_3  and  C_15 
REMARK    3  A    between atoms: C_9  and  C_14 
REMARK       I    between atoms: C_14  and  N_20 
REMARK    4  A    between atoms: C_15  and  C_17 
REMARK    5  A    between atoms: C_17  and  O_24 
ROOT
HETATM    1  C   UNL     1     -41.931 -51.953  12.663  1.00  0.00     0.117 A 
HETATM    2  C   UNL     1     -41.059 -50.842  12.576  1.00  0.00     0.115 A 
HETATM    3  N   UNL     1     -43.887 -52.903  12.889  1.00  0.00    -0.324 N 
HETATM    4  C   UNL     1     -43.279 -51.684  12.861  1.00  0.00     0.140 A 
HETATM    5  N   UNL     1     -41.726 -53.320  12.596  1.00  0.00    -0.346 N 
ATOM      6  HN  UNL     1     -40.837 -53.808  12.479  1.00  0.00     0.167 HD
HETATM    7  C   UNL     1     -42.920 -53.857  12.714  1.00  0.00     0.185 A 
HETATM    8  N   UNL     1     -41.619 -49.610  12.730  1.00  0.00    -0.341 N 
ATOM      9  HN  UNL     1     -41.034 -48.774  12.705  1.00  0.00     0.167 HD
HETATM   10  N   UNL     1     -43.864 -50.485  12.995  1.00  0.00    -0.336 N 
ATOM     11  HN  UNL     1     -44.863 -50.339  13.137  1.00  0.00     0.168 HD
HETATM   12  C   UNL     1     -42.952 -49.499  12.917  1.00  0.00     0.183 A 
ENDROOT
BRANCH   2  13
HETATM   13  N   UNL     1     -39.681 -50.958  12.401  1.00  0.00    -0.254 NA
HETATM   14  C   UNL     1     -38.838 -51.057  13.619  1.00  0.00     0.156 C 
HETATM   15  C   UNL     1     -37.428 -50.694  13.115  1.00  0.00     0.031 C 
HETATM   16  C   UNL     1     -37.594 -50.323  11.642  1.00  0.00     0.017 C 
HETATM   17  C   UNL     1     -39.070 -49.977  11.510  1.00  0.00     0.098 C 
BRANCH  14  18
HETATM   18  C   UNL     1     -38.865 -52.464  14.237  1.00  0.00     0.235 C 
HETATM   19  O   UNL     1     -38.802 -53.481  13.546  1.00  0.00    -0.272 OA
HETATM   20  N   UNL     1     -39.059 -52.486  15.602  1.00  0.00    -0.364 N 
HETATM   21  C   UNL     1     -38.982 -53.695  16.377  1.00  0.00     0.149 C 
HETATM   22  H   UNL     1     -39.016 -51.581  16.063  1.00  0.00     0.161 HD
ENDBRANCH  14  18
ENDBRANCH   2  13
BRANCH   3  23
HETATM   23  C   UNL     1     -45.317 -53.136  12.927  1.00  0.00     0.169 C 
BRANCH  23  24
HETATM   24  C   UNL     1     -45.885 -53.638  14.275  1.00  0.00     0.078 C 
HETATM   25  C   UNL     1     -47.151 -52.826  14.609  1.00  0.00     0.066 C 
HETATM   26  C   UNL     1     -46.809 -51.459  15.179  1.00  0.00     0.170 C 
HETATM   27  O   UNL     1     -46.038 -51.617  16.365  1.00  0.00    -0.391 OA
HETATM   28  C   UNL     1     -44.770 -52.216  16.107  1.00  0.00     0.170 C 
HETATM   29  C   UNL     1     -44.916 -53.596  15.473  1.00  0.00     0.066 C 
BRANCH  24  30
HETATM   30  O   UNL     1     -46.318 -54.998  14.078  1.00  0.00    -0.388 OA
HETATM   31  H   UNL     1     -45.758 -55.586  14.617  1.00  0.00     0.210 HD
ENDBRANCH  24  30
ENDBRANCH  23  24
ENDBRANCH   3  23
TORSDOF 5
ENDMDL
MODEL 6
REMARK VINA RESULT:      -6.5      2.219      3.126
REMARK  5 active torsions:
REMARK  status: ('A' for Active; 'I' for Inactive)
REMARK    1  A    between atoms: C_2  and  N_4 
REMARK    2  A    between atoms: N_3  and  C_15 
REMARK    3  A    between atoms: C_9  and  C_14 
REMARK       I    between atoms: C_14  and  N_20 
REMARK    4  A    between atoms: C_15  and  C_17 
REMARK    5  A    between atoms: C_17  and  O_24 
ROOT
HETATM    1  C   UNL     1     -41.242 -48.438  12.335  1.00  0.00     0.117 A 
HETATM    2  C   UNL     1     -41.483 -47.175  12.926  1.00  0.00     0.115 A 
HETATM    3  N   UNL     1     -41.500 -50.601  12.143  1.00  0.00    -0.324 N 
HETATM    4  C   UNL     1     -41.883 -49.532  12.899  1.00  0.00     0.140 A 
HETATM    5  N   UNL     1     -40.462 -48.844  11.265  1.00  0.00    -0.346 N 
ATOM      6  HN  UNL     1     -39.864 -48.262  10.678  1.00  0.00     0.167 HD
HETATM    7  C   UNL     1     -40.657 -50.141  11.167  1.00  0.00     0.185 A 
HETATM    8  N   UNL     1     -42.296 -47.155  14.019  1.00  0.00    -0.341 N 
ATOM      9  HN  UNL     1     -42.483 -46.277  14.502  1.00  0.00     0.167 HD
HETATM   10  N   UNL     1     -42.704 -49.544  13.958  1.00  0.00    -0.336 N 
ATOM     11  HN  UNL     1     -43.155 -50.379  14.334  1.00  0.00     0.168 HD
HETATM   12  C   UNL     1     -42.854 -48.305  14.458  1.00  0.00     0.183 A 
ENDROOT
BRANCH   2  13
HETATM   13  N   UNL     1     -40.893 -45.993  12.483  1.00  0.00    -0.254 NA
HETATM   14  C   UNL     1     -40.686 -45.833  11.021  1.00  0.00     0.156 C 
HETATM   15  C   UNL     1     -39.632 -44.713  10.925  1.00  0.00     0.031 C 
HETATM   16  C   UNL     1     -39.249 -44.375  12.365  1.00  0.00     0.017 C 
HETATM   17  C   UNL     1     -39.657 -45.608  13.157  1.00  0.00     0.098 C 
BRANCH  14  18
HETATM   18  C   UNL     1     -41.978 -45.450  10.284  1.00  0.00     0.235 C 
HETATM   19  O   UNL     1     -42.550 -44.378  10.485  1.00  0.00    -0.272 OA
HETATM   20  N   UNL     1     -42.483 -46.436   9.464  1.00  0.00    -0.364 N 
HETATM   21  C   UNL     1     -43.608 -46.220   8.593  1.00  0.00     0.149 C 
HETATM   22  H   UNL     1     -41.877 -47.241   9.325  1.00  0.00     0.161 HD
ENDBRANCH  14  18
ENDBRANCH   2  13
BRANCH   3  23
HETATM   23  C   UNL     1     -42.025 -51.947  12.252  1.00  0.00     0.169 C 
BRANCH  23  24
HETATM   24  C   UNL     1     -41.013 -53.034  12.685  1.00  0.00     0.078 C 
HETATM   25  C   UNL     1     -41.789 -54.200  13.328  1.00  0.00     0.066 C 
HETATM   26  C   UNL     1     -42.183 -53.891  14.763  1.00  0.00     0.170 C 
HETATM   27  O   UNL     1     -41.014 -53.637  15.533  1.00  0.00    -0.391 OA
HETATM   28  C   UNL     1     -40.326 -52.466  15.099  1.00  0.00     0.170 C 
HETATM   29  C   UNL     1     -39.895 -52.573  13.640  1.00  0.00     0.066 C 
BRANCH  24  30
HETATM   30  O   UNL     1     -40.412 -53.561  11.487  1.00  0.00    -0.388 OA
HETATM   31  H   UNL     1     -40.687 -53.011  10.731  1.00  0.00     0.210 HD
ENDBRANCH  24  30
ENDBRANCH  23  24
ENDBRANCH   3  23
TORSDOF 5
ENDMDL
MODEL 7
REMARK VINA RESULT:      -6.5      2.202      3.155
REMARK  5 active torsions:
REMARK  status: ('A' for Active; 'I' for Inactive)
REMARK    1  A    between atoms: C_2  and  N_4 
REMARK    2  A    between atoms: N_3  and  C_15 
REMARK    3  A    between atoms: C_9  and  C_14 
REMARK       I    between atoms: C_14  and  N_20 
REMARK    4  A    between atoms: C_15  and  C_17 
REMARK    5  A    between atoms: C_17  and  O_24 
ROOT
HETATM    1  C   UNL     1     -41.842 -50.825  13.611  1.00  0.00     0.117 A 
HETATM    2  C   UNL     1     -40.520 -50.759  13.110  1.00  0.00     0.115 A 
HETATM    3  N   UNL     1     -43.897 -51.571  13.643  1.00  0.00    -0.324 N 
HETATM    4  C   UNL     1     -42.721 -51.682  12.963  1.00  0.00     0.140 A 
HETATM    5  N   UNL     1     -42.487 -50.187  14.656  1.00  0.00    -0.346 N 
ATOM      6  HN  UNL     1     -42.097 -49.488  15.290  1.00  0.00     0.167 HD
HETATM    7  C   UNL     1     -43.709 -50.672  14.659  1.00  0.00     0.185 A 
HETATM    8  N   UNL     1     -40.242 -51.518  12.013  1.00  0.00    -0.341 N 
ATOM      9  HN  UNL     1     -39.313 -51.489  11.592  1.00  0.00     0.167 HD
HETATM   10  N   UNL     1     -42.474 -52.457  11.897  1.00  0.00    -0.336 N 
ATOM     11  HN  UNL     1     -43.156 -53.074  11.457  1.00  0.00     0.168 HD
HETATM   12  C   UNL     1     -41.201 -52.309  11.486  1.00  0.00     0.183 A 
ENDROOT
BRANCH   2  13
HETATM   13  N   UNL     1     -39.536 -49.930  13.643  1.00  0.00    -0.254 NA
HETATM   14  C   UNL     1     -38.882 -48.960  12.728  1.00  0.00     0.156 C 
HETATM   15  C   UNL     1     -37.587 -48.576  13.471  1.00  0.00     0.031 C 
HETATM   16  C   UNL     1     -37.559 -49.438  14.732  1.00  0.00     0.017 C 
HETATM   17  C   UNL     1     -38.490 -50.598  14.411  1.00  0.00     0.098 C 
BRANCH  14  18
HETATM   18  C   UNL     1     -39.757 -47.726  12.459  1.00  0.00     0.235 C 
HETATM   19  O   UNL     1     -40.452 -47.215  13.338  1.00  0.00    -0.272 OA
HETATM   20  N   UNL     1     -39.770 -47.309  11.145  1.00  0.00    -0.364 N 
HETATM   21  C   UNL     1     -40.423 -46.099  10.722  1.00  0.00     0.149 C 
HETATM   22  H   UNL     1     -39.096 -47.765  10.536  1.00  0.00     0.161 HD
ENDBRANCH  14  18
ENDBRANCH   2  13
BRANCH   3  23
HETATM   23  C   UNL     1     -45.078 -52.383  13.432  1.00  0.00     0.169 C 
BRANCH  23  24
HETATM   24  C   UNL     1     -44.923 -53.892  13.735  1.00  0.00     0.078 C 
HETATM   25  C   UNL     1     -46.228 -54.401  14.378  1.00  0.00     0.066 C 
HETATM   26  C   UNL     1     -46.309 -54.037  15.852  1.00  0.00     0.170 C 
HETATM   27  O   UNL     1     -45.204 -54.607  16.543  1.00  0.00    -0.391 OA
HETATM   28  C   UNL     1     -43.959 -54.058  16.116  1.00  0.00     0.170 C 
HETATM   29  C   UNL     1     -43.727 -54.283  14.624  1.00  0.00     0.066 C 
BRANCH  24  30
HETATM   30  O   UNL     1     -44.803 -54.574  12.472  1.00  0.00    -0.388 OA
HETATM   31  H   UNL     1     -44.741 -53.908  11.763  1.00  0.00     0.210 HD
ENDBRANCH  24  30
ENDBRANCH  23  24
ENDBRANCH   3  23
TORSDOF 5
ENDMDL
MODEL 8
REMARK VINA RESULT:      -6.5      2.300      3.782
REMARK  5 active torsions:
REMARK  status: ('A' for Active; 'I' for Inactive)
REMARK    1  A    between atoms: C_2  and  N_4 
REMARK    2  A    between atoms: N_3  and  C_15 
REMARK    3  A    between atoms: C_9  and  C_14 
REMARK       I    between atoms: C_14  and  N_20 
REMARK    4  A    between atoms: C_15  and  C_17 
REMARK    5  A    between atoms: C_17  and  O_24 
ROOT
HETATM    1  C   UNL     1     -41.457 -51.324  13.397  1.00  0.00     0.117 A 
HETATM    2  C   UNL     1     -40.467 -50.467  13.935  1.00  0.00     0.115 A 
HETATM    3  N   UNL     1     -43.403 -52.319  13.391  1.00  0.00    -0.324 N 
HETATM    4  C   UNL     1     -42.628 -51.472  14.127  1.00  0.00     0.140 A 
HETATM    5  N   UNL     1     -41.515 -52.091  12.246  1.00  0.00    -0.346 N 
ATOM      6  HN  UNL     1     -40.791 -52.195  11.534  1.00  0.00     0.167 HD
HETATM    7  C   UNL     1     -42.702 -52.657  12.265  1.00  0.00     0.185 A 
HETATM    8  N   UNL     1     -40.742 -49.893  15.139  1.00  0.00    -0.341 N 
ATOM      9  HN  UNL     1     -40.054 -49.289  15.588  1.00  0.00     0.167 HD
HETATM   10  N   UNL     1     -42.938 -50.907  15.302  1.00  0.00    -0.336 N 
ATOM     11  HN  UNL     1     -43.818 -51.046  15.799  1.00  0.00     0.168 HD
HETATM   12  C   UNL     1     -41.930 -50.130  15.737  1.00  0.00     0.183 A 
ENDROOT
BRANCH   2  13
HETATM   13  N   UNL     1     -39.235 -50.238  13.326  1.00  0.00    -0.254 NA
HETATM   14  C   UNL     1     -39.237 -49.603  11.983  1.00  0.00     0.156 C 
HETATM   15  C   UNL     1     -37.838 -49.931  11.425  1.00  0.00     0.031 C 
HETATM   16  C   UNL     1     -37.167 -50.817  12.473  1.00  0.00     0.017 C 
HETATM   17  C   UNL     1     -38.327 -51.380  13.282  1.00  0.00     0.098 C 
BRANCH  14  18
HETATM   18  C   UNL     1     -39.469 -48.087  12.053  1.00  0.00     0.235 C 
HETATM   19  O   UNL     1     -39.149 -47.422  13.038  1.00  0.00    -0.272 OA
HETATM   20  N   UNL     1     -40.145 -47.561  10.972  1.00  0.00    -0.364 N 
HETATM   21  C   UNL     1     -40.341 -46.147  10.792  1.00  0.00     0.149 C 
HETATM   22  H   UNL     1     -40.284 -48.198  10.192  1.00  0.00     0.161 HD
ENDBRANCH  14  18
ENDBRANCH   2  13
BRANCH   3  23
HETATM   23  C   UNL     1     -44.783 -52.662  13.672  1.00  0.00     0.169 C 
BRANCH  23  24
HETATM   24  C   UNL     1     -45.041 -54.123  14.110  1.00  0.00     0.078 C 
HETATM   25  C   UNL     1     -46.215 -54.137  15.107  1.00  0.00     0.066 C 
HETATM   26  C   UNL     1     -45.775 -53.720  16.501  1.00  0.00     0.170 C 
HETATM   27  O   UNL     1     -44.765 -54.607  16.967  1.00  0.00    -0.391 OA
HETATM   28  C   UNL     1     -43.575 -54.527  16.186  1.00  0.00     0.170 C 
HETATM   29  C   UNL     1     -43.838 -54.866  14.722  1.00  0.00     0.066 C 
BRANCH  24  30
HETATM   30  O   UNL     1     -45.490 -54.846  12.948  1.00  0.00    -0.388 OA
HETATM   31  H   UNL     1     -44.712 -55.102  12.419  1.00  0.00     0.210 HD
ENDBRANCH  24  30
ENDBRANCH  23  24
ENDBRANCH   3  23
TORSDOF 5
ENDMDL
MODEL 9
REMARK VINA RESULT:      -6.3      2.460      7.399
REMARK  5 active torsions:
REMARK  status: ('A' for Active; 'I' for Inactive)
REMARK    1  A    between atoms: C_2  and  N_4 
REMARK    2  A    between atoms: N_3  and  C_15 
REMARK    3  A    between atoms: C_9  and  C_14 
REMARK       I    between atoms: C_14  and  N_20 
REMARK    4  A    between atoms: C_15  and  C_17 
REMARK    5  A    between atoms: C_17  and  O_24 
ROOT
HETATM    1  C   UNL     1     -40.658 -47.651  12.146  1.00  0.00     0.117 A 
HETATM    2  C   UNL     1     -40.500 -48.835  11.388  1.00  0.00     0.115 A 
HETATM    3  N   UNL     1     -41.598 -45.736  12.630  1.00  0.00    -0.324 N 
HETATM    4  C   UNL     1     -41.644 -46.764  11.734  1.00  0.00     0.140 A 
HETATM    5  N   UNL     1     -40.010 -47.153  13.264  1.00  0.00    -0.346 N 
ATOM      6  HN  UNL     1     -39.231 -47.578  13.768  1.00  0.00     0.167 HD
HETATM    7  C   UNL     1     -40.612 -46.016  13.537  1.00  0.00     0.185 A 
HETATM    8  N   UNL     1     -41.307 -48.978  10.300  1.00  0.00    -0.341 N 
ATOM      9  HN  UNL     1     -41.218 -49.799   9.701  1.00  0.00     0.167 HD
HETATM   10  N   UNL     1     -42.468 -46.885  10.684  1.00  0.00    -0.336 N 
ATOM     11  HN  UNL     1     -43.180 -46.203  10.424  1.00  0.00     0.168 HD
HETATM   12  C   UNL     1     -42.226 -48.029  10.019  1.00  0.00     0.183 A 
ENDROOT
BRANCH   2  13
HETATM   13  N   UNL     1     -39.540 -49.805  11.668  1.00  0.00    -0.254 NA
HETATM   14  C   UNL     1     -39.761 -50.669  12.855  1.00  0.00     0.156 C 
HETATM   15  C   UNL     1     -38.364 -51.254  13.143  1.00  0.00     0.031 C 
HETATM   16  C   UNL     1     -37.421 -50.597  12.136  1.00  0.00     0.017 C 
HETATM   17  C   UNL     1     -38.157 -49.338  11.703  1.00  0.00     0.098 C 
BRANCH  14  18
HETATM   18  C   UNL     1     -40.786 -51.781  12.588  1.00  0.00     0.235 C 
HETATM   19  O   UNL     1     -40.470 -52.849  12.064  1.00  0.00    -0.272 OA
HETATM   20  N   UNL     1     -42.088 -51.444  12.893  1.00  0.00    -0.364 N 
HETATM   21  C   UNL     1     -43.168 -52.392  12.835  1.00  0.00     0.149 C 
HETATM   22  H   UNL     1     -42.206 -50.566  13.391  1.00  0.00     0.161 HD
ENDBRANCH  14  18
ENDBRANCH   2  13
BRANCH   3  23
HETATM   23  C   UNL     1     -42.537 -44.635  12.703  1.00  0.00     0.169 C 
BRANCH  23  24
HETATM   24  C   UNL     1     -42.426 -43.577  11.580  1.00  0.00     0.078 C 
HETATM   25  C   UNL     1     -40.938 -43.390  11.226  1.00  0.00     0.066 C 
HETATM   26  C   UNL     1     -40.226 -42.502  12.234  1.00  0.00     0.170 C 
HETATM   27  O   UNL     1     -40.854 -41.226  12.270  1.00  0.00    -0.391 OA
HETATM   28  C   UNL     1     -42.194 -41.297  12.752  1.00  0.00     0.170 C 
HETATM   29  C   UNL     1     -43.059 -42.204  11.881  1.00  0.00     0.066 C 
BRANCH  24  30
HETATM   30  O   UNL     1     -43.054 -44.129  10.407  1.00  0.00    -0.388 OA
HETATM   31  H   UNL     1     -43.742 -43.511  10.100  1.00  0.00     0.210 HD
ENDBRANCH  24  30
ENDBRANCH  23  24
ENDBRANCH   3  23
TORSDOF 5
ENDMDL
