MODEL 1
REMARK VINA RESULT:      -5.1      0.000      0.000
REMARK  5 active torsions:
REMARK  status: ('A' for Active; 'I' for Inactive)
REMARK    1  A    between atoms: C_2  and  O_3 
REMARK    2  A    between atoms: C_2  and  C_8 
REMARK    3  A    between atoms: O_3  and  C_4 
REMARK    4  A    between atoms: C_4  and  C_5 
REMARK       I    between atoms: C_8  and  N_10 
REMARK    5  A    between atoms: N_10  and  C_11 
ROOT
HETATM    1  C   UNL     1     -42.777 -48.772  12.014  1.00  0.00     0.250 C 
HETATM    2  O   UNL     1     -43.074 -48.851  13.206  1.00  0.00    -0.270 OA
HETATM    3  N   UNL     1     -41.925 -49.667  11.371  1.00  0.00    -0.325 N 
HETATM    4  H   UNL     1     -41.467 -49.348  10.532  1.00  0.00     0.169 HD
ENDROOT
BRANCH   1   5
HETATM    5  C   UNL     1     -43.301 -47.637  11.102  1.00  0.00     0.209 C 
HETATM    6  C   UNL     1     -42.590 -46.347  11.516  1.00  0.00     0.050 C 
BRANCH   5   7
HETATM    7  O   UNL     1     -43.085 -47.807   9.699  1.00  0.00    -0.376 OA
BRANCH   7   8
HETATM    8  C   UNL     1     -44.158 -47.340   8.890  1.00  0.00     0.173 C 
BRANCH   8   9
HETATM    9  C   UNL     1     -45.469 -47.691   9.511  1.00  0.00     0.009 A 
HETATM   10  C   UNL     1     -46.498 -48.409   8.669  1.00  0.00     0.007 A 
HETATM   11  C   UNL     1     -46.733 -46.984   9.082  1.00  0.00     0.007 A 
ENDBRANCH   8   9
ENDBRANCH   7   8
ENDBRANCH   5   7
ENDBRANCH   1   5
BRANCH   3  12
HETATM   12  C   UNL     1     -41.280 -50.693  12.086  1.00  0.00     0.037 A 
HETATM   13  C   UNL     1     -40.072 -50.461  12.728  1.00  0.00     0.046 A 
HETATM   14  C   UNL     1     -39.473 -51.520  13.385  1.00  0.00     0.090 A 
HETATM   15  N   UNL     1     -39.988 -52.768  13.417  1.00  0.00    -0.375 N 
HETATM   16  C   UNL     1     -41.163 -52.958  12.778  1.00  0.00     0.090 A 
ATOM     17  HN  UNL     1     -39.513 -53.531  13.900  1.00  0.00     0.164 HD
HETATM   18  C   UNL     1     -41.866 -51.952  12.139  1.00  0.00     0.046 A 
ENDBRANCH   3  12
TORSDOF 5
ENDMDL
MODEL 2
REMARK VINA RESULT:      -5.1      4.506      5.539
REMARK  5 active torsions:
REMARK  status: ('A' for Active; 'I' for Inactive)
REMARK    1  A    between atoms: C_2  and  O_3 
REMARK    2  A    between atoms: C_2  and  C_8 
REMARK    3  A    between atoms: O_3  and  C_4 
REMARK    4  A    between atoms: C_4  and  C_5 
REMARK       I    between atoms: C_8  and  N_10 
REMARK    5  A    between atoms: N_10  and  C_11 
ROOT
HETATM    1  C   UNL     1     -43.492 -53.876  13.528  1.00  0.00     0.250 C 
HETATM    2  O   UNL     1     -43.419 -53.549  14.712  1.00  0.00    -0.270 OA
HETATM    3  N   UNL     1     -42.407 -53.851  12.654  1.00  0.00    -0.325 N 
HETATM    4  H   UNL     1     -42.609 -53.789  11.668  1.00  0.00     0.169 HD
ENDROOT
BRANCH   1   5
HETATM    5  C   UNL     1     -44.818 -54.325  12.871  1.00  0.00     0.209 C 
HETATM    6  C   UNL     1     -45.504 -55.298  13.833  1.00  0.00     0.050 C 
BRANCH   5   7
HETATM    7  O   UNL     1     -45.758 -53.290  12.577  1.00  0.00    -0.376 OA
BRANCH   7   8
HETATM    8  C   UNL     1     -45.370 -52.006  13.049  1.00  0.00     0.173 C 
BRANCH   8   9
HETATM    9  C   UNL     1     -46.420 -51.444  13.950  1.00  0.00     0.009 A 
HETATM   10  C   UNL     1     -46.063 -51.167  15.391  1.00  0.00     0.007 A 
HETATM   11  C   UNL     1     -47.009 -52.285  15.057  1.00  0.00     0.007 A 
ENDBRANCH   8   9
ENDBRANCH   7   8
ENDBRANCH   5   7
ENDBRANCH   1   5
BRANCH   3  12
HETATM   12  C   UNL     1     -41.154 -53.363  13.069  1.00  0.00     0.037 A 
HETATM   13  C   UNL     1     -40.258 -54.183  13.741  1.00  0.00     0.046 A 
HETATM   14  C   UNL     1     -39.058 -53.634  14.151  1.00  0.00     0.090 A 
HETATM   15  N   UNL     1     -38.720 -52.342  13.952  1.00  0.00    -0.375 N 
HETATM   16  C   UNL     1     -39.618 -51.572  13.297  1.00  0.00     0.090 A 
ATOM     17  HN  UNL     1     -37.831 -51.964  14.280  1.00  0.00     0.164 HD
HETATM   18  C   UNL     1     -40.821 -52.041  12.801  1.00  0.00     0.046 A 
ENDBRANCH   3  12
TORSDOF 5
ENDMDL
MODEL 3
REMARK VINA RESULT:      -5.0      4.074      6.425
REMARK  5 active torsions:
REMARK  status: ('A' for Active; 'I' for Inactive)
REMARK    1  A    between atoms: C_2  and  O_3 
REMARK    2  A    between atoms: C_2  and  C_8 
REMARK    3  A    between atoms: O_3  and  C_4 
REMARK    4  A    between atoms: C_4  and  C_5 
REMARK       I    between atoms: C_8  and  N_10 
REMARK    5  A    between atoms: N_10  and  C_11 
ROOT
HETATM    1  C   UNL     1     -42.199 -52.453  12.883  1.00  0.00     0.250 C 
HETATM    2  O   UNL     1     -42.074 -52.579  14.101  1.00  0.00    -0.270 OA
HETATM    3  N   UNL     1     -43.387 -52.708  12.200  1.00  0.00    -0.325 N 
HETATM    4  H   UNL     1     -43.318 -52.921  11.217  1.00  0.00     0.169 HD
ENDROOT
BRANCH   1   5
HETATM    5  C   UNL     1     -41.028 -52.025  11.969  1.00  0.00     0.209 C 
HETATM    6  C   UNL     1     -41.171 -50.524  11.706  1.00  0.00     0.050 C 
BRANCH   5   7
HETATM    7  O   UNL     1     -39.712 -52.238  12.486  1.00  0.00    -0.376 OA
BRANCH   7   8
HETATM    8  C   UNL     1     -39.233 -51.177  13.303  1.00  0.00     0.173 C 
BRANCH   8   9
HETATM    9  C   UNL     1     -37.822 -50.844  12.948  1.00  0.00     0.009 A 
HETATM   10  C   UNL     1     -37.456 -49.395  12.727  1.00  0.00     0.007 A 
HETATM   11  C   UNL     1     -37.478 -50.346  11.564  1.00  0.00     0.007 A 
ENDBRANCH   8   9
ENDBRANCH   7   8
ENDBRANCH   5   7
ENDBRANCH   1   5
BRANCH   3  12
HETATM   12  C   UNL     1     -44.515 -53.210  12.874  1.00  0.00     0.037 A 
HETATM   13  C   UNL     1     -45.557 -52.369  13.241  1.00  0.00     0.046 A 
HETATM   14  C   UNL     1     -46.622 -52.919  13.930  1.00  0.00     0.090 A 
HETATM   15  N   UNL     1     -46.693 -54.221  14.281  1.00  0.00    -0.375 N 
HETATM   16  C   UNL     1     -45.660 -55.009  13.910  1.00  0.00     0.090 A 
ATOM     17  HN  UNL     1     -47.488 -54.592  14.802  1.00  0.00     0.164 HD
HETATM   18  C   UNL     1     -44.576 -54.565  13.174  1.00  0.00     0.046 A 
ENDBRANCH   3  12
TORSDOF 5
ENDMDL
MODEL 4
REMARK VINA RESULT:      -4.9      4.091      6.194
REMARK  5 active torsions:
REMARK  status: ('A' for Active; 'I' for Inactive)
REMARK    1  A    between atoms: C_2  and  O_3 
REMARK    2  A    between atoms: C_2  and  C_8 
REMARK    3  A    between atoms: O_3  and  C_4 
REMARK    4  A    between atoms: C_4  and  C_5 
REMARK       I    between atoms: C_8  and  N_10 
REMARK    5  A    between atoms: N_10  and  C_11 
ROOT
HETATM    1  C   UNL     1     -44.032 -53.708  13.271  1.00  0.00     0.250 C 
HETATM    2  O   UNL     1     -44.507 -53.587  12.143  1.00  0.00    -0.270 OA
HETATM    3  N   UNL     1     -43.083 -52.837  13.805  1.00  0.00    -0.325 N 
HETATM    4  H   UNL     1     -42.504 -53.187  14.553  1.00  0.00     0.169 HD
ENDROOT
BRANCH   1   5
HETATM    5  C   UNL     1     -44.419 -54.870  14.215  1.00  0.00     0.209 C 
HETATM    6  C   UNL     1     -43.417 -54.880  15.371  1.00  0.00     0.050 C 
BRANCH   5   7
HETATM    7  O   UNL     1     -45.726 -54.807  14.790  1.00  0.00    -0.376 OA
BRANCH   7   8
HETATM    8  C   UNL     1     -45.912 -53.716  15.684  1.00  0.00     0.173 C 
BRANCH   8   9
HETATM    9  C   UNL     1     -46.974 -52.800  15.174  1.00  0.00     0.009 A 
HETATM   10  C   UNL     1     -46.564 -51.458  14.616  1.00  0.00     0.007 A 
HETATM   11  C   UNL     1     -47.310 -51.529  15.918  1.00  0.00     0.007 A 
ENDBRANCH   8   9
ENDBRANCH   7   8
ENDBRANCH   5   7
ENDBRANCH   1   5
BRANCH   3  12
HETATM   12  C   UNL     1     -42.546 -51.790  13.033  1.00  0.00     0.037 A 
HETATM   13  C   UNL     1     -41.389 -51.975  12.291  1.00  0.00     0.046 A 
HETATM   14  C   UNL     1     -40.894 -50.896  11.581  1.00  0.00     0.090 A 
HETATM   15  N   UNL     1     -41.464 -49.672  11.589  1.00  0.00    -0.375 N 
HETATM   16  C   UNL     1     -42.588 -49.528  12.325  1.00  0.00     0.090 A 
ATOM     17  HN  UNL     1     -41.065 -48.893  11.064  1.00  0.00     0.164 HD
HETATM   18  C   UNL     1     -43.189 -50.558  13.026  1.00  0.00     0.046 A 
ENDBRANCH   3  12
TORSDOF 5
ENDMDL
MODEL 5
REMARK VINA RESULT:      -4.9      4.140      6.922
REMARK  5 active torsions:
REMARK  status: ('A' for Active; 'I' for Inactive)
REMARK    1  A    between atoms: C_2  and  O_3 
REMARK    2  A    between atoms: C_2  and  C_8 
REMARK    3  A    between atoms: O_3  and  C_4 
REMARK    4  A    between atoms: C_4  and  C_5 
REMARK       I    between atoms: C_8  and  N_10 
REMARK    5  A    between atoms: N_10  and  C_11 
ROOT
HETATM    1  C   UNL     1     -42.509 -52.329  12.768  1.00  0.00     0.250 C 
HETATM    2  O   UNL     1     -42.548 -51.856  13.904  1.00  0.00    -0.270 OA
HETATM    3  N   UNL     1     -43.575 -53.008  12.181  1.00  0.00    -0.325 N 
HETATM    4  H   UNL     1     -43.358 -53.647  11.431  1.00  0.00     0.169 HD
ENDROOT
BRANCH   1   5
HETATM    5  C   UNL     1     -41.249 -52.245  11.876  1.00  0.00     0.209 C 
HETATM    6  C   UNL     1     -40.792 -50.785  11.858  1.00  0.00     0.050 C 
BRANCH   5   7
HETATM    7  O   UNL     1     -40.129 -53.032  12.290  1.00  0.00    -0.376 OA
BRANCH   7   8
HETATM    8  C   UNL     1     -40.485 -54.225  12.977  1.00  0.00     0.173 C 
BRANCH   8   9
HETATM    9  C   UNL     1     -39.653 -54.386  14.206  1.00  0.00     0.009 A 
HETATM   10  C   UNL     1     -40.336 -54.340  15.552  1.00  0.00     0.007 A 
HETATM   11  C   UNL     1     -39.428 -53.218  15.136  1.00  0.00     0.007 A 
ENDBRANCH   8   9
ENDBRANCH   7   8
ENDBRANCH   5   7
ENDBRANCH   1   5
BRANCH   3  12
HETATM   12  C   UNL     1     -44.755 -53.264  12.901  1.00  0.00     0.037 A 
HETATM   13  C   UNL     1     -45.733 -52.289  13.034  1.00  0.00     0.046 A 
HETATM   14  C   UNL     1     -46.855 -52.593  13.783  1.00  0.00     0.090 A 
HETATM   15  N   UNL     1     -47.040 -53.777  14.407  1.00  0.00    -0.375 N 
HETATM   16  C   UNL     1     -46.065 -54.701  14.258  1.00  0.00     0.090 A 
ATOM     17  HN  UNL     1     -47.874 -53.964  14.963  1.00  0.00     0.164 HD
HETATM   18  C   UNL     1     -44.933 -54.512  13.487  1.00  0.00     0.046 A 
ENDBRANCH   3  12
TORSDOF 5
ENDMDL
MODEL 6
REMARK VINA RESULT:      -4.8      3.324      5.193
REMARK  5 active torsions:
REMARK  status: ('A' for Active; 'I' for Inactive)
REMARK    1  A    between atoms: C_2  and  O_3 
REMARK    2  A    between atoms: C_2  and  C_8 
REMARK    3  A    between atoms: O_3  and  C_4 
REMARK    4  A    between atoms: C_4  and  C_5 
REMARK       I    between atoms: C_8  and  N_10 
REMARK    5  A    between atoms: N_10  and  C_11 
ROOT
HETATM    1  C   UNL     1     -42.628 -51.888  12.782  1.00  0.00     0.250 C 
HETATM    2  O   UNL     1     -42.591 -51.265  13.843  1.00  0.00    -0.270 OA
HETATM    3  N   UNL     1     -41.856 -51.560  11.669  1.00  0.00    -0.325 N 
HETATM    4  H   UNL     1     -42.186 -51.872  10.769  1.00  0.00     0.169 HD
ENDROOT
BRANCH   1   5
HETATM    5  C   UNL     1     -43.569 -53.095  12.560  1.00  0.00     0.209 C 
HETATM    6  C   UNL     1     -43.437 -54.014  13.777  1.00  0.00     0.050 C 
BRANCH   5   7
HETATM    7  O   UNL     1     -44.958 -52.792  12.409  1.00  0.00    -0.376 OA
BRANCH   7   8
HETATM    8  C   UNL     1     -45.718 -52.959  13.598  1.00  0.00     0.173 C 
BRANCH   8   9
HETATM    9  C   UNL     1     -46.227 -51.641  14.081  1.00  0.00     0.009 A 
HETATM   10  C   UNL     1     -45.693 -51.094  15.384  1.00  0.00     0.007 A 
HETATM   11  C   UNL     1     -47.117 -51.564  15.299  1.00  0.00     0.007 A 
ENDBRANCH   8   9
ENDBRANCH   7   8
ENDBRANCH   5   7
ENDBRANCH   1   5
BRANCH   3  12
HETATM   12  C   UNL     1     -41.028 -50.422  11.672  1.00  0.00     0.037 A 
HETATM   13  C   UNL     1     -41.534 -49.173  11.343  1.00  0.00     0.046 A 
HETATM   14  C   UNL     1     -40.660 -48.101  11.332  1.00  0.00     0.090 A 
HETATM   15  N   UNL     1     -39.342 -48.209  11.604  1.00  0.00    -0.375 N 
HETATM   16  C   UNL     1     -38.883 -49.441  11.917  1.00  0.00     0.090 A 
ATOM     17  HN  UNL     1     -38.722 -47.399  11.574  1.00  0.00     0.164 HD
HETATM   18  C   UNL     1     -39.686 -50.564  12.007  1.00  0.00     0.046 A 
ENDBRANCH   3  12
TORSDOF 5
ENDMDL
MODEL 7
REMARK VINA RESULT:      -4.8      3.951      6.535
REMARK  5 active torsions:
REMARK  status: ('A' for Active; 'I' for Inactive)
REMARK    1  A    between atoms: C_2  and  O_3 
REMARK    2  A    between atoms: C_2  and  C_8 
REMARK    3  A    between atoms: O_3  and  C_4 
REMARK    4  A    between atoms: C_4  and  C_5 
REMARK       I    between atoms: C_8  and  N_10 
REMARK    5  A    between atoms: N_10  and  C_11 
ROOT
HETATM    1  C   UNL     1     -42.719 -45.888   9.713  1.00  0.00     0.250 C 
HETATM    2  O   UNL     1     -43.431 -45.003   9.240  1.00  0.00    -0.270 OA
HETATM    3  N   UNL     1     -42.990 -47.249   9.579  1.00  0.00    -0.325 N 
HETATM    4  H   UNL     1     -42.585 -47.870  10.262  1.00  0.00     0.169 HD
ENDROOT
BRANCH   1   5
HETATM    5  C   UNL     1     -41.452 -45.579  10.544  1.00  0.00     0.209 C 
HETATM    6  C   UNL     1     -40.846 -46.915  10.979  1.00  0.00     0.050 C 
BRANCH   5   7
HETATM    7  O   UNL     1     -40.422 -44.847   9.874  1.00  0.00    -0.376 OA
BRANCH   7   8
HETATM    8  C   UNL     1     -39.685 -43.978  10.724  1.00  0.00     0.173 C 
BRANCH   8   9
HETATM    9  C   UNL     1     -40.583 -43.366  11.748  1.00  0.00     0.009 A 
HETATM   10  C   UNL     1     -40.552 -41.867  11.933  1.00  0.00     0.007 A 
HETATM   11  C   UNL     1     -40.008 -42.764  13.008  1.00  0.00     0.007 A 
ENDBRANCH   8   9
ENDBRANCH   7   8
ENDBRANCH   5   7
ENDBRANCH   1   5
BRANCH   3  12
HETATM   12  C   UNL     1     -44.163 -47.694   8.944  1.00  0.00     0.037 A 
HETATM   13  C   UNL     1     -45.385 -47.659   9.601  1.00  0.00     0.046 A 
HETATM   14  C   UNL     1     -46.495 -48.143   8.933  1.00  0.00     0.090 A 
HETATM   15  N   UNL     1     -46.450 -48.665   7.688  1.00  0.00    -0.375 N 
HETATM   16  C   UNL     1     -45.243 -48.686   7.080  1.00  0.00     0.090 A 
ATOM     17  HN  UNL     1     -47.286 -49.026   7.229  1.00  0.00     0.164 HD
HETATM   18  C   UNL     1     -44.086 -48.178   7.643  1.00  0.00     0.046 A 
ENDBRANCH   3  12
TORSDOF 5
ENDMDL
MODEL 8
REMARK VINA RESULT:      -4.8      2.865      5.430
REMARK  5 active torsions:
REMARK  status: ('A' for Active; 'I' for Inactive)
REMARK    1  A    between atoms: C_2  and  O_3 
REMARK    2  A    between atoms: C_2  and  C_8 
REMARK    3  A    between atoms: O_3  and  C_4 
REMARK    4  A    between atoms: C_4  and  C_5 
REMARK       I    between atoms: C_8  and  N_10 
REMARK    5  A    between atoms: N_10  and  C_11 
ROOT
HETATM    1  C   UNL     1     -42.428 -49.984  12.649  1.00  0.00     0.250 C 
HETATM    2  O   UNL     1     -42.605 -49.141  13.526  1.00  0.00    -0.270 OA
HETATM    3  N   UNL     1     -41.953 -49.682  11.374  1.00  0.00    -0.325 N 
HETATM    4  H   UNL     1     -42.165 -50.334  10.635  1.00  0.00     0.169 HD
ENDROOT
BRANCH   1   5
HETATM    5  C   UNL     1     -42.748 -51.483  12.860  1.00  0.00     0.209 C 
HETATM    6  C   UNL     1     -41.533 -52.286  12.391  1.00  0.00     0.050 C 
BRANCH   5   7
HETATM    7  O   UNL     1     -43.026 -51.884  14.204  1.00  0.00    -0.376 OA
BRANCH   7   8
HETATM    8  C   UNL     1     -44.344 -52.381  14.398  1.00  0.00     0.173 C 
BRANCH   8   9
HETATM    9  C   UNL     1     -45.347 -51.301  14.164  1.00  0.00     0.009 A 
HETATM   10  C   UNL     1     -46.747 -51.486  14.700  1.00  0.00     0.007 A 
HETATM   11  C   UNL     1     -46.504 -51.522  13.218  1.00  0.00     0.007 A 
ENDBRANCH   8   9
ENDBRANCH   7   8
ENDBRANCH   5   7
ENDBRANCH   1   5
BRANCH   3  12
HETATM   12  C   UNL     1     -41.716 -48.350  10.987  1.00  0.00     0.037 A 
HETATM   13  C   UNL     1     -42.665 -47.640  10.265  1.00  0.00     0.046 A 
HETATM   14  C   UNL     1     -42.357 -46.346   9.887  1.00  0.00     0.090 A 
HETATM   15  N   UNL     1     -41.179 -45.747  10.163  1.00  0.00    -0.375 N 
HETATM   16  C   UNL     1     -40.278 -46.469  10.864  1.00  0.00     0.090 A 
ATOM     17  HN  UNL     1     -40.979 -44.794   9.856  1.00  0.00     0.164 HD
HETATM   18  C   UNL     1     -40.512 -47.749  11.333  1.00  0.00     0.046 A 
ENDBRANCH   3  12
TORSDOF 5
ENDMDL
MODEL 9
REMARK VINA RESULT:      -4.8      3.426      5.831
REMARK  5 active torsions:
REMARK  status: ('A' for Active; 'I' for Inactive)
REMARK    1  A    between atoms: C_2  and  O_3 
REMARK    2  A    between atoms: C_2  and  C_8 
REMARK    3  A    between atoms: O_3  and  C_4 
REMARK    4  A    between atoms: C_4  and  C_5 
REMARK       I    between atoms: C_8  and  N_10 
REMARK    5  A    between atoms: N_10  and  C_11 
ROOT
HETATM    1  C   UNL     1     -43.338 -47.532  11.933  1.00  0.00     0.250 C 
HETATM    2  O   UNL     1     -43.163 -48.744  11.818  1.00  0.00    -0.270 OA
HETATM    3  N   UNL     1     -43.925 -46.742  10.946  1.00  0.00    -0.325 N 
HETATM    4  H   UNL     1     -43.718 -45.756  10.960  1.00  0.00     0.169 HD
ENDROOT
BRANCH   1   5
HETATM    5  C   UNL     1     -42.893 -46.743  13.187  1.00  0.00     0.209 C 
HETATM    6  C   UNL     1     -41.610 -47.394  13.710  1.00  0.00     0.050 C 
BRANCH   5   7
HETATM    7  O   UNL     1     -42.612 -45.355  12.991  1.00  0.00    -0.376 OA
BRANCH   7   8
HETATM    8  C   UNL     1     -41.250 -45.078  12.690  1.00  0.00     0.173 C 
BRANCH   8   9
HETATM    9  C   UNL     1     -41.099 -44.711  11.251  1.00  0.00     0.009 A 
HETATM   10  C   UNL     1     -40.070 -45.443  10.423  1.00  0.00     0.007 A 
HETATM   11  C   UNL     1     -39.858 -43.997  10.769  1.00  0.00     0.007 A 
ENDBRANCH   8   9
ENDBRANCH   7   8
ENDBRANCH   5   7
ENDBRANCH   1   5
BRANCH   3  12
HETATM   12  C   UNL     1     -44.288 -47.289   9.702  1.00  0.00     0.037 A 
HETATM   13  C   UNL     1     -45.594 -47.685   9.452  1.00  0.00     0.046 A 
HETATM   14  C   UNL     1     -45.878 -48.246   8.221  1.00  0.00     0.090 A 
HETATM   15  N   UNL     1     -44.951 -48.447   7.259  1.00  0.00    -0.375 N 
HETATM   16  C   UNL     1     -43.689 -48.052   7.538  1.00  0.00     0.090 A 
ATOM     17  HN  UNL     1     -45.192 -48.876   6.366  1.00  0.00     0.164 HD
HETATM   18  C   UNL     1     -43.317 -47.434   8.718  1.00  0.00     0.046 A 
ENDBRANCH   3  12
TORSDOF 5
ENDMDL
