MODEL 1
REMARK VINA RESULT:      -6.5      0.000      0.000
REMARK  6 active torsions:
REMARK  status: ('A' for Active; 'I' for Inactive)
REMARK    1  A    between atoms: C_2  and  O_3 
REMARK    2  A    between atoms: C_2  and  C_4 
REMARK    3  A    between atoms: C_4  and  N_5 
REMARK    4  A    between atoms: N_5  and  C_6 
REMARK    5  A    between atoms: N_15  and  C_16 
REMARK    6  A    between atoms: C_16  and  C_17 
ROOT
HETATM    1  C   UNL     1     -41.706 -52.405  12.214  1.00  0.00     0.160 A 
HETATM    2  N   UNL     1     -40.827 -51.670  11.580  1.00  0.00    -0.331 N 
ATOM      3  HN  UNL     1     -39.979 -51.990  11.111  1.00  0.00     0.168 HD
HETATM    4  C   UNL     1     -41.283 -50.381  11.677  1.00  0.00     0.061 A 
HETATM    5  C   UNL     1     -40.743 -49.208  11.128  1.00  0.00     0.032 A 
HETATM    6  C   UNL     1     -41.393 -47.992  11.358  1.00  0.00     0.002 A 
HETATM    7  C   UNL     1     -42.558 -47.944  12.129  1.00  0.00     0.002 A 
HETATM    8  C   UNL     1     -43.111 -49.105  12.689  1.00  0.00     0.032 A 
HETATM    9  C   UNL     1     -42.449 -50.317  12.440  1.00  0.00     0.063 A 
HETATM   10  N   UNL     1     -42.679 -51.625  12.802  1.00  0.00    -0.319 N 
ENDROOT
BRANCH   1  11
HETATM   11  N   UNL     1     -41.707 -53.755  12.347  1.00  0.00    -0.261 NA
HETATM   12  H   UNL     1     -41.277 -54.246  11.564  1.00  0.00     0.130 HD
BRANCH  11  13
HETATM   13  C   UNL     1     -41.226 -54.280  13.630  1.00  0.00     0.126 C 
BRANCH  13  14
HETATM   14  C   UNL     1     -39.734 -53.945  13.850  1.00  0.00     0.127 C 
HETATM   15  C   UNL     1     -39.414 -53.851  15.335  1.00  0.00     0.040 C 
BRANCH  14  16
HETATM   16  O   UNL     1     -38.867 -54.937  13.299  1.00  0.00    -0.395 OA
HETATM   17  H   UNL     1     -38.268 -55.221  14.012  1.00  0.00     0.210 HD
ENDBRANCH  14  16
ENDBRANCH  13  14
ENDBRANCH  11  13
ENDBRANCH   1  11
BRANCH  10  18
HETATM   18  C   UNL     1     -43.746 -52.109  13.655  1.00  0.00     0.164 C 
BRANCH  18  19
HETATM   19  C   UNL     1     -44.996 -52.617  12.907  1.00  0.00     0.139 C 
HETATM   20  C   UNL     1     -46.349 -52.327  13.565  1.00  0.00     0.034 C 
HETATM   21  C   UNL     1     -46.585 -53.201  14.790  1.00  0.00     0.005 C 
HETATM   22  C   UNL     1     -46.387 -54.668  14.458  1.00  0.00     0.026 C 
HETATM   23  C   UNL     1     -45.043 -54.876  13.776  1.00  0.00     0.168 C 
HETATM   24  O   UNL     1     -44.888 -54.031  12.634  1.00  0.00    -0.384 OA
ENDBRANCH  18  19
ENDBRANCH  10  18
TORSDOF 6
ENDMDL
MODEL 2
REMARK VINA RESULT:      -6.4      4.038      5.996
REMARK  6 active torsions:
REMARK  status: ('A' for Active; 'I' for Inactive)
REMARK    1  A    between atoms: C_2  and  O_3 
REMARK    2  A    between atoms: C_2  and  C_4 
REMARK    3  A    between atoms: C_4  and  N_5 
REMARK    4  A    between atoms: N_5  and  C_6 
REMARK    5  A    between atoms: N_15  and  C_16 
REMARK    6  A    between atoms: C_16  and  C_17 
ROOT
HETATM    1  C   UNL     1     -41.107 -47.825  10.758  1.00  0.00     0.160 A 
HETATM    2  N   UNL     1     -40.028 -47.160  11.090  1.00  0.00    -0.331 N 
ATOM      3  HN  UNL     1     -39.096 -47.541  11.253  1.00  0.00     0.168 HD
HETATM    4  C   UNL     1     -40.414 -45.847  11.175  1.00  0.00     0.061 A 
HETATM    5  C   UNL     1     -39.634 -44.714  11.449  1.00  0.00     0.032 A 
HETATM    6  C   UNL     1     -40.252 -43.459  11.479  1.00  0.00     0.002 A 
HETATM    7  C   UNL     1     -41.625 -43.338  11.246  1.00  0.00     0.002 A 
HETATM    8  C   UNL     1     -42.420 -44.460  10.974  1.00  0.00     0.032 A 
HETATM    9  C   UNL     1     -41.781 -45.709  10.941  1.00  0.00     0.063 A 
HETATM   10  N   UNL     1     -42.209 -46.997  10.710  1.00  0.00    -0.319 N 
ENDROOT
BRANCH   1  11
HETATM   11  N   UNL     1     -41.211 -49.154  10.511  1.00  0.00    -0.261 NA
HETATM   12  H   UNL     1     -41.284 -49.384   9.521  1.00  0.00     0.130 HD
BRANCH  11  13
HETATM   13  C   UNL     1     -40.233 -50.017  11.185  1.00  0.00     0.126 C 
BRANCH  13  14
HETATM   14  C   UNL     1     -40.930 -51.168  11.943  1.00  0.00     0.127 C 
HETATM   15  C   UNL     1     -42.221 -50.688  12.588  1.00  0.00     0.040 C 
BRANCH  14  16
HETATM   16  O   UNL     1     -41.272 -52.256  11.084  1.00  0.00    -0.395 OA
HETATM   17  H   UNL     1     -41.235 -51.922  10.170  1.00  0.00     0.210 HD
ENDBRANCH  14  16
ENDBRANCH  13  14
ENDBRANCH  11  13
ENDBRANCH   1  11
BRANCH  10  18
HETATM   18  C   UNL     1     -43.573 -47.423  10.467  1.00  0.00     0.164 C 
BRANCH  18  19
HETATM   19  C   UNL     1     -44.294 -46.673   9.327  1.00  0.00     0.139 C 
HETATM   20  C   UNL     1     -45.787 -46.969   9.155  1.00  0.00     0.034 C 
HETATM   21  C   UNL     1     -46.029 -48.349   8.557  1.00  0.00     0.005 C 
HETATM   22  C   UNL     1     -45.235 -48.534   7.278  1.00  0.00     0.026 C 
HETATM   23  C   UNL     1     -43.772 -48.189   7.513  1.00  0.00     0.168 C 
HETATM   24  O   UNL     1     -43.615 -46.882   8.070  1.00  0.00    -0.384 OA
ENDBRANCH  18  19
ENDBRANCH  10  18
TORSDOF 6
ENDMDL
MODEL 3
REMARK VINA RESULT:      -6.3      2.251      5.468
REMARK  6 active torsions:
REMARK  status: ('A' for Active; 'I' for Inactive)
REMARK    1  A    between atoms: C_2  and  O_3 
REMARK    2  A    between atoms: C_2  and  C_4 
REMARK    3  A    between atoms: C_4  and  N_5 
REMARK    4  A    between atoms: N_5  and  C_6 
REMARK    5  A    between atoms: N_15  and  C_16 
REMARK    6  A    between atoms: C_16  and  C_17 
ROOT
HETATM    1  C   UNL     1     -41.457 -52.654  12.340  1.00  0.00     0.160 A 
HETATM    2  N   UNL     1     -42.625 -52.161  12.011  1.00  0.00    -0.331 N 
ATOM      3  HN  UNL     1     -42.807 -51.361  11.405  1.00  0.00     0.168 HD
HETATM    4  C   UNL     1     -43.551 -52.945  12.649  1.00  0.00     0.061 A 
HETATM    5  C   UNL     1     -44.951 -52.881  12.594  1.00  0.00     0.032 A 
HETATM    6  C   UNL     1     -45.700 -53.800  13.336  1.00  0.00     0.002 A 
HETATM    7  C   UNL     1     -45.063 -54.763  14.124  1.00  0.00     0.002 A 
HETATM    8  C   UNL     1     -43.665 -54.840  14.194  1.00  0.00     0.032 A 
HETATM    9  C   UNL     1     -42.930 -53.914  13.437  1.00  0.00     0.063 A 
HETATM   10  N   UNL     1     -41.587 -53.683  13.249  1.00  0.00    -0.319 N 
ENDROOT
BRANCH   1  11
HETATM   11  N   UNL     1     -40.239 -52.239  11.913  1.00  0.00    -0.261 NA
HETATM   12  H   UNL     1     -40.172 -52.129  10.902  1.00  0.00     0.130 HD
BRANCH  11  13
HETATM   13  C   UNL     1     -39.667 -51.081  12.611  1.00  0.00     0.126 C 
BRANCH  13  14
HETATM   14  C   UNL     1     -39.394 -49.916  11.635  1.00  0.00     0.127 C 
HETATM   15  C   UNL     1     -37.909 -49.809  11.322  1.00  0.00     0.040 C 
BRANCH  14  16
HETATM   16  O   UNL     1     -40.071 -50.080  10.389  1.00  0.00    -0.395 OA
HETATM   17  H   UNL     1     -40.755 -50.761  10.522  1.00  0.00     0.210 HD
ENDBRANCH  14  16
ENDBRANCH  13  14
ENDBRANCH  11  13
ENDBRANCH   1  11
BRANCH  10  18
HETATM   18  C   UNL     1     -40.493 -54.384  13.891  1.00  0.00     0.164 C 
BRANCH  18  19
HETATM   19  C   UNL     1     -40.164 -53.905  15.321  1.00  0.00     0.139 C 
HETATM   20  C   UNL     1     -38.705 -54.046  15.768  1.00  0.00     0.034 C 
HETATM   21  C   UNL     1     -38.334 -55.497  16.045  1.00  0.00     0.005 C 
HETATM   22  C   UNL     1     -39.316 -56.136  17.008  1.00  0.00     0.026 C 
HETATM   23  C   UNL     1     -40.741 -55.926  16.521  1.00  0.00     0.168 C 
HETATM   24  O   UNL     1     -41.026 -54.545  16.285  1.00  0.00    -0.384 OA
ENDBRANCH  18  19
ENDBRANCH  10  18
TORSDOF 6
ENDMDL
MODEL 4
REMARK VINA RESULT:      -6.3      1.626      4.210
REMARK  6 active torsions:
REMARK  status: ('A' for Active; 'I' for Inactive)
REMARK    1  A    between atoms: C_2  and  O_3 
REMARK    2  A    between atoms: C_2  and  C_4 
REMARK    3  A    between atoms: C_4  and  N_5 
REMARK    4  A    between atoms: N_5  and  C_6 
REMARK    5  A    between atoms: N_15  and  C_16 
REMARK    6  A    between atoms: C_16  and  C_17 
ROOT
HETATM    1  C   UNL     1     -41.720 -51.935  12.641  1.00  0.00     0.160 A 
HETATM    2  N   UNL     1     -40.537 -52.484  12.521  1.00  0.00    -0.331 N 
ATOM      3  HN  UNL     1     -39.842 -52.297  11.797  1.00  0.00     0.168 HD
HETATM    4  C   UNL     1     -40.428 -53.362  13.568  1.00  0.00     0.061 A 
HETATM    5  C   UNL     1     -39.340 -54.169  13.934  1.00  0.00     0.032 A 
HETATM    6  C   UNL     1     -39.458 -54.991  15.060  1.00  0.00     0.002 A 
HETATM    7  C   UNL     1     -40.641 -55.013  15.803  1.00  0.00     0.002 A 
HETATM    8  C   UNL     1     -41.739 -54.215  15.450  1.00  0.00     0.032 A 
HETATM    9  C   UNL     1     -41.600 -53.392  14.322  1.00  0.00     0.063 A 
HETATM   10  N   UNL     1     -42.426 -52.493  13.686  1.00  0.00    -0.319 N 
ENDROOT
BRANCH   1  11
HETATM   11  N   UNL     1     -42.261 -50.967  11.861  1.00  0.00    -0.261 NA
HETATM   12  H   UNL     1     -43.269 -51.050  11.742  1.00  0.00     0.130 HD
BRANCH  11  13
HETATM   13  C   UNL     1     -41.877 -49.587  12.181  1.00  0.00     0.126 C 
BRANCH  13  14
HETATM   14  C   UNL     1     -40.773 -49.076  11.229  1.00  0.00     0.127 C 
HETATM   15  C   UNL     1     -39.502 -48.751  12.000  1.00  0.00     0.040 C 
BRANCH  14  16
HETATM   16  O   UNL     1     -40.422 -50.041  10.236  1.00  0.00    -0.395 OA
HETATM   17  H   UNL     1     -39.451 -50.032  10.159  1.00  0.00     0.210 HD
ENDBRANCH  14  16
ENDBRANCH  13  14
ENDBRANCH  11  13
ENDBRANCH   1  11
BRANCH  10  18
HETATM   18  C   UNL     1     -43.798 -52.185  14.036  1.00  0.00     0.164 C 
BRANCH  18  19
HETATM   19  C   UNL     1     -44.859 -52.757  13.072  1.00  0.00     0.139 C 
HETATM   20  C   UNL     1     -46.322 -52.462  13.417  1.00  0.00     0.034 C 
HETATM   21  C   UNL     1     -46.801 -53.277  14.610  1.00  0.00     0.005 C 
HETATM   22  C   UNL     1     -46.524 -54.754  14.407  1.00  0.00     0.026 C 
HETATM   23  C   UNL     1     -45.065 -54.969  14.034  1.00  0.00     0.168 C 
HETATM   24  O   UNL     1     -44.682 -54.179  12.905  1.00  0.00    -0.384 OA
ENDBRANCH  18  19
ENDBRANCH  10  18
TORSDOF 6
ENDMDL
MODEL 5
REMARK VINA RESULT:      -6.2      5.616      8.523
REMARK  6 active torsions:
REMARK  status: ('A' for Active; 'I' for Inactive)
REMARK    1  A    between atoms: C_2  and  O_3 
REMARK    2  A    between atoms: C_2  and  C_4 
REMARK    3  A    between atoms: C_4  and  N_5 
REMARK    4  A    between atoms: N_5  and  C_6 
REMARK    5  A    between atoms: N_15  and  C_16 
REMARK    6  A    between atoms: C_16  and  C_17 
ROOT
HETATM    1  C   UNL     1     -41.445 -47.872  10.487  1.00  0.00     0.160 A 
HETATM    2  N   UNL     1     -41.097 -49.134  10.504  1.00  0.00    -0.331 N 
ATOM      3  HN  UNL     1     -41.472 -49.885   9.923  1.00  0.00     0.168 HD
HETATM    4  C   UNL     1     -40.124 -49.237  11.464  1.00  0.00     0.061 A 
HETATM    5  C   UNL     1     -39.377 -50.361  11.848  1.00  0.00     0.032 A 
HETATM    6  C   UNL     1     -38.423 -50.224  12.862  1.00  0.00     0.002 A 
HETATM    7  C   UNL     1     -38.221 -48.989  13.485  1.00  0.00     0.002 A 
HETATM    8  C   UNL     1     -38.959 -47.855  13.116  1.00  0.00     0.032 A 
HETATM    9  C   UNL     1     -39.907 -48.011  12.093  1.00  0.00     0.063 A 
HETATM   10  N   UNL     1     -40.792 -47.160  11.471  1.00  0.00    -0.319 N 
ENDROOT
BRANCH   1  11
HETATM   11  N   UNL     1     -42.345 -47.277   9.664  1.00  0.00    -0.261 NA
HETATM   12  H   UNL     1     -42.208 -47.495   8.678  1.00  0.00     0.130 HD
BRANCH  11  13
HETATM   13  C   UNL     1     -43.756 -47.409  10.045  1.00  0.00     0.126 C 
BRANCH  13  14
HETATM   14  C   UNL     1     -44.686 -46.807   8.969  1.00  0.00     0.127 C 
HETATM   15  C   UNL     1     -46.086 -47.394   9.073  1.00  0.00     0.040 C 
BRANCH  14  16
HETATM   16  O   UNL     1     -44.819 -45.391   9.094  1.00  0.00    -0.395 OA
HETATM   17  H   UNL     1     -45.758 -45.206   9.273  1.00  0.00     0.210 HD
ENDBRANCH  14  16
ENDBRANCH  13  14
ENDBRANCH  11  13
ENDBRANCH   1  11
BRANCH  10  18
HETATM   18  C   UNL     1     -41.015 -45.763  11.790  1.00  0.00     0.164 C 
BRANCH  18  19
HETATM   19  C   UNL     1     -39.882 -44.810  11.358  1.00  0.00     0.139 C 
HETATM   20  C   UNL     1     -39.056 -44.178  12.484  1.00  0.00     0.034 C 
HETATM   21  C   UNL     1     -39.836 -43.102  13.226  1.00  0.00     0.005 C 
HETATM   22  C   UNL     1     -40.406 -42.079  12.261  1.00  0.00     0.026 C 
HETATM   23  C   UNL     1     -41.180 -42.777  11.153  1.00  0.00     0.168 C 
HETATM   24  O   UNL     1     -40.391 -43.770  10.495  1.00  0.00    -0.384 OA
ENDBRANCH  18  19
ENDBRANCH  10  18
TORSDOF 6
ENDMDL
MODEL 6
REMARK VINA RESULT:      -6.2      3.039      5.135
REMARK  6 active torsions:
REMARK  status: ('A' for Active; 'I' for Inactive)
REMARK    1  A    between atoms: C_2  and  O_3 
REMARK    2  A    between atoms: C_2  and  C_4 
REMARK    3  A    between atoms: C_4  and  N_5 
REMARK    4  A    between atoms: N_5  and  C_6 
REMARK    5  A    between atoms: N_15  and  C_16 
REMARK    6  A    between atoms: C_16  and  C_17 
ROOT
HETATM    1  C   UNL     1     -41.453 -49.406  11.415  1.00  0.00     0.160 A 
HETATM    2  N   UNL     1     -40.297 -49.003  10.950  1.00  0.00    -0.331 N 
ATOM      3  HN  UNL     1     -40.135 -48.302  10.227  1.00  0.00     0.168 HD
HETATM    4  C   UNL     1     -39.352 -49.718  11.638  1.00  0.00     0.061 A 
HETATM    5  C   UNL     1     -37.953 -49.635  11.563  1.00  0.00     0.032 A 
HETATM    6  C   UNL     1     -37.181 -50.472  12.375  1.00  0.00     0.002 A 
HETATM    7  C   UNL     1     -37.794 -51.381  13.243  1.00  0.00     0.002 A 
HETATM    8  C   UNL     1     -39.190 -51.480  13.330  1.00  0.00     0.032 A 
HETATM    9  C   UNL     1     -39.947 -50.627  12.512  1.00  0.00     0.063 A 
HETATM   10  N   UNL     1     -41.296 -50.431  12.324  1.00  0.00    -0.319 N 
ENDROOT
BRANCH   1  11
HETATM   11  N   UNL     1     -42.683 -48.950  11.070  1.00  0.00    -0.261 NA
HETATM   12  H   UNL     1     -43.409 -49.170  11.750  1.00  0.00     0.130 HD
BRANCH  11  13
HETATM   13  C   UNL     1     -42.759 -47.546  10.650  1.00  0.00     0.126 C 
BRANCH  13  14
HETATM   14  C   UNL     1     -43.207 -47.424   9.177  1.00  0.00     0.127 C 
HETATM   15  C   UNL     1     -44.724 -47.413   9.072  1.00  0.00     0.040 C 
BRANCH  14  16
HETATM   16  O   UNL     1     -42.738 -46.222   8.564  1.00  0.00    -0.395 OA
HETATM   17  H   UNL     1     -42.439 -46.457   7.667  1.00  0.00     0.210 HD
ENDBRANCH  14  16
ENDBRANCH  13  14
ENDBRANCH  11  13
ENDBRANCH   1  11
BRANCH  10  18
HETATM   18  C   UNL     1     -42.372 -51.170  12.956  1.00  0.00     0.164 C 
BRANCH  18  19
HETATM   19  C   UNL     1     -42.691 -52.534  12.309  1.00  0.00     0.139 C 
HETATM   20  C   UNL     1     -44.125 -53.047  12.475  1.00  0.00     0.034 C 
HETATM   21  C   UNL     1     -44.398 -53.526  13.894  1.00  0.00     0.005 C 
HETATM   22  C   UNL     1     -43.352 -54.529  14.341  1.00  0.00     0.026 C 
HETATM   23  C   UNL     1     -41.956 -53.969  14.115  1.00  0.00     0.168 C 
HETATM   24  O   UNL     1     -41.764 -53.543  12.764  1.00  0.00    -0.384 OA
ENDBRANCH  18  19
ENDBRANCH  10  18
TORSDOF 6
ENDMDL
MODEL 7
REMARK VINA RESULT:      -6.1      3.208      5.922
REMARK  6 active torsions:
REMARK  status: ('A' for Active; 'I' for Inactive)
REMARK    1  A    between atoms: C_2  and  O_3 
REMARK    2  A    between atoms: C_2  and  C_4 
REMARK    3  A    between atoms: C_4  and  N_5 
REMARK    4  A    between atoms: N_5  and  C_6 
REMARK    5  A    between atoms: N_15  and  C_16 
REMARK    6  A    between atoms: C_16  and  C_17 
ROOT
HETATM    1  C   UNL     1     -40.685 -49.354  11.100  1.00  0.00     0.160 A 
HETATM    2  N   UNL     1     -41.551 -48.708  10.358  1.00  0.00    -0.331 N 
ATOM      3  HN  UNL     1     -42.221 -49.110   9.702  1.00  0.00     0.168 HD
HETATM    4  C   UNL     1     -41.368 -47.380  10.647  1.00  0.00     0.061 A 
HETATM    5  C   UNL     1     -42.073 -46.266  10.167  1.00  0.00     0.032 A 
HETATM    6  C   UNL     1     -41.708 -44.992  10.612  1.00  0.00     0.002 A 
HETATM    7  C   UNL     1     -40.654 -44.830  11.516  1.00  0.00     0.002 A 
HETATM    8  C   UNL     1     -39.937 -45.931  12.006  1.00  0.00     0.032 A 
HETATM    9  C   UNL     1     -40.322 -47.203  11.553  1.00  0.00     0.063 A 
HETATM   10  N   UNL     1     -39.878 -48.482  11.800  1.00  0.00    -0.319 N 
ENDROOT
BRANCH   1  11
HETATM   11  N   UNL     1     -40.522 -50.696  11.192  1.00  0.00    -0.261 NA
HETATM   12  H   UNL     1     -39.552 -50.986  11.309  1.00  0.00     0.130 HD
BRANCH  11  13
HETATM   13  C   UNL     1     -41.400 -51.392  12.140  1.00  0.00     0.126 C 
BRANCH  13  14
HETATM   14  C   UNL     1     -40.900 -52.826  12.420  1.00  0.00     0.127 C 
HETATM   15  C   UNL     1     -41.983 -53.656  13.093  1.00  0.00     0.040 C 
BRANCH  14  16
HETATM   16  O   UNL     1     -40.529 -53.516  11.226  1.00  0.00    -0.395 OA
HETATM   17  H   UNL     1     -41.126 -54.281  11.140  1.00  0.00     0.210 HD
ENDBRANCH  14  16
ENDBRANCH  13  14
ENDBRANCH  11  13
ENDBRANCH   1  11
BRANCH  10  18
HETATM   18  C   UNL     1     -38.758 -48.859  12.638  1.00  0.00     0.164 C 
BRANCH  18  19
HETATM   19  C   UNL     1     -39.038 -48.817  14.155  1.00  0.00     0.139 C 
HETATM   20  C   UNL     1     -38.409 -47.655  14.932  1.00  0.00     0.034 C 
HETATM   21  C   UNL     1     -36.906 -47.830  15.097  1.00  0.00     0.005 C 
HETATM   22  C   UNL     1     -36.577 -49.188  15.689  1.00  0.00     0.026 C 
HETATM   23  C   UNL     1     -37.262 -50.287  14.891  1.00  0.00     0.168 C 
HETATM   24  O   UNL     1     -38.670 -50.066  14.777  1.00  0.00    -0.384 OA
ENDBRANCH  18  19
ENDBRANCH  10  18
TORSDOF 6
ENDMDL
MODEL 8
REMARK VINA RESULT:      -6.1      1.955      5.189
REMARK  6 active torsions:
REMARK  status: ('A' for Active; 'I' for Inactive)
REMARK    1  A    between atoms: C_2  and  O_3 
REMARK    2  A    between atoms: C_2  and  C_4 
REMARK    3  A    between atoms: C_4  and  N_5 
REMARK    4  A    between atoms: N_5  and  C_6 
REMARK    5  A    between atoms: N_15  and  C_16 
REMARK    6  A    between atoms: C_16  and  C_17 
ROOT
HETATM    1  C   UNL     1     -43.405 -51.338  12.948  1.00  0.00     0.160 A 
HETATM    2  N   UNL     1     -44.641 -50.911  12.868  1.00  0.00    -0.331 N 
ATOM      3  HN  UNL     1     -45.034 -50.294  12.157  1.00  0.00     0.168 HD
HETATM    4  C   UNL     1     -45.295 -51.466  13.937  1.00  0.00     0.061 A 
HETATM    5  C   UNL     1     -46.650 -51.372  14.290  1.00  0.00     0.032 A 
HETATM    6  C   UNL     1     -47.097 -52.037  15.437  1.00  0.00     0.002 A 
HETATM    7  C   UNL     1     -46.208 -52.776  16.221  1.00  0.00     0.002 A 
HETATM    8  C   UNL     1     -44.850 -52.879  15.886  1.00  0.00     0.032 A 
HETATM    9  C   UNL     1     -44.421 -52.212  14.728  1.00  0.00     0.063 A 
HETATM   10  N   UNL     1     -43.208 -52.084  14.091  1.00  0.00    -0.319 N 
ENDROOT
BRANCH   1  11
HETATM   11  N   UNL     1     -42.392 -51.092  12.082  1.00  0.00    -0.261 NA
HETATM   12  H   UNL     1     -42.586 -51.386  11.126  1.00  0.00     0.130 HD
BRANCH  11  13
HETATM   13  C   UNL     1     -41.825 -49.738  12.115  1.00  0.00     0.126 C 
BRANCH  13  14
HETATM   14  C   UNL     1     -40.373 -49.724  11.589  1.00  0.00     0.127 C 
HETATM   15  C   UNL     1     -39.532 -50.776  12.295  1.00  0.00     0.040 C 
BRANCH  14  16
HETATM   16  O   UNL     1     -40.299 -50.002  10.190  1.00  0.00    -0.395 OA
HETATM   17  H   UNL     1     -40.300 -50.971  10.090  1.00  0.00     0.210 HD
ENDBRANCH  14  16
ENDBRANCH  13  14
ENDBRANCH  11  13
ENDBRANCH   1  11
BRANCH  10  18
HETATM   18  C   UNL     1     -41.939 -52.626  14.536  1.00  0.00     0.164 C 
BRANCH  18  19
HETATM   19  C   UNL     1     -41.739 -54.129  14.250  1.00  0.00     0.139 C 
HETATM   20  C   UNL     1     -41.653 -55.050  15.472  1.00  0.00     0.034 C 
HETATM   21  C   UNL     1     -40.330 -54.895  16.209  1.00  0.00     0.005 C 
HETATM   22  C   UNL     1     -39.157 -55.055  15.261  1.00  0.00     0.026 C 
HETATM   23  C   UNL     1     -39.325 -54.141  14.057  1.00  0.00     0.168 C 
HETATM   24  O   UNL     1     -40.584 -54.339  13.409  1.00  0.00    -0.384 OA
ENDBRANCH  18  19
ENDBRANCH  10  18
TORSDOF 6
ENDMDL
MODEL 9
REMARK VINA RESULT:      -6.0      2.085      4.407
REMARK  6 active torsions:
REMARK  status: ('A' for Active; 'I' for Inactive)
REMARK    1  A    between atoms: C_2  and  O_3 
REMARK    2  A    between atoms: C_2  and  C_4 
REMARK    3  A    between atoms: C_4  and  N_5 
REMARK    4  A    between atoms: N_5  and  C_6 
REMARK    5  A    between atoms: N_15  and  C_16 
REMARK    6  A    between atoms: C_16  and  C_17 
ROOT
HETATM    1  C   UNL     1     -41.835 -52.052  12.192  1.00  0.00     0.160 A 
HETATM    2  N   UNL     1     -41.527 -50.986  11.495  1.00  0.00    -0.331 N 
ATOM      3  HN  UNL     1     -42.103 -50.522  10.793  1.00  0.00     0.168 HD
HETATM    4  C   UNL     1     -40.270 -50.625  11.907  1.00  0.00     0.061 A 
HETATM    5  C   UNL     1     -39.494 -49.524  11.515  1.00  0.00     0.032 A 
HETATM    6  C   UNL     1     -38.227 -49.354  12.081  1.00  0.00     0.002 A 
HETATM    7  C   UNL     1     -37.738 -50.271  13.016  1.00  0.00     0.002 A 
HETATM    8  C   UNL     1     -38.498 -51.379  13.418  1.00  0.00     0.032 A 
HETATM    9  C   UNL     1     -39.770 -51.528  12.844  1.00  0.00     0.063 A 
HETATM   10  N   UNL     1     -40.779 -52.453  12.984  1.00  0.00    -0.319 N 
ENDROOT
BRANCH   1  11
HETATM   11  N   UNL     1     -43.001 -52.743  12.166  1.00  0.00    -0.261 NA
HETATM   12  H   UNL     1     -42.905 -53.722  12.430  1.00  0.00     0.130 HD
BRANCH  11  13
HETATM   13  C   UNL     1     -44.140 -52.118  12.850  1.00  0.00     0.126 C 
BRANCH  13  14
HETATM   14  C   UNL     1     -45.390 -53.024  12.801  1.00  0.00     0.127 C 
HETATM   15  C   UNL     1     -46.206 -52.889  14.078  1.00  0.00     0.040 C 
BRANCH  14  16
HETATM   16  O   UNL     1     -46.257 -52.697  11.715  1.00  0.00    -0.395 OA
HETATM   17  H   UNL     1     -46.474 -51.751  11.797  1.00  0.00     0.210 HD
ENDBRANCH  14  16
ENDBRANCH  13  14
ENDBRANCH  11  13
ENDBRANCH   1  11
BRANCH  10  18
HETATM   18  C   UNL     1     -40.749 -53.646  13.806  1.00  0.00     0.164 C 
BRANCH  18  19
HETATM   19  C   UNL     1     -41.272 -53.457  15.245  1.00  0.00     0.139 C 
HETATM   20  C   UNL     1     -40.502 -54.186  16.351  1.00  0.00     0.034 C 
HETATM   21  C   UNL     1     -40.762 -55.686  16.331  1.00  0.00     0.005 C 
HETATM   22  C   UNL     1     -42.249 -55.981  16.349  1.00  0.00     0.026 C 
HETATM   23  C   UNL     1     -42.953 -55.198  15.251  1.00  0.00     0.168 C 
HETATM   24  O   UNL     1     -42.671 -53.799  15.329  1.00  0.00    -0.384 OA
ENDBRANCH  18  19
ENDBRANCH  10  18
TORSDOF 6
ENDMDL
