MODEL 1
REMARK VINA RESULT:      -4.8      0.000      0.000
REMARK  4 active torsions:
REMARK  status: ('A' for Active; 'I' for Inactive)
REMARK    1  A    between atoms: C_2  and  C_3 
REMARK    2  A    between atoms: C_2  and  N_10 
REMARK    3  A    between atoms: C_3  and  N_4 
REMARK       I    between atoms: N_10  and  C_11 
REMARK    4  A    between atoms: C_11  and  C_13 
ROOT
HETATM    1  C   UNL     1     -42.432 -47.900  12.457  1.00  0.00     0.034 C 
HETATM    2  C   UNL     1     -41.878 -48.261  11.077  1.00  0.00     0.098 C 
ENDROOT
BRANCH   2   3
HETATM    3  C   UNL     1     -42.278 -47.187  10.051  1.00  0.00     0.153 C 
BRANCH   3   4
HETATM    4  N   UNL     1     -43.485 -47.512   9.319  1.00  0.00    -0.350 N 
HETATM    5  C   UNL     1     -44.764 -47.483   9.800  1.00  0.00     0.108 A 
HETATM    6  C   UNL     1     -45.553 -47.830   8.728  1.00  0.00     0.106 A 
HETATM    7  N   UNL     1     -44.788 -48.053   7.611  1.00  0.00    -0.361 N 
HETATM    8  C   UNL     1     -43.550 -47.848   7.996  1.00  0.00     0.182 A 
ATOM      9  HN  UNL     1     -45.111 -48.321   6.682  1.00  0.00     0.166 HD
ENDBRANCH   3   4
ENDBRANCH   2   3
BRANCH   2  10
HETATM   10  N   UNL     1     -40.430 -48.434  11.166  1.00  0.00    -0.355 N 
HETATM   11  C   UNL     1     -39.869 -49.658  11.443  1.00  0.00     0.222 C 
HETATM   12  O   UNL     1     -40.520 -50.676  11.633  1.00  0.00    -0.273 OA
HETATM   13  H   UNL     1     -39.829 -47.625  11.122  1.00  0.00     0.162 HD
BRANCH  11  14
HETATM   14  C   UNL     1     -38.382 -49.723  11.497  1.00  0.00     0.078 A 
HETATM   15  C   UNL     1     -37.564 -50.737  12.258  1.00  0.00     0.015 A 
HETATM   16  C   UNL     1     -37.672 -49.332  12.774  1.00  0.00     0.015 A 
ENDBRANCH  11  14
ENDBRANCH   2  10
TORSDOF 4
ENDMDL
MODEL 2
REMARK VINA RESULT:      -4.5      2.756      6.055
REMARK  4 active torsions:
REMARK  status: ('A' for Active; 'I' for Inactive)
REMARK    1  A    between atoms: C_2  and  C_3 
REMARK    2  A    between atoms: C_2  and  N_10 
REMARK    3  A    between atoms: C_3  and  N_4 
REMARK       I    between atoms: N_10  and  C_11 
REMARK    4  A    between atoms: C_11  and  C_13 
ROOT
HETATM    1  C   UNL     1     -42.995 -43.414  10.875  1.00  0.00     0.034 C 
HETATM    2  C   UNL     1     -42.368 -44.808  10.830  1.00  0.00     0.098 C 
ENDROOT
BRANCH   2   3
HETATM    3  C   UNL     1     -41.473 -45.025  12.062  1.00  0.00     0.153 C 
BRANCH   3   4
HETATM    4  N   UNL     1     -40.770 -46.292  12.048  1.00  0.00    -0.350 N 
HETATM    5  C   UNL     1     -40.840 -47.275  12.995  1.00  0.00     0.108 A 
HETATM    6  C   UNL     1     -40.034 -48.282  12.518  1.00  0.00     0.106 A 
HETATM    7  N   UNL     1     -39.492 -47.941  11.304  1.00  0.00    -0.361 N 
HETATM    8  C   UNL     1     -39.959 -46.741  11.045  1.00  0.00     0.182 A 
ATOM      9  HN  UNL     1     -38.863 -48.499  10.727  1.00  0.00     0.166 HD
ENDBRANCH   3   4
ENDBRANCH   2   3
BRANCH   2  10
HETATM   10  N   UNL     1     -43.424 -45.812  10.727  1.00  0.00    -0.355 N 
HETATM   11  C   UNL     1     -43.799 -46.337   9.513  1.00  0.00     0.222 C 
HETATM   12  O   UNL     1     -43.292 -46.014   8.447  1.00  0.00    -0.273 OA
HETATM   13  H   UNL     1     -43.960 -46.056  11.546  1.00  0.00     0.162 HD
BRANCH  11  14
HETATM   14  C   UNL     1     -44.879 -47.363   9.525  1.00  0.00     0.078 A 
HETATM   15  C   UNL     1     -45.506 -48.008   8.313  1.00  0.00     0.015 A 
HETATM   16  C   UNL     1     -46.273 -46.974   9.085  1.00  0.00     0.015 A 
ENDBRANCH  11  14
ENDBRANCH   2  10
TORSDOF 4
ENDMDL
MODEL 3
REMARK VINA RESULT:      -4.5      2.814      5.693
REMARK  4 active torsions:
REMARK  status: ('A' for Active; 'I' for Inactive)
REMARK    1  A    between atoms: C_2  and  C_3 
REMARK    2  A    between atoms: C_2  and  N_10 
REMARK    3  A    between atoms: C_3  and  N_4 
REMARK       I    between atoms: N_10  and  C_11 
REMARK    4  A    between atoms: C_11  and  C_13 
ROOT
HETATM    1  C   UNL     1     -42.775 -47.864  13.635  1.00  0.00     0.034 C 
HETATM    2  C   UNL     1     -42.778 -48.861  12.476  1.00  0.00     0.098 C 
ENDROOT
BRANCH   2   3
HETATM    3  C   UNL     1     -43.424 -50.185  12.919  1.00  0.00     0.153 C 
BRANCH   3   4
HETATM    4  N   UNL     1     -42.624 -51.350  12.601  1.00  0.00    -0.350 N 
HETATM    5  C   UNL     1     -41.317 -51.358  12.200  1.00  0.00     0.108 A 
HETATM    6  C   UNL     1     -40.999 -52.690  12.061  1.00  0.00     0.106 A 
HETATM    7  N   UNL     1     -42.071 -53.484  12.381  1.00  0.00    -0.361 N 
HETATM    8  C   UNL     1     -43.031 -52.650  12.708  1.00  0.00     0.182 A 
ATOM      9  HN  UNL     1     -42.114 -54.503  12.367  1.00  0.00     0.166 HD
ENDBRANCH   3   4
ENDBRANCH   2   3
BRANCH   2  10
HETATM   10  N   UNL     1     -43.459 -48.268  11.327  1.00  0.00    -0.355 N 
HETATM   11  C   UNL     1     -42.758 -47.683  10.300  1.00  0.00     0.222 C 
HETATM   12  O   UNL     1     -41.537 -47.613  10.265  1.00  0.00    -0.273 OA
HETATM   13  H   UNL     1     -44.465 -48.195  11.329  1.00  0.00     0.162 HD
BRANCH  11  14
HETATM   14  C   UNL     1     -43.553 -47.120   9.173  1.00  0.00     0.078 A 
HETATM   15  C   UNL     1     -44.852 -47.671   8.640  1.00  0.00     0.015 A 
HETATM   16  C   UNL     1     -43.588 -47.858   7.854  1.00  0.00     0.015 A 
ENDBRANCH  11  14
ENDBRANCH   2  10
TORSDOF 4
ENDMDL
MODEL 4
REMARK VINA RESULT:      -4.5      4.887      7.230
REMARK  4 active torsions:
REMARK  status: ('A' for Active; 'I' for Inactive)
REMARK    1  A    between atoms: C_2  and  C_3 
REMARK    2  A    between atoms: C_2  and  N_10 
REMARK    3  A    between atoms: C_3  and  N_4 
REMARK       I    between atoms: N_10  and  C_11 
REMARK    4  A    between atoms: C_11  and  C_13 
ROOT
HETATM    1  C   UNL     1     -43.021 -49.152  12.531  1.00  0.00     0.034 C 
HETATM    2  C   UNL     1     -43.209 -50.603  12.974  1.00  0.00     0.098 C 
ENDROOT
BRANCH   2   3
HETATM    3  C   UNL     1     -42.039 -51.037  13.873  1.00  0.00     0.153 C 
BRANCH   3   4
HETATM    4  N   UNL     1     -41.426 -52.283  13.459  1.00  0.00    -0.350 N 
HETATM    5  C   UNL     1     -40.786 -53.184  14.264  1.00  0.00     0.108 A 
HETATM    6  C   UNL     1     -40.417 -54.208  13.423  1.00  0.00     0.106 A 
HETATM    7  N   UNL     1     -40.829 -53.957  12.138  1.00  0.00    -0.361 N 
HETATM    8  C   UNL     1     -41.438 -52.795  12.193  1.00  0.00     0.182 A 
ATOM      9  HN  UNL     1     -40.691 -54.546  11.316  1.00  0.00     0.166 HD
ENDBRANCH   3   4
ENDBRANCH   2   3
BRANCH   2  10
HETATM   10  N   UNL     1     -44.503 -50.743  13.639  1.00  0.00    -0.355 N 
HETATM   11  C   UNL     1     -45.389 -51.733  13.283  1.00  0.00     0.222 C 
HETATM   12  O   UNL     1     -45.172 -52.555  12.403  1.00  0.00    -0.273 OA
HETATM   13  H   UNL     1     -44.798 -50.045  14.303  1.00  0.00     0.162 HD
BRANCH  11  14
HETATM   14  C   UNL     1     -46.673 -51.791  14.035  1.00  0.00     0.078 A 
HETATM   15  C   UNL     1     -46.893 -51.334  15.456  1.00  0.00     0.015 A 
HETATM   16  C   UNL     1     -46.831 -52.801  15.149  1.00  0.00     0.015 A 
ENDBRANCH  11  14
ENDBRANCH   2  10
TORSDOF 4
ENDMDL
MODEL 5
REMARK VINA RESULT:      -4.4      3.258      5.019
REMARK  4 active torsions:
REMARK  status: ('A' for Active; 'I' for Inactive)
REMARK    1  A    between atoms: C_2  and  C_3 
REMARK    2  A    between atoms: C_2  and  N_10 
REMARK    3  A    between atoms: C_3  and  N_4 
REMARK       I    between atoms: N_10  and  C_11 
REMARK    4  A    between atoms: C_11  and  C_13 
ROOT
HETATM    1  C   UNL     1     -37.473 -50.084  11.378  1.00  0.00     0.034 C 
HETATM    2  C   UNL     1     -38.975 -49.888  11.590  1.00  0.00     0.098 C 
ENDROOT
BRANCH   2   3
HETATM    3  C   UNL     1     -39.445 -50.694  12.812  1.00  0.00     0.153 C 
BRANCH   3   4
HETATM    4  N   UNL     1     -40.768 -51.263  12.651  1.00  0.00    -0.350 N 
HETATM    5  C   UNL     1     -41.893 -50.925  13.352  1.00  0.00     0.108 A 
HETATM    6  C   UNL     1     -42.891 -51.705  12.815  1.00  0.00     0.106 A 
HETATM    7  N   UNL     1     -42.404 -52.492  11.802  1.00  0.00    -0.361 N 
HETATM    8  C   UNL     1     -41.126 -52.199  11.723  1.00  0.00     0.182 A 
ATOM      9  HN  UNL     1     -42.922 -53.161  11.233  1.00  0.00     0.166 HD
ENDBRANCH   3   4
ENDBRANCH   2   3
BRANCH   2  10
HETATM   10  N   UNL     1     -39.265 -48.462  11.719  1.00  0.00    -0.355 N 
HETATM   11  C   UNL     1     -40.422 -47.916  11.216  1.00  0.00     0.222 C 
HETATM   12  O   UNL     1     -41.282 -48.565  10.635  1.00  0.00    -0.273 OA
HETATM   13  H   UNL     1     -38.562 -47.844  12.095  1.00  0.00     0.162 HD
BRANCH  11  14
HETATM   14  C   UNL     1     -40.622 -46.454  11.415  1.00  0.00     0.078 A 
HETATM   15  C   UNL     1     -41.444 -45.542  10.538  1.00  0.00     0.015 A 
HETATM   16  C   UNL     1     -39.946 -45.482  10.473  1.00  0.00     0.015 A 
ENDBRANCH  11  14
ENDBRANCH   2  10
TORSDOF 4
ENDMDL
MODEL 6
REMARK VINA RESULT:      -4.4     13.494     15.979
REMARK  4 active torsions:
REMARK  status: ('A' for Active; 'I' for Inactive)
REMARK    1  A    between atoms: C_2  and  C_3 
REMARK    2  A    between atoms: C_2  and  N_10 
REMARK    3  A    between atoms: C_3  and  N_4 
REMARK       I    between atoms: N_10  and  C_11 
REMARK    4  A    between atoms: C_11  and  C_13 
ROOT
HETATM    1  C   UNL     1     -53.049 -53.923  -0.569  1.00  0.00     0.034 C 
HETATM    2  C   UNL     1     -51.650 -53.445  -0.960  1.00  0.00     0.098 C 
ENDROOT
BRANCH   2   3
HETATM    3  C   UNL     1     -51.387 -53.742  -2.446  1.00  0.00     0.153 C 
BRANCH   3   4
HETATM    4  N   UNL     1     -50.489 -54.859  -2.659  1.00  0.00    -0.350 N 
HETATM    5  C   UNL     1     -50.785 -56.035  -3.290  1.00  0.00     0.108 A 
HETATM    6  C   UNL     1     -49.609 -56.749  -3.275  1.00  0.00     0.106 A 
HETATM    7  N   UNL     1     -48.610 -56.032  -2.668  1.00  0.00    -0.361 N 
HETATM    8  C   UNL     1     -49.168 -54.897  -2.314  1.00  0.00     0.182 A 
ATOM      9  HN  UNL     1     -47.642 -56.318  -2.522  1.00  0.00     0.166 HD
ENDBRANCH   3   4
ENDBRANCH   2   3
BRANCH   2  10
HETATM   10  N   UNL     1     -51.516 -52.024  -0.645  1.00  0.00    -0.355 N 
HETATM   11  C   UNL     1     -50.330 -51.498  -0.193  1.00  0.00     0.222 C 
HETATM   12  O   UNL     1     -49.314 -52.159  -0.022  1.00  0.00    -0.273 OA
HETATM   13  H   UNL     1     -52.333 -51.433  -0.663  1.00  0.00     0.162 HD
BRANCH  11  14
HETATM   14  C   UNL     1     -50.302 -50.035   0.086  1.00  0.00     0.078 A 
HETATM   15  C   UNL     1     -49.111 -49.244   0.567  1.00  0.00     0.015 A 
HETATM   16  C   UNL     1     -50.228 -49.558   1.519  1.00  0.00     0.015 A 
ENDBRANCH  11  14
ENDBRANCH   2  10
TORSDOF 4
ENDMDL
MODEL 7
REMARK VINA RESULT:      -4.4      1.988      6.085
REMARK  4 active torsions:
REMARK  status: ('A' for Active; 'I' for Inactive)
REMARK    1  A    between atoms: C_2  and  C_3 
REMARK    2  A    between atoms: C_2  and  N_10 
REMARK    3  A    between atoms: C_3  and  N_4 
REMARK       I    between atoms: N_10  and  C_11 
REMARK    4  A    between atoms: C_11  and  C_13 
ROOT
HETATM    1  C   UNL     1     -42.622 -49.428  13.474  1.00  0.00     0.034 C 
HETATM    2  C   UNL     1     -41.725 -49.358  12.238  1.00  0.00     0.098 C 
ENDROOT
BRANCH   2   3
HETATM    3  C   UNL     1     -40.984 -50.692  12.047  1.00  0.00     0.153 C 
BRANCH   3   4
HETATM    4  N   UNL     1     -39.550 -50.586  12.230  1.00  0.00    -0.350 N 
HETATM    5  C   UNL     1     -38.784 -51.306  13.103  1.00  0.00     0.108 A 
HETATM    6  C   UNL     1     -37.496 -50.877  12.879  1.00  0.00     0.106 A 
HETATM    7  N   UNL     1     -37.463 -49.930  11.887  1.00  0.00    -0.361 N 
HETATM    8  C   UNL     1     -38.713 -49.780  11.512  1.00  0.00     0.182 A 
ATOM      9  HN  UNL     1     -36.644 -49.445  11.519  1.00  0.00     0.166 HD
ENDBRANCH   3   4
ENDBRANCH   2   3
BRANCH   2  10
HETATM   10  N   UNL     1     -42.531 -48.998  11.073  1.00  0.00    -0.355 N 
HETATM   11  C   UNL     1     -42.230 -47.899  10.304  1.00  0.00     0.222 C 
HETATM   12  O   UNL     1     -41.287 -47.152  10.527  1.00  0.00    -0.273 OA
HETATM   13  H   UNL     1     -43.382 -49.504  10.883  1.00  0.00     0.162 HD
BRANCH  11  14
HETATM   14  C   UNL     1     -43.111 -47.633   9.133  1.00  0.00     0.078 A 
HETATM   15  C   UNL     1     -43.552 -46.275   8.643  1.00  0.00     0.015 A 
HETATM   16  C   UNL     1     -44.527 -47.156   9.368  1.00  0.00     0.015 A 
ENDBRANCH  11  14
ENDBRANCH   2  10
TORSDOF 4
ENDMDL
MODEL 8
REMARK VINA RESULT:      -4.4      5.091      7.322
REMARK  4 active torsions:
REMARK  status: ('A' for Active; 'I' for Inactive)
REMARK    1  A    between atoms: C_2  and  C_3 
REMARK    2  A    between atoms: C_2  and  N_10 
REMARK    3  A    between atoms: C_3  and  N_4 
REMARK       I    between atoms: N_10  and  C_11 
REMARK    4  A    between atoms: C_11  and  C_13 
ROOT
HETATM    1  C   UNL     1     -42.035 -55.049  15.723  1.00  0.00     0.034 C 
HETATM    2  C   UNL     1     -42.174 -53.914  14.707  1.00  0.00     0.098 C 
ENDROOT
BRANCH   2   3
HETATM    3  C   UNL     1     -41.174 -54.112  13.555  1.00  0.00     0.153 C 
BRANCH   3   4
HETATM    4  N   UNL     1     -40.810 -52.877  12.890  1.00  0.00    -0.350 N 
HETATM    5  C   UNL     1     -39.841 -51.995  13.280  1.00  0.00     0.108 A 
HETATM    6  C   UNL     1     -39.850 -51.013  12.317  1.00  0.00     0.106 A 
HETATM    7  N   UNL     1     -40.785 -51.285  11.350  1.00  0.00    -0.361 N 
HETATM    8  C   UNL     1     -41.342 -52.416  11.719  1.00  0.00     0.182 A 
ATOM      9  HN  UNL     1     -41.002 -50.729  10.523  1.00  0.00     0.166 HD
ENDBRANCH   3   4
ENDBRANCH   2   3
BRANCH   2  10
HETATM   10  N   UNL     1     -43.556 -53.850  14.237  1.00  0.00    -0.355 N 
HETATM   11  C   UNL     1     -44.205 -52.648  14.081  1.00  0.00     0.222 C 
HETATM   12  O   UNL     1     -43.691 -51.563  14.316  1.00  0.00    -0.273 OA
HETATM   13  H   UNL     1     -44.081 -54.702  14.119  1.00  0.00     0.162 HD
BRANCH  11  14
HETATM   14  C   UNL     1     -45.609 -52.698  13.585  1.00  0.00     0.078 A 
HETATM   15  C   UNL     1     -46.464 -51.510  13.217  1.00  0.00     0.015 A 
HETATM   16  C   UNL     1     -46.730 -52.249  14.496  1.00  0.00     0.015 A 
ENDBRANCH  11  14
ENDBRANCH   2  10
TORSDOF 4
ENDMDL
MODEL 9
REMARK VINA RESULT:      -4.4      2.049      2.643
REMARK  4 active torsions:
REMARK  status: ('A' for Active; 'I' for Inactive)
REMARK    1  A    between atoms: C_2  and  C_3 
REMARK    2  A    between atoms: C_2  and  N_10 
REMARK    3  A    between atoms: C_3  and  N_4 
REMARK       I    between atoms: N_10  and  C_11 
REMARK    4  A    between atoms: C_11  and  C_13 
ROOT
HETATM    1  C   UNL     1     -39.629 -44.986  10.186  1.00  0.00     0.034 C 
HETATM    2  C   UNL     1     -40.047 -45.822  11.397  1.00  0.00     0.098 C 
ENDROOT
BRANCH   2   3
HETATM    3  C   UNL     1     -41.526 -45.562  11.733  1.00  0.00     0.153 C 
BRANCH   3   4
HETATM    4  N   UNL     1     -42.438 -46.441  11.029  1.00  0.00    -0.350 N 
HETATM    5  C   UNL     1     -42.805 -46.353   9.715  1.00  0.00     0.108 A 
HETATM    6  C   UNL     1     -43.647 -47.421   9.511  1.00  0.00     0.106 A 
HETATM    7  N   UNL     1     -43.787 -48.159  10.660  1.00  0.00    -0.361 N 
HETATM    8  C   UNL     1     -43.043 -47.548  11.553  1.00  0.00     0.182 A 
ATOM      9  HN  UNL     1     -44.348 -49.000  10.792  1.00  0.00     0.166 HD
ENDBRANCH   3   4
ENDBRANCH   2   3
BRANCH   2  10
HETATM   10  N   UNL     1     -39.777 -47.232  11.130  1.00  0.00    -0.355 N 
HETATM   11  C   UNL     1     -39.240 -48.055  12.091  1.00  0.00     0.222 C 
HETATM   12  O   UNL     1     -38.951 -47.682  13.221  1.00  0.00    -0.273 OA
HETATM   13  H   UNL     1     -39.892 -47.592  10.195  1.00  0.00     0.162 HD
BRANCH  11  14
HETATM   14  C   UNL     1     -39.017 -49.479  11.715  1.00  0.00     0.078 A 
HETATM   15  C   UNL     1     -38.265 -50.505  12.526  1.00  0.00     0.015 A 
HETATM   16  C   UNL     1     -37.633 -49.923  11.295  1.00  0.00     0.015 A 
ENDBRANCH  11  14
ENDBRANCH   2  10
TORSDOF 4
ENDMDL
