MODEL 1
REMARK VINA RESULT:      -5.7      0.000      0.000
REMARK  4 active torsions:
REMARK  status: ('A' for Active; 'I' for Inactive)
REMARK       I    between atoms: C_2  and  N_3 
REMARK       I    between atoms: C_2  and  N_17 
REMARK    1  A    between atoms: N_3  and  C_4 
REMARK    2  A    between atoms: C_4  and  C_5 
REMARK    3  A    between atoms: C_5  and  C_6 
REMARK    4  A    between atoms: N_17  and  C_18 
ROOT
HETATM    1  C   UNL     1     -46.830 -52.159  14.496  1.00  0.00     0.217 C 
HETATM    2  C   UNL     1     -47.239 -51.626  15.805  1.00  0.00    -0.098 C 
HETATM    3  C   UNL     1     -47.584 -51.190  16.868  1.00  0.00     0.014 C 
ENDROOT
BRANCH   1   4
HETATM    4  N   UNL     1     -45.414 -51.963  14.296  1.00  0.00    -0.333 N 
HETATM    5  C   UNL     1     -44.786 -52.507  13.207  1.00  0.00     0.316 C 
HETATM    6  O   UNL     1     -45.330 -53.268  12.420  1.00  0.00    -0.247 OA
HETATM    7  N   UNL     1     -43.482 -52.101  13.102  1.00  0.00    -0.343 N 
HETATM    8  H   UNL     1     -43.078 -51.595  13.876  1.00  0.00     0.164 HD
HETATM    9  H   UNL     1     -44.970 -51.201  14.783  1.00  0.00     0.165 HD
BRANCH   7  10
HETATM   10  C   UNL     1     -42.582 -52.594  12.059  1.00  0.00     0.130 C 
BRANCH  10  11
HETATM   11  C   UNL     1     -41.128 -52.223  12.340  1.00  0.00     0.077 C 
BRANCH  11  12
HETATM   12  C   UNL     1     -40.737 -50.796  12.074  1.00  0.00     0.019 A 
HETATM   13  C   UNL     1     -39.583 -50.218  12.562  1.00  0.00     0.078 A 
HETATM   14  S   UNL     1     -39.454 -48.606  12.038  1.00  0.00    -0.064 SA
HETATM   15  C   UNL     1     -40.980 -48.734  11.217  1.00  0.00     0.146 A 
HETATM   16  N   UNL     1     -41.528 -49.934  11.318  1.00  0.00    -0.340 N 
HETATM   17  N   UNL     1     -41.530 -47.683  10.552  1.00  0.00    -0.361 N 
ATOM     18  HN  UNL     1     -42.418 -50.196  10.894  1.00  0.00     0.168 HD
HETATM   19  C   UNL     1     -42.823 -47.774   9.894  1.00  0.00     0.125 C 
HETATM   20  C   UNL     1     -41.031 -46.322  10.566  1.00  0.00     0.125 C 
HETATM   21  C   UNL     1     -43.263 -46.317   9.698  1.00  0.00     0.021 C 
HETATM   22  C   UNL     1     -42.306 -45.491  10.546  1.00  0.00     0.021 C 
ENDBRANCH  11  12
ENDBRANCH  10  11
ENDBRANCH   7  10
ENDBRANCH   1   4
TORSDOF 4
ENDMDL
MODEL 2
REMARK VINA RESULT:      -5.6      3.204      6.194
REMARK  4 active torsions:
REMARK  status: ('A' for Active; 'I' for Inactive)
REMARK       I    between atoms: C_2  and  N_3 
REMARK       I    between atoms: C_2  and  N_17 
REMARK    1  A    between atoms: N_3  and  C_4 
REMARK    2  A    between atoms: C_4  and  C_5 
REMARK    3  A    between atoms: C_5  and  C_6 
REMARK    4  A    between atoms: N_17  and  C_18 
ROOT
HETATM    1  C   UNL     1     -44.305 -47.710   8.411  1.00  0.00     0.217 C 
HETATM    2  C   UNL     1     -45.693 -47.485   8.845  1.00  0.00    -0.098 C 
HETATM    3  C   UNL     1     -46.829 -47.306   9.188  1.00  0.00     0.014 C 
ENDROOT
BRANCH   1   4
HETATM    4  N   UNL     1     -43.430 -46.728   9.005  1.00  0.00    -0.333 N 
HETATM    5  C   UNL     1     -42.299 -47.121   9.672  1.00  0.00     0.316 C 
HETATM    6  O   UNL     1     -42.024 -48.287   9.911  1.00  0.00    -0.247 OA
HETATM    7  N   UNL     1     -41.518 -46.058  10.041  1.00  0.00    -0.343 N 
HETATM    8  H   UNL     1     -41.898 -45.129   9.935  1.00  0.00     0.164 HD
HETATM    9  H   UNL     1     -43.494 -45.779   8.675  1.00  0.00     0.165 HD
BRANCH   7  10
HETATM   10  C   UNL     1     -40.291 -46.213  10.822  1.00  0.00     0.130 C 
BRANCH  10  11
HETATM   11  C   UNL     1     -40.584 -46.493  12.294  1.00  0.00     0.077 C 
BRANCH  11  12
HETATM   12  C   UNL     1     -40.218 -47.860  12.801  1.00  0.00     0.019 A 
HETATM   13  C   UNL     1     -38.987 -48.166  13.345  1.00  0.00     0.078 A 
HETATM   14  S   UNL     1     -38.940 -49.793  13.837  1.00  0.00    -0.064 SA
HETATM   15  C   UNL     1     -40.559 -50.033  13.255  1.00  0.00     0.146 A 
HETATM   16  N   UNL     1     -41.100 -48.936  12.748  1.00  0.00    -0.340 N 
HETATM   17  N   UNL     1     -41.177 -51.242  13.324  1.00  0.00    -0.361 N 
ATOM     18  HN  UNL     1     -42.044 -48.886  12.367  1.00  0.00     0.168 HD
HETATM   19  C   UNL     1     -42.518 -51.458  12.806  1.00  0.00     0.125 C 
HETATM   20  C   UNL     1     -40.551 -52.488  13.722  1.00  0.00     0.125 C 
HETATM   21  C   UNL     1     -42.637 -52.980  12.653  1.00  0.00     0.021 C 
HETATM   22  C   UNL     1     -41.219 -53.511  12.814  1.00  0.00     0.021 C 
ENDBRANCH  11  12
ENDBRANCH  10  11
ENDBRANCH   7  10
ENDBRANCH   1   4
TORSDOF 4
ENDMDL
MODEL 3
REMARK VINA RESULT:      -5.6      2.475      3.327
REMARK  4 active torsions:
REMARK  status: ('A' for Active; 'I' for Inactive)
REMARK       I    between atoms: C_2  and  N_3 
REMARK       I    between atoms: C_2  and  N_17 
REMARK    1  A    between atoms: N_3  and  C_4 
REMARK    2  A    between atoms: C_4  and  C_5 
REMARK    3  A    between atoms: C_5  and  C_6 
REMARK    4  A    between atoms: N_17  and  C_18 
ROOT
HETATM    1  C   UNL     1     -44.399 -53.532  12.537  1.00  0.00     0.217 C 
HETATM    2  C   UNL     1     -45.555 -52.630  12.656  1.00  0.00    -0.098 C 
HETATM    3  C   UNL     1     -46.505 -51.904  12.754  1.00  0.00     0.014 C 
ENDROOT
BRANCH   1   4
HETATM    4  N   UNL     1     -43.337 -52.891  11.800  1.00  0.00    -0.333 N 
HETATM    5  C   UNL     1     -42.304 -52.282  12.462  1.00  0.00     0.316 C 
HETATM    6  O   UNL     1     -42.267 -52.135  13.674  1.00  0.00    -0.247 OA
HETATM    7  N   UNL     1     -41.320 -51.857  11.609  1.00  0.00    -0.343 N 
HETATM    8  H   UNL     1     -41.505 -51.885  10.617  1.00  0.00     0.164 HD
HETATM    9  H   UNL     1     -43.212 -53.149  10.834  1.00  0.00     0.165 HD
BRANCH   7  10
HETATM   10  C   UNL     1     -40.142 -51.120  12.066  1.00  0.00     0.130 C 
BRANCH  10  11
HETATM   11  C   UNL     1     -39.904 -49.857  11.241  1.00  0.00     0.077 C 
BRANCH  11  12
HETATM   12  C   UNL     1     -39.644 -48.593  12.011  1.00  0.00     0.019 A 
HETATM   13  C   UNL     1     -39.190 -48.574  13.314  1.00  0.00     0.078 A 
HETATM   14  S   UNL     1     -38.981 -46.975  13.851  1.00  0.00    -0.064 SA
HETATM   15  C   UNL     1     -39.555 -46.371  12.327  1.00  0.00     0.146 A 
HETATM   16  N   UNL     1     -39.856 -47.330  11.465  1.00  0.00    -0.340 N 
HETATM   17  N   UNL     1     -39.676 -45.039  12.079  1.00  0.00    -0.361 N 
ATOM     18  HN  UNL     1     -40.200 -47.164  10.520  1.00  0.00     0.168 HD
HETATM   19  C   UNL     1     -40.191 -44.529  10.818  1.00  0.00     0.125 C 
HETATM   20  C   UNL     1     -39.510 -43.981  13.056  1.00  0.00     0.125 C 
HETATM   21  C   UNL     1     -40.596 -43.080  11.121  1.00  0.00     0.021 C 
HETATM   22  C   UNL     1     -40.561 -42.962  12.638  1.00  0.00     0.021 C 
ENDBRANCH  11  12
ENDBRANCH  10  11
ENDBRANCH   7  10
ENDBRANCH   1   4
TORSDOF 4
ENDMDL
MODEL 4
REMARK VINA RESULT:      -5.5      1.848      2.439
REMARK  4 active torsions:
REMARK  status: ('A' for Active; 'I' for Inactive)
REMARK       I    between atoms: C_2  and  N_3 
REMARK       I    between atoms: C_2  and  N_17 
REMARK    1  A    between atoms: N_3  and  C_4 
REMARK    2  A    between atoms: C_4  and  C_5 
REMARK    3  A    between atoms: C_5  and  C_6 
REMARK    4  A    between atoms: N_17  and  C_18 
ROOT
HETATM    1  C   UNL     1     -45.479 -52.668  12.630  1.00  0.00     0.217 C 
HETATM    2  C   UNL     1     -46.170 -52.018  13.754  1.00  0.00    -0.098 C 
HETATM    3  C   UNL     1     -46.735 -51.479  14.664  1.00  0.00     0.014 C 
ENDROOT
BRANCH   1   4
HETATM    4  N   UNL     1     -44.448 -53.552  13.119  1.00  0.00    -0.333 N 
HETATM    5  C   UNL     1     -43.133 -53.318  12.814  1.00  0.00     0.316 C 
HETATM    6  O   UNL     1     -42.760 -52.452  12.037  1.00  0.00    -0.247 OA
HETATM    7  N   UNL     1     -42.287 -54.167  13.477  1.00  0.00    -0.343 N 
HETATM    8  H   UNL     1     -42.690 -54.946  13.978  1.00  0.00     0.164 HD
HETATM    9  H   UNL     1     -44.667 -54.143  13.904  1.00  0.00     0.165 HD
BRANCH   7  10
HETATM   10  C   UNL     1     -40.839 -54.161  13.271  1.00  0.00     0.130 C 
BRANCH  10  11
HETATM   11  C   UNL     1     -40.114 -53.351  14.343  1.00  0.00     0.077 C 
BRANCH  11  12
HETATM   12  C   UNL     1     -39.597 -52.002  13.928  1.00  0.00     0.019 A 
HETATM   13  C   UNL     1     -38.461 -51.425  14.458  1.00  0.00     0.078 A 
HETATM   14  S   UNL     1     -38.164 -49.916  13.733  1.00  0.00    -0.064 SA
HETATM   15  C   UNL     1     -39.602 -50.076  12.772  1.00  0.00     0.146 A 
HETATM   16  N   UNL     1     -40.242 -51.217  12.975  1.00  0.00    -0.340 N 
HETATM   17  N   UNL     1     -40.004 -49.104  11.910  1.00  0.00    -0.361 N 
ATOM     18  HN  UNL     1     -41.100 -51.487  12.494  1.00  0.00     0.168 HD
HETATM   19  C   UNL     1     -41.226 -49.217  11.130  1.00  0.00     0.125 C 
HETATM   20  C   UNL     1     -39.414 -47.785  11.791  1.00  0.00     0.125 C 
HETATM   21  C   UNL     1     -41.539 -47.781  10.686  1.00  0.00     0.021 C 
HETATM   22  C   UNL     1     -40.618 -46.896  11.514  1.00  0.00     0.021 C 
ENDBRANCH  11  12
ENDBRANCH  10  11
ENDBRANCH   7  10
ENDBRANCH   1   4
TORSDOF 4
ENDMDL
MODEL 5
REMARK VINA RESULT:      -5.4      1.560      2.041
REMARK  4 active torsions:
REMARK  status: ('A' for Active; 'I' for Inactive)
REMARK       I    between atoms: C_2  and  N_3 
REMARK       I    between atoms: C_2  and  N_17 
REMARK    1  A    between atoms: N_3  and  C_4 
REMARK    2  A    between atoms: C_4  and  C_5 
REMARK    3  A    between atoms: C_5  and  C_6 
REMARK    4  A    between atoms: N_17  and  C_18 
ROOT
HETATM    1  C   UNL     1     -45.588 -52.150  13.748  1.00  0.00     0.217 C 
HETATM    2  C   UNL     1     -46.415 -51.864  12.565  1.00  0.00    -0.098 C 
HETATM    3  C   UNL     1     -47.096 -51.641  11.603  1.00  0.00     0.014 C 
ENDROOT
BRANCH   1   4
HETATM    4  N   UNL     1     -44.271 -51.581  13.587  1.00  0.00    -0.333 N 
HETATM    5  C   UNL     1     -43.317 -52.238  12.856  1.00  0.00     0.316 C 
HETATM    6  O   UNL     1     -43.464 -53.365  12.406  1.00  0.00    -0.247 OA
HETATM    7  N   UNL     1     -42.183 -51.489  12.689  1.00  0.00    -0.343 N 
HETATM    8  H   UNL     1     -42.094 -50.635  13.221  1.00  0.00     0.164 HD
HETATM    9  H   UNL     1     -44.161 -50.594  13.756  1.00  0.00     0.165 HD
BRANCH   7  10
HETATM   10  C   UNL     1     -40.995 -51.995  12.000  1.00  0.00     0.130 C 
BRANCH  10  11
HETATM   11  C   UNL     1     -39.863 -50.970  11.989  1.00  0.00     0.077 C 
BRANCH  11  12
HETATM   12  C   UNL     1     -40.261 -49.535  11.787  1.00  0.00     0.019 A 
HETATM   13  C   UNL     1     -39.823 -48.503  12.592  1.00  0.00     0.078 A 
HETATM   14  S   UNL     1     -40.449 -47.017  12.051  1.00  0.00    -0.064 SA
HETATM   15  C   UNL     1     -41.322 -47.827  10.786  1.00  0.00     0.146 A 
HETATM   16  N   UNL     1     -41.122 -49.135  10.768  1.00  0.00    -0.340 N 
HETATM   17  N   UNL     1     -42.127 -47.154   9.921  1.00  0.00    -0.361 N 
ATOM     18  HN  UNL     1     -41.545 -49.771  10.092  1.00  0.00     0.168 HD
HETATM   19  C   UNL     1     -42.888 -47.830   8.884  1.00  0.00     0.125 C 
HETATM   20  C   UNL     1     -42.489 -45.753  10.022  1.00  0.00     0.125 C 
HETATM   21  C   UNL     1     -43.971 -46.823   8.476  1.00  0.00     0.021 C 
HETATM   22  C   UNL     1     -43.933 -45.738   9.543  1.00  0.00     0.021 C 
ENDBRANCH  11  12
ENDBRANCH  10  11
ENDBRANCH   7  10
ENDBRANCH   1   4
TORSDOF 4
ENDMDL
MODEL 6
REMARK VINA RESULT:      -5.4      2.906      6.726
REMARK  4 active torsions:
REMARK  status: ('A' for Active; 'I' for Inactive)
REMARK       I    between atoms: C_2  and  N_3 
REMARK       I    between atoms: C_2  and  N_17 
REMARK    1  A    between atoms: N_3  and  C_4 
REMARK    2  A    between atoms: C_4  and  C_5 
REMARK    3  A    between atoms: C_5  and  C_6 
REMARK    4  A    between atoms: N_17  and  C_18 
ROOT
HETATM    1  C   UNL     1     -43.329 -46.356   9.148  1.00  0.00     0.217 C 
HETATM    2  C   UNL     1     -43.535 -47.375   8.108  1.00  0.00    -0.098 C 
HETATM    3  C   UNL     1     -43.715 -48.208   7.263  1.00  0.00     0.014 C 
ENDROOT
BRANCH   1   4
HETATM    4  N   UNL     1     -41.952 -46.354   9.582  1.00  0.00    -0.333 N 
HETATM    5  C   UNL     1     -41.572 -47.079  10.681  1.00  0.00     0.316 C 
HETATM    6  O   UNL     1     -42.358 -47.657  11.418  1.00  0.00    -0.247 OA
HETATM    7  N   UNL     1     -40.214 -47.078  10.860  1.00  0.00    -0.343 N 
HETATM    8  H   UNL     1     -39.660 -46.451  10.294  1.00  0.00     0.164 HD
HETATM    9  H   UNL     1     -41.250 -46.072   8.919  1.00  0.00     0.165 HD
BRANCH   7  10
HETATM   10  C   UNL     1     -39.566 -47.727  12.000  1.00  0.00     0.130 C 
BRANCH  10  11
HETATM   11  C   UNL     1     -39.358 -49.220  11.763  1.00  0.00     0.077 C 
BRANCH  11  12
HETATM   12  C   UNL     1     -39.932 -50.149  12.795  1.00  0.00     0.019 A 
HETATM   13  C   UNL     1     -39.357 -50.364  14.031  1.00  0.00     0.078 A 
HETATM   14  S   UNL     1     -40.294 -51.449  14.945  1.00  0.00    -0.064 SA
HETATM   15  C   UNL     1     -41.409 -51.625  13.624  1.00  0.00     0.146 A 
HETATM   16  N   UNL     1     -41.096 -50.882  12.575  1.00  0.00    -0.340 N 
HETATM   17  N   UNL     1     -42.483 -52.455  13.694  1.00  0.00    -0.361 N 
ATOM     18  HN  UNL     1     -41.639 -50.850  11.712  1.00  0.00     0.168 HD
HETATM   19  C   UNL     1     -43.399 -52.634  12.579  1.00  0.00     0.125 C 
HETATM   20  C   UNL     1     -42.753 -53.397  14.764  1.00  0.00     0.125 C 
HETATM   21  C   UNL     1     -44.138 -53.942  12.888  1.00  0.00     0.021 C 
HETATM   22  C   UNL     1     -43.361 -54.583  14.029  1.00  0.00     0.021 C 
ENDBRANCH  11  12
ENDBRANCH  10  11
ENDBRANCH   7  10
ENDBRANCH   1   4
TORSDOF 4
ENDMDL
MODEL 7
REMARK VINA RESULT:      -5.3      3.179      7.457
REMARK  4 active torsions:
REMARK  status: ('A' for Active; 'I' for Inactive)
REMARK       I    between atoms: C_2  and  N_3 
REMARK       I    between atoms: C_2  and  N_17 
REMARK    1  A    between atoms: N_3  and  C_4 
REMARK    2  A    between atoms: C_4  and  C_5 
REMARK    3  A    between atoms: C_5  and  C_6 
REMARK    4  A    between atoms: N_17  and  C_18 
ROOT
HETATM    1  C   UNL     1     -40.088 -49.759  11.550  1.00  0.00     0.217 C 
HETATM    2  C   UNL     1     -38.624 -49.885  11.501  1.00  0.00    -0.098 C 
HETATM    3  C   UNL     1     -37.428 -49.976  11.457  1.00  0.00     0.014 C 
ENDROOT
BRANCH   1   4
HETATM    4  N   UNL     1     -40.708 -51.052  11.381  1.00  0.00    -0.333 N 
HETATM    5  C   UNL     1     -41.816 -51.389  12.112  1.00  0.00     0.316 C 
HETATM    6  O   UNL     1     -42.272 -50.699  13.012  1.00  0.00    -0.247 OA
HETATM    7  N   UNL     1     -42.352 -52.587  11.720  1.00  0.00    -0.343 N 
HETATM    8  H   UNL     1     -41.824 -53.156  11.074  1.00  0.00     0.164 HD
HETATM    9  H   UNL     1     -40.507 -51.563  10.537  1.00  0.00     0.165 HD
BRANCH   7  10
HETATM   10  C   UNL     1     -43.501 -53.197  12.390  1.00  0.00     0.130 C 
BRANCH  10  11
HETATM   11  C   UNL     1     -43.081 -54.028  13.599  1.00  0.00     0.077 C 
BRANCH  11  12
HETATM   12  C   UNL     1     -43.498 -53.508  14.946  1.00  0.00     0.019 A 
HETATM   13  C   UNL     1     -42.763 -53.701  16.099  1.00  0.00     0.078 A 
HETATM   14  S   UNL     1     -43.520 -52.951  17.423  1.00  0.00    -0.064 SA
HETATM   15  C   UNL     1     -44.831 -52.439  16.404  1.00  0.00     0.146 A 
HETATM   16  N   UNL     1     -44.679 -52.795  15.138  1.00  0.00    -0.340 N 
HETATM   17  N   UNL     1     -45.895 -51.747  16.892  1.00  0.00    -0.361 N 
ATOM     18  HN  UNL     1     -45.343 -52.575  14.396  1.00  0.00     0.168 HD
HETATM   19  C   UNL     1     -47.012 -51.348  16.051  1.00  0.00     0.125 C 
HETATM   20  C   UNL     1     -46.163 -51.490  18.294  1.00  0.00     0.125 C 
HETATM   21  C   UNL     1     -48.149 -51.040  17.034  1.00  0.00     0.021 C 
HETATM   22  C   UNL     1     -47.679 -51.586  18.375  1.00  0.00     0.021 C 
ENDBRANCH  11  12
ENDBRANCH  10  11
ENDBRANCH   7  10
ENDBRANCH   1   4
TORSDOF 4
ENDMDL
MODEL 8
REMARK VINA RESULT:      -5.3      3.343      4.881
REMARK  4 active torsions:
REMARK  status: ('A' for Active; 'I' for Inactive)
REMARK       I    between atoms: C_2  and  N_3 
REMARK       I    between atoms: C_2  and  N_17 
REMARK    1  A    between atoms: N_3  and  C_4 
REMARK    2  A    between atoms: C_4  and  C_5 
REMARK    3  A    between atoms: C_5  and  C_6 
REMARK    4  A    between atoms: N_17  and  C_18 
ROOT
HETATM    1  C   UNL     1     -45.993 -51.799  13.181  1.00  0.00     0.217 C 
HETATM    2  C   UNL     1     -46.825 -51.661  11.976  1.00  0.00    -0.098 C 
HETATM    3  C   UNL     1     -47.511 -51.558  10.997  1.00  0.00     0.014 C 
ENDROOT
BRANCH   1   4
HETATM    4  N   UNL     1     -44.634 -51.403  12.900  1.00  0.00    -0.333 N 
HETATM    5  C   UNL     1     -43.671 -52.349  12.665  1.00  0.00     0.316 C 
HETATM    6  O   UNL     1     -43.854 -53.550  12.793  1.00  0.00    -0.247 OA
HETATM    7  N   UNL     1     -42.481 -51.793  12.275  1.00  0.00    -0.343 N 
HETATM    8  H   UNL     1     -42.379 -50.791  12.344  1.00  0.00     0.164 HD
HETATM    9  H   UNL     1     -44.473 -50.458  12.590  1.00  0.00     0.165 HD
BRANCH   7  10
HETATM   10  C   UNL     1     -41.279 -52.590  12.029  1.00  0.00     0.130 C 
BRANCH  10  11
HETATM   11  C   UNL     1     -40.304 -52.529  13.202  1.00  0.00     0.077 C 
BRANCH  11  12
HETATM   12  C   UNL     1     -39.460 -51.290  13.308  1.00  0.00     0.019 A 
HETATM   13  C   UNL     1     -39.027 -50.568  12.215  1.00  0.00     0.078 A 
HETATM   14  S   UNL     1     -38.124 -49.216  12.712  1.00  0.00    -0.064 SA
HETATM   15  C   UNL     1     -38.310 -49.683  14.375  1.00  0.00     0.146 A 
HETATM   16  N   UNL     1     -39.036 -50.779  14.532  1.00  0.00    -0.340 N 
HETATM   17  N   UNL     1     -37.748 -48.973  15.389  1.00  0.00    -0.361 N 
ATOM     18  HN  UNL     1     -39.256 -51.196  15.435  1.00  0.00     0.168 HD
HETATM   19  C   UNL     1     -37.870 -49.379  16.780  1.00  0.00     0.125 C 
HETATM   20  C   UNL     1     -36.818 -47.871  15.234  1.00  0.00     0.125 C 
HETATM   21  C   UNL     1     -36.749 -48.624  17.506  1.00  0.00     0.021 C 
HETATM   22  C   UNL     1     -35.863 -48.063  16.403  1.00  0.00     0.021 C 
ENDBRANCH  11  12
ENDBRANCH  10  11
ENDBRANCH   7  10
ENDBRANCH   1   4
TORSDOF 4
ENDMDL
MODEL 9
REMARK VINA RESULT:      -5.1      1.853      2.420
REMARK  4 active torsions:
REMARK  status: ('A' for Active; 'I' for Inactive)
REMARK       I    between atoms: C_2  and  N_3 
REMARK       I    between atoms: C_2  and  N_17 
REMARK    1  A    between atoms: N_3  and  C_4 
REMARK    2  A    between atoms: C_4  and  C_5 
REMARK    3  A    between atoms: C_5  and  C_6 
REMARK    4  A    between atoms: N_17  and  C_18 
ROOT
HETATM    1  C   UNL     1     -46.291 -52.624  17.517  1.00  0.00     0.217 C 
HETATM    2  C   UNL     1     -47.364 -51.627  17.387  1.00  0.00    -0.098 C 
HETATM    3  C   UNL     1     -48.248 -50.821  17.285  1.00  0.00     0.014 C 
ENDROOT
BRANCH   1   4
HETATM    4  N   UNL     1     -45.301 -52.432  16.484  1.00  0.00    -0.333 N 
HETATM    5  C   UNL     1     -44.985 -53.456  15.630  1.00  0.00     0.316 C 
HETATM    6  O   UNL     1     -45.409 -54.596  15.750  1.00  0.00    -0.247 OA
HETATM    7  N   UNL     1     -44.140 -53.055  14.629  1.00  0.00    -0.343 N 
HETATM    8  H   UNL     1     -43.724 -52.138  14.697  1.00  0.00     0.164 HD
HETATM    9  H   UNL     1     -45.077 -51.488  16.216  1.00  0.00     0.165 HD
BRANCH   7  10
HETATM   10  C   UNL     1     -43.605 -53.979  13.629  1.00  0.00     0.130 C 
BRANCH  10  11
HETATM   11  C   UNL     1     -43.233 -53.263  12.333  1.00  0.00     0.077 C 
BRANCH  11  12
HETATM   12  C   UNL     1     -42.041 -52.349  12.392  1.00  0.00     0.019 A 
HETATM   13  C   UNL     1     -40.867 -52.668  13.043  1.00  0.00     0.078 A 
HETATM   14  S   UNL     1     -39.732 -51.414  12.876  1.00  0.00    -0.064 SA
HETATM   15  C   UNL     1     -40.881 -50.471  11.977  1.00  0.00     0.146 A 
HETATM   16  N   UNL     1     -42.037 -51.089  11.797  1.00  0.00    -0.340 N 
HETATM   17  N   UNL     1     -40.589 -49.223  11.523  1.00  0.00    -0.361 N 
ATOM     18  HN  UNL     1     -42.826 -50.693  11.287  1.00  0.00     0.168 HD
HETATM   19  C   UNL     1     -41.559 -48.415  10.801  1.00  0.00     0.125 C 
HETATM   20  C   UNL     1     -39.397 -48.464  11.846  1.00  0.00     0.125 C 
HETATM   21  C   UNL     1     -41.019 -46.981  10.896  1.00  0.00     0.021 C 
HETATM   22  C   UNL     1     -39.915 -47.037  11.942  1.00  0.00     0.021 C 
ENDBRANCH  11  12
ENDBRANCH  10  11
ENDBRANCH   7  10
ENDBRANCH   1   4
TORSDOF 4
ENDMDL
