MODEL 1
REMARK VINA RESULT:      -4.5      0.000      0.000
REMARK  4 active torsions:
REMARK  status: ('A' for Active; 'I' for Inactive)
REMARK    1  A    between atoms: C_4  and  C_8 
REMARK    2  A    between atoms: C_8  and  O_10 
REMARK    3  A    between atoms: C_8  and  C_11 
REMARK    4  A    between atoms: C_11  and  N_12 
ROOT
HETATM    1  C   UNL     1     -41.081 -52.894  12.685  1.00  0.00     0.110 C 
HETATM    2  C   UNL     1     -39.874 -52.712  13.619  1.00  0.00     0.053 C 
ENDROOT
BRANCH   1   3
HETATM    3  C   UNL     1     -42.185 -53.701  13.326  1.00  0.00     0.011 A 
HETATM    4  C   UNL     1     -43.501 -53.829  12.918  1.00  0.00     0.121 A 
HETATM    5  N   UNL     1     -44.113 -54.644  13.824  1.00  0.00    -0.307 N 
HETATM    6  C   UNL     1     -45.491 -55.068  13.827  1.00  0.00     0.177 C 
HETATM    7  N   UNL     1     -43.293 -55.060  14.803  1.00  0.00    -0.310 N 
HETATM    8  C   UNL     1     -42.126 -54.488  14.503  1.00  0.00     0.119 A 
ATOM      9  HN  UNL     1     -43.511 -55.670  15.590  1.00  0.00     0.186 HD
ENDBRANCH   1   3
BRANCH   1  10
HETATM   10  O   UNL     1     -40.590 -53.589  11.523  1.00  0.00    -0.383 OA
HETATM   11  H   UNL     1     -39.788 -54.060  11.807  1.00  0.00     0.211 HD
ENDBRANCH   1  10
BRANCH   1  12
HETATM   12  C   UNL     1     -41.604 -51.510  12.191  1.00  0.00     0.309 C 
BRANCH  12  13
HETATM   13  N   UNL     1     -40.811 -50.863  11.134  1.00  0.00     0.081 N 
HETATM   14  H   UNL     1     -40.940 -51.385  10.265  1.00  0.00     0.312 HD
HETATM   15  H   UNL     1     -39.823 -50.958  11.366  1.00  0.00     0.312 HD
ENDBRANCH  12  13
ENDBRANCH   1  12
TORSDOF 4
ENDMDL
MODEL 2
REMARK VINA RESULT:      -4.4      7.346      8.208
REMARK  4 active torsions:
REMARK  status: ('A' for Active; 'I' for Inactive)
REMARK    1  A    between atoms: C_4  and  C_8 
REMARK    2  A    between atoms: C_8  and  O_10 
REMARK    3  A    between atoms: C_8  and  C_11 
REMARK    4  A    between atoms: C_11  and  N_12 
ROOT
HETATM    1  C   UNL     1     -42.076 -46.204  10.416  1.00  0.00     0.110 C 
HETATM    2  C   UNL     1     -41.393 -47.547  10.718  1.00  0.00     0.053 C 
ENDROOT
BRANCH   1   3
HETATM    3  C   UNL     1     -43.461 -46.381   9.842  1.00  0.00     0.011 A 
HETATM    4  C   UNL     1     -44.262 -47.509   9.868  1.00  0.00     0.121 A 
HETATM    5  N   UNL     1     -45.411 -47.186   9.207  1.00  0.00    -0.307 N 
HETATM    6  C   UNL     1     -46.550 -48.038   8.968  1.00  0.00     0.177 C 
HETATM    7  N   UNL     1     -45.421 -45.926   8.743  1.00  0.00    -0.310 N 
HETATM    8  C   UNL     1     -44.240 -45.439   9.125  1.00  0.00     0.119 A 
ATOM      9  HN  UNL     1     -46.158 -45.453   8.221  1.00  0.00     0.186 HD
ENDBRANCH   1   3
BRANCH   1  10
HETATM   10  O   UNL     1     -41.239 -45.535   9.453  1.00  0.00    -0.383 OA
HETATM   11  H   UNL     1     -40.768 -46.235   8.970  1.00  0.00     0.211 HD
ENDBRANCH   1  10
BRANCH   1  12
HETATM   12  C   UNL     1     -42.100 -45.304  11.691  1.00  0.00     0.309 C 
BRANCH  12  13
HETATM   13  N   UNL     1     -43.055 -45.698  12.738  1.00  0.00     0.081 N 
HETATM   14  H   UNL     1     -43.140 -46.715  12.734  1.00  0.00     0.312 HD
HETATM   15  H   UNL     1     -43.978 -45.345  12.484  1.00  0.00     0.312 HD
ENDBRANCH  12  13
ENDBRANCH   1  12
TORSDOF 4
ENDMDL
MODEL 3
REMARK VINA RESULT:      -4.3      5.184      6.987
REMARK  4 active torsions:
REMARK  status: ('A' for Active; 'I' for Inactive)
REMARK    1  A    between atoms: C_4  and  C_8 
REMARK    2  A    between atoms: C_8  and  O_10 
REMARK    3  A    between atoms: C_8  and  C_11 
REMARK    4  A    between atoms: C_11  and  N_12 
ROOT
HETATM    1  C   UNL     1     -40.750 -49.148  11.294  1.00  0.00     0.110 C 
HETATM    2  C   UNL     1     -41.677 -49.862  12.289  1.00  0.00     0.053 C 
ENDROOT
BRANCH   1   3
HETATM    3  C   UNL     1     -41.392 -47.924  10.689  1.00  0.00     0.011 A 
HETATM    4  C   UNL     1     -42.586 -47.836   9.994  1.00  0.00     0.121 A 
HETATM    5  N   UNL     1     -42.732 -46.529   9.632  1.00  0.00    -0.307 N 
HETATM    6  C   UNL     1     -43.819 -45.945   8.886  1.00  0.00     0.177 C 
HETATM    7  N   UNL     1     -41.716 -45.749  10.036  1.00  0.00    -0.310 N 
HETATM    8  C   UNL     1     -40.903 -46.593  10.674  1.00  0.00     0.119 A 
ATOM      9  HN  UNL     1     -41.595 -44.748   9.890  1.00  0.00     0.186 HD
ENDBRANCH   1   3
BRANCH   1  10
HETATM   10  O   UNL     1     -40.462 -50.103  10.254  1.00  0.00    -0.383 OA
HETATM   11  H   UNL     1     -39.519 -49.999  10.043  1.00  0.00     0.211 HD
ENDBRANCH   1  10
BRANCH   1  12
HETATM   12  C   UNL     1     -39.387 -48.799  11.970  1.00  0.00     0.309 C 
BRANCH  12  13
HETATM   13  N   UNL     1     -38.186 -49.327  11.305  1.00  0.00     0.081 N 
HETATM   14  H   UNL     1     -38.037 -50.289  11.617  1.00  0.00     0.312 HD
HETATM   15  H   UNL     1     -37.375 -48.805  11.636  1.00  0.00     0.312 HD
ENDBRANCH  12  13
ENDBRANCH   1  12
TORSDOF 4
ENDMDL
MODEL 4
REMARK VINA RESULT:      -4.2      5.640      8.368
REMARK  4 active torsions:
REMARK  status: ('A' for Active; 'I' for Inactive)
REMARK    1  A    between atoms: C_4  and  C_8 
REMARK    2  A    between atoms: C_8  and  O_10 
REMARK    3  A    between atoms: C_8  and  C_11 
REMARK    4  A    between atoms: C_11  and  N_12 
ROOT
HETATM    1  C   UNL     1     -42.063 -47.853  10.629  1.00  0.00     0.110 C 
HETATM    2  C   UNL     1     -43.481 -47.847  11.221  1.00  0.00     0.053 C 
ENDROOT
BRANCH   1   3
HETATM    3  C   UNL     1     -41.364 -46.526  10.800  1.00  0.00     0.011 A 
HETATM    4  C   UNL     1     -41.929 -45.270  10.932  1.00  0.00     0.121 A 
HETATM    5  N   UNL     1     -40.896 -44.386  11.040  1.00  0.00    -0.307 N 
HETATM    6  C   UNL     1     -40.982 -42.955  11.192  1.00  0.00     0.177 C 
HETATM    7  N   UNL     1     -39.688 -44.972  10.985  1.00  0.00    -0.310 N 
HETATM    8  C   UNL     1     -39.971 -46.267  10.837  1.00  0.00     0.119 A 
ATOM      9  HN  UNL     1     -38.771 -44.530  11.043  1.00  0.00     0.186 HD
ENDBRANCH   1   3
BRANCH   1  10
HETATM   10  O   UNL     1     -42.214 -48.139   9.225  1.00  0.00    -0.383 OA
HETATM   11  H   UNL     1     -42.477 -47.303   8.804  1.00  0.00     0.211 HD
ENDBRANCH   1  10
BRANCH   1  12
HETATM   12  C   UNL     1     -41.222 -49.020  11.235  1.00  0.00     0.309 C 
BRANCH  12  13
HETATM   13  N   UNL     1     -40.513 -49.872  10.268  1.00  0.00     0.081 N 
HETATM   14  H   UNL     1     -41.133 -50.635   9.992  1.00  0.00     0.312 HD
HETATM   15  H   UNL     1     -39.727 -50.316  10.741  1.00  0.00     0.312 HD
ENDBRANCH  12  13
ENDBRANCH   1  12
TORSDOF 4
ENDMDL
MODEL 5
REMARK VINA RESULT:      -4.1      2.904      5.185
REMARK  4 active torsions:
REMARK  status: ('A' for Active; 'I' for Inactive)
REMARK    1  A    between atoms: C_4  and  C_8 
REMARK    2  A    between atoms: C_8  and  O_10 
REMARK    3  A    between atoms: C_8  and  C_11 
REMARK    4  A    between atoms: C_11  and  N_12 
ROOT
HETATM    1  C   UNL     1     -45.866 -52.609  13.545  1.00  0.00     0.110 C 
HETATM    2  C   UNL     1     -46.690 -51.517  14.245  1.00  0.00     0.053 C 
ENDROOT
BRANCH   1   3
HETATM    3  C   UNL     1     -44.509 -52.111  13.109  1.00  0.00     0.011 A 
HETATM    4  C   UNL     1     -43.437 -52.847  12.633  1.00  0.00     0.121 A 
HETATM    5  N   UNL     1     -42.431 -51.960  12.391  1.00  0.00    -0.307 N 
HETATM    6  C   UNL     1     -41.111 -52.251  11.889  1.00  0.00     0.177 C 
HETATM    7  N   UNL     1     -42.763 -50.690  12.676  1.00  0.00    -0.310 N 
HETATM    8  C   UNL     1     -44.019 -50.781  13.113  1.00  0.00     0.119 A 
ATOM      9  HN  UNL     1     -42.188 -49.853  12.581  1.00  0.00     0.186 HD
ENDBRANCH   1   3
BRANCH   1  10
HETATM   10  O   UNL     1     -46.626 -53.009  12.389  1.00  0.00    -0.383 OA
HETATM   11  H   UNL     1     -46.623 -52.247  11.785  1.00  0.00     0.211 HD
ENDBRANCH   1  10
BRANCH   1  12
HETATM   12  C   UNL     1     -45.741 -53.869  14.457  1.00  0.00     0.309 C 
BRANCH  12  13
HETATM   13  N   UNL     1     -46.890 -54.788  14.443  1.00  0.00     0.081 N 
HETATM   14  H   UNL     1     -47.745 -54.239  14.338  1.00  0.00     0.312 HD
HETATM   15  H   UNL     1     -46.962 -55.232  15.359  1.00  0.00     0.312 HD
ENDBRANCH  12  13
ENDBRANCH   1  12
TORSDOF 4
ENDMDL
MODEL 6
REMARK VINA RESULT:      -4.0      3.729      4.764
REMARK  4 active torsions:
REMARK  status: ('A' for Active; 'I' for Inactive)
REMARK    1  A    between atoms: C_4  and  C_8 
REMARK    2  A    between atoms: C_8  and  O_10 
REMARK    3  A    between atoms: C_8  and  C_11 
REMARK    4  A    between atoms: C_11  and  N_12 
ROOT
HETATM    1  C   UNL     1     -45.502 -53.504  13.638  1.00  0.00     0.110 C 
HETATM    2  C   UNL     1     -45.251 -55.020  13.660  1.00  0.00     0.053 C 
ENDROOT
BRANCH   1   3
HETATM    3  C   UNL     1     -46.089 -53.001  14.935  1.00  0.00     0.011 A 
HETATM    4  C   UNL     1     -47.006 -51.982  15.123  1.00  0.00     0.121 A 
HETATM    5  N   UNL     1     -47.214 -51.887  16.468  1.00  0.00    -0.307 N 
HETATM    6  C   UNL     1     -48.084 -50.966  17.154  1.00  0.00     0.177 C 
HETATM    7  N   UNL     1     -46.494 -52.770  17.180  1.00  0.00    -0.310 N 
HETATM    8  C   UNL     1     -45.811 -53.443  16.253  1.00  0.00     0.119 A 
ATOM      9  HN  UNL     1     -46.475 -52.896  18.192  1.00  0.00     0.186 HD
ENDBRANCH   1   3
BRANCH   1  10
HETATM   10  O   UNL     1     -46.432 -53.264  12.565  1.00  0.00    -0.383 OA
HETATM   11  H   UNL     1     -47.195 -53.844  12.733  1.00  0.00     0.211 HD
ENDBRANCH   1  10
BRANCH   1  12
HETATM   12  C   UNL     1     -44.191 -52.738  13.274  1.00  0.00     0.309 C 
BRANCH  12  13
HETATM   13  N   UNL     1     -43.562 -53.112  11.998  1.00  0.00     0.081 N 
HETATM   14  H   UNL     1     -44.165 -53.785  11.522  1.00  0.00     0.312 HD
HETATM   15  H   UNL     1     -42.697 -53.615  12.198  1.00  0.00     0.312 HD
ENDBRANCH  12  13
ENDBRANCH   1  12
TORSDOF 4
ENDMDL
MODEL 7
REMARK VINA RESULT:      -3.9      5.681      7.456
REMARK  4 active torsions:
REMARK  status: ('A' for Active; 'I' for Inactive)
REMARK    1  A    between atoms: C_4  and  C_8 
REMARK    2  A    between atoms: C_8  and  O_10 
REMARK    3  A    between atoms: C_8  and  C_11 
REMARK    4  A    between atoms: C_11  and  N_12 
ROOT
HETATM    1  C   UNL     1     -40.885 -45.604  10.907  1.00  0.00     0.110 C 
HETATM    2  C   UNL     1     -39.783 -44.842  11.661  1.00  0.00     0.053 C 
ENDROOT
BRANCH   1   3
HETATM    3  C   UNL     1     -40.725 -47.101  11.019  1.00  0.00     0.011 A 
HETATM    4  C   UNL     1     -39.758 -47.812  11.710  1.00  0.00     0.121 A 
HETATM    5  N   UNL     1     -40.019 -49.133  11.497  1.00  0.00    -0.307 N 
HETATM    6  C   UNL     1     -39.282 -50.262  12.008  1.00  0.00     0.177 C 
HETATM    7  N   UNL     1     -41.087 -49.344  10.711  1.00  0.00    -0.310 N 
HETATM    8  C   UNL     1     -41.514 -48.115  10.419  1.00  0.00     0.119 A 
ATOM      9  HN  UNL     1     -41.480 -50.235  10.408  1.00  0.00     0.186 HD
ENDBRANCH   1   3
BRANCH   1  10
HETATM   10  O   UNL     1     -40.774 -45.211   9.526  1.00  0.00    -0.383 OA
HETATM   11  H   UNL     1     -40.637 -44.248   9.528  1.00  0.00     0.211 HD
ENDBRANCH   1  10
BRANCH   1  12
HETATM   12  C   UNL     1     -42.296 -45.146  11.392  1.00  0.00     0.309 C 
BRANCH  12  13
HETATM   13  N   UNL     1     -43.316 -44.991  10.343  1.00  0.00     0.081 N 
HETATM   14  H   UNL     1     -42.878 -44.570   9.522  1.00  0.00     0.312 HD
HETATM   15  H   UNL     1     -44.008 -44.313  10.661  1.00  0.00     0.312 HD
ENDBRANCH  12  13
ENDBRANCH   1  12
TORSDOF 4
ENDMDL
MODEL 8
REMARK VINA RESULT:      -3.9      2.172      2.703
REMARK  4 active torsions:
REMARK  status: ('A' for Active; 'I' for Inactive)
REMARK    1  A    between atoms: C_4  and  C_8 
REMARK    2  A    between atoms: C_8  and  O_10 
REMARK    3  A    between atoms: C_8  and  C_11 
REMARK    4  A    between atoms: C_11  and  N_12 
ROOT
HETATM    1  C   UNL     1     -39.808 -50.870  12.597  1.00  0.00     0.110 C 
HETATM    2  C   UNL     1     -39.266 -50.136  13.834  1.00  0.00     0.053 C 
ENDROOT
BRANCH   1   3
HETATM    3  C   UNL     1     -40.543 -52.137  12.960  1.00  0.00     0.011 A 
HETATM    4  C   UNL     1     -40.902 -52.591  14.217  1.00  0.00     0.121 A 
HETATM    5  N   UNL     1     -41.529 -53.789  14.035  1.00  0.00    -0.307 N 
HETATM    6  C   UNL     1     -42.080 -54.649  15.052  1.00  0.00     0.177 C 
HETATM    7  N   UNL     1     -41.607 -54.158  12.746  1.00  0.00    -0.310 N 
HETATM    8  C   UNL     1     -41.007 -53.160  12.095  1.00  0.00     0.119 A 
ATOM      9  HN  UNL     1     -42.025 -55.002  12.357  1.00  0.00     0.186 HD
ENDBRANCH   1   3
BRANCH   1  10
HETATM   10  O   UNL     1     -38.662 -51.194  11.786  1.00  0.00    -0.383 OA
HETATM   11  H   UNL     1     -38.172 -50.363  11.665  1.00  0.00     0.211 HD
ENDBRANCH   1  10
BRANCH   1  12
HETATM   12  C   UNL     1     -40.704 -49.918  11.745  1.00  0.00     0.309 C 
BRANCH  12  13
HETATM   13  N   UNL     1     -40.427 -49.896  10.301  1.00  0.00     0.081 N 
HETATM   14  H   UNL     1     -40.156 -48.948  10.035  1.00  0.00     0.312 HD
HETATM   15  H   UNL     1     -41.296 -50.082   9.800  1.00  0.00     0.312 HD
ENDBRANCH  12  13
ENDBRANCH   1  12
TORSDOF 4
ENDMDL
MODEL 9
REMARK VINA RESULT:      -3.8      2.481      5.286
REMARK  4 active torsions:
REMARK  status: ('A' for Active; 'I' for Inactive)
REMARK    1  A    between atoms: C_4  and  C_8 
REMARK    2  A    between atoms: C_8  and  O_10 
REMARK    3  A    between atoms: C_8  and  C_11 
REMARK    4  A    between atoms: C_11  and  N_12 
ROOT
HETATM    1  C   UNL     1     -41.845 -52.113  12.681  1.00  0.00     0.110 C 
HETATM    2  C   UNL     1     -42.746 -51.379  13.687  1.00  0.00     0.053 C 
ENDROOT
BRANCH   1   3
HETATM    3  C   UNL     1     -40.755 -51.224  12.133  1.00  0.00     0.011 A 
HETATM    4  C   UNL     1     -39.419 -51.182  12.495  1.00  0.00     0.121 A 
HETATM    5  N   UNL     1     -38.840 -50.208  11.736  1.00  0.00    -0.307 N 
HETATM    6  C   UNL     1     -37.460 -49.790  11.756  1.00  0.00     0.177 C 
HETATM    7  N   UNL     1     -39.701 -49.602  10.902  1.00  0.00    -0.310 N 
HETATM    8  C   UNL     1     -40.860 -50.215  11.144  1.00  0.00     0.119 A 
ATOM      9  HN  UNL     1     -39.512 -48.850  10.240  1.00  0.00     0.186 HD
ENDBRANCH   1   3
BRANCH   1  10
HETATM   10  O   UNL     1     -42.703 -52.539  11.607  1.00  0.00    -0.383 OA
HETATM   11  H   UNL     1     -43.608 -52.538  11.965  1.00  0.00     0.211 HD
ENDBRANCH   1  10
BRANCH   1  12
HETATM   12  C   UNL     1     -41.253 -53.408  13.322  1.00  0.00     0.309 C 
BRANCH  12  13
HETATM   13  N   UNL     1     -40.865 -54.470  12.381  1.00  0.00     0.081 N 
HETATM   14  H   UNL     1     -40.054 -54.961  12.761  1.00  0.00     0.312 HD
HETATM   15  H   UNL     1     -40.540 -54.036  11.517  1.00  0.00     0.312 HD
ENDBRANCH  12  13
ENDBRANCH   1  12
TORSDOF 4
ENDMDL
