MODEL 1
REMARK VINA RESULT:      -6.7      0.000      0.000
REMARK  8 active torsions:
REMARK  status: ('A' for Active; 'I' for Inactive)
REMARK    1  A    between atoms: C_2  and  C_5 
REMARK    2  A    between atoms: N_10  and  C_11 
REMARK    3  A    between atoms: C_11  and  C_12 
REMARK    4  A    between atoms: C_12  and  O_13 
REMARK    5  A    between atoms: C_12  and  C_14 
REMARK    6  A    between atoms: C_14  and  O_15 
REMARK    7  A    between atoms: O_15  and  C_16 
REMARK    8  A    between atoms: C_16  and  C_17 
ROOT
HETATM    1  C   UNL     1     -40.522 -50.014  11.226  1.00  0.00     0.186 C 
ENDROOT
BRANCH   1   2
HETATM    2  N   UNL     1     -41.232 -48.737  11.272  1.00  0.00    -0.255 N 
HETATM    3  C   UNL     1     -40.924 -47.820  12.264  1.00  0.00     0.262 A 
HETATM    4  C   UNL     1     -41.659 -46.543  12.211  1.00  0.00     0.078 A 
HETATM    5  O   UNL     1     -40.085 -48.005  13.144  1.00  0.00    -0.267 OA
HETATM    6  C   UNL     1     -42.556 -46.313  11.254  1.00  0.00     0.033 A 
HETATM    7  C   UNL     1     -42.805 -47.393  10.267  1.00  0.00     0.034 A 
HETATM    8  N   UNL     1     -42.165 -48.523  10.283  1.00  0.00    -0.299 N 
ATOM      9  HN  UNL     1     -42.348 -49.236   9.577  1.00  0.00     0.187 HD
BRANCH   7  10
HETATM   10  C   UNL     1     -43.891 -47.159   9.184  1.00  0.00    -0.007 C 
HETATM   11  C   UNL     1     -45.241 -47.708   9.668  1.00  0.00     0.021 C 
HETATM   12  C   UNL     1     -43.473 -47.858   7.879  1.00  0.00     0.021 C 
HETATM   13  C   UNL     1     -44.061 -45.656   8.886  1.00  0.00     0.021 C 
ENDBRANCH   7  10
ENDBRANCH   1   2
BRANCH   1  14
HETATM   14  C   UNL     1     -41.354 -51.171  11.815  1.00  0.00     0.162 C 
BRANCH  14  15
HETATM   15  O   UNL     1     -41.211 -52.392  11.074  1.00  0.00    -0.392 OA
HETATM   16  H   UNL     1     -40.751 -52.190  10.234  1.00  0.00     0.210 HD
ENDBRANCH  14  15
BRANCH  14  17
HETATM   17  C   UNL     1     -40.940 -51.451  13.264  1.00  0.00     0.201 C 
BRANCH  17  18
HETATM   18  O   UNL     1     -42.093 -51.568  14.086  1.00  0.00    -0.384 OA
BRANCH  18  19
HETATM   19  C   UNL     1     -42.867 -50.371  14.107  1.00  0.00     0.206 C 
BRANCH  19  20
HETATM   20  C   UNL     1     -44.295 -50.754  14.380  1.00  0.00    -0.035 A 
HETATM   21  C   UNL     1     -44.792 -50.730  15.693  1.00  0.00     0.009 A 
HETATM   22  C   UNL     1     -46.107 -51.109  15.963  1.00  0.00     0.001 A 
HETATM   23  C   UNL     1     -46.942 -51.514  14.925  1.00  0.00     0.000 A 
HETATM   24  C   UNL     1     -46.464 -51.537  13.615  1.00  0.00     0.001 A 
HETATM   25  C   UNL     1     -45.147 -51.158  13.343  1.00  0.00     0.009 A 
ENDBRANCH  19  20
ENDBRANCH  18  19
ENDBRANCH  17  18
ENDBRANCH  14  17
ENDBRANCH   1  14
TORSDOF 8
ENDMDL
MODEL 2
REMARK VINA RESULT:      -6.5      2.089      2.590
REMARK  8 active torsions:
REMARK  status: ('A' for Active; 'I' for Inactive)
REMARK    1  A    between atoms: C_2  and  C_5 
REMARK    2  A    between atoms: N_10  and  C_11 
REMARK    3  A    between atoms: C_11  and  C_12 
REMARK    4  A    between atoms: C_12  and  O_13 
REMARK    5  A    between atoms: C_12  and  C_14 
REMARK    6  A    between atoms: C_14  and  O_15 
REMARK    7  A    between atoms: O_15  and  C_16 
REMARK    8  A    between atoms: C_16  and  C_17 
ROOT
HETATM    1  C   UNL     1     -41.945 -49.958  12.504  1.00  0.00     0.186 C 
ENDROOT
BRANCH   1   2
HETATM    2  N   UNL     1     -41.935 -48.665  11.822  1.00  0.00    -0.255 N 
HETATM    3  C   UNL     1     -40.998 -47.711  12.182  1.00  0.00     0.262 A 
HETATM    4  C   UNL     1     -41.033 -46.452  11.415  1.00  0.00     0.078 A 
HETATM    5  O   UNL     1     -40.156 -47.863  13.066  1.00  0.00    -0.267 OA
HETATM    6  C   UNL     1     -41.922 -46.274  10.440  1.00  0.00     0.033 A 
HETATM    7  C   UNL     1     -42.885 -47.372  10.174  1.00  0.00     0.034 A 
HETATM    8  N   UNL     1     -42.870 -48.495  10.826  1.00  0.00    -0.299 N 
ATOM      9  HN  UNL     1     -43.535 -49.235  10.604  1.00  0.00     0.187 HD
BRANCH   7  10
HETATM   10  C   UNL     1     -43.962 -47.152   9.080  1.00  0.00    -0.007 C 
HETATM   11  C   UNL     1     -43.534 -47.841   7.775  1.00  0.00     0.021 C 
HETATM   12  C   UNL     1     -44.153 -45.644   8.844  1.00  0.00     0.021 C 
HETATM   13  C   UNL     1     -45.319 -47.742   9.512  1.00  0.00     0.021 C 
ENDBRANCH   7  10
ENDBRANCH   1   2
BRANCH   1  14
HETATM   14  C   UNL     1     -41.059 -51.003  11.796  1.00  0.00     0.162 C 
BRANCH  14  15
HETATM   15  O   UNL     1     -40.484 -50.509  10.576  1.00  0.00    -0.392 OA
HETATM   16  H   UNL     1     -40.324 -51.270   9.982  1.00  0.00     0.210 HD
ENDBRANCH  14  15
BRANCH  14  17
HETATM   17  C   UNL     1     -39.911 -51.447  12.710  1.00  0.00     0.201 C 
BRANCH  17  18
HETATM   18  O   UNL     1     -40.287 -52.612  13.432  1.00  0.00    -0.384 OA
BRANCH  18  19
HETATM   19  C   UNL     1     -40.908 -53.588  12.599  1.00  0.00     0.206 C 
BRANCH  19  20
HETATM   20  C   UNL     1     -42.199 -53.994  13.256  1.00  0.00    -0.035 A 
HETATM   21  C   UNL     1     -42.182 -54.640  14.503  1.00  0.00     0.009 A 
HETATM   22  C   UNL     1     -43.371 -55.045  15.110  1.00  0.00     0.001 A 
HETATM   23  C   UNL     1     -44.589 -54.811  14.480  1.00  0.00     0.000 A 
HETATM   24  C   UNL     1     -44.622 -54.166  13.243  1.00  0.00     0.001 A 
HETATM   25  C   UNL     1     -43.433 -53.758  12.634  1.00  0.00     0.009 A 
ENDBRANCH  19  20
ENDBRANCH  18  19
ENDBRANCH  17  18
ENDBRANCH  14  17
ENDBRANCH   1  14
TORSDOF 8
ENDMDL
MODEL 3
REMARK VINA RESULT:      -6.4      2.110      6.084
REMARK  8 active torsions:
REMARK  status: ('A' for Active; 'I' for Inactive)
REMARK    1  A    between atoms: C_2  and  C_5 
REMARK    2  A    between atoms: N_10  and  C_11 
REMARK    3  A    between atoms: C_11  and  C_12 
REMARK    4  A    between atoms: C_12  and  O_13 
REMARK    5  A    between atoms: C_12  and  C_14 
REMARK    6  A    between atoms: C_14  and  O_15 
REMARK    7  A    between atoms: O_15  and  C_16 
REMARK    8  A    between atoms: C_16  and  C_17 
ROOT
HETATM    1  C   UNL     1     -41.559 -50.143  12.277  1.00  0.00     0.186 C 
ENDROOT
BRANCH   1   2
HETATM    2  N   UNL     1     -42.267 -51.383  12.584  1.00  0.00    -0.255 N 
HETATM    3  C   UNL     1     -41.582 -52.587  12.550  1.00  0.00     0.262 A 
HETATM    4  C   UNL     1     -42.365 -53.783  12.912  1.00  0.00     0.078 A 
HETATM    5  O   UNL     1     -40.393 -52.701  12.260  1.00  0.00    -0.267 OA
HETATM    6  C   UNL     1     -43.648 -53.680  13.251  1.00  0.00     0.033 A 
HETATM    7  C   UNL     1     -44.264 -52.330  13.223  1.00  0.00     0.034 A 
HETATM    8  N   UNL     1     -43.597 -51.258  12.919  1.00  0.00    -0.299 N 
ATOM      9  HN  UNL     1     -44.048 -50.343  12.927  1.00  0.00     0.187 HD
BRANCH   7  10
HETATM   10  C   UNL     1     -45.774 -52.206  13.558  1.00  0.00    -0.007 C 
HETATM   11  C   UNL     1     -45.977 -51.196  14.697  1.00  0.00     0.021 C 
HETATM   12  C   UNL     1     -46.323 -53.584  13.967  1.00  0.00     0.021 C 
HETATM   13  C   UNL     1     -46.574 -51.719  12.334  1.00  0.00     0.021 C 
ENDBRANCH   7  10
ENDBRANCH   1   2
BRANCH   1  14
HETATM   14  C   UNL     1     -42.520 -48.979  11.962  1.00  0.00     0.162 C 
BRANCH  14  15
HETATM   15  O   UNL     1     -43.108 -48.408  13.141  1.00  0.00    -0.392 OA
HETATM   16  H   UNL     1     -43.690 -47.670  12.868  1.00  0.00     0.210 HD
ENDBRANCH  14  15
BRANCH  14  17
HETATM   17  C   UNL     1     -41.787 -47.858  11.215  1.00  0.00     0.201 C 
BRANCH  17  18
HETATM   18  O   UNL     1     -42.106 -47.907   9.830  1.00  0.00    -0.384 OA
BRANCH  18  19
HETATM   19  C   UNL     1     -43.024 -46.885   9.450  1.00  0.00     0.206 C 
BRANCH  19  20
HETATM   20  C   UNL     1     -44.236 -47.554   8.864  1.00  0.00    -0.035 A 
HETATM   21  C   UNL     1     -45.440 -47.587   9.586  1.00  0.00     0.009 A 
HETATM   22  C   UNL     1     -46.565 -48.228   9.065  1.00  0.00     0.001 A 
HETATM   23  C   UNL     1     -46.500 -48.842   7.817  1.00  0.00     0.000 A 
HETATM   24  C   UNL     1     -45.312 -48.812   7.087  1.00  0.00     0.001 A 
HETATM   25  C   UNL     1     -44.186 -48.171   7.606  1.00  0.00     0.009 A 
ENDBRANCH  19  20
ENDBRANCH  18  19
ENDBRANCH  17  18
ENDBRANCH  14  17
ENDBRANCH   1  14
TORSDOF 8
ENDMDL
MODEL 4
REMARK VINA RESULT:      -6.3      2.352      3.442
REMARK  8 active torsions:
REMARK  status: ('A' for Active; 'I' for Inactive)
REMARK    1  A    between atoms: C_2  and  C_5 
REMARK    2  A    between atoms: N_10  and  C_11 
REMARK    3  A    between atoms: C_11  and  C_12 
REMARK    4  A    between atoms: C_12  and  O_13 
REMARK    5  A    between atoms: C_12  and  C_14 
REMARK    6  A    between atoms: C_14  and  O_15 
REMARK    7  A    between atoms: O_15  and  C_16 
REMARK    8  A    between atoms: C_16  and  C_17 
ROOT
HETATM    1  C   UNL     1     -39.731 -52.428  13.489  1.00  0.00     0.186 C 
ENDROOT
BRANCH   1   2
HETATM    2  N   UNL     1     -39.389 -51.126  12.921  1.00  0.00    -0.255 N 
HETATM    3  C   UNL     1     -38.081 -50.866  12.547  1.00  0.00     0.262 A 
HETATM    4  C   UNL     1     -37.833 -49.543  11.945  1.00  0.00     0.078 A 
HETATM    5  O   UNL     1     -37.152 -51.663  12.671  1.00  0.00    -0.267 OA
HETATM    6  C   UNL     1     -38.829 -48.673  11.781  1.00  0.00     0.033 A 
HETATM    7  C   UNL     1     -40.180 -49.073  12.248  1.00  0.00     0.034 A 
HETATM    8  N   UNL     1     -40.428 -50.235  12.771  1.00  0.00    -0.299 N 
ATOM      9  HN  UNL     1     -41.373 -50.483  13.065  1.00  0.00     0.187 HD
BRANCH   7  10
HETATM   10  C   UNL     1     -41.334 -48.045  12.116  1.00  0.00    -0.007 C 
HETATM   11  C   UNL     1     -41.518 -47.650  10.643  1.00  0.00     0.021 C 
HETATM   12  C   UNL     1     -41.011 -46.801  12.961  1.00  0.00     0.021 C 
HETATM   13  C   UNL     1     -42.663 -48.635  12.626  1.00  0.00     0.021 C 
ENDBRANCH   7  10
ENDBRANCH   1   2
BRANCH   1  14
HETATM   14  C   UNL     1     -40.882 -53.117  12.730  1.00  0.00     0.162 C 
BRANCH  14  15
HETATM   15  O   UNL     1     -40.506 -53.533  11.408  1.00  0.00    -0.392 OA
HETATM   16  H   UNL     1     -39.547 -53.726  11.408  1.00  0.00     0.210 HD
ENDBRANCH  14  15
BRANCH  14  17
HETATM   17  C   UNL     1     -41.366 -54.357  13.490  1.00  0.00     0.201 C 
BRANCH  17  18
HETATM   18  O   UNL     1     -42.719 -54.185  13.892  1.00  0.00    -0.384 OA
BRANCH  18  19
HETATM   19  C   UNL     1     -43.564 -53.820  12.803  1.00  0.00     0.206 C 
BRANCH  19  20
HETATM   20  C   UNL     1     -44.644 -52.923  13.343  1.00  0.00    -0.035 A 
HETATM   21  C   UNL     1     -44.584 -52.471  14.672  1.00  0.00     0.009 A 
HETATM   22  C   UNL     1     -45.593 -51.660  15.193  1.00  0.00     0.001 A 
HETATM   23  C   UNL     1     -46.671 -51.291  14.394  1.00  0.00     0.000 A 
HETATM   24  C   UNL     1     -46.741 -51.727  13.071  1.00  0.00     0.001 A 
HETATM   25  C   UNL     1     -45.731 -52.539  12.547  1.00  0.00     0.009 A 
ENDBRANCH  19  20
ENDBRANCH  18  19
ENDBRANCH  17  18
ENDBRANCH  14  17
ENDBRANCH   1  14
TORSDOF 8
ENDMDL
MODEL 5
REMARK VINA RESULT:      -6.1      2.839      4.820
REMARK  8 active torsions:
REMARK  status: ('A' for Active; 'I' for Inactive)
REMARK    1  A    between atoms: C_2  and  C_5 
REMARK    2  A    between atoms: N_10  and  C_11 
REMARK    3  A    between atoms: C_11  and  C_12 
REMARK    4  A    between atoms: C_12  and  O_13 
REMARK    5  A    between atoms: C_12  and  C_14 
REMARK    6  A    between atoms: C_14  and  O_15 
REMARK    7  A    between atoms: O_15  and  C_16 
REMARK    8  A    between atoms: C_16  and  C_17 
ROOT
HETATM    1  C   UNL     1     -41.705 -49.414  12.301  1.00  0.00     0.186 C 
ENDROOT
BRANCH   1   2
HETATM    2  N   UNL     1     -42.559 -49.996  13.335  1.00  0.00    -0.255 N 
HETATM    3  C   UNL     1     -42.339 -49.672  14.664  1.00  0.00     0.262 A 
HETATM    4  C   UNL     1     -43.272 -50.272  15.636  1.00  0.00     0.078 A 
HETATM    5  O   UNL     1     -41.447 -48.922  15.057  1.00  0.00    -0.267 OA
HETATM    6  C   UNL     1     -44.258 -51.069  15.229  1.00  0.00     0.033 A 
HETATM    7  C   UNL     1     -44.365 -51.350  13.776  1.00  0.00     0.034 A 
HETATM    8  N   UNL     1     -43.564 -50.828  12.897  1.00  0.00    -0.299 N 
ATOM      9  HN  UNL     1     -43.678 -51.029  11.904  1.00  0.00     0.187 HD
BRANCH   7  10
HETATM   10  C   UNL     1     -45.473 -52.325  13.298  1.00  0.00    -0.007 C 
HETATM   11  C   UNL     1     -46.554 -51.553  12.528  1.00  0.00     0.021 C 
HETATM   12  C   UNL     1     -46.093 -53.032  14.515  1.00  0.00     0.021 C 
HETATM   13  C   UNL     1     -44.895 -53.406  12.364  1.00  0.00     0.021 C 
ENDBRANCH   7  10
ENDBRANCH   1   2
BRANCH   1  14
HETATM   14  C   UNL     1     -40.855 -50.476  11.575  1.00  0.00     0.162 C 
BRANCH  14  15
HETATM   15  O   UNL     1     -40.415 -50.044  10.278  1.00  0.00    -0.392 OA
HETATM   16  H   UNL     1     -39.742 -49.344  10.398  1.00  0.00     0.210 HD
ENDBRANCH  14  15
BRANCH  14  17
HETATM   17  C   UNL     1     -39.610 -50.827  12.397  1.00  0.00     0.201 C 
BRANCH  17  18
HETATM   18  O   UNL     1     -39.665 -52.188  12.806  1.00  0.00    -0.384 OA
BRANCH  18  19
HETATM   19  C   UNL     1     -39.460 -52.341  14.209  1.00  0.00     0.206 C 
BRANCH  19  20
HETATM   20  C   UNL     1     -40.643 -53.085  14.765  1.00  0.00    -0.035 A 
HETATM   21  C   UNL     1     -40.948 -52.999  16.133  1.00  0.00     0.009 A 
HETATM   22  C   UNL     1     -42.026 -53.706  16.667  1.00  0.00     0.001 A 
HETATM   23  C   UNL     1     -42.811 -54.506  15.841  1.00  0.00     0.000 A 
HETATM   24  C   UNL     1     -42.522 -54.597  14.480  1.00  0.00     0.001 A 
HETATM   25  C   UNL     1     -41.444 -53.889  13.943  1.00  0.00     0.009 A 
ENDBRANCH  19  20
ENDBRANCH  18  19
ENDBRANCH  17  18
ENDBRANCH  14  17
ENDBRANCH   1  14
TORSDOF 8
ENDMDL
MODEL 6
REMARK VINA RESULT:      -5.9      2.396      3.292
REMARK  8 active torsions:
REMARK  status: ('A' for Active; 'I' for Inactive)
REMARK    1  A    between atoms: C_2  and  C_5 
REMARK    2  A    between atoms: N_10  and  C_11 
REMARK    3  A    between atoms: C_11  and  C_12 
REMARK    4  A    between atoms: C_12  and  O_13 
REMARK    5  A    between atoms: C_12  and  C_14 
REMARK    6  A    between atoms: C_14  and  O_15 
REMARK    7  A    between atoms: O_15  and  C_16 
REMARK    8  A    between atoms: C_16  and  C_17 
ROOT
HETATM    1  C   UNL     1     -39.259 -50.334  12.511  1.00  0.00     0.186 C 
ENDROOT
BRANCH   1   2
HETATM    2  N   UNL     1     -39.045 -48.992  13.048  1.00  0.00    -0.255 N 
HETATM    3  C   UNL     1     -38.148 -48.809  14.089  1.00  0.00     0.262 A 
HETATM    4  C   UNL     1     -37.963 -47.418  14.542  1.00  0.00     0.078 A 
HETATM    5  O   UNL     1     -37.509 -49.714  14.622  1.00  0.00    -0.267 OA
HETATM    6  C   UNL     1     -38.629 -46.420  13.963  1.00  0.00     0.033 A 
HETATM    7  C   UNL     1     -39.576 -46.762  12.873  1.00  0.00     0.034 A 
HETATM    8  N   UNL     1     -39.751 -47.976  12.447  1.00  0.00    -0.299 N 
ATOM      9  HN  UNL     1     -40.397 -48.172  11.683  1.00  0.00     0.187 HD
BRANCH   7  10
HETATM   10  C   UNL     1     -40.401 -45.614  12.234  1.00  0.00    -0.007 C 
HETATM   11  C   UNL     1     -41.789 -45.538  12.887  1.00  0.00     0.021 C 
HETATM   12  C   UNL     1     -40.540 -45.863  10.722  1.00  0.00     0.021 C 
HETATM   13  C   UNL     1     -39.703 -44.254  12.430  1.00  0.00     0.021 C 
ENDBRANCH   7  10
ENDBRANCH   1   2
BRANCH   1  14
HETATM   14  C   UNL     1     -40.614 -50.468  11.788  1.00  0.00     0.162 C 
BRANCH  14  15
HETATM   15  O   UNL     1     -40.540 -50.117  10.397  1.00  0.00    -0.392 OA
HETATM   16  H   UNL     1     -40.870 -49.202  10.294  1.00  0.00     0.210 HD
ENDBRANCH  14  15
BRANCH  14  17
HETATM   17  C   UNL     1     -41.137 -51.907  11.880  1.00  0.00     0.201 C 
BRANCH  17  18
HETATM   18  O   UNL     1     -42.486 -51.907  12.330  1.00  0.00    -0.384 OA
BRANCH  18  19
HETATM   19  C   UNL     1     -42.804 -50.741  13.087  1.00  0.00     0.206 C 
BRANCH  19  20
HETATM   20  C   UNL     1     -44.137 -50.973  13.744  1.00  0.00    -0.035 A 
HETATM   21  C   UNL     1     -45.243 -51.365  12.973  1.00  0.00     0.009 A 
HETATM   22  C   UNL     1     -46.491 -51.557  13.566  1.00  0.00     0.001 A 
HETATM   23  C   UNL     1     -46.648 -51.361  14.935  1.00  0.00     0.000 A 
HETATM   24  C   UNL     1     -45.557 -50.977  15.714  1.00  0.00     0.001 A 
HETATM   25  C   UNL     1     -44.306 -50.785  15.122  1.00  0.00     0.009 A 
ENDBRANCH  19  20
ENDBRANCH  18  19
ENDBRANCH  17  18
ENDBRANCH  14  17
ENDBRANCH   1  14
TORSDOF 8
ENDMDL
MODEL 7
REMARK VINA RESULT:      -5.8      1.857      5.924
REMARK  8 active torsions:
REMARK  status: ('A' for Active; 'I' for Inactive)
REMARK    1  A    between atoms: C_2  and  C_5 
REMARK    2  A    between atoms: N_10  and  C_11 
REMARK    3  A    between atoms: C_11  and  C_12 
REMARK    4  A    between atoms: C_12  and  O_13 
REMARK    5  A    between atoms: C_12  and  C_14 
REMARK    6  A    between atoms: C_14  and  O_15 
REMARK    7  A    between atoms: O_15  and  C_16 
REMARK    8  A    between atoms: C_16  and  C_17 
ROOT
HETATM    1  C   UNL     1     -41.424 -50.582  11.945  1.00  0.00     0.186 C 
ENDROOT
BRANCH   1   2
HETATM    2  N   UNL     1     -42.191 -51.712  12.465  1.00  0.00    -0.255 N 
HETATM    3  C   UNL     1     -41.587 -52.954  12.578  1.00  0.00     0.262 A 
HETATM    4  C   UNL     1     -42.422 -54.027  13.150  1.00  0.00     0.078 A 
HETATM    5  O   UNL     1     -40.425 -53.193  12.253  1.00  0.00    -0.267 OA
HETATM    6  C   UNL     1     -43.675 -53.785  13.528  1.00  0.00     0.033 A 
HETATM    7  C   UNL     1     -44.205 -52.413  13.330  1.00  0.00     0.034 A 
HETATM    8  N   UNL     1     -43.489 -51.446  12.839  1.00  0.00    -0.299 N 
ATOM      9  HN  UNL     1     -43.880 -50.510  12.733  1.00  0.00     0.187 HD
BRANCH   7  10
HETATM   10  C   UNL     1     -45.682 -52.136  13.712  1.00  0.00    -0.007 C 
HETATM   11  C   UNL     1     -45.745 -51.103  14.848  1.00  0.00     0.021 C 
HETATM   12  C   UNL     1     -46.353 -53.448  14.151  1.00  0.00     0.021 C 
HETATM   13  C   UNL     1     -46.470 -51.577  12.510  1.00  0.00     0.021 C 
ENDBRANCH   7  10
ENDBRANCH   1   2
BRANCH   1  14
HETATM   14  C   UNL     1     -40.515 -49.946  13.017  1.00  0.00     0.162 C 
BRANCH  14  15
HETATM   15  O   UNL     1     -39.152 -50.385  12.921  1.00  0.00    -0.392 OA
HETATM   16  H   UNL     1     -38.595 -49.772  13.442  1.00  0.00     0.210 HD
ENDBRANCH  14  15
BRANCH  14  17
HETATM   17  C   UNL     1     -40.525 -48.418  12.896  1.00  0.00     0.201 C 
BRANCH  17  18
HETATM   18  O   UNL     1     -41.839 -47.961  12.601  1.00  0.00    -0.384 OA
BRANCH  18  19
HETATM   19  C   UNL     1     -41.841 -46.666  12.006  1.00  0.00     0.206 C 
BRANCH  19  20
HETATM   20  C   UNL     1     -42.894 -46.657  10.933  1.00  0.00    -0.035 A 
HETATM   21  C   UNL     1     -43.872 -47.664  10.899  1.00  0.00     0.009 A 
HETATM   22  C   UNL     1     -44.840 -47.683   9.894  1.00  0.00     0.001 A 
HETATM   23  C   UNL     1     -44.842 -46.695   8.912  1.00  0.00     0.000 A 
HETATM   24  C   UNL     1     -43.880 -45.686   8.937  1.00  0.00     0.001 A 
HETATM   25  C   UNL     1     -42.911 -45.665   9.944  1.00  0.00     0.009 A 
ENDBRANCH  19  20
ENDBRANCH  18  19
ENDBRANCH  17  18
ENDBRANCH  14  17
ENDBRANCH   1  14
TORSDOF 8
ENDMDL
MODEL 8
REMARK VINA RESULT:      -5.7      2.386      6.676
REMARK  8 active torsions:
REMARK  status: ('A' for Active; 'I' for Inactive)
REMARK    1  A    between atoms: C_2  and  C_5 
REMARK    2  A    between atoms: N_10  and  C_11 
REMARK    3  A    between atoms: C_11  and  C_12 
REMARK    4  A    between atoms: C_12  and  O_13 
REMARK    5  A    between atoms: C_12  and  C_14 
REMARK    6  A    between atoms: C_14  and  O_15 
REMARK    7  A    between atoms: O_15  and  C_16 
REMARK    8  A    between atoms: C_16  and  C_17 
ROOT
HETATM    1  C   UNL     1     -41.527 -52.014  11.713  1.00  0.00     0.186 C 
ENDROOT
BRANCH   1   2
HETATM    2  N   UNL     1     -42.396 -52.755  12.626  1.00  0.00    -0.255 N 
HETATM    3  C   UNL     1     -41.947 -53.941  13.183  1.00  0.00     0.262 A 
HETATM    4  C   UNL     1     -42.872 -54.601  14.123  1.00  0.00     0.078 A 
HETATM    5  O   UNL     1     -40.849 -54.445  12.953  1.00  0.00    -0.267 OA
HETATM    6  C   UNL     1     -44.057 -54.062  14.403  1.00  0.00     0.033 A 
HETATM    7  C   UNL     1     -44.420 -52.797  13.717  1.00  0.00     0.034 A 
HETATM    8  N   UNL     1     -43.622 -52.189  12.893  1.00  0.00    -0.299 N 
ATOM      9  HN  UNL     1     -43.897 -51.311  12.453  1.00  0.00     0.187 HD
BRANCH   7  10
HETATM   10  C   UNL     1     -45.822 -52.192  13.990  1.00  0.00    -0.007 C 
HETATM   11  C   UNL     1     -46.401 -51.604  12.695  1.00  0.00     0.021 C 
HETATM   12  C   UNL     1     -45.708 -51.097  15.064  1.00  0.00     0.021 C 
HETATM   13  C   UNL     1     -46.798 -53.267  14.509  1.00  0.00     0.021 C 
ENDBRANCH   7  10
ENDBRANCH   1   2
BRANCH   1  14
HETATM   14  C   UNL     1     -40.482 -51.160  12.459  1.00  0.00     0.162 C 
BRANCH  14  15
HETATM   15  O   UNL     1     -39.170 -51.259  11.884  1.00  0.00    -0.392 OA
HETATM   16  H   UNL     1     -39.062 -52.161  11.519  1.00  0.00     0.210 HD
ENDBRANCH  14  15
BRANCH  14  17
HETATM   17  C   UNL     1     -40.887 -49.681  12.450  1.00  0.00     0.201 C 
BRANCH  17  18
HETATM   18  O   UNL     1     -40.639 -49.116  11.170  1.00  0.00    -0.384 OA
BRANCH  18  19
HETATM   19  C   UNL     1     -41.734 -48.332  10.703  1.00  0.00     0.206 C 
BRANCH  19  20
HETATM   20  C   UNL     1     -41.369 -46.884  10.881  1.00  0.00    -0.035 A 
HETATM   21  C   UNL     1     -42.378 -45.910  10.959  1.00  0.00     0.009 A 
HETATM   22  C   UNL     1     -42.053 -44.560  11.098  1.00  0.00     0.001 A 
HETATM   23  C   UNL     1     -40.718 -44.169  11.161  1.00  0.00     0.000 A 
HETATM   24  C   UNL     1     -39.707 -45.126  11.090  1.00  0.00     0.001 A 
HETATM   25  C   UNL     1     -40.030 -46.478  10.952  1.00  0.00     0.009 A 
ENDBRANCH  19  20
ENDBRANCH  18  19
ENDBRANCH  17  18
ENDBRANCH  14  17
ENDBRANCH   1  14
TORSDOF 8
ENDMDL
MODEL 9
REMARK VINA RESULT:      -5.7      3.816      6.687
REMARK  8 active torsions:
REMARK  status: ('A' for Active; 'I' for Inactive)
REMARK    1  A    between atoms: C_2  and  C_5 
REMARK    2  A    between atoms: N_10  and  C_11 
REMARK    3  A    between atoms: C_11  and  C_12 
REMARK    4  A    between atoms: C_12  and  O_13 
REMARK    5  A    between atoms: C_12  and  C_14 
REMARK    6  A    between atoms: C_14  and  O_15 
REMARK    7  A    between atoms: O_15  and  C_16 
REMARK    8  A    between atoms: C_16  and  C_17 
ROOT
HETATM    1  C   UNL     1     -41.281 -52.766  12.271  1.00  0.00     0.186 C 
ENDROOT
BRANCH   1   2
HETATM    2  N   UNL     1     -42.061 -53.531  13.242  1.00  0.00    -0.255 N 
HETATM    3  C   UNL     1     -43.409 -53.752  13.012  1.00  0.00     0.262 A 
HETATM    4  C   UNL     1     -44.109 -54.567  14.022  1.00  0.00     0.078 A 
HETATM    5  O   UNL     1     -44.025 -53.331  12.034  1.00  0.00    -0.267 OA
HETATM    6  C   UNL     1     -43.457 -55.051  15.077  1.00  0.00     0.033 A 
HETATM    7  C   UNL     1     -42.017 -54.718  15.211  1.00  0.00     0.034 A 
HETATM    8  N   UNL     1     -41.372 -54.012  14.332  1.00  0.00    -0.299 N 
ATOM      9  HN  UNL     1     -40.378 -53.818  14.448  1.00  0.00     0.187 HD
BRANCH   7  10
HETATM   10  C   UNL     1     -41.262 -55.227  16.467  1.00  0.00    -0.007 C 
HETATM   11  C   UNL     1     -39.777 -55.441  16.136  1.00  0.00     0.021 C 
HETATM   12  C   UNL     1     -41.892 -56.546  16.946  1.00  0.00     0.021 C 
HETATM   13  C   UNL     1     -41.356 -54.209  17.621  1.00  0.00     0.021 C 
ENDBRANCH   7  10
ENDBRANCH   1   2
BRANCH   1  14
HETATM   14  C   UNL     1     -41.402 -51.244  12.488  1.00  0.00     0.162 C 
BRANCH  14  15
HETATM   15  O   UNL     1     -42.615 -50.700  11.944  1.00  0.00    -0.392 OA
HETATM   16  H   UNL     1     -42.465 -49.754  11.745  1.00  0.00     0.210 HD
ENDBRANCH  14  15
BRANCH  14  17
HETATM   17  C   UNL     1     -41.366 -50.906  13.983  1.00  0.00     0.201 C 
BRANCH  17  18
HETATM   18  O   UNL     1     -42.620 -50.376  14.392  1.00  0.00    -0.384 OA
BRANCH  18  19
HETATM   19  C   UNL     1     -43.008 -50.839  15.683  1.00  0.00     0.206 C 
BRANCH  19  20
HETATM   20  C   UNL     1     -44.436 -51.302  15.593  1.00  0.00    -0.035 A 
HETATM   21  C   UNL     1     -45.196 -51.018  14.447  1.00  0.00     0.009 A 
HETATM   22  C   UNL     1     -46.531 -51.418  14.362  1.00  0.00     0.001 A 
HETATM   23  C   UNL     1     -47.119 -52.106  15.419  1.00  0.00     0.000 A 
HETATM   24  C   UNL     1     -46.374 -52.399  16.561  1.00  0.00     0.001 A 
HETATM   25  C   UNL     1     -45.039 -52.000  16.648  1.00  0.00     0.009 A 
ENDBRANCH  19  20
ENDBRANCH  18  19
ENDBRANCH  17  18
ENDBRANCH  14  17
ENDBRANCH   1  14
TORSDOF 8
ENDMDL
