MODEL 1
REMARK VINA RESULT:      -6.5      0.000      0.000
REMARK  5 active torsions:
REMARK  status: ('A' for Active; 'I' for Inactive)
REMARK    1  A    between atoms: C_7  and  O_8 
REMARK    2  A    between atoms: O_8  and  C_9 
REMARK    3  A    between atoms: C_9  and  C_10 
REMARK    4  A    between atoms: C_10  and  N_11 
REMARK       I    between atoms: N_11  and  C_12 
REMARK       I    between atoms: C_12  and  N_14 
REMARK    5  A    between atoms: N_14  and  C_15 
ROOT
HETATM    1  N   UNL     1     -41.270 -53.095  11.983  1.00  0.00    -0.341 N 
HETATM    2  C   UNL     1     -40.993 -51.802  12.303  1.00  0.00     0.321 C 
HETATM    3  O   UNL     1     -40.906 -51.341  13.425  1.00  0.00    -0.247 OA
HETATM    4  N   UNL     1     -40.882 -51.010  11.133  1.00  0.00    -0.293 N 
HETATM    5  H   UNL     1     -40.994 -53.468  11.086  1.00  0.00     0.164 HD
HETATM    6  H   UNL     1     -41.115 -51.425  10.247  1.00  0.00     0.172 HD
ENDROOT
BRANCH   1   7
HETATM    7  C   UNL     1     -41.396 -54.040  13.075  1.00  0.00     0.150 C 
BRANCH   7   8
HETATM    8  C   UNL     1     -42.830 -54.183  13.569  1.00  0.00     0.188 C 
BRANCH   8   9
HETATM    9  O   UNL     1     -43.711 -53.584  12.613  1.00  0.00    -0.384 OA
BRANCH   9  10
HETATM   10  C   UNL     1     -45.005 -53.269  13.150  1.00  0.00     0.125 C 
HETATM   11  C   UNL     1     -45.406 -51.789  12.950  1.00  0.00     0.010 C 
HETATM   12  C   UNL     1     -44.329 -50.809  13.437  1.00  0.00     0.012 C 
HETATM   13  C   UNL     1     -46.764 -51.514  13.607  1.00  0.00     0.007 C 
HETATM   14  C   UNL     1     -46.793 -51.896  15.083  1.00  0.00     0.001 C 
HETATM   15  C   UNL     1     -46.343 -53.338  15.306  1.00  0.00     0.002 C 
HETATM   16  C   UNL     1     -45.004 -53.645  14.639  1.00  0.00     0.032 C 
ENDBRANCH   9  10
ENDBRANCH   8   9
ENDBRANCH   7   8
ENDBRANCH   1   7
BRANCH   4  17
HETATM   17  C   UNL     1     -40.598 -49.648  11.182  1.00  0.00     0.127 A 
HETATM   18  C   UNL     1     -41.459 -48.595  10.974  1.00  0.00     0.076 A 
HETATM   19  C   UNL     1     -40.674 -47.429  11.108  1.00  0.00     0.025 A 
HETATM   20  C   UNL     1     -41.107 -46.019  10.950  1.00  0.00     0.070 C 
HETATM   21  N   UNL     1     -39.402 -47.725  11.404  1.00  0.00    -0.302 N 
HETATM   22  N   UNL     1     -39.379 -49.070  11.442  1.00  0.00    -0.281 N 
ATOM     23  HN  UNL     1     -38.629 -47.079  11.563  1.00  0.00     0.186 HD
HETATM   24  C   UNL     1     -38.120 -49.746  11.628  1.00  0.00     0.179 C 
ENDBRANCH   4  17
TORSDOF 5
ENDMDL
MODEL 2
REMARK VINA RESULT:      -6.3      1.675      2.777
REMARK  5 active torsions:
REMARK  status: ('A' for Active; 'I' for Inactive)
REMARK    1  A    between atoms: C_7  and  O_8 
REMARK    2  A    between atoms: O_8  and  C_9 
REMARK    3  A    between atoms: C_9  and  C_10 
REMARK    4  A    between atoms: C_10  and  N_11 
REMARK       I    between atoms: N_11  and  C_12 
REMARK       I    between atoms: C_12  and  N_14 
REMARK    5  A    between atoms: N_14  and  C_15 
ROOT
HETATM    1  N   UNL     1     -41.087 -51.135  11.350  1.00  0.00    -0.341 N 
HETATM    2  C   UNL     1     -41.301 -49.833  11.681  1.00  0.00     0.321 C 
HETATM    3  O   UNL     1     -41.685 -49.418  12.757  1.00  0.00    -0.247 OA
HETATM    4  N   UNL     1     -41.083 -48.990  10.562  1.00  0.00    -0.293 N 
HETATM    5  H   UNL     1     -40.463 -51.372  10.591  1.00  0.00     0.164 HD
HETATM    6  H   UNL     1     -40.914 -49.414   9.666  1.00  0.00     0.172 HD
ENDROOT
BRANCH   1   7
HETATM    7  C   UNL     1     -41.251 -52.124  12.396  1.00  0.00     0.150 C 
BRANCH   7   8
HETATM    8  C   UNL     1     -42.661 -52.698  12.449  1.00  0.00     0.188 C 
BRANCH   8   9
HETATM    9  O   UNL     1     -42.850 -53.345  13.712  1.00  0.00    -0.384 OA
BRANCH   9  10
HETATM   10  C   UNL     1     -44.016 -52.890  14.417  1.00  0.00     0.125 C 
HETATM   11  C   UNL     1     -44.914 -54.043  14.921  1.00  0.00     0.010 C 
HETATM   12  C   UNL     1     -45.268 -55.049  13.816  1.00  0.00     0.012 C 
HETATM   13  C   UNL     1     -46.168 -53.479  15.600  1.00  0.00     0.007 C 
HETATM   14  C   UNL     1     -46.950 -52.528  14.700  1.00  0.00     0.001 C 
HETATM   15  C   UNL     1     -46.064 -51.415  14.146  1.00  0.00     0.002 C 
HETATM   16  C   UNL     1     -44.794 -51.949  13.486  1.00  0.00     0.032 C 
ENDBRANCH   9  10
ENDBRANCH   8   9
ENDBRANCH   7   8
ENDBRANCH   1   7
BRANCH   4  17
HETATM   17  C   UNL     1     -41.231 -47.607  10.633  1.00  0.00     0.127 A 
HETATM   18  C   UNL     1     -40.288 -46.671  10.989  1.00  0.00     0.076 A 
HETATM   19  C   UNL     1     -40.949 -45.424  10.929  1.00  0.00     0.025 A 
HETATM   20  C   UNL     1     -40.393 -44.086  11.248  1.00  0.00     0.070 C 
HETATM   21  N   UNL     1     -42.222 -45.561  10.540  1.00  0.00    -0.302 N 
HETATM   22  N   UNL     1     -42.371 -46.887  10.368  1.00  0.00    -0.281 N 
ATOM     23  HN  UNL     1     -42.918 -44.829  10.405  1.00  0.00     0.186 HD
HETATM   24  C   UNL     1     -43.675 -47.413  10.051  1.00  0.00     0.179 C 
ENDBRANCH   4  17
TORSDOF 5
ENDMDL
MODEL 3
REMARK VINA RESULT:      -6.3      1.740      2.542
REMARK  5 active torsions:
REMARK  status: ('A' for Active; 'I' for Inactive)
REMARK    1  A    between atoms: C_7  and  O_8 
REMARK    2  A    between atoms: O_8  and  C_9 
REMARK    3  A    between atoms: C_9  and  C_10 
REMARK    4  A    between atoms: C_10  and  N_11 
REMARK       I    between atoms: N_11  and  C_12 
REMARK       I    between atoms: C_12  and  N_14 
REMARK    5  A    between atoms: N_14  and  C_15 
ROOT
HETATM    1  N   UNL     1     -40.952 -51.128  11.360  1.00  0.00    -0.341 N 
HETATM    2  C   UNL     1     -41.113 -49.818  11.694  1.00  0.00     0.321 C 
HETATM    3  O   UNL     1     -41.281 -49.376  12.814  1.00  0.00    -0.247 OA
HETATM    4  N   UNL     1     -41.133 -49.005  10.533  1.00  0.00    -0.293 N 
HETATM    5  H   UNL     1     -40.489 -51.381  10.499  1.00  0.00     0.164 HD
HETATM    6  H   UNL     1     -41.141 -49.454   9.632  1.00  0.00     0.172 HD
ENDROOT
BRANCH   1   7
HETATM    7  C   UNL     1     -40.892 -52.088  12.444  1.00  0.00     0.150 C 
BRANCH   7   8
HETATM    8  C   UNL     1     -42.142 -52.955  12.533  1.00  0.00     0.188 C 
BRANCH   8   9
HETATM    9  O   UNL     1     -43.292 -52.105  12.580  1.00  0.00    -0.384 OA
BRANCH   9  10
HETATM   10  C   UNL     1     -44.508 -52.807  12.883  1.00  0.00     0.125 C 
HETATM   11  C   UNL     1     -45.422 -52.049  13.872  1.00  0.00     0.010 C 
HETATM   12  C   UNL     1     -44.685 -51.604  15.144  1.00  0.00     0.012 C 
HETATM   13  C   UNL     1     -46.663 -52.889  14.198  1.00  0.00     0.007 C 
HETATM   14  C   UNL     1     -46.314 -54.276  14.727  1.00  0.00     0.001 C 
HETATM   15  C   UNL     1     -45.363 -55.018  13.790  1.00  0.00     0.002 C 
HETATM   16  C   UNL     1     -44.131 -54.192  13.429  1.00  0.00     0.032 C 
ENDBRANCH   9  10
ENDBRANCH   8   9
ENDBRANCH   7   8
ENDBRANCH   1   7
BRANCH   4  17
HETATM   17  C   UNL     1     -41.282 -47.623  10.596  1.00  0.00     0.127 A 
HETATM   18  C   UNL     1     -40.325 -46.679  10.888  1.00  0.00     0.076 A 
HETATM   19  C   UNL     1     -40.992 -45.435  10.851  1.00  0.00     0.025 A 
HETATM   20  C   UNL     1     -40.425 -44.092  11.123  1.00  0.00     0.070 C 
HETATM   21  N   UNL     1     -42.284 -45.580  10.534  1.00  0.00    -0.302 N 
HETATM   22  N   UNL     1     -42.437 -46.909  10.385  1.00  0.00    -0.281 N 
ATOM     23  HN  UNL     1     -42.990 -44.852  10.429  1.00  0.00     0.186 HD
HETATM   24  C   UNL     1     -43.755 -47.442  10.147  1.00  0.00     0.179 C 
ENDBRANCH   4  17
TORSDOF 5
ENDMDL
MODEL 4
REMARK VINA RESULT:      -6.1      1.931      2.971
REMARK  5 active torsions:
REMARK  status: ('A' for Active; 'I' for Inactive)
REMARK    1  A    between atoms: C_7  and  O_8 
REMARK    2  A    between atoms: O_8  and  C_9 
REMARK    3  A    between atoms: C_9  and  C_10 
REMARK    4  A    between atoms: C_10  and  N_11 
REMARK       I    between atoms: N_11  and  C_12 
REMARK       I    between atoms: C_12  and  N_14 
REMARK    5  A    between atoms: N_14  and  C_15 
ROOT
HETATM    1  N   UNL     1     -40.128 -50.640  12.111  1.00  0.00    -0.341 N 
HETATM    2  C   UNL     1     -40.903 -49.524  12.031  1.00  0.00     0.321 C 
HETATM    3  O   UNL     1     -41.530 -49.016  12.941  1.00  0.00    -0.247 OA
HETATM    4  N   UNL     1     -40.951 -49.044  10.698  1.00  0.00    -0.293 N 
HETATM    5  H   UNL     1     -39.392 -50.799  11.438  1.00  0.00     0.164 HD
HETATM    6  H   UNL     1     -40.533 -49.600   9.971  1.00  0.00     0.172 HD
ENDROOT
BRANCH   1   7
HETATM    7  C   UNL     1     -39.962 -51.243  13.419  1.00  0.00     0.150 C 
BRANCH   7   8
HETATM    8  C   UNL     1     -40.247 -52.740  13.419  1.00  0.00     0.188 C 
BRANCH   8   9
HETATM    9  O   UNL     1     -41.235 -53.023  12.423  1.00  0.00    -0.384 OA
BRANCH   9  10
HETATM   10  C   UNL     1     -42.272 -53.904  12.884  1.00  0.00     0.125 C 
HETATM   11  C   UNL     1     -43.695 -53.343  12.657  1.00  0.00     0.010 C 
HETATM   12  C   UNL     1     -43.869 -51.919  13.203  1.00  0.00     0.012 C 
HETATM   13  C   UNL     1     -44.741 -54.305  13.235  1.00  0.00     0.007 C 
HETATM   14  C   UNL     1     -44.504 -54.620  14.708  1.00  0.00     0.001 C 
HETATM   15  C   UNL     1     -43.083 -55.119  14.960  1.00  0.00     0.002 C 
HETATM   16  C   UNL     1     -42.022 -54.192  14.372  1.00  0.00     0.032 C 
ENDBRANCH   9  10
ENDBRANCH   8   9
ENDBRANCH   7   8
ENDBRANCH   1   7
BRANCH   4  17
HETATM   17  C   UNL     1     -41.675 -47.909  10.343  1.00  0.00     0.127 A 
HETATM   18  C   UNL     1     -42.928 -47.845   9.779  1.00  0.00     0.076 A 
HETATM   19  C   UNL     1     -43.191 -46.470   9.591  1.00  0.00     0.025 A 
HETATM   20  C   UNL     1     -44.395 -45.850   8.987  1.00  0.00     0.070 C 
HETATM   21  N   UNL     1     -42.178 -45.712  10.028  1.00  0.00    -0.302 N 
HETATM   22  N   UNL     1     -41.273 -46.602  10.477  1.00  0.00    -0.281 N 
ATOM     23  HN  UNL     1     -42.107 -44.695  10.022  1.00  0.00     0.186 HD
HETATM   24  C   UNL     1     -39.986 -46.131  10.925  1.00  0.00     0.179 C 
ENDBRANCH   4  17
TORSDOF 5
ENDMDL
MODEL 5
REMARK VINA RESULT:      -5.8      2.776      4.685
REMARK  5 active torsions:
REMARK  status: ('A' for Active; 'I' for Inactive)
REMARK    1  A    between atoms: C_7  and  O_8 
REMARK    2  A    between atoms: O_8  and  C_9 
REMARK    3  A    between atoms: C_9  and  C_10 
REMARK    4  A    between atoms: C_10  and  N_11 
REMARK       I    between atoms: N_11  and  C_12 
REMARK       I    between atoms: C_12  and  N_14 
REMARK    5  A    between atoms: N_14  and  C_15 
ROOT
HETATM    1  N   UNL     1     -40.994 -49.715  10.973  1.00  0.00    -0.341 N 
HETATM    2  C   UNL     1     -41.800 -48.635  11.160  1.00  0.00     0.321 C 
HETATM    3  O   UNL     1     -42.720 -48.552  11.950  1.00  0.00    -0.247 OA
HETATM    4  N   UNL     1     -41.474 -47.604  10.243  1.00  0.00    -0.293 N 
HETATM    5  H   UNL     1     -40.074 -49.601  10.571  1.00  0.00     0.164 HD
HETATM    6  H   UNL     1     -40.804 -47.798   9.519  1.00  0.00     0.172 HD
ENDROOT
BRANCH   1   7
HETATM    7  C   UNL     1     -41.190 -50.852  11.850  1.00  0.00     0.150 C 
BRANCH   7   8
HETATM    8  C   UNL     1     -39.884 -51.392  12.418  1.00  0.00     0.188 C 
BRANCH   8   9
HETATM    9  O   UNL     1     -40.015 -52.804  12.618  1.00  0.00    -0.384 OA
BRANCH   9  10
HETATM   10  C   UNL     1     -40.846 -53.145  13.739  1.00  0.00     0.125 C 
HETATM   11  C   UNL     1     -40.050 -53.711  14.938  1.00  0.00     0.010 C 
HETATM   12  C   UNL     1     -39.117 -54.865  14.543  1.00  0.00     0.012 C 
HETATM   13  C   UNL     1     -41.008 -54.115  16.066  1.00  0.00     0.007 C 
HETATM   14  C   UNL     1     -42.081 -55.097  15.606  1.00  0.00     0.001 C 
HETATM   15  C   UNL     1     -42.838 -54.580  14.385  1.00  0.00     0.002 C 
HETATM   16  C   UNL     1     -41.905 -54.147  13.256  1.00  0.00     0.032 C 
ENDBRANCH   9  10
ENDBRANCH   8   9
ENDBRANCH   7   8
ENDBRANCH   1   7
BRANCH   4  17
HETATM   17  C   UNL     1     -42.148 -46.386  10.225  1.00  0.00     0.127 A 
HETATM   18  C   UNL     1     -41.859 -45.247  10.940  1.00  0.00     0.076 A 
HETATM   19  C   UNL     1     -42.856 -44.311  10.584  1.00  0.00     0.025 A 
HETATM   20  C   UNL     1     -43.027 -42.929  11.094  1.00  0.00     0.070 C 
HETATM   21  N   UNL     1     -43.708 -44.819   9.686  1.00  0.00    -0.302 N 
HETATM   22  N   UNL     1     -43.262 -46.073   9.485  1.00  0.00    -0.281 N 
ATOM     23  HN  UNL     1     -44.511 -44.362   9.255  1.00  0.00     0.186 HD
HETATM   24  C   UNL     1     -44.024 -46.963   8.643  1.00  0.00     0.179 C 
ENDBRANCH   4  17
TORSDOF 5
ENDMDL
MODEL 6
REMARK VINA RESULT:      -5.6      2.267      7.335
REMARK  5 active torsions:
REMARK  status: ('A' for Active; 'I' for Inactive)
REMARK    1  A    between atoms: C_7  and  O_8 
REMARK    2  A    between atoms: O_8  and  C_9 
REMARK    3  A    between atoms: C_9  and  C_10 
REMARK    4  A    between atoms: C_10  and  N_11 
REMARK       I    between atoms: N_11  and  C_12 
REMARK       I    between atoms: C_12  and  N_14 
REMARK    5  A    between atoms: N_14  and  C_15 
ROOT
HETATM    1  N   UNL     1     -40.873 -50.594  11.113  1.00  0.00    -0.341 N 
HETATM    2  C   UNL     1     -41.558 -51.202  12.119  1.00  0.00     0.321 C 
HETATM    3  O   UNL     1     -41.662 -50.802  13.263  1.00  0.00    -0.247 OA
HETATM    4  N   UNL     1     -42.098 -52.438  11.682  1.00  0.00    -0.293 N 
HETATM    5  H   UNL     1     -41.107 -50.786  10.149  1.00  0.00     0.164 HD
HETATM    6  H   UNL     1     -41.845 -52.777  10.769  1.00  0.00     0.172 HD
ENDROOT
BRANCH   1   7
HETATM    7  C   UNL     1     -40.274 -49.306  11.398  1.00  0.00     0.150 C 
BRANCH   7   8
HETATM    8  C   UNL     1     -41.148 -48.138  10.960  1.00  0.00     0.188 C 
BRANCH   8   9
HETATM    9  O   UNL     1     -40.376 -46.935  11.020  1.00  0.00    -0.384 OA
BRANCH   9  10
HETATM   10  C   UNL     1     -40.665 -46.130  12.174  1.00  0.00     0.125 C 
HETATM   11  C   UNL     1     -41.134 -44.700  11.821  1.00  0.00     0.010 C 
HETATM   12  C   UNL     1     -40.187 -43.985  10.846  1.00  0.00     0.012 C 
HETATM   13  C   UNL     1     -41.355 -43.884  13.100  1.00  0.00     0.007 C 
HETATM   14  C   UNL     1     -40.124 -43.850  13.999  1.00  0.00     0.001 C 
HETATM   15  C   UNL     1     -39.611 -45.254  14.311  1.00  0.00     0.002 C 
HETATM   16  C   UNL     1     -39.406 -46.097  13.055  1.00  0.00     0.032 C 
ENDBRANCH   9  10
ENDBRANCH   8   9
ENDBRANCH   7   8
ENDBRANCH   1   7
BRANCH   4  17
HETATM   17  C   UNL     1     -42.848 -53.259  12.519  1.00  0.00     0.127 A 
HETATM   18  C   UNL     1     -44.214 -53.421  12.545  1.00  0.00     0.076 A 
HETATM   19  C   UNL     1     -44.469 -54.337  13.590  1.00  0.00     0.025 A 
HETATM   20  C   UNL     1     -45.785 -54.833  14.061  1.00  0.00     0.070 C 
HETATM   21  N   UNL     1     -43.336 -54.744  14.173  1.00  0.00    -0.302 N 
HETATM   22  N   UNL     1     -42.370 -54.080  13.511  1.00  0.00    -0.281 N 
ATOM     23  HN  UNL     1     -43.228 -55.405  14.942  1.00  0.00     0.186 HD
HETATM   24  C   UNL     1     -41.004 -54.196  13.958  1.00  0.00     0.179 C 
ENDBRANCH   4  17
TORSDOF 5
ENDMDL
MODEL 7
REMARK VINA RESULT:      -5.6      3.431      5.749
REMARK  5 active torsions:
REMARK  status: ('A' for Active; 'I' for Inactive)
REMARK    1  A    between atoms: C_7  and  O_8 
REMARK    2  A    between atoms: O_8  and  C_9 
REMARK    3  A    between atoms: C_9  and  C_10 
REMARK    4  A    between atoms: C_10  and  N_11 
REMARK       I    between atoms: N_11  and  C_12 
REMARK       I    between atoms: C_12  and  N_14 
REMARK    5  A    between atoms: N_14  and  C_15 
ROOT
HETATM    1  N   UNL     1     -40.889 -50.730  11.161  1.00  0.00    -0.341 N 
HETATM    2  C   UNL     1     -41.601 -49.592  11.387  1.00  0.00     0.321 C 
HETATM    3  O   UNL     1     -42.501 -49.455  12.193  1.00  0.00    -0.247 OA
HETATM    4  N   UNL     1     -41.203 -48.568  10.492  1.00  0.00    -0.293 N 
HETATM    5  H   UNL     1     -39.969 -50.682  10.748  1.00  0.00     0.164 HD
HETATM    6  H   UNL     1     -40.561 -48.798   9.753  1.00  0.00     0.172 HD
ENDROOT
BRANCH   1   7
HETATM    7  C   UNL     1     -41.167 -51.870  12.012  1.00  0.00     0.150 C 
BRANCH   7   8
HETATM    8  C   UNL     1     -40.610 -51.705  13.420  1.00  0.00     0.188 C 
BRANCH   8   9
HETATM    9  O   UNL     1     -39.219 -51.377  13.331  1.00  0.00    -0.384 OA
BRANCH   9  10
HETATM   10  C   UNL     1     -38.863 -50.200  14.074  1.00  0.00     0.125 C 
HETATM   11  C   UNL     1     -38.689 -48.946  13.186  1.00  0.00     0.010 C 
HETATM   12  C   UNL     1     -37.745 -49.182  11.999  1.00  0.00     0.012 C 
HETATM   13  C   UNL     1     -38.244 -47.751  14.038  1.00  0.00     0.007 C 
HETATM   14  C   UNL     1     -36.977 -48.036  14.838  1.00  0.00     0.001 C 
HETATM   15  C   UNL     1     -37.109 -49.306  15.677  1.00  0.00     0.002 C 
HETATM   16  C   UNL     1     -37.577 -50.505  14.856  1.00  0.00     0.032 C 
ENDBRANCH   9  10
ENDBRANCH   8   9
ENDBRANCH   7   8
ENDBRANCH   1   7
BRANCH   4  17
HETATM   17  C   UNL     1     -41.775 -47.298  10.514  1.00  0.00     0.127 A 
HETATM   18  C   UNL     1     -41.423 -46.225  11.299  1.00  0.00     0.076 A 
HETATM   19  C   UNL     1     -42.325 -45.193  10.958  1.00  0.00     0.025 A 
HETATM   20  C   UNL     1     -42.403 -43.828  11.535  1.00  0.00     0.070 C 
HETATM   21  N   UNL     1     -43.179 -45.582  10.004  1.00  0.00    -0.302 N 
HETATM   22  N   UNL     1     -42.829 -46.857   9.752  1.00  0.00    -0.281 N 
ATOM     23  HN  UNL     1     -43.923 -45.038   9.569  1.00  0.00     0.186 HD
HETATM   24  C   UNL     1     -43.625 -47.636   8.837  1.00  0.00     0.179 C 
ENDBRANCH   4  17
TORSDOF 5
ENDMDL
MODEL 8
REMARK VINA RESULT:      -5.4      2.427      7.251
REMARK  5 active torsions:
REMARK  status: ('A' for Active; 'I' for Inactive)
REMARK    1  A    between atoms: C_7  and  O_8 
REMARK    2  A    between atoms: O_8  and  C_9 
REMARK    3  A    between atoms: C_9  and  C_10 
REMARK    4  A    between atoms: C_10  and  N_11 
REMARK       I    between atoms: N_11  and  C_12 
REMARK       I    between atoms: C_12  and  N_14 
REMARK    5  A    between atoms: N_14  and  C_15 
ROOT
HETATM    1  N   UNL     1     -42.253 -51.253  11.936  1.00  0.00    -0.341 N 
HETATM    2  C   UNL     1     -42.964 -51.549  13.058  1.00  0.00     0.321 C 
HETATM    3  O   UNL     1     -42.511 -51.713  14.175  1.00  0.00    -0.247 OA
HETATM    4  N   UNL     1     -44.337 -51.719  12.750  1.00  0.00    -0.293 N 
HETATM    5  H   UNL     1     -42.704 -50.805  11.151  1.00  0.00     0.164 HD
HETATM    6  H   UNL     1     -44.616 -51.718  11.784  1.00  0.00     0.172 HD
ENDROOT
BRANCH   1   7
HETATM    7  C   UNL     1     -40.829 -51.029  12.090  1.00  0.00     0.150 C 
BRANCH   7   8
HETATM    8  C   UNL     1     -40.321 -49.864  11.250  1.00  0.00     0.188 C 
BRANCH   8   9
HETATM    9  O   UNL     1     -39.467 -49.049  12.060  1.00  0.00    -0.384 OA
BRANCH   9  10
HETATM   10  C   UNL     1     -39.577 -47.646  11.771  1.00  0.00     0.125 C 
HETATM   11  C   UNL     1     -39.511 -46.755  13.033  1.00  0.00     0.010 C 
HETATM   12  C   UNL     1     -40.496 -47.194  14.125  1.00  0.00     0.012 C 
HETATM   13  C   UNL     1     -39.703 -45.282  12.651  1.00  0.00     0.007 C 
HETATM   14  C   UNL     1     -40.992 -45.037  11.874  1.00  0.00     0.001 C 
HETATM   15  C   UNL     1     -41.103 -45.951  10.656  1.00  0.00     0.002 C 
HETATM   16  C   UNL     1     -40.889 -47.422  11.005  1.00  0.00     0.032 C 
ENDBRANCH   9  10
ENDBRANCH   8   9
ENDBRANCH   7   8
ENDBRANCH   1   7
BRANCH   4  17
HETATM   17  C   UNL     1     -45.284 -52.025  13.723  1.00  0.00     0.127 A 
HETATM   18  C   UNL     1     -45.962 -51.159  14.549  1.00  0.00     0.076 A 
HETATM   19  C   UNL     1     -46.779 -51.971  15.365  1.00  0.00     0.025 A 
HETATM   20  C   UNL     1     -47.691 -51.539  16.452  1.00  0.00     0.070 C 
HETATM   21  N   UNL     1     -46.643 -53.267  15.061  1.00  0.00    -0.302 N 
HETATM   22  N   UNL     1     -45.735 -53.277  14.067  1.00  0.00    -0.281 N 
ATOM     23  HN  UNL     1     -47.118 -54.064  15.485  1.00  0.00     0.186 HD
HETATM   24  C   UNL     1     -45.259 -54.540  13.563  1.00  0.00     0.179 C 
ENDBRANCH   4  17
TORSDOF 5
ENDMDL
MODEL 9
REMARK VINA RESULT:      -5.3      2.206      3.689
REMARK  5 active torsions:
REMARK  status: ('A' for Active; 'I' for Inactive)
REMARK    1  A    between atoms: C_7  and  O_8 
REMARK    2  A    between atoms: O_8  and  C_9 
REMARK    3  A    between atoms: C_9  and  C_10 
REMARK    4  A    between atoms: C_10  and  N_11 
REMARK       I    between atoms: N_11  and  C_12 
REMARK       I    between atoms: C_12  and  N_14 
REMARK    5  A    between atoms: N_14  and  C_15 
ROOT
HETATM    1  N   UNL     1     -44.383 -52.891  12.344  1.00  0.00    -0.341 N 
HETATM    2  C   UNL     1     -43.270 -52.294  12.850  1.00  0.00     0.321 C 
HETATM    3  O   UNL     1     -43.075 -52.004  14.015  1.00  0.00    -0.247 OA
HETATM    4  N   UNL     1     -42.359 -51.973  11.812  1.00  0.00    -0.293 N 
HETATM    5  H   UNL     1     -44.338 -53.397  11.471  1.00  0.00     0.164 HD
HETATM    6  H   UNL     1     -42.652 -52.104  10.859  1.00  0.00     0.172 HD
ENDROOT
BRANCH   1   7
HETATM    7  C   UNL     1     -45.407 -53.299  13.285  1.00  0.00     0.150 C 
BRANCH   7   8
HETATM    8  C   UNL     1     -46.422 -52.199  13.567  1.00  0.00     0.188 C 
BRANCH   8   9
HETATM    9  O   UNL     1     -46.984 -52.410  14.867  1.00  0.00    -0.384 OA
BRANCH   9  10
HETATM   10  C   UNL     1     -46.874 -51.266  15.728  1.00  0.00     0.125 C 
HETATM   11  C   UNL     1     -45.468 -51.100  16.348  1.00  0.00     0.010 C 
HETATM   12  C   UNL     1     -44.962 -52.380  17.029  1.00  0.00     0.012 C 
HETATM   13  C   UNL     1     -45.448 -49.902  17.304  1.00  0.00     0.007 C 
HETATM   14  C   UNL     1     -46.518 -49.994  18.388  1.00  0.00     0.001 C 
HETATM   15  C   UNL     1     -47.908 -50.216  17.796  1.00  0.00     0.002 C 
HETATM   16  C   UNL     1     -47.948 -51.389  16.819  1.00  0.00     0.032 C 
ENDBRANCH   9  10
ENDBRANCH   8   9
ENDBRANCH   7   8
ENDBRANCH   1   7
BRANCH   4  17
HETATM   17  C   UNL     1     -41.136 -51.356  12.061  1.00  0.00     0.127 A 
HETATM   18  C   UNL     1     -39.991 -51.921  12.574  1.00  0.00     0.076 A 
HETATM   19  C   UNL     1     -39.052 -50.870  12.656  1.00  0.00     0.025 A 
HETATM   20  C   UNL     1     -37.662 -50.931  13.171  1.00  0.00     0.070 C 
HETATM   21  N   UNL     1     -39.563 -49.718  12.205  1.00  0.00    -0.302 N 
HETATM   22  N   UNL     1     -40.823 -50.035  11.852  1.00  0.00    -0.281 N 
ATOM     23  HN  UNL     1     -39.104 -48.810  12.143  1.00  0.00     0.186 HD
HETATM   24  C   UNL     1     -41.716 -48.989  11.419  1.00  0.00     0.179 C 
ENDBRANCH   4  17
TORSDOF 5
ENDMDL
