MODEL 1
REMARK VINA RESULT:      -6.4      0.000      0.000
REMARK  6 active torsions:
REMARK  status: ('A' for Active; 'I' for Inactive)
REMARK    1  A    between atoms: N_2  and  C_3 
REMARK       I    between atoms: N_2  and  C_11 
REMARK    2  A    between atoms: C_3  and  C_4 
REMARK    3  A    between atoms: C_9  and  O_10 
REMARK       I    between atoms: C_11  and  N_13 
REMARK    4  A    between atoms: N_13  and  C_14 
REMARK    5  A    between atoms: C_14  and  C_15 
REMARK    6  A    between atoms: C_15  and  C_18 
ROOT
HETATM    1  C   UNL     1     -40.015 -52.229  12.917  1.00  0.00     0.154 C 
HETATM    2  N   UNL     1     -41.113 -51.464  12.345  1.00  0.00    -0.338 N 
HETATM    3  C   UNL     1     -40.762 -50.224  11.832  1.00  0.00     0.317 C 
HETATM    4  O   UNL     1     -39.609 -49.799  11.885  1.00  0.00    -0.247 OA
HETATM    5  N   UNL     1     -41.765 -49.484  11.253  1.00  0.00    -0.342 N 
HETATM    6  H   UNL     1     -42.555 -49.995  10.905  1.00  0.00     0.164 HD
ENDROOT
BRANCH   2   7
HETATM    7  C   UNL     1     -42.436 -52.106  12.319  1.00  0.00     0.134 C 
BRANCH   7   8
HETATM    8  C   UNL     1     -43.092 -52.286  13.709  1.00  0.00     0.032 C 
HETATM    9  C   UNL     1     -43.646 -53.704  13.961  1.00  0.00     0.009 C 
HETATM   10  C   UNL     1     -44.930 -54.010  13.185  1.00  0.00     0.001 C 
HETATM   11  C   UNL     1     -46.009 -52.965  13.448  1.00  0.00     0.002 C 
HETATM   12  C   UNL     1     -45.499 -51.560  13.161  1.00  0.00     0.032 C 
HETATM   13  C   UNL     1     -44.220 -51.258  13.955  1.00  0.00     0.123 C 
BRANCH  13  14
HETATM   14  O   UNL     1     -43.767 -49.935  13.679  1.00  0.00    -0.395 OA
HETATM   15  H   UNL     1     -43.541 -49.872  12.736  1.00  0.00     0.210 HD
ENDBRANCH  13  14
ENDBRANCH   7   8
ENDBRANCH   2   7
BRANCH   5  16
HETATM   16  C   UNL     1     -41.417 -48.245  10.560  1.00  0.00     0.138 C 
BRANCH  16  17
HETATM   17  C   UNL     1     -42.509 -47.134  10.586  1.00  0.00    -0.004 C 
HETATM   18  C   UNL     1     -43.124 -47.016  12.000  1.00  0.00     0.021 C 
HETATM   19  C   UNL     1     -41.841 -45.777  10.259  1.00  0.00     0.021 C 
BRANCH  17  20
HETATM   20  C   UNL     1     -43.636 -47.502   9.594  1.00  0.00    -0.046 A 
HETATM   21  C   UNL     1     -43.335 -47.867   8.271  1.00  0.00     0.025 A 
HETATM   22  C   UNL     1     -44.361 -48.209   7.398  1.00  0.00     0.088 A 
HETATM   23  N   UNL     1     -45.664 -48.216   7.736  1.00  0.00    -0.375 N 
HETATM   24  C   UNL     1     -45.951 -47.859   9.001  1.00  0.00     0.088 A 
ATOM     25  HN  UNL     1     -46.392 -48.477   7.071  1.00  0.00     0.164 HD
HETATM   26  C   UNL     1     -44.994 -47.503   9.948  1.00  0.00     0.025 A 
ENDBRANCH  17  20
ENDBRANCH  16  17
ENDBRANCH   5  16
TORSDOF 6
ENDMDL
MODEL 2
REMARK VINA RESULT:      -6.1      4.395      6.624
REMARK  6 active torsions:
REMARK  status: ('A' for Active; 'I' for Inactive)
REMARK    1  A    between atoms: N_2  and  C_3 
REMARK       I    between atoms: N_2  and  C_11 
REMARK    2  A    between atoms: C_3  and  C_4 
REMARK    3  A    between atoms: C_9  and  O_10 
REMARK       I    between atoms: C_11  and  N_13 
REMARK    4  A    between atoms: N_13  and  C_14 
REMARK    5  A    between atoms: C_14  and  C_15 
REMARK    6  A    between atoms: C_15  and  C_18 
ROOT
HETATM    1  C   UNL     1     -42.334 -55.589  16.334  1.00  0.00     0.154 C 
HETATM    2  N   UNL     1     -42.544 -54.861  15.091  1.00  0.00    -0.338 N 
HETATM    3  C   UNL     1     -43.867 -54.564  14.799  1.00  0.00     0.317 C 
HETATM    4  O   UNL     1     -44.791 -54.918  15.530  1.00  0.00    -0.247 OA
HETATM    5  N   UNL     1     -44.106 -53.850  13.650  1.00  0.00    -0.342 N 
HETATM    6  H   UNL     1     -43.350 -53.283  13.309  1.00  0.00     0.164 HD
ENDROOT
BRANCH   2   7
HETATM    7  C   UNL     1     -41.346 -54.474  14.329  1.00  0.00     0.134 C 
BRANCH   7   8
HETATM    8  C   UNL     1     -40.304 -53.665  15.137  1.00  0.00     0.032 C 
HETATM    9  C   UNL     1     -40.902 -52.477  15.919  1.00  0.00     0.009 C 
HETATM   10  C   UNL     1     -41.304 -51.296  15.031  1.00  0.00     0.001 C 
HETATM   11  C   UNL     1     -40.144 -50.827  14.160  1.00  0.00     0.002 C 
HETATM   12  C   UNL     1     -39.567 -51.974  13.343  1.00  0.00     0.032 C 
HETATM   13  C   UNL     1     -39.154 -53.146  14.243  1.00  0.00     0.123 C 
BRANCH  13  14
HETATM   14  O   UNL     1     -38.607 -54.204  13.459  1.00  0.00    -0.395 OA
HETATM   15  H   UNL     1     -39.271 -54.908  13.376  1.00  0.00     0.210 HD
ENDBRANCH  13  14
ENDBRANCH   7   8
ENDBRANCH   2   7
BRANCH   5  16
HETATM   16  C   UNL     1     -45.462 -53.378  13.381  1.00  0.00     0.138 C 
BRANCH  16  17
HETATM   17  C   UNL     1     -45.661 -51.834  13.454  1.00  0.00    -0.004 C 
HETATM   18  C   UNL     1     -44.353 -51.104  13.069  1.00  0.00     0.021 C 
HETATM   19  C   UNL     1     -46.739 -51.425  12.423  1.00  0.00     0.021 C 
BRANCH  17  20
HETATM   20  C   UNL     1     -46.033 -51.434  14.901  1.00  0.00    -0.046 A 
HETATM   21  C   UNL     1     -45.089 -50.821  15.741  1.00  0.00     0.025 A 
HETATM   22  C   UNL     1     -45.446 -50.456  17.032  1.00  0.00     0.088 A 
HETATM   23  N   UNL     1     -46.670 -50.654  17.558  1.00  0.00    -0.375 N 
HETATM   24  C   UNL     1     -47.571 -51.250  16.755  1.00  0.00     0.088 A 
ATOM     25  HN  UNL     1     -46.901 -50.370  18.510  1.00  0.00     0.164 HD
HETATM   26  C   UNL     1     -47.308 -51.649  15.447  1.00  0.00     0.025 A 
ENDBRANCH  17  20
ENDBRANCH  16  17
ENDBRANCH   5  16
TORSDOF 6
ENDMDL
MODEL 3
REMARK VINA RESULT:      -6.1      2.024      3.052
REMARK  6 active torsions:
REMARK  status: ('A' for Active; 'I' for Inactive)
REMARK    1  A    between atoms: N_2  and  C_3 
REMARK       I    between atoms: N_2  and  C_11 
REMARK    2  A    between atoms: C_3  and  C_4 
REMARK    3  A    between atoms: C_9  and  O_10 
REMARK       I    between atoms: C_11  and  N_13 
REMARK    4  A    between atoms: N_13  and  C_14 
REMARK    5  A    between atoms: C_14  and  C_15 
REMARK    6  A    between atoms: C_15  and  C_18 
ROOT
HETATM    1  C   UNL     1     -39.350 -54.323  14.087  1.00  0.00     0.154 C 
HETATM    2  N   UNL     1     -40.220 -53.409  13.362  1.00  0.00    -0.338 N 
HETATM    3  C   UNL     1     -39.617 -52.237  12.932  1.00  0.00     0.317 C 
HETATM    4  O   UNL     1     -38.437 -51.984  13.174  1.00  0.00    -0.247 OA
HETATM    5  N   UNL     1     -40.396 -51.362  12.214  1.00  0.00    -0.342 N 
HETATM    6  H   UNL     1     -41.187 -51.755  11.736  1.00  0.00     0.164 HD
ENDROOT
BRANCH   2   7
HETATM    7  C   UNL     1     -41.602 -53.852  13.115  1.00  0.00     0.134 C 
BRANCH   7   8
HETATM    8  C   UNL     1     -42.651 -53.258  14.084  1.00  0.00     0.032 C 
HETATM    9  C   UNL     1     -43.319 -54.303  15.002  1.00  0.00     0.009 C 
HETATM   10  C   UNL     1     -44.325 -55.203  14.278  1.00  0.00     0.001 C 
HETATM   11  C   UNL     1     -45.384 -54.388  13.545  1.00  0.00     0.002 C 
HETATM   12  C   UNL     1     -44.748 -53.380  12.598  1.00  0.00     0.032 C 
HETATM   13  C   UNL     1     -43.753 -52.473  13.335  1.00  0.00     0.123 C 
BRANCH  13  14
HETATM   14  O   UNL     1     -43.178 -51.532  12.432  1.00  0.00    -0.395 OA
HETATM   15  H   UNL     1     -43.740 -50.740  12.404  1.00  0.00     0.210 HD
ENDBRANCH  13  14
ENDBRANCH   7   8
ENDBRANCH   2   7
BRANCH   5  16
HETATM   16  C   UNL     1     -39.767 -50.192  11.607  1.00  0.00     0.138 C 
BRANCH  16  17
HETATM   17  C   UNL     1     -40.015 -48.840  12.342  1.00  0.00    -0.004 C 
HETATM   18  C   UNL     1     -40.902 -49.061  13.590  1.00  0.00     0.021 C 
HETATM   19  C   UNL     1     -38.657 -48.287  12.833  1.00  0.00     0.021 C 
BRANCH  17  20
HETATM   20  C   UNL     1     -40.749 -47.868  11.389  1.00  0.00    -0.046 A 
HETATM   21  C   UNL     1     -41.849 -48.303  10.630  1.00  0.00     0.025 A 
HETATM   22  C   UNL     1     -42.505 -47.411   9.791  1.00  0.00     0.088 A 
HETATM   23  N   UNL     1     -42.153 -46.120   9.643  1.00  0.00    -0.375 N 
HETATM   24  C   UNL     1     -41.094 -45.708  10.365  1.00  0.00     0.088 A 
ATOM     25  HN  UNL     1     -42.660 -45.490   9.021  1.00  0.00     0.164 HD
HETATM   26  C   UNL     1     -40.376 -46.525  11.234  1.00  0.00     0.025 A 
ENDBRANCH  17  20
ENDBRANCH  16  17
ENDBRANCH   5  16
TORSDOF 6
ENDMDL
MODEL 4
REMARK VINA RESULT:      -6.0      2.340      3.572
REMARK  6 active torsions:
REMARK  status: ('A' for Active; 'I' for Inactive)
REMARK    1  A    between atoms: N_2  and  C_3 
REMARK       I    between atoms: N_2  and  C_11 
REMARK    2  A    between atoms: C_3  and  C_4 
REMARK    3  A    between atoms: C_9  and  O_10 
REMARK       I    between atoms: C_11  and  N_13 
REMARK    4  A    between atoms: N_13  and  C_14 
REMARK    5  A    between atoms: C_14  and  C_15 
REMARK    6  A    between atoms: C_15  and  C_18 
ROOT
HETATM    1  C   UNL     1     -41.364 -54.539  14.560  1.00  0.00     0.154 C 
HETATM    2  N   UNL     1     -41.836 -53.222  14.160  1.00  0.00    -0.338 N 
HETATM    3  C   UNL     1     -41.028 -52.558  13.249  1.00  0.00     0.317 C 
HETATM    4  O   UNL     1     -39.976 -53.043  12.836  1.00  0.00    -0.247 OA
HETATM    5  N   UNL     1     -41.455 -51.324  12.822  1.00  0.00    -0.342 N 
HETATM    6  H   UNL     1     -42.442 -51.147  12.879  1.00  0.00     0.164 HD
ENDROOT
BRANCH   2   7
HETATM    7  C   UNL     1     -43.127 -52.777  14.708  1.00  0.00     0.134 C 
BRANCH   7   8
HETATM    8  C   UNL     1     -44.365 -53.413  14.034  1.00  0.00     0.032 C 
HETATM    9  C   UNL     1     -44.914 -52.603  12.840  1.00  0.00     0.009 C 
HETATM   10  C   UNL     1     -45.648 -51.324  13.251  1.00  0.00     0.001 C 
HETATM   11  C   UNL     1     -46.761 -51.609  14.252  1.00  0.00     0.002 C 
HETATM   12  C   UNL     1     -46.233 -52.368  15.462  1.00  0.00     0.032 C 
HETATM   13  C   UNL     1     -45.513 -53.656  15.042  1.00  0.00     0.123 C 
BRANCH  13  14
HETATM   14  O   UNL     1     -45.037 -54.355  16.189  1.00  0.00    -0.395 OA
HETATM   15  H   UNL     1     -45.781 -54.505  16.796  1.00  0.00     0.210 HD
ENDBRANCH  13  14
ENDBRANCH   7   8
ENDBRANCH   2   7
BRANCH   5  16
HETATM   16  C   UNL     1     -40.722 -50.656  11.748  1.00  0.00     0.138 C 
BRANCH  16  17
HETATM   17  C   UNL     1     -39.991 -49.341  12.153  1.00  0.00    -0.004 C 
HETATM   18  C   UNL     1     -40.174 -49.067  13.665  1.00  0.00     0.021 C 
HETATM   19  C   UNL     1     -38.476 -49.520  11.897  1.00  0.00     0.021 C 
BRANCH  17  20
HETATM   20  C   UNL     1     -40.597 -48.156  11.366  1.00  0.00    -0.046 A 
HETATM   21  C   UNL     1     -41.790 -48.314  10.641  1.00  0.00     0.025 A 
HETATM   22  C   UNL     1     -42.327 -47.233   9.952  1.00  0.00     0.088 A 
HETATM   23  N   UNL     1     -41.771 -46.008   9.925  1.00  0.00    -0.375 N 
HETATM   24  C   UNL     1     -40.624 -45.861  10.613  1.00  0.00     0.088 A 
ATOM     25  HN  UNL     1     -42.195 -45.234   9.412  1.00  0.00     0.164 HD
HETATM   26  C   UNL     1     -40.011 -46.882  11.336  1.00  0.00     0.025 A 
ENDBRANCH  17  20
ENDBRANCH  16  17
ENDBRANCH   5  16
TORSDOF 6
ENDMDL
MODEL 5
REMARK VINA RESULT:      -5.8      2.719      6.438
REMARK  6 active torsions:
REMARK  status: ('A' for Active; 'I' for Inactive)
REMARK    1  A    between atoms: N_2  and  C_3 
REMARK       I    between atoms: N_2  and  C_11 
REMARK    2  A    between atoms: C_3  and  C_4 
REMARK    3  A    between atoms: C_9  and  O_10 
REMARK       I    between atoms: C_11  and  N_13 
REMARK    4  A    between atoms: N_13  and  C_14 
REMARK    5  A    between atoms: C_14  and  C_15 
REMARK    6  A    between atoms: C_15  and  C_18 
ROOT
HETATM    1  C   UNL     1     -37.695 -49.356  12.830  1.00  0.00     0.154 C 
HETATM    2  N   UNL     1     -39.099 -49.739  12.825  1.00  0.00    -0.338 N 
HETATM    3  C   UNL     1     -39.337 -51.105  12.856  1.00  0.00     0.317 C 
HETATM    4  O   UNL     1     -38.421 -51.926  12.861  1.00  0.00    -0.247 OA
HETATM    5  N   UNL     1     -40.651 -51.507  12.885  1.00  0.00    -0.342 N 
HETATM    6  H   UNL     1     -41.313 -50.847  13.249  1.00  0.00     0.164 HD
ENDROOT
BRANCH   2   7
HETATM    7  C   UNL     1     -40.090 -48.652  12.850  1.00  0.00     0.134 C 
BRANCH   7   8
HETATM    8  C   UNL     1     -40.508 -48.130  11.456  1.00  0.00     0.032 C 
HETATM    9  C   UNL     1     -40.133 -46.655  11.201  1.00  0.00     0.009 C 
HETATM   10  C   UNL     1     -41.006 -45.657  11.966  1.00  0.00     0.001 C 
HETATM   11  C   UNL     1     -42.489 -45.880  11.693  1.00  0.00     0.002 C 
HETATM   12  C   UNL     1     -42.893 -47.320  11.982  1.00  0.00     0.032 C 
HETATM   13  C   UNL     1     -42.023 -48.311  11.199  1.00  0.00     0.123 C 
BRANCH  13  14
HETATM   14  O   UNL     1     -42.425 -49.650  11.476  1.00  0.00    -0.395 OA
HETATM   15  H   UNL     1     -41.889 -49.992  12.211  1.00  0.00     0.210 HD
ENDBRANCH  13  14
ENDBRANCH   7   8
ENDBRANCH   2   7
BRANCH   5  16
HETATM   16  C   UNL     1     -40.950 -52.924  13.077  1.00  0.00     0.138 C 
BRANCH  16  17
HETATM   17  C   UNL     1     -41.743 -53.271  14.373  1.00  0.00    -0.004 C 
HETATM   18  C   UNL     1     -41.139 -54.521  15.055  1.00  0.00     0.021 C 
HETATM   19  C   UNL     1     -41.607 -52.093  15.365  1.00  0.00     0.021 C 
BRANCH  17  20
HETATM   20  C   UNL     1     -43.213 -53.579  14.005  1.00  0.00    -0.046 A 
HETATM   21  C   UNL     1     -43.972 -52.663  13.257  1.00  0.00     0.025 A 
HETATM   22  C   UNL     1     -45.286 -52.964  12.924  1.00  0.00     0.088 A 
HETATM   23  N   UNL     1     -45.909 -54.104  13.276  1.00  0.00    -0.375 N 
HETATM   24  C   UNL     1     -45.183 -54.977  13.999  1.00  0.00     0.088 A 
ATOM     25  HN  UNL     1     -46.875 -54.296  13.011  1.00  0.00     0.164 HD
HETATM   26  C   UNL     1     -43.860 -54.767  14.379  1.00  0.00     0.025 A 
ENDBRANCH  17  20
ENDBRANCH  16  17
ENDBRANCH   5  16
TORSDOF 6
ENDMDL
MODEL 6
REMARK VINA RESULT:      -5.7      2.407      3.502
REMARK  6 active torsions:
REMARK  status: ('A' for Active; 'I' for Inactive)
REMARK    1  A    between atoms: N_2  and  C_3 
REMARK       I    between atoms: N_2  and  C_11 
REMARK    2  A    between atoms: C_3  and  C_4 
REMARK    3  A    between atoms: C_9  and  O_10 
REMARK       I    between atoms: C_11  and  N_13 
REMARK    4  A    between atoms: N_13  and  C_14 
REMARK    5  A    between atoms: C_14  and  C_15 
REMARK    6  A    between atoms: C_15  and  C_18 
ROOT
HETATM    1  C   UNL     1     -41.053 -54.131  12.905  1.00  0.00     0.154 C 
HETATM    2  N   UNL     1     -41.410 -52.939  13.660  1.00  0.00    -0.338 N 
HETATM    3  C   UNL     1     -40.398 -52.000  13.791  1.00  0.00     0.317 C 
HETATM    4  O   UNL     1     -39.275 -52.182  13.324  1.00  0.00    -0.247 OA
HETATM    5  N   UNL     1     -40.705 -50.845  14.470  1.00  0.00    -0.342 N 
HETATM    6  H   UNL     1     -41.674 -50.584  14.495  1.00  0.00     0.164 HD
ENDROOT
BRANCH   2   7
HETATM    7  C   UNL     1     -42.799 -52.838  14.135  1.00  0.00     0.134 C 
BRANCH   7   8
HETATM    8  C   UNL     1     -43.759 -52.108  13.166  1.00  0.00     0.032 C 
HETATM    9  C   UNL     1     -44.382 -50.823  13.752  1.00  0.00     0.009 C 
HETATM   10  C   UNL     1     -45.459 -51.088  14.807  1.00  0.00     0.001 C 
HETATM   11  C   UNL     1     -46.550 -52.012  14.279  1.00  0.00     0.002 C 
HETATM   12  C   UNL     1     -45.962 -53.308  13.737  1.00  0.00     0.032 C 
HETATM   13  C   UNL     1     -44.895 -53.032  12.670  1.00  0.00     0.123 C 
BRANCH  13  14
HETATM   14  O   UNL     1     -44.366 -54.258  12.171  1.00  0.00    -0.395 OA
HETATM   15  H   UNL     1     -45.052 -54.943  12.230  1.00  0.00     0.210 HD
ENDBRANCH  13  14
ENDBRANCH   7   8
ENDBRANCH   2   7
BRANCH   5  16
HETATM   16  C   UNL     1     -39.724 -49.762  14.499  1.00  0.00     0.138 C 
BRANCH  16  17
HETATM   17  C   UNL     1     -40.296 -48.334  14.251  1.00  0.00    -0.004 C 
HETATM   18  C   UNL     1     -41.232 -47.920  15.411  1.00  0.00     0.021 C 
HETATM   19  C   UNL     1     -39.121 -47.329  14.225  1.00  0.00     0.021 C 
BRANCH  17  20
HETATM   20  C   UNL     1     -41.115 -48.333  12.939  1.00  0.00    -0.046 A 
HETATM   21  C   UNL     1     -40.521 -48.708  11.723  1.00  0.00     0.025 A 
HETATM   22  C   UNL     1     -41.278 -48.715  10.558  1.00  0.00     0.088 A 
HETATM   23  N   UNL     1     -42.579 -48.376  10.504  1.00  0.00    -0.375 N 
HETATM   24  C   UNL     1     -43.144 -48.008  11.670  1.00  0.00     0.088 A 
ATOM     25  HN  UNL     1     -43.107 -48.396   9.631  1.00  0.00     0.164 HD
HETATM   26  C   UNL     1     -42.470 -47.973  12.888  1.00  0.00     0.025 A 
ENDBRANCH  17  20
ENDBRANCH  16  17
ENDBRANCH   5  16
TORSDOF 6
ENDMDL
MODEL 7
REMARK VINA RESULT:      -5.6      2.706      4.623
REMARK  6 active torsions:
REMARK  status: ('A' for Active; 'I' for Inactive)
REMARK    1  A    between atoms: N_2  and  C_3 
REMARK       I    between atoms: N_2  and  C_11 
REMARK    2  A    between atoms: C_3  and  C_4 
REMARK    3  A    between atoms: C_9  and  O_10 
REMARK       I    between atoms: C_11  and  N_13 
REMARK    4  A    between atoms: N_13  and  C_14 
REMARK    5  A    between atoms: C_14  and  C_15 
REMARK    6  A    between atoms: C_15  and  C_18 
ROOT
HETATM    1  C   UNL     1     -41.020 -53.990  12.911  1.00  0.00     0.154 C 
HETATM    2  N   UNL     1     -41.746 -52.780  12.557  1.00  0.00    -0.338 N 
HETATM    3  C   UNL     1     -40.955 -51.718  12.145  1.00  0.00     0.317 C 
HETATM    4  O   UNL     1     -39.728 -51.794  12.110  1.00  0.00    -0.247 OA
HETATM    5  N   UNL     1     -41.604 -50.566  11.771  1.00  0.00    -0.342 N 
HETATM    6  H   UNL     1     -42.554 -50.668  11.463  1.00  0.00     0.164 HD
ENDROOT
BRANCH   2   7
HETATM    7  C   UNL     1     -43.215 -52.838  12.614  1.00  0.00     0.134 C 
BRANCH   7   8
HETATM    8  C   UNL     1     -43.834 -52.221  13.891  1.00  0.00     0.032 C 
HETATM    9  C   UNL     1     -44.438 -53.260  14.859  1.00  0.00     0.009 C 
HETATM   10  C   UNL     1     -45.757 -53.863  14.369  1.00  0.00     0.001 C 
HETATM   11  C   UNL     1     -46.783 -52.783  14.043  1.00  0.00     0.002 C 
HETATM   12  C   UNL     1     -46.224 -51.771  13.052  1.00  0.00     0.032 C 
HETATM   13  C   UNL     1     -44.911 -51.162  13.560  1.00  0.00     0.123 C 
BRANCH  13  14
HETATM   14  O   UNL     1     -44.412 -50.211  12.623  1.00  0.00    -0.395 OA
HETATM   15  H   UNL     1     -45.093 -49.536  12.467  1.00  0.00     0.210 HD
ENDBRANCH  13  14
ENDBRANCH   7   8
ENDBRANCH   2   7
BRANCH   5  16
HETATM   16  C   UNL     1     -40.827 -49.478  11.182  1.00  0.00     0.138 C 
BRANCH  16  17
HETATM   17  C   UNL     1     -40.716 -48.188  12.050  1.00  0.00    -0.004 C 
HETATM   18  C   UNL     1     -40.107 -47.032  11.222  1.00  0.00     0.021 C 
HETATM   19  C   UNL     1     -42.140 -47.753  12.472  1.00  0.00     0.021 C 
BRANCH  17  20
HETATM   20  C   UNL     1     -39.790 -48.463  13.257  1.00  0.00    -0.046 A 
HETATM   21  C   UNL     1     -40.314 -48.541  14.559  1.00  0.00     0.025 A 
HETATM   22  C   UNL     1     -39.468 -48.803  15.629  1.00  0.00     0.088 A 
HETATM   23  N   UNL     1     -38.140 -48.993  15.509  1.00  0.00    -0.375 N 
HETATM   24  C   UNL     1     -37.640 -48.910  14.262  1.00  0.00     0.088 A 
ATOM     25  HN  UNL     1     -37.548 -49.189  16.317  1.00  0.00     0.164 HD
HETATM   26  C   UNL     1     -38.406 -48.654  13.128  1.00  0.00     0.025 A 
ENDBRANCH  17  20
ENDBRANCH  16  17
ENDBRANCH   5  16
TORSDOF 6
ENDMDL
MODEL 8
REMARK VINA RESULT:      -5.5      4.539      6.648
REMARK  6 active torsions:
REMARK  status: ('A' for Active; 'I' for Inactive)
REMARK    1  A    between atoms: N_2  and  C_3 
REMARK       I    between atoms: N_2  and  C_11 
REMARK    2  A    between atoms: C_3  and  C_4 
REMARK    3  A    between atoms: C_9  and  O_10 
REMARK       I    between atoms: C_11  and  N_13 
REMARK    4  A    between atoms: N_13  and  C_14 
REMARK    5  A    between atoms: C_14  and  C_15 
REMARK    6  A    between atoms: C_15  and  C_18 
ROOT
HETATM    1  C   UNL     1     -45.239 -54.545  18.354  1.00  0.00     0.154 C 
HETATM    2  N   UNL     1     -44.520 -54.005  17.209  1.00  0.00    -0.338 N 
HETATM    3  C   UNL     1     -43.324 -54.639  16.912  1.00  0.00     0.317 C 
HETATM    4  O   UNL     1     -42.895 -55.572  17.589  1.00  0.00    -0.247 OA
HETATM    5  N   UNL     1     -42.630 -54.180  15.818  1.00  0.00    -0.342 N 
HETATM    6  H   UNL     1     -43.167 -53.709  15.113  1.00  0.00     0.164 HD
ENDROOT
BRANCH   2   7
HETATM    7  C   UNL     1     -45.164 -52.907  16.470  1.00  0.00     0.134 C 
BRANCH   7   8
HETATM    8  C   UNL     1     -46.383 -53.333  15.618  1.00  0.00     0.032 C 
HETATM    9  C   UNL     1     -46.032 -54.283  14.453  1.00  0.00     0.009 C 
HETATM   10  C   UNL     1     -45.314 -53.591  13.291  1.00  0.00     0.001 C 
HETATM   11  C   UNL     1     -46.100 -52.391  12.777  1.00  0.00     0.002 C 
HETATM   12  C   UNL     1     -46.418 -51.416  13.903  1.00  0.00     0.032 C 
HETATM   13  C   UNL     1     -47.151 -52.115  15.055  1.00  0.00     0.123 C 
BRANCH  13  14
HETATM   14  O   UNL     1     -47.448 -51.182  16.091  1.00  0.00    -0.395 OA
HETATM   15  H   UNL     1     -46.767 -50.489  16.093  1.00  0.00     0.210 HD
ENDBRANCH  13  14
ENDBRANCH   7   8
ENDBRANCH   2   7
BRANCH   5  16
HETATM   16  C   UNL     1     -41.448 -54.915  15.373  1.00  0.00     0.138 C 
BRANCH  16  17
HETATM   17  C   UNL     1     -40.177 -54.049  15.121  1.00  0.00    -0.004 C 
HETATM   18  C   UNL     1     -39.914 -53.115  16.326  1.00  0.00     0.021 C 
HETATM   19  C   UNL     1     -38.956 -54.990  14.991  1.00  0.00     0.021 C 
BRANCH  17  20
HETATM   20  C   UNL     1     -40.396 -53.174  13.865  1.00  0.00    -0.046 A 
HETATM   21  C   UNL     1     -39.714 -51.955  13.713  1.00  0.00     0.025 A 
HETATM   22  C   UNL     1     -39.913 -51.190  12.571  1.00  0.00     0.088 A 
HETATM   23  N   UNL     1     -40.738 -51.539  11.566  1.00  0.00    -0.375 N 
HETATM   24  C   UNL     1     -41.396 -52.703  11.717  1.00  0.00     0.088 A 
ATOM     25  HN  UNL     1     -40.857 -50.955  10.737  1.00  0.00     0.164 HD
HETATM   26  C   UNL     1     -41.261 -53.539  12.822  1.00  0.00     0.025 A 
ENDBRANCH  17  20
ENDBRANCH  16  17
ENDBRANCH   5  16
TORSDOF 6
ENDMDL
MODEL 9
REMARK VINA RESULT:      -5.4     14.556     18.259
REMARK  6 active torsions:
REMARK  status: ('A' for Active; 'I' for Inactive)
REMARK    1  A    between atoms: N_2  and  C_3 
REMARK       I    between atoms: N_2  and  C_11 
REMARK    2  A    between atoms: C_3  and  C_4 
REMARK    3  A    between atoms: C_9  and  O_10 
REMARK       I    between atoms: C_11  and  N_13 
REMARK    4  A    between atoms: N_13  and  C_14 
REMARK    5  A    between atoms: C_14  and  C_15 
REMARK    6  A    between atoms: C_15  and  C_18 
ROOT
HETATM    1  C   UNL     1     -25.993 -61.157  18.851  1.00  0.00     0.154 C 
HETATM    2  N   UNL     1     -27.309 -60.615  18.546  1.00  0.00    -0.338 N 
HETATM    3  C   UNL     1     -27.674 -59.502  19.290  1.00  0.00     0.317 C 
HETATM    4  O   UNL     1     -26.944 -59.032  20.160  1.00  0.00    -0.247 OA
HETATM    5  N   UNL     1     -28.896 -58.940  19.009  1.00  0.00    -0.342 N 
HETATM    6  H   UNL     1     -29.265 -59.105  18.090  1.00  0.00     0.164 HD
ENDROOT
BRANCH   2   7
HETATM    7  C   UNL     1     -28.063 -61.257  17.458  1.00  0.00     0.134 C 
BRANCH   7   8
HETATM    8  C   UNL     1     -28.433 -62.736  17.718  1.00  0.00     0.032 C 
HETATM    9  C   UNL     1     -27.575 -63.745  16.926  1.00  0.00     0.009 C 
HETATM   10  C   UNL     1     -27.912 -63.800  15.434  1.00  0.00     0.001 C 
HETATM   11  C   UNL     1     -29.394 -64.068  15.200  1.00  0.00     0.002 C 
HETATM   12  C   UNL     1     -30.261 -63.056  15.936  1.00  0.00     0.032 C 
HETATM   13  C   UNL     1     -29.927 -63.018  17.432  1.00  0.00     0.123 C 
BRANCH  13  14
HETATM   14  O   UNL     1     -30.757 -62.072  18.102  1.00  0.00    -0.395 OA
HETATM   15  H   UNL     1     -30.946 -61.337  17.496  1.00  0.00     0.210 HD
ENDBRANCH  13  14
ENDBRANCH   7   8
ENDBRANCH   2   7
BRANCH   5  16
HETATM   16  C   UNL     1     -29.257 -57.679  19.653  1.00  0.00     0.138 C 
BRANCH  16  17
HETATM   17  C   UNL     1     -30.785 -57.393  19.757  1.00  0.00    -0.004 C 
HETATM   18  C   UNL     1     -31.596 -58.655  19.379  1.00  0.00     0.021 C 
HETATM   19  C   UNL     1     -31.125 -57.048  21.226  1.00  0.00     0.021 C 
BRANCH  17  20
HETATM   20  C   UNL     1     -31.161 -56.260  18.773  1.00  0.00    -0.046 A 
HETATM   21  C   UNL     1     -30.384 -55.092  18.696  1.00  0.00     0.025 A 
HETATM   22  C   UNL     1     -30.729 -54.092  17.795  1.00  0.00     0.088 A 
HETATM   23  N   UNL     1     -31.787 -54.159  16.966  1.00  0.00    -0.375 N 
HETATM   24  C   UNL     1     -32.535 -55.276  17.048  1.00  0.00     0.088 A 
ATOM     25  HN  UNL     1     -32.010 -53.408  16.312  1.00  0.00     0.164 HD
HETATM   26  C   UNL     1     -32.268 -56.332  17.915  1.00  0.00     0.025 A 
ENDBRANCH  17  20
ENDBRANCH  16  17
ENDBRANCH   5  16
TORSDOF 6
ENDMDL
