MODEL 1
REMARK VINA RESULT:      -6.0      0.000      0.000
REMARK  5 active torsions:
REMARK  status: ('A' for Active; 'I' for Inactive)
REMARK    1  A    between atoms: N_6  and  C_7 
REMARK    2  A    between atoms: C_7  and  C_8 
REMARK       I    between atoms: C_8  and  N_10 
REMARK    3  A    between atoms: N_10  and  C_11 
REMARK    4  A    between atoms: C_11  and  C_17 
REMARK    5  A    between atoms: C_17  and  O_19 
ROOT
HETATM    1  C   UNL     1     -42.751 -52.947  12.902  1.00  0.00     0.238 C 
HETATM    2  O   UNL     1     -43.469 -52.953  11.908  1.00  0.00    -0.272 OA
HETATM    3  N   UNL     1     -43.219 -52.719  14.181  1.00  0.00    -0.341 N 
HETATM    4  H   UNL     1     -42.581 -53.110  14.890  1.00  0.00     0.163 HD
ENDROOT
BRANCH   3   5
HETATM    5  C   UNL     1     -44.651 -52.683  14.590  1.00  0.00     0.118 C 
HETATM    6  C   UNL     1     -44.833 -52.575  16.121  1.00  0.00     0.042 C 
HETATM    7  C   UNL     1     -46.313 -52.558  16.522  1.00  0.00     0.003 C 
HETATM    8  C   UNL     1     -47.088 -51.450  15.815  1.00  0.00     0.000 C 
HETATM    9  C   UNL     1     -46.887 -51.457  14.301  1.00  0.00     0.003 C 
HETATM   10  C   UNL     1     -45.411 -51.539  13.897  1.00  0.00     0.042 C 
BRANCH   5  11
HETATM   11  C   UNL     1     -45.146 -54.089  14.141  1.00  0.00     0.169 C 
HETATM   12  O   UNL     1     -44.871 -55.158  14.663  1.00  0.00    -0.648 OA
BRANCH  11  13
HETATM   13  O   UNL     1     -45.901 -54.028  13.008  1.00  0.00    -0.775 OA
HETATM   14  H   UNL     1     -46.373 -53.171  12.958  1.00  0.00     0.167 HD
ENDBRANCH  11  13
ENDBRANCH   5  11
ENDBRANCH   3   5
BRANCH   1  15
HETATM   15  C   UNL     1     -41.239 -53.076  12.804  1.00  0.00     0.250 C 
BRANCH  15  16
HETATM   16  N   UNL     1     -40.568 -51.837  12.439  1.00  0.00    -0.294 N 
HETATM   17  N   UNL     1     -41.009 -51.116  11.382  1.00  0.00    -0.309 N 
HETATM   18  C   UNL     1     -40.074 -50.170  11.240  1.00  0.00     0.115 A 
ATOM     19  HN  UNL     1     -41.853 -51.260  10.826  1.00  0.00     0.186 HD
HETATM   20  C   UNL     1     -39.035 -50.275  12.194  1.00  0.00    -0.028 A 
HETATM   21  C   UNL     1     -37.814 -49.448  12.329  1.00  0.00     0.051 C 
HETATM   22  C   UNL     1     -39.401 -51.359  12.970  1.00  0.00     0.118 A 
ENDBRANCH  15  16
ENDBRANCH   1  15
TORSDOF 5
ENDMDL
MODEL 2
REMARK VINA RESULT:      -6.0      2.237      2.571
REMARK  5 active torsions:
REMARK  status: ('A' for Active; 'I' for Inactive)
REMARK    1  A    between atoms: N_6  and  C_7 
REMARK    2  A    between atoms: C_7  and  C_8 
REMARK       I    between atoms: C_8  and  N_10 
REMARK    3  A    between atoms: N_10  and  C_11 
REMARK    4  A    between atoms: C_11  and  C_17 
REMARK    5  A    between atoms: C_17  and  O_19 
ROOT
HETATM    1  C   UNL     1     -42.648 -50.701  13.045  1.00  0.00     0.238 C 
HETATM    2  O   UNL     1     -42.737 -50.027  14.065  1.00  0.00    -0.272 OA
HETATM    3  N   UNL     1     -43.426 -51.814  12.796  1.00  0.00    -0.341 N 
HETATM    4  H   UNL     1     -43.484 -52.016  11.787  1.00  0.00     0.163 HD
ENDROOT
BRANCH   3   5
HETATM    5  C   UNL     1     -44.624 -52.231  13.577  1.00  0.00     0.118 C 
HETATM    6  C   UNL     1     -44.259 -52.889  14.928  1.00  0.00     0.042 C 
HETATM    7  C   UNL     1     -45.504 -53.327  15.707  1.00  0.00     0.003 C 
HETATM    8  C   UNL     1     -46.482 -52.176  15.924  1.00  0.00     0.000 C 
HETATM    9  C   UNL     1     -46.824 -51.436  14.633  1.00  0.00     0.003 C 
HETATM   10  C   UNL     1     -45.583 -51.053  13.819  1.00  0.00     0.042 C 
BRANCH   5  11
HETATM   11  C   UNL     1     -45.241 -53.325  12.657  1.00  0.00     0.169 C 
HETATM   12  O   UNL     1     -44.942 -54.509  12.633  1.00  0.00    -0.648 OA
BRANCH  11  13
HETATM   13  O   UNL     1     -46.144 -52.805  11.778  1.00  0.00    -0.775 OA
HETATM   14  H   UNL     1     -45.723 -52.653  10.907  1.00  0.00     0.167 HD
ENDBRANCH  11  13
ENDBRANCH   5  11
ENDBRANCH   3   5
BRANCH   1  15
HETATM   15  C   UNL     1     -41.579 -50.439  11.996  1.00  0.00     0.250 C 
BRANCH  15  16
HETATM   16  N   UNL     1     -41.546 -49.061  11.526  1.00  0.00    -0.294 N 
HETATM   17  N   UNL     1     -42.511 -48.610  10.691  1.00  0.00    -0.309 N 
HETATM   18  C   UNL     1     -42.072 -47.396  10.338  1.00  0.00     0.115 A 
ATOM     19  HN  UNL     1     -43.368 -49.081  10.402  1.00  0.00     0.186 HD
HETATM   20  C   UNL     1     -40.834 -47.063  10.935  1.00  0.00    -0.028 A 
HETATM   21  C   UNL     1     -40.017 -45.841  10.754  1.00  0.00     0.051 C 
HETATM   22  C   UNL     1     -40.532 -48.162  11.717  1.00  0.00     0.118 A 
ENDBRANCH  15  16
ENDBRANCH   1  15
TORSDOF 5
ENDMDL
MODEL 3
REMARK VINA RESULT:      -5.9      3.319      4.827
REMARK  5 active torsions:
REMARK  status: ('A' for Active; 'I' for Inactive)
REMARK    1  A    between atoms: N_6  and  C_7 
REMARK    2  A    between atoms: C_7  and  C_8 
REMARK       I    between atoms: C_8  and  N_10 
REMARK    3  A    between atoms: N_10  and  C_11 
REMARK    4  A    between atoms: C_11  and  C_17 
REMARK    5  A    between atoms: C_17  and  O_19 
ROOT
HETATM    1  C   UNL     1     -42.282 -49.709  12.689  1.00  0.00     0.238 C 
HETATM    2  O   UNL     1     -43.194 -49.618  13.505  1.00  0.00    -0.272 OA
HETATM    3  N   UNL     1     -41.563 -50.867  12.476  1.00  0.00    -0.341 N 
HETATM    4  H   UNL     1     -41.124 -50.872  11.543  1.00  0.00     0.163 HD
ENDROOT
BRANCH   3   5
HETATM    5  C   UNL     1     -41.911 -52.218  13.000  1.00  0.00     0.118 C 
HETATM    6  C   UNL     1     -41.957 -52.267  14.545  1.00  0.00     0.042 C 
HETATM    7  C   UNL     1     -42.299 -53.668  15.063  1.00  0.00     0.003 C 
HETATM    8  C   UNL     1     -43.604 -54.197  14.475  1.00  0.00     0.000 C 
HETATM    9  C   UNL     1     -43.649 -54.105  12.952  1.00  0.00     0.003 C 
HETATM   10  C   UNL     1     -43.246 -52.723  12.427  1.00  0.00     0.042 C 
BRANCH   5  11
HETATM   11  C   UNL     1     -40.695 -53.067  12.525  1.00  0.00     0.169 C 
HETATM   12  O   UNL     1     -39.765 -53.455  13.214  1.00  0.00    -0.648 OA
BRANCH  11  13
HETATM   13  O   UNL     1     -40.724 -53.295  11.181  1.00  0.00    -0.775 OA
HETATM   14  H   UNL     1     -41.120 -52.530  10.715  1.00  0.00     0.167 HD
ENDBRANCH  11  13
ENDBRANCH   5  11
ENDBRANCH   3   5
BRANCH   1  15
HETATM   15  C   UNL     1     -41.776 -48.506  11.910  1.00  0.00     0.250 C 
BRANCH  15  16
HETATM   16  N   UNL     1     -42.600 -48.166  10.758  1.00  0.00    -0.294 N 
HETATM   17  N   UNL     1     -42.069 -48.207   9.513  1.00  0.00    -0.309 N 
HETATM   18  C   UNL     1     -43.031 -47.677   8.748  1.00  0.00     0.115 A 
ATOM     19  HN  UNL     1     -41.155 -48.558   9.227  1.00  0.00     0.186 HD
HETATM   20  C   UNL     1     -44.174 -47.295   9.488  1.00  0.00    -0.028 A 
HETATM   21  C   UNL     1     -45.412 -46.639   9.007  1.00  0.00     0.051 C 
HETATM   22  C   UNL     1     -43.865 -47.646  10.789  1.00  0.00     0.118 A 
ENDBRANCH  15  16
ENDBRANCH   1  15
TORSDOF 5
ENDMDL
MODEL 4
REMARK VINA RESULT:      -5.8      1.689      2.118
REMARK  5 active torsions:
REMARK  status: ('A' for Active; 'I' for Inactive)
REMARK    1  A    between atoms: N_6  and  C_7 
REMARK    2  A    between atoms: C_7  and  C_8 
REMARK       I    between atoms: C_8  and  N_10 
REMARK    3  A    between atoms: N_10  and  C_11 
REMARK    4  A    between atoms: C_11  and  C_17 
REMARK    5  A    between atoms: C_17  and  O_19 
ROOT
HETATM    1  C   UNL     1     -43.180 -50.211  13.301  1.00  0.00     0.238 C 
HETATM    2  O   UNL     1     -43.216 -49.792  14.453  1.00  0.00    -0.272 OA
HETATM    3  N   UNL     1     -43.815 -51.365  12.888  1.00  0.00    -0.341 N 
HETATM    4  H   UNL     1     -43.989 -51.356  11.872  1.00  0.00     0.163 HD
ENDROOT
BRANCH   3   5
HETATM    5  C   UNL     1     -44.812 -52.140  13.679  1.00  0.00     0.118 C 
HETATM    6  C   UNL     1     -44.179 -52.882  14.878  1.00  0.00     0.042 C 
HETATM    7  C   UNL     1     -45.218 -53.687  15.667  1.00  0.00     0.003 C 
HETATM    8  C   UNL     1     -46.385 -52.821  16.133  1.00  0.00     0.000 C 
HETATM    9  C   UNL     1     -47.006 -52.003  15.003  1.00  0.00     0.003 C 
HETATM   10  C   UNL     1     -45.964 -51.247  14.172  1.00  0.00     0.042 C 
BRANCH   5  11
HETATM   11  C   UNL     1     -45.282 -53.204  12.644  1.00  0.00     0.169 C 
HETATM   12  O   UNL     1     -44.854 -54.341  12.525  1.00  0.00    -0.648 OA
BRANCH  11  13
HETATM   13  O   UNL     1     -46.217 -52.706  11.785  1.00  0.00    -0.775 OA
HETATM   14  H   UNL     1     -45.782 -52.305  11.005  1.00  0.00     0.167 HD
ENDBRANCH  11  13
ENDBRANCH   5  11
ENDBRANCH   3   5
BRANCH   1  15
HETATM   15  C   UNL     1     -42.325 -49.551  12.231  1.00  0.00     0.250 C 
BRANCH  15  16
HETATM   16  N   UNL     1     -40.921 -49.933  12.285  1.00  0.00    -0.294 N 
HETATM   17  N   UNL     1     -40.396 -50.409  13.438  1.00  0.00    -0.309 N 
HETATM   18  C   UNL     1     -39.086 -50.482  13.174  1.00  0.00     0.115 A 
ATOM     19  HN  UNL     1     -40.882 -50.653  14.301  1.00  0.00     0.186 HD
HETATM   20  C   UNL     1     -38.763 -50.057  11.864  1.00  0.00    -0.028 A 
HETATM   21  C   UNL     1     -37.431 -49.952  11.226  1.00  0.00     0.051 C 
HETATM   22  C   UNL     1     -39.985 -49.726  11.309  1.00  0.00     0.118 A 
ENDBRANCH  15  16
ENDBRANCH   1  15
TORSDOF 5
ENDMDL
MODEL 5
REMARK VINA RESULT:      -5.8      3.106      7.095
REMARK  5 active torsions:
REMARK  status: ('A' for Active; 'I' for Inactive)
REMARK    1  A    between atoms: N_6  and  C_7 
REMARK    2  A    between atoms: C_7  and  C_8 
REMARK       I    between atoms: C_8  and  N_10 
REMARK    3  A    between atoms: N_10  and  C_11 
REMARK    4  A    between atoms: C_11  and  C_17 
REMARK    5  A    between atoms: C_17  and  O_19 
ROOT
HETATM    1  C   UNL     1     -40.379 -52.287  12.711  1.00  0.00     0.238 C 
HETATM    2  O   UNL     1     -39.631 -53.157  13.144  1.00  0.00    -0.272 OA
HETATM    3  N   UNL     1     -40.137 -50.935  12.848  1.00  0.00    -0.341 N 
HETATM    4  H   UNL     1     -40.638 -50.388  12.133  1.00  0.00     0.163 HD
ENDROOT
BRANCH   3   5
HETATM    5  C   UNL     1     -38.861 -50.322  13.312  1.00  0.00     0.118 C 
HETATM    6  C   UNL     1     -38.926 -48.779  13.376  1.00  0.00     0.042 C 
HETATM    7  C   UNL     1     -37.599 -48.168  13.838  1.00  0.00     0.003 C 
HETATM    8  C   UNL     1     -37.139 -48.736  15.178  1.00  0.00     0.000 C 
HETATM    9  C   UNL     1     -37.126 -50.263  15.202  1.00  0.00     0.003 C 
HETATM   10  C   UNL     1     -38.428 -50.878  14.680  1.00  0.00     0.042 C 
BRANCH   5  11
HETATM   11  C   UNL     1     -37.882 -50.719  12.169  1.00  0.00     0.169 C 
HETATM   12  O   UNL     1     -36.913 -51.456  12.263  1.00  0.00    -0.648 OA
BRANCH  11  13
HETATM   13  O   UNL     1     -38.173 -50.079  11.000  1.00  0.00    -0.775 OA
HETATM   14  H   UNL     1     -37.900 -49.139  11.049  1.00  0.00     0.167 HD
ENDBRANCH  11  13
ENDBRANCH   5  11
ENDBRANCH   3   5
BRANCH   1  15
HETATM   15  C   UNL     1     -41.719 -52.620  12.075  1.00  0.00     0.250 C 
BRANCH  15  16
HETATM   16  N   UNL     1     -42.624 -53.341  12.959  1.00  0.00    -0.294 N 
HETATM   17  N   UNL     1     -42.158 -53.870  14.115  1.00  0.00    -0.309 N 
HETATM   18  C   UNL     1     -43.193 -54.589  14.566  1.00  0.00     0.115 A 
ATOM     19  HN  UNL     1     -41.239 -53.749  14.541  1.00  0.00     0.186 HD
HETATM   20  C   UNL     1     -44.319 -54.529  13.711  1.00  0.00    -0.028 A 
HETATM   21  C   UNL     1     -45.622 -55.220  13.845  1.00  0.00     0.051 C 
HETATM   22  C   UNL     1     -43.918 -53.693  12.686  1.00  0.00     0.118 A 
ENDBRANCH  15  16
ENDBRANCH   1  15
TORSDOF 5
ENDMDL
MODEL 6
REMARK VINA RESULT:      -5.7      3.496      5.598
REMARK  5 active torsions:
REMARK  status: ('A' for Active; 'I' for Inactive)
REMARK    1  A    between atoms: N_6  and  C_7 
REMARK    2  A    between atoms: C_7  and  C_8 
REMARK       I    between atoms: C_8  and  N_10 
REMARK    3  A    between atoms: N_10  and  C_11 
REMARK    4  A    between atoms: C_11  and  C_17 
REMARK    5  A    between atoms: C_17  and  O_19 
ROOT
HETATM    1  C   UNL     1     -41.166 -49.241  11.398  1.00  0.00     0.238 C 
HETATM    2  O   UNL     1     -40.342 -49.814  10.693  1.00  0.00    -0.272 OA
HETATM    3  N   UNL     1     -41.788 -49.833  12.479  1.00  0.00    -0.341 N 
HETATM    4  H   UNL     1     -42.137 -49.128  13.145  1.00  0.00     0.163 HD
ENDROOT
BRANCH   3   5
HETATM    5  C   UNL     1     -41.405 -51.132  13.101  1.00  0.00     0.118 C 
HETATM    6  C   UNL     1     -39.878 -51.371  13.097  1.00  0.00     0.042 C 
HETATM    7  C   UNL     1     -39.508 -52.719  13.724  1.00  0.00     0.003 C 
HETATM    8  C   UNL     1     -40.066 -52.871  15.136  1.00  0.00     0.000 C 
HETATM    9  C   UNL     1     -41.561 -52.573  15.218  1.00  0.00     0.003 C 
HETATM   10  C   UNL     1     -41.944 -51.255  14.536  1.00  0.00     0.042 C 
BRANCH   5  11
HETATM   11  C   UNL     1     -42.058 -52.156  12.126  1.00  0.00     0.169 C 
HETATM   12  O   UNL     1     -43.156 -52.676  12.246  1.00  0.00    -0.648 OA
BRANCH  11  13
HETATM   13  O   UNL     1     -41.220 -52.497  11.106  1.00  0.00    -0.775 OA
HETATM   14  H   UNL     1     -41.724 -52.920  10.379  1.00  0.00     0.167 HD
ENDBRANCH  11  13
ENDBRANCH   5  11
ENDBRANCH   3   5
BRANCH   1  15
HETATM   15  C   UNL     1     -41.673 -47.846  11.072  1.00  0.00     0.250 C 
BRANCH  15  16
HETATM   16  N   UNL     1     -42.801 -47.833  10.151  1.00  0.00    -0.294 N 
HETATM   17  N   UNL     1     -42.588 -47.973   8.822  1.00  0.00    -0.309 N 
HETATM   18  C   UNL     1     -43.793 -47.739   8.288  1.00  0.00     0.115 A 
ATOM     19  HN  UNL     1     -41.718 -48.203   8.341  1.00  0.00     0.186 HD
HETATM   20  C   UNL     1     -44.778 -47.449   9.261  1.00  0.00    -0.028 A 
HETATM   21  C   UNL     1     -46.202 -47.097   9.060  1.00  0.00     0.051 C 
HETATM   22  C   UNL     1     -44.100 -47.538  10.462  1.00  0.00     0.118 A 
ENDBRANCH  15  16
ENDBRANCH   1  15
TORSDOF 5
ENDMDL
MODEL 7
REMARK VINA RESULT:      -5.6      3.405      6.175
REMARK  5 active torsions:
REMARK  status: ('A' for Active; 'I' for Inactive)
REMARK    1  A    between atoms: N_6  and  C_7 
REMARK    2  A    between atoms: C_7  and  C_8 
REMARK       I    between atoms: C_8  and  N_10 
REMARK    3  A    between atoms: N_10  and  C_11 
REMARK    4  A    between atoms: C_11  and  C_17 
REMARK    5  A    between atoms: C_17  and  O_19 
ROOT
HETATM    1  C   UNL     1     -41.201 -50.598  12.250  1.00  0.00     0.238 C 
HETATM    2  O   UNL     1     -40.774 -50.258  13.349  1.00  0.00    -0.272 OA
HETATM    3  N   UNL     1     -41.898 -49.755  11.408  1.00  0.00    -0.341 N 
HETATM    4  H   UNL     1     -41.845 -50.072  10.429  1.00  0.00     0.163 HD
ENDROOT
BRANCH   3   5
HETATM    5  C   UNL     1     -42.040 -48.281  11.573  1.00  0.00     0.118 C 
HETATM    6  C   UNL     1     -42.768 -47.891  12.880  1.00  0.00     0.042 C 
HETATM    7  C   UNL     1     -42.919 -46.373  13.021  1.00  0.00     0.003 C 
HETATM    8  C   UNL     1     -41.578 -45.650  12.924  1.00  0.00     0.000 C 
HETATM    9  C   UNL     1     -40.776 -46.051  11.689  1.00  0.00     0.003 C 
HETATM   10  C   UNL     1     -40.678 -47.569  11.509  1.00  0.00     0.042 C 
BRANCH   5  11
HETATM   11  C   UNL     1     -42.964 -47.913  10.375  1.00  0.00     0.169 C 
HETATM   12  O   UNL     1     -44.138 -47.586  10.437  1.00  0.00    -0.648 OA
BRANCH  11  13
HETATM   13  O   UNL     1     -42.333 -48.064   9.177  1.00  0.00    -0.775 OA
HETATM   14  H   UNL     1     -42.552 -47.319   8.580  1.00  0.00     0.167 HD
ENDBRANCH  11  13
ENDBRANCH   5  11
ENDBRANCH   3   5
BRANCH   1  15
HETATM   15  C   UNL     1     -41.100 -52.031  11.756  1.00  0.00     0.250 C 
BRANCH  15  16
HETATM   16  N   UNL     1     -42.064 -52.932  12.371  1.00  0.00    -0.294 N 
HETATM   17  N   UNL     1     -43.351 -52.931  11.953  1.00  0.00    -0.309 N 
HETATM   18  C   UNL     1     -43.964 -53.729  12.836  1.00  0.00     0.115 A 
ATOM     19  HN  UNL     1     -43.756 -52.441  11.155  1.00  0.00     0.186 HD
HETATM   20  C   UNL     1     -43.085 -54.241  13.818  1.00  0.00    -0.028 A 
HETATM   21  C   UNL     1     -43.396 -55.111  14.976  1.00  0.00     0.051 C 
HETATM   22  C   UNL     1     -41.854 -53.717  13.472  1.00  0.00     0.118 A 
ENDBRANCH  15  16
ENDBRANCH   1  15
TORSDOF 5
ENDMDL
MODEL 8
REMARK VINA RESULT:      -5.6      3.472      4.866
REMARK  5 active torsions:
REMARK  status: ('A' for Active; 'I' for Inactive)
REMARK    1  A    between atoms: N_6  and  C_7 
REMARK    2  A    between atoms: C_7  and  C_8 
REMARK       I    between atoms: C_8  and  N_10 
REMARK    3  A    between atoms: N_10  and  C_11 
REMARK    4  A    between atoms: C_11  and  C_17 
REMARK    5  A    between atoms: C_17  and  O_19 
ROOT
HETATM    1  C   UNL     1     -42.032 -49.238  12.144  1.00  0.00     0.238 C 
HETATM    2  O   UNL     1     -41.073 -49.010  12.874  1.00  0.00    -0.272 OA
HETATM    3  N   UNL     1     -42.567 -50.497  11.958  1.00  0.00    -0.341 N 
HETATM    4  H   UNL     1     -43.545 -50.447  11.637  1.00  0.00     0.163 HD
ENDROOT
BRANCH   3   5
HETATM    5  C   UNL     1     -42.242 -51.708  12.763  1.00  0.00     0.118 C 
HETATM    6  C   UNL     1     -41.921 -51.378  14.239  1.00  0.00     0.042 C 
HETATM    7  C   UNL     1     -41.573 -52.635  15.043  1.00  0.00     0.003 C 
HETATM    8  C   UNL     1     -42.670 -53.693  14.962  1.00  0.00     0.000 C 
HETATM    9  C   UNL     1     -43.085 -54.008  13.527  1.00  0.00     0.003 C 
HETATM   10  C   UNL     1     -43.372 -52.751  12.700  1.00  0.00     0.042 C 
BRANCH   5  11
HETATM   11  C   UNL     1     -40.933 -52.203  12.081  1.00  0.00     0.169 C 
HETATM   12  O   UNL     1     -39.794 -52.039  12.489  1.00  0.00    -0.648 OA
BRANCH  11  13
HETATM   13  O   UNL     1     -41.176 -52.808  10.884  1.00  0.00    -0.775 OA
HETATM   14  H   UNL     1     -41.180 -53.782  10.989  1.00  0.00     0.167 HD
ENDBRANCH  11  13
ENDBRANCH   5  11
ENDBRANCH   3   5
BRANCH   1  15
HETATM   15  C   UNL     1     -42.656 -48.159  11.274  1.00  0.00     0.250 C 
BRANCH  15  16
HETATM   16  N   UNL     1     -41.787 -47.013  11.047  1.00  0.00    -0.294 N 
HETATM   17  N   UNL     1     -40.520 -47.204  10.610  1.00  0.00    -0.309 N 
HETATM   18  C   UNL     1     -39.979 -45.982  10.686  1.00  0.00     0.115 A 
ATOM     19  HN  UNL     1     -40.083 -48.070  10.297  1.00  0.00     0.186 HD
HETATM   20  C   UNL     1     -40.885 -45.008  11.169  1.00  0.00    -0.028 A 
HETATM   21  C   UNL     1     -40.645 -43.571  11.431  1.00  0.00     0.051 C 
HETATM   22  C   UNL     1     -42.056 -45.712  11.374  1.00  0.00     0.118 A 
ENDBRANCH  15  16
ENDBRANCH   1  15
TORSDOF 5
ENDMDL
MODEL 9
REMARK VINA RESULT:      -5.5      2.976      4.260
REMARK  5 active torsions:
REMARK  status: ('A' for Active; 'I' for Inactive)
REMARK    1  A    between atoms: N_6  and  C_7 
REMARK    2  A    between atoms: C_7  and  C_8 
REMARK       I    between atoms: C_8  and  N_10 
REMARK    3  A    between atoms: N_10  and  C_11 
REMARK    4  A    between atoms: C_11  and  C_17 
REMARK    5  A    between atoms: C_17  and  O_19 
ROOT
HETATM    1  C   UNL     1     -40.215 -50.403  12.503  1.00  0.00     0.238 C 
HETATM    2  O   UNL     1     -40.684 -50.493  11.373  1.00  0.00    -0.272 OA
HETATM    3  N   UNL     1     -40.599 -51.211  13.554  1.00  0.00    -0.341 N 
HETATM    4  H   UNL     1     -39.871 -51.251  14.283  1.00  0.00     0.163 HD
ENDROOT
BRANCH   3   5
HETATM    5  C   UNL     1     -41.435 -52.439  13.449  1.00  0.00     0.118 C 
HETATM    6  C   UNL     1     -41.804 -53.033  14.827  1.00  0.00     0.042 C 
HETATM    7  C   UNL     1     -42.649 -54.305  14.696  1.00  0.00     0.003 C 
HETATM    8  C   UNL     1     -43.906 -54.077  13.862  1.00  0.00     0.000 C 
HETATM    9  C   UNL     1     -43.615 -53.420  12.515  1.00  0.00     0.003 C 
HETATM   10  C   UNL     1     -42.717 -52.185  12.636  1.00  0.00     0.042 C 
BRANCH   5  11
HETATM   11  C   UNL     1     -40.463 -53.427  12.739  1.00  0.00     0.169 C 
HETATM   12  O   UNL     1     -39.571 -54.073  13.266  1.00  0.00    -0.648 OA
BRANCH  11  13
HETATM   13  O   UNL     1     -40.659 -53.458  11.390  1.00  0.00    -0.775 OA
HETATM   14  H   UNL     1     -40.494 -54.359  11.043  1.00  0.00     0.167 HD
ENDBRANCH  11  13
ENDBRANCH   5  11
ENDBRANCH   3   5
BRANCH   1  15
HETATM   15  C   UNL     1     -39.238 -49.302  12.884  1.00  0.00     0.250 C 
BRANCH  15  16
HETATM   16  N   UNL     1     -39.633 -47.981  12.415  1.00  0.00    -0.294 N 
HETATM   17  N   UNL     1     -39.953 -47.796  11.113  1.00  0.00    -0.309 N 
HETATM   18  C   UNL     1     -40.084 -46.467  11.013  1.00  0.00     0.115 A 
ATOM     19  HN  UNL     1     -40.067 -48.499  10.383  1.00  0.00     0.186 HD
HETATM   20  C   UNL     1     -39.851 -45.797  12.236  1.00  0.00    -0.028 A 
HETATM   21  C   UNL     1     -39.858 -44.342  12.511  1.00  0.00     0.051 C 
HETATM   22  C   UNL     1     -39.579 -46.816  13.130  1.00  0.00     0.118 A 
ENDBRANCH  15  16
ENDBRANCH   1  15
TORSDOF 5
ENDMDL
