MODEL 1
REMARK VINA RESULT:      -5.9      0.000      0.000
REMARK  7 active torsions:
REMARK  status: ('A' for Active; 'I' for Inactive)
REMARK    1  A    between atoms: O_2  and  C_3 
REMARK    2  A    between atoms: C_3  and  C_4 
REMARK    3  A    between atoms: C_4  and  N_5 
REMARK    4  A    between atoms: C_9  and  C_10 
REMARK    5  A    between atoms: C_10  and  N_11 
REMARK       I    between atoms: N_11  and  C_12 
REMARK    6  A    between atoms: C_12  and  C_14 
REMARK    7  A    between atoms: C_14  and  N_15 
ROOT
HETATM    1  N   UNL     1     -41.378 -50.459  11.307  1.00  0.00    -0.358 N 
HETATM    2  C   UNL     1     -41.014 -51.276  12.357  1.00  0.00     0.236 C 
HETATM    3  O   UNL     1     -40.701 -50.854  13.468  1.00  0.00    -0.272 OA
HETATM    4  H   UNL     1     -41.898 -50.884  10.541  1.00  0.00     0.162 HD
ENDROOT
BRANCH   1   5
HETATM    5  C   UNL     1     -41.383 -49.010  11.422  1.00  0.00     0.158 C 
BRANCH   5   6
HETATM    6  C   UNL     1     -42.801 -48.427  11.664  1.00  0.00     0.240 C 
HETATM    7  N   UNL     1     -43.251 -47.366  10.746  1.00  0.00     0.096 N 
HETATM    8  C   UNL     1     -42.619 -46.116  11.178  1.00  0.00     0.273 C 
HETATM    9  C   UNL     1     -42.397 -46.279  12.677  1.00  0.00     0.032 C 
HETATM   10  C   UNL     1     -42.890 -47.681  12.998  1.00  0.00     0.039 C 
BRANCH   7  11
HETATM   11  C   UNL     1     -43.093 -47.609   9.312  1.00  0.00     0.299 C 
BRANCH  11  12
HETATM   12  C   UNL     1     -44.400 -47.598   8.504  1.00  0.00     0.197 C 
BRANCH  12  13
HETATM   13  O   UNL     1     -45.493 -47.460   9.421  1.00  0.00    -0.394 OA
HETATM   14  C   UNL     1     -46.672 -48.083   8.928  1.00  0.00     0.201 C 
ENDBRANCH  12  13
ENDBRANCH  11  12
ENDBRANCH   7  11
ENDBRANCH   5   6
ENDBRANCH   1   5
BRANCH   2  15
HETATM   15  C   UNL     1     -41.116 -52.771  12.049  1.00  0.00     0.235 C 
BRANCH  15  16
HETATM   16  N   UNL     1     -42.214 -53.333  12.829  1.00  0.00    -0.301 N 
HETATM   17  C   UNL     1     -43.505 -53.163  12.391  1.00  0.00     0.102 A 
HETATM   18  C   UNL     1     -44.532 -53.740  13.010  1.00  0.00     0.092 A 
HETATM   19  C   UNL     1     -44.282 -54.599  14.180  1.00  0.00     0.252 A 
HETATM   20  O   UNL     1     -45.236 -55.170  14.702  1.00  0.00    -0.268 OA
HETATM   21  N   UNL     1     -42.965 -54.706  14.591  1.00  0.00    -0.271 N 
HETATM   22  C   UNL     1     -42.660 -55.560  15.719  1.00  0.00     0.164 C 
HETATM   23  C   UNL     1     -41.890 -54.120  13.931  1.00  0.00     0.331 A 
HETATM   24  O   UNL     1     -40.718 -54.302  14.271  1.00  0.00    -0.246 OA
ENDBRANCH  15  16
ENDBRANCH   2  15
TORSDOF 7
ENDMDL
MODEL 2
REMARK VINA RESULT:      -5.7      2.338      7.441
REMARK  7 active torsions:
REMARK  status: ('A' for Active; 'I' for Inactive)
REMARK    1  A    between atoms: O_2  and  C_3 
REMARK    2  A    between atoms: C_3  and  C_4 
REMARK    3  A    between atoms: C_4  and  N_5 
REMARK    4  A    between atoms: C_9  and  C_10 
REMARK    5  A    between atoms: C_10  and  N_11 
REMARK       I    between atoms: N_11  and  C_12 
REMARK    6  A    between atoms: C_12  and  C_14 
REMARK    7  A    between atoms: C_14  and  N_15 
ROOT
HETATM    1  N   UNL     1     -42.188 -50.976  12.005  1.00  0.00    -0.358 N 
HETATM    2  C   UNL     1     -41.652 -49.728  12.249  1.00  0.00     0.236 C 
HETATM    3  O   UNL     1     -41.765 -49.141  13.323  1.00  0.00    -0.272 OA
HETATM    4  H   UNL     1     -41.805 -51.505  11.222  1.00  0.00     0.162 HD
ENDROOT
BRANCH   1   5
HETATM    5  C   UNL     1     -42.973 -51.688  13.000  1.00  0.00     0.158 C 
BRANCH   5   6
HETATM    6  C   UNL     1     -43.243 -53.166  12.613  1.00  0.00     0.240 C 
HETATM    7  N   UNL     1     -44.485 -53.773  13.124  1.00  0.00     0.096 N 
HETATM    8  C   UNL     1     -44.249 -54.140  14.523  1.00  0.00     0.273 C 
HETATM    9  C   UNL     1     -42.752 -54.407  14.618  1.00  0.00     0.032 C 
HETATM   10  C   UNL     1     -42.210 -54.114  13.228  1.00  0.00     0.039 C 
BRANCH   7  11
HETATM   11  C   UNL     1     -45.724 -53.017  12.942  1.00  0.00     0.299 C 
BRANCH  11  12
HETATM   12  C   UNL     1     -46.612 -52.918  14.192  1.00  0.00     0.197 C 
BRANCH  12  13
HETATM   13  O   UNL     1     -46.704 -51.539  14.571  1.00  0.00    -0.394 OA
HETATM   14  C   UNL     1     -47.223 -51.390  15.885  1.00  0.00     0.201 C 
ENDBRANCH  12  13
ENDBRANCH  11  12
ENDBRANCH   7  11
ENDBRANCH   5   6
ENDBRANCH   1   5
BRANCH   2  15
HETATM   15  C   UNL     1     -40.824 -49.167  11.093  1.00  0.00     0.235 C 
BRANCH  15  16
HETATM   16  N   UNL     1     -41.419 -47.904  10.665  1.00  0.00    -0.301 N 
HETATM   17  C   UNL     1     -42.645 -47.915  10.046  1.00  0.00     0.102 A 
HETATM   18  C   UNL     1     -43.275 -46.786   9.727  1.00  0.00     0.092 A 
HETATM   19  C   UNL     1     -42.653 -45.493  10.062  1.00  0.00     0.252 A 
HETATM   20  O   UNL     1     -43.275 -44.462   9.814  1.00  0.00    -0.268 OA
HETATM   21  N   UNL     1     -41.405 -45.548  10.655  1.00  0.00    -0.271 N 
HETATM   22  C   UNL     1     -40.762 -44.306  11.030  1.00  0.00     0.164 C 
HETATM   23  C   UNL     1     -40.758 -46.728  11.007  1.00  0.00     0.331 A 
HETATM   24  O   UNL     1     -39.683 -46.745  11.612  1.00  0.00    -0.246 OA
ENDBRANCH  15  16
ENDBRANCH   2  15
TORSDOF 7
ENDMDL
MODEL 3
REMARK VINA RESULT:      -5.5      2.334      3.780
REMARK  7 active torsions:
REMARK  status: ('A' for Active; 'I' for Inactive)
REMARK    1  A    between atoms: O_2  and  C_3 
REMARK    2  A    between atoms: C_3  and  C_4 
REMARK    3  A    between atoms: C_4  and  N_5 
REMARK    4  A    between atoms: C_9  and  C_10 
REMARK    5  A    between atoms: C_10  and  N_11 
REMARK       I    between atoms: N_11  and  C_12 
REMARK    6  A    between atoms: C_12  and  C_14 
REMARK    7  A    between atoms: C_14  and  N_15 
ROOT
HETATM    1  N   UNL     1     -42.686 -52.670  11.888  1.00  0.00    -0.358 N 
HETATM    2  C   UNL     1     -42.956 -53.679  12.789  1.00  0.00     0.236 C 
HETATM    3  O   UNL     1     -42.118 -54.141  13.560  1.00  0.00    -0.272 OA
HETATM    4  H   UNL     1     -43.480 -52.152  11.513  1.00  0.00     0.162 HD
ENDROOT
BRANCH   1   5
HETATM    5  C   UNL     1     -41.360 -52.090  11.751  1.00  0.00     0.158 C 
BRANCH   5   6
HETATM    6  C   UNL     1     -41.035 -51.052  12.857  1.00  0.00     0.240 C 
HETATM    7  N   UNL     1     -40.920 -49.645  12.438  1.00  0.00     0.096 N 
HETATM    8  C   UNL     1     -39.596 -49.475  11.833  1.00  0.00     0.273 C 
HETATM    9  C   UNL     1     -38.713 -50.517  12.509  1.00  0.00     0.032 C 
HETATM   10  C   UNL     1     -39.640 -51.270  13.450  1.00  0.00     0.039 C 
BRANCH   7  11
HETATM   11  C   UNL     1     -41.993 -49.104  11.602  1.00  0.00     0.299 C 
BRANCH  11  12
HETATM   12  C   UNL     1     -41.552 -48.029  10.597  1.00  0.00     0.197 C 
BRANCH  12  13
HETATM   13  O   UNL     1     -42.571 -47.905   9.597  1.00  0.00    -0.394 OA
HETATM   14  C   UNL     1     -43.024 -46.563   9.474  1.00  0.00     0.201 C 
ENDBRANCH  12  13
ENDBRANCH  11  12
ENDBRANCH   7  11
ENDBRANCH   5   6
ENDBRANCH   1   5
BRANCH   2  15
HETATM   15  C   UNL     1     -44.419 -54.122  12.811  1.00  0.00     0.235 C 
BRANCH  15  16
HETATM   16  N   UNL     1     -45.145 -53.285  13.761  1.00  0.00    -0.301 N 
HETATM   17  C   UNL     1     -45.806 -52.171  13.307  1.00  0.00     0.102 A 
HETATM   18  C   UNL     1     -46.564 -51.432  14.114  1.00  0.00     0.092 A 
HETATM   19  C   UNL     1     -46.715 -51.827  15.525  1.00  0.00     0.252 A 
HETATM   20  O   UNL     1     -47.465 -51.167  16.241  1.00  0.00    -0.268 OA
HETATM   21  N   UNL     1     -46.000 -52.939  15.930  1.00  0.00    -0.271 N 
HETATM   22  C   UNL     1     -46.134 -53.387  17.300  1.00  0.00     0.164 C 
HETATM   23  C   UNL     1     -45.225 -53.723  15.080  1.00  0.00     0.331 A 
HETATM   24  O   UNL     1     -44.666 -54.758  15.451  1.00  0.00    -0.246 OA
ENDBRANCH  15  16
ENDBRANCH   2  15
TORSDOF 7
ENDMDL
MODEL 4
REMARK VINA RESULT:      -5.5      4.299      6.511
REMARK  7 active torsions:
REMARK  status: ('A' for Active; 'I' for Inactive)
REMARK    1  A    between atoms: O_2  and  C_3 
REMARK    2  A    between atoms: C_3  and  C_4 
REMARK    3  A    between atoms: C_4  and  N_5 
REMARK    4  A    between atoms: C_9  and  C_10 
REMARK    5  A    between atoms: C_10  and  N_11 
REMARK       I    between atoms: N_11  and  C_12 
REMARK    6  A    between atoms: C_12  and  C_14 
REMARK    7  A    between atoms: C_14  and  N_15 
ROOT
HETATM    1  N   UNL     1     -43.600 -54.671  14.503  1.00  0.00    -0.358 N 
HETATM    2  C   UNL     1     -44.725 -54.543  13.715  1.00  0.00     0.236 C 
HETATM    3  O   UNL     1     -44.685 -54.355  12.501  1.00  0.00    -0.272 OA
HETATM    4  H   UNL     1     -43.713 -55.113  15.414  1.00  0.00     0.162 HD
ENDROOT
BRANCH   1   5
HETATM    5  C   UNL     1     -42.257 -54.554  13.957  1.00  0.00     0.158 C 
BRANCH   5   6
HETATM    6  C   UNL     1     -41.342 -53.621  14.794  1.00  0.00     0.240 C 
HETATM    7  N   UNL     1     -40.171 -53.047  14.110  1.00  0.00     0.096 N 
HETATM    8  C   UNL     1     -39.138 -54.086  14.064  1.00  0.00     0.273 C 
HETATM    9  C   UNL     1     -39.404 -54.966  15.279  1.00  0.00     0.032 C 
HETATM   10  C   UNL     1     -40.646 -54.376  15.929  1.00  0.00     0.039 C 
BRANCH   7  11
HETATM   11  C   UNL     1     -40.396 -52.420  12.807  1.00  0.00     0.299 C 
BRANCH  11  12
HETATM   12  C   UNL     1     -39.781 -51.022  12.645  1.00  0.00     0.197 C 
BRANCH  12  13
HETATM   13  O   UNL     1     -38.426 -51.174  12.207  1.00  0.00    -0.394 OA
HETATM   14  C   UNL     1     -37.704 -49.953  12.301  1.00  0.00     0.201 C 
ENDBRANCH  12  13
ENDBRANCH  11  12
ENDBRANCH   7  11
ENDBRANCH   5   6
ENDBRANCH   1   5
BRANCH   2  15
HETATM   15  C   UNL     1     -46.040 -54.741  14.469  1.00  0.00     0.235 C 
BRANCH  15  16
HETATM   16  N   UNL     1     -46.282 -53.567  15.301  1.00  0.00    -0.301 N 
HETATM   17  C   UNL     1     -46.841 -52.447  14.737  1.00  0.00     0.102 A 
HETATM   18  C   UNL     1     -47.174 -51.388  15.471  1.00  0.00     0.092 A 
HETATM   19  C   UNL     1     -46.957 -51.422  16.928  1.00  0.00     0.252 A 
HETATM   20  O   UNL     1     -47.324 -50.459  17.598  1.00  0.00    -0.268 OA
HETATM   21  N   UNL     1     -46.362 -52.564  17.432  1.00  0.00    -0.271 N 
HETATM   22  C   UNL     1     -46.151 -52.662  18.861  1.00  0.00     0.164 C 
HETATM   23  C   UNL     1     -46.035 -53.679  16.666  1.00  0.00     0.331 A 
HETATM   24  O   UNL     1     -45.583 -54.717  17.157  1.00  0.00    -0.246 OA
ENDBRANCH  15  16
ENDBRANCH   2  15
TORSDOF 7
ENDMDL
MODEL 5
REMARK VINA RESULT:      -5.4      3.378      4.889
REMARK  7 active torsions:
REMARK  status: ('A' for Active; 'I' for Inactive)
REMARK    1  A    between atoms: O_2  and  C_3 
REMARK    2  A    between atoms: C_3  and  C_4 
REMARK    3  A    between atoms: C_4  and  N_5 
REMARK    4  A    between atoms: C_9  and  C_10 
REMARK    5  A    between atoms: C_10  and  N_11 
REMARK       I    between atoms: N_11  and  C_12 
REMARK    6  A    between atoms: C_12  and  C_14 
REMARK    7  A    between atoms: C_14  and  N_15 
ROOT
HETATM    1  N   UNL     1     -42.896 -52.682  12.064  1.00  0.00    -0.358 N 
HETATM    2  C   UNL     1     -43.122 -53.747  12.912  1.00  0.00     0.236 C 
HETATM    3  O   UNL     1     -42.248 -54.254  13.612  1.00  0.00    -0.272 OA
HETATM    4  H   UNL     1     -43.706 -52.145  11.759  1.00  0.00     0.162 HD
ENDROOT
BRANCH   1   5
HETATM    5  C   UNL     1     -41.577 -52.091  11.901  1.00  0.00     0.158 C 
BRANCH   5   6
HETATM    6  C   UNL     1     -41.537 -50.587  12.280  1.00  0.00     0.240 C 
HETATM    7  N   UNL     1     -40.615 -50.196  13.360  1.00  0.00     0.096 N 
HETATM    8  C   UNL     1     -41.258 -50.540  14.631  1.00  0.00     0.273 C 
HETATM    9  C   UNL     1     -42.755 -50.462  14.354  1.00  0.00     0.032 C 
HETATM   10  C   UNL     1     -42.865 -50.115  12.878  1.00  0.00     0.039 C 
BRANCH   7  11
HETATM   11  C   UNL     1     -39.239 -50.685  13.276  1.00  0.00     0.299 C 
BRANCH  11  12
HETATM   12  C   UNL     1     -38.167 -49.588  13.174  1.00  0.00     0.197 C 
BRANCH  12  13
HETATM   13  O   UNL     1     -38.068 -49.182  11.803  1.00  0.00    -0.394 OA
HETATM   14  C   UNL     1     -37.299 -50.101  11.038  1.00  0.00     0.201 C 
ENDBRANCH  12  13
ENDBRANCH  11  12
ENDBRANCH   7  11
ENDBRANCH   5   6
ENDBRANCH   1   5
BRANCH   2  15
HETATM   15  C   UNL     1     -44.582 -54.195  12.974  1.00  0.00     0.235 C 
BRANCH  15  16
HETATM   16  N   UNL     1     -45.297 -53.328  13.906  1.00  0.00    -0.301 N 
HETATM   17  C   UNL     1     -45.980 -52.240  13.422  1.00  0.00     0.102 A 
HETATM   18  C   UNL     1     -46.728 -51.477  14.215  1.00  0.00     0.092 A 
HETATM   19  C   UNL     1     -46.843 -51.816  15.644  1.00  0.00     0.252 A 
HETATM   20  O   UNL     1     -47.585 -51.136  16.350  1.00  0.00    -0.268 OA
HETATM   21  N   UNL     1     -46.106 -52.903  16.078  1.00  0.00    -0.271 N 
HETATM   22  C   UNL     1     -46.206 -53.297  17.468  1.00  0.00     0.164 C 
HETATM   23  C   UNL     1     -45.343 -53.713  15.243  1.00  0.00     0.331 A 
HETATM   24  O   UNL     1     -44.763 -54.726  15.643  1.00  0.00    -0.246 OA
ENDBRANCH  15  16
ENDBRANCH   2  15
TORSDOF 7
ENDMDL
MODEL 6
REMARK VINA RESULT:      -5.2      3.583      6.668
REMARK  7 active torsions:
REMARK  status: ('A' for Active; 'I' for Inactive)
REMARK    1  A    between atoms: O_2  and  C_3 
REMARK    2  A    between atoms: C_3  and  C_4 
REMARK    3  A    between atoms: C_4  and  N_5 
REMARK    4  A    between atoms: C_9  and  C_10 
REMARK    5  A    between atoms: C_10  and  N_11 
REMARK       I    between atoms: N_11  and  C_12 
REMARK    6  A    between atoms: C_12  and  C_14 
REMARK    7  A    between atoms: C_14  and  N_15 
ROOT
HETATM    1  N   UNL     1     -43.185 -49.958  14.734  1.00  0.00    -0.358 N 
HETATM    2  C   UNL     1     -42.339 -49.746  13.665  1.00  0.00     0.236 C 
HETATM    3  O   UNL     1     -42.573 -50.143  12.526  1.00  0.00    -0.272 OA
HETATM    4  H   UNL     1     -43.070 -49.356  15.548  1.00  0.00     0.162 HD
ENDROOT
BRANCH   1   5
HETATM    5  C   UNL     1     -44.421 -50.712  14.603  1.00  0.00     0.158 C 
BRANCH   5   6
HETATM    6  C   UNL     1     -44.815 -51.459  15.905  1.00  0.00     0.240 C 
HETATM    7  N   UNL     1     -45.384 -52.809  15.752  1.00  0.00     0.096 N 
HETATM    8  C   UNL     1     -46.790 -52.650  15.369  1.00  0.00     0.273 C 
HETATM    9  C   UNL     1     -47.218 -51.316  15.969  1.00  0.00     0.032 C 
HETATM   10  C   UNL     1     -45.967 -50.763  16.634  1.00  0.00     0.039 C 
BRANCH   7  11
HETATM   11  C   UNL     1     -44.668 -53.745  14.885  1.00  0.00     0.299 C 
BRANCH  11  12
HETATM   12  C   UNL     1     -45.553 -54.520  13.897  1.00  0.00     0.197 C 
BRANCH  12  13
HETATM   13  O   UNL     1     -44.857 -54.614  12.648  1.00  0.00    -0.394 OA
HETATM   14  C   UNL     1     -44.147 -53.419  12.352  1.00  0.00     0.201 C 
ENDBRANCH  12  13
ENDBRANCH  11  12
ENDBRANCH   7  11
ENDBRANCH   5   6
ENDBRANCH   1   5
BRANCH   2  15
HETATM   15  C   UNL     1     -41.114 -48.894  13.998  1.00  0.00     0.235 C 
BRANCH  15  16
HETATM   16  N   UNL     1     -39.913 -49.649  13.654  1.00  0.00    -0.301 N 
HETATM   17  C   UNL     1     -39.578 -50.753  14.399  1.00  0.00     0.102 A 
HETATM   18  C   UNL     1     -38.552 -51.533  14.067  1.00  0.00     0.092 A 
HETATM   19  C   UNL     1     -37.766 -51.219  12.861  1.00  0.00     0.252 A 
HETATM   20  O   UNL     1     -36.860 -51.983  12.537  1.00  0.00    -0.268 OA
HETATM   21  N   UNL     1     -38.132 -50.077  12.171  1.00  0.00    -0.271 N 
HETATM   22  C   UNL     1     -37.411 -49.738  10.963  1.00  0.00     0.164 C 
HETATM   23  C   UNL     1     -39.219 -49.275  12.507  1.00  0.00     0.331 A 
HETATM   24  O   UNL     1     -39.573 -48.311  11.824  1.00  0.00    -0.246 OA
ENDBRANCH  15  16
ENDBRANCH   2  15
TORSDOF 7
ENDMDL
MODEL 7
REMARK VINA RESULT:      -5.1      2.147      3.748
REMARK  7 active torsions:
REMARK  status: ('A' for Active; 'I' for Inactive)
REMARK    1  A    between atoms: O_2  and  C_3 
REMARK    2  A    between atoms: C_3  and  C_4 
REMARK    3  A    between atoms: C_4  and  N_5 
REMARK    4  A    between atoms: C_9  and  C_10 
REMARK    5  A    between atoms: C_10  and  N_11 
REMARK       I    between atoms: N_11  and  C_12 
REMARK    6  A    between atoms: C_12  and  C_14 
REMARK    7  A    between atoms: C_14  and  N_15 
ROOT
HETATM    1  N   UNL     1     -41.958 -50.633  11.775  1.00  0.00    -0.358 N 
HETATM    2  C   UNL     1     -41.006 -51.400  12.414  1.00  0.00     0.236 C 
HETATM    3  O   UNL     1     -40.233 -50.956  13.259  1.00  0.00    -0.272 OA
HETATM    4  H   UNL     1     -42.733 -51.123  11.329  1.00  0.00     0.162 HD
ENDROOT
BRANCH   1   5
HETATM    5  C   UNL     1     -42.099 -49.208  12.029  1.00  0.00     0.158 C 
BRANCH   5   6
HETATM    6  C   UNL     1     -41.463 -48.330  10.919  1.00  0.00     0.240 C 
HETATM    7  N   UNL     1     -40.938 -47.016  11.328  1.00  0.00     0.096 N 
HETATM    8  C   UNL     1     -42.080 -46.106  11.451  1.00  0.00     0.273 C 
HETATM    9  C   UNL     1     -43.121 -46.639  10.474  1.00  0.00     0.032 C 
HETATM   10  C   UNL     1     -42.497 -47.892   9.878  1.00  0.00     0.039 C 
BRANCH   7  11
HETATM   11  C   UNL     1     -40.062 -46.980  12.500  1.00  0.00     0.299 C 
BRANCH  11  12
HETATM   12  C   UNL     1     -39.571 -45.580  12.900  1.00  0.00     0.197 C 
BRANCH  12  13
HETATM   13  O   UNL     1     -38.633 -45.722  13.973  1.00  0.00    -0.394 OA
HETATM   14  C   UNL     1     -38.347 -47.087  14.243  1.00  0.00     0.201 C 
ENDBRANCH  12  13
ENDBRANCH  11  12
ENDBRANCH   7  11
ENDBRANCH   5   6
ENDBRANCH   1   5
BRANCH   2  15
HETATM   15  C   UNL     1     -41.048 -52.883  12.042  1.00  0.00     0.235 C 
BRANCH  15  16
HETATM   16  N   UNL     1     -41.727 -53.612  13.109  1.00  0.00    -0.301 N 
HETATM   17  C   UNL     1     -40.998 -54.074  14.177  1.00  0.00     0.102 A 
HETATM   18  C   UNL     1     -41.583 -54.655  15.221  1.00  0.00     0.092 A 
HETATM   19  C   UNL     1     -43.050 -54.790  15.245  1.00  0.00     0.252 A 
HETATM   20  O   UNL     1     -43.578 -55.275  16.244  1.00  0.00    -0.268 OA
HETATM   21  N   UNL     1     -43.726 -54.334  14.128  1.00  0.00    -0.271 N 
HETATM   22  C   UNL     1     -45.171 -54.416  14.112  1.00  0.00     0.164 C 
HETATM   23  C   UNL     1     -43.115 -53.707  13.047  1.00  0.00     0.331 A 
HETATM   24  O   UNL     1     -43.752 -53.234  12.102  1.00  0.00    -0.246 OA
ENDBRANCH  15  16
ENDBRANCH   2  15
TORSDOF 7
ENDMDL
MODEL 8
REMARK VINA RESULT:      -5.1      2.982      7.079
REMARK  7 active torsions:
REMARK  status: ('A' for Active; 'I' for Inactive)
REMARK    1  A    between atoms: O_2  and  C_3 
REMARK    2  A    between atoms: C_3  and  C_4 
REMARK    3  A    between atoms: C_4  and  N_5 
REMARK    4  A    between atoms: C_9  and  C_10 
REMARK    5  A    between atoms: C_10  and  N_11 
REMARK       I    between atoms: N_11  and  C_12 
REMARK    6  A    between atoms: C_12  and  C_14 
REMARK    7  A    between atoms: C_14  and  N_15 
ROOT
HETATM    1  N   UNL     1     -40.492 -50.963  11.784  1.00  0.00    -0.358 N 
HETATM    2  C   UNL     1     -39.185 -50.892  12.219  1.00  0.00     0.236 C 
HETATM    3  O   UNL     1     -38.651 -51.759  12.907  1.00  0.00    -0.272 OA
HETATM    4  H   UNL     1     -40.755 -50.375  10.994  1.00  0.00     0.162 HD
ENDROOT
BRANCH   1   5
HETATM    5  C   UNL     1     -41.366 -52.068  12.141  1.00  0.00     0.158 C 
BRANCH   5   6
HETATM    6  C   UNL     1     -41.981 -51.920  13.558  1.00  0.00     0.240 C 
HETATM    7  N   UNL     1     -43.262 -52.605  13.804  1.00  0.00     0.096 N 
HETATM    8  C   UNL     1     -44.320 -51.779  13.215  1.00  0.00     0.273 C 
HETATM    9  C   UNL     1     -43.786 -50.353  13.264  1.00  0.00     0.032 C 
HETATM   10  C   UNL     1     -42.389 -50.475  13.854  1.00  0.00     0.039 C 
BRANCH   7  11
HETATM   11  C   UNL     1     -43.359 -54.010  13.406  1.00  0.00     0.299 C 
BRANCH  11  12
HETATM   12  C   UNL     1     -44.792 -54.544  13.256  1.00  0.00     0.197 C 
BRANCH  12  13
HETATM   13  O   UNL     1     -45.216 -55.056  14.525  1.00  0.00    -0.394 OA
HETATM   14  C   UNL     1     -46.438 -54.466  14.947  1.00  0.00     0.201 C 
ENDBRANCH  12  13
ENDBRANCH  11  12
ENDBRANCH   7  11
ENDBRANCH   5   6
ENDBRANCH   1   5
BRANCH   2  15
HETATM   15  C   UNL     1     -38.419 -49.675  11.700  1.00  0.00     0.235 C 
BRANCH  15  16
HETATM   16  N   UNL     1     -38.662 -48.552  12.601  1.00  0.00    -0.301 N 
HETATM   17  C   UNL     1     -37.852 -48.383  13.697  1.00  0.00     0.102 A 
HETATM   18  C   UNL     1     -37.968 -47.322  14.492  1.00  0.00     0.092 A 
HETATM   19  C   UNL     1     -38.975 -46.293  14.181  1.00  0.00     0.252 A 
HETATM   20  O   UNL     1     -39.028 -45.292  14.892  1.00  0.00    -0.268 OA
HETATM   21  N   UNL     1     -39.781 -46.535  13.084  1.00  0.00    -0.271 N 
HETATM   22  C   UNL     1     -40.769 -45.542  12.717  1.00  0.00     0.164 C 
HETATM   23  C   UNL     1     -39.645 -47.634  12.241  1.00  0.00     0.331 A 
HETATM   24  O   UNL     1     -40.322 -47.782  11.221  1.00  0.00    -0.246 OA
ENDBRANCH  15  16
ENDBRANCH   2  15
TORSDOF 7
ENDMDL
MODEL 9
REMARK VINA RESULT:      -5.0      3.315      6.750
REMARK  7 active torsions:
REMARK  status: ('A' for Active; 'I' for Inactive)
REMARK    1  A    between atoms: O_2  and  C_3 
REMARK    2  A    between atoms: C_3  and  C_4 
REMARK    3  A    between atoms: C_4  and  N_5 
REMARK    4  A    between atoms: C_9  and  C_10 
REMARK    5  A    between atoms: C_10  and  N_11 
REMARK       I    between atoms: N_11  and  C_12 
REMARK    6  A    between atoms: C_12  and  C_14 
REMARK    7  A    between atoms: C_14  and  N_15 
ROOT
HETATM    1  N   UNL     1     -40.578 -51.719  11.908  1.00  0.00    -0.358 N 
HETATM    2  C   UNL     1     -40.583 -50.363  11.655  1.00  0.00     0.236 C 
HETATM    3  O   UNL     1     -41.594 -49.667  11.708  1.00  0.00    -0.272 OA
HETATM    4  H   UNL     1     -39.682 -52.150  12.133  1.00  0.00     0.162 HD
ENDROOT
BRANCH   1   5
HETATM    5  C   UNL     1     -41.793 -52.450  12.227  1.00  0.00     0.158 C 
BRANCH   5   6
HETATM    6  C   UNL     1     -41.535 -53.695  13.116  1.00  0.00     0.240 C 
HETATM    7  N   UNL     1     -42.255 -53.758  14.399  1.00  0.00     0.096 N 
HETATM    8  C   UNL     1     -41.547 -52.888  15.342  1.00  0.00     0.273 C 
HETATM    9  C   UNL     1     -40.098 -52.887  14.871  1.00  0.00     0.032 C 
HETATM   10  C   UNL     1     -40.090 -53.747  13.617  1.00  0.00     0.039 C 
BRANCH   7  11
HETATM   11  C   UNL     1     -43.696 -53.504  14.374  1.00  0.00     0.299 C 
BRANCH  11  12
HETATM   12  C   UNL     1     -44.542 -54.627  13.756  1.00  0.00     0.197 C 
BRANCH  12  13
HETATM   13  O   UNL     1     -45.118 -54.139  12.538  1.00  0.00    -0.394 OA
HETATM   14  C   UNL     1     -45.543 -52.789  12.664  1.00  0.00     0.201 C 
ENDBRANCH  12  13
ENDBRANCH  11  12
ENDBRANCH   7  11
ENDBRANCH   5   6
ENDBRANCH   1   5
BRANCH   2  15
HETATM   15  C   UNL     1     -39.199 -49.774  11.382  1.00  0.00     0.235 C 
BRANCH  15  16
HETATM   16  N   UNL     1     -38.713 -49.140  12.604  1.00  0.00    -0.301 N 
HETATM   17  C   UNL     1     -39.153 -47.881  12.929  1.00  0.00     0.102 A 
HETATM   18  C   UNL     1     -38.819 -47.301  14.079  1.00  0.00     0.092 A 
HETATM   19  C   UNL     1     -37.973 -48.032  15.038  1.00  0.00     0.252 A 
HETATM   20  O   UNL     1     -37.724 -47.506  16.120  1.00  0.00    -0.268 OA
HETATM   21  N   UNL     1     -37.536 -49.283  14.641  1.00  0.00    -0.271 N 
HETATM   22  C   UNL     1     -36.726 -50.057  15.558  1.00  0.00     0.164 C 
HETATM   23  C   UNL     1     -37.904 -49.897  13.448  1.00  0.00     0.331 A 
HETATM   24  O   UNL     1     -37.567 -51.048  13.157  1.00  0.00    -0.246 OA
ENDBRANCH  15  16
ENDBRANCH   2  15
TORSDOF 7
ENDMDL
