MODEL 1
REMARK VINA RESULT:      -5.3      0.000      0.000
REMARK  5 active torsions:
REMARK  status: ('A' for Active; 'I' for Inactive)
REMARK    1  A    between atoms: S_2  and  N_5 
REMARK    2  A    between atoms: C_9  and  C_10 
REMARK       I    between atoms: C_10  and  N_12 
REMARK    3  A    between atoms: N_12  and  C_13 
REMARK    4  A    between atoms: C_13  and  C_14 
REMARK    5  A    between atoms: C_14  and  N_15 
ROOT
HETATM    1  C   UNL     1     -40.799 -49.174  11.997  1.00  0.00     0.241 C 
HETATM    2  O   UNL     1     -40.505 -48.300  12.810  1.00  0.00    -0.271 OA
HETATM    3  N   UNL     1     -42.019 -49.192  11.346  1.00  0.00    -0.358 N 
HETATM    4  H   UNL     1     -42.365 -50.110  11.065  1.00  0.00     0.162 HD
ENDROOT
BRANCH   1   5
HETATM    5  C   UNL     1     -39.827 -50.276  11.562  1.00  0.00     0.187 C 
HETATM    6  N   UNL     1     -39.659 -51.399  12.507  1.00  0.00    -0.297 N 
HETATM    7  C   UNL     1     -38.598 -51.057  13.480  1.00  0.00     0.136 C 
HETATM    8  C   UNL     1     -37.862 -49.863  12.882  1.00  0.00     0.023 C 
HETATM    9  C   UNL     1     -38.401 -49.731  11.466  1.00  0.00     0.037 C 
BRANCH   6  10
HETATM   10  S   UNL     1     -41.020 -52.216  13.021  1.00  0.00     0.225 S 
HETATM   11  C   UNL     1     -40.338 -53.821  13.410  1.00  0.00     0.186 C 
HETATM   12  O   UNL     1     -41.888 -52.345  11.867  1.00  0.00    -0.206 OA
HETATM   13  O   UNL     1     -41.499 -51.597  14.238  1.00  0.00    -0.206 OA
ENDBRANCH   6  10
ENDBRANCH   1   5
BRANCH   3  14
HETATM   14  C   UNL     1     -42.994 -48.128  11.557  1.00  0.00     0.143 C 
BRANCH  14  15
HETATM   15  C   UNL     1     -43.058 -47.137  10.386  1.00  0.00     0.148 C 
BRANCH  15  16
HETATM   16  N   UNL     1     -44.020 -47.519   9.373  1.00  0.00    -0.350 N 
HETATM   17  C   UNL     1     -45.358 -47.717   9.556  1.00  0.00     0.108 A 
HETATM   18  C   UNL     1     -45.824 -48.127   8.328  1.00  0.00     0.106 A 
HETATM   19  N   UNL     1     -44.802 -48.193   7.417  1.00  0.00    -0.361 N 
HETATM   20  C   UNL     1     -43.724 -47.834   8.077  1.00  0.00     0.182 A 
ATOM     21  HN  UNL     1     -44.865 -48.464   6.435  1.00  0.00     0.166 HD
ENDBRANCH  15  16
ENDBRANCH  14  15
ENDBRANCH   3  14
TORSDOF 5
ENDMDL
MODEL 2
REMARK VINA RESULT:      -5.3      2.641      4.105
REMARK  5 active torsions:
REMARK  status: ('A' for Active; 'I' for Inactive)
REMARK    1  A    between atoms: S_2  and  N_5 
REMARK    2  A    between atoms: C_9  and  C_10 
REMARK       I    between atoms: C_10  and  N_12 
REMARK    3  A    between atoms: N_12  and  C_13 
REMARK    4  A    between atoms: C_13  and  C_14 
REMARK    5  A    between atoms: C_14  and  N_15 
ROOT
HETATM    1  C   UNL     1     -41.802 -51.983  13.131  1.00  0.00     0.241 C 
HETATM    2  O   UNL     1     -41.234 -51.499  14.108  1.00  0.00    -0.271 OA
HETATM    3  N   UNL     1     -42.348 -51.196  12.133  1.00  0.00    -0.358 N 
HETATM    4  H   UNL     1     -43.144 -51.593  11.633  1.00  0.00     0.162 HD
ENDROOT
BRANCH   1   5
HETATM    5  C   UNL     1     -41.891 -53.492  12.875  1.00  0.00     0.187 C 
HETATM    6  N   UNL     1     -42.948 -54.211  13.614  1.00  0.00    -0.297 N 
HETATM    7  C   UNL     1     -42.422 -54.619  14.935  1.00  0.00     0.136 C 
HETATM    8  C   UNL     1     -40.907 -54.467  14.838  1.00  0.00     0.023 C 
HETATM    9  C   UNL     1     -40.627 -54.198  13.367  1.00  0.00     0.037 C 
BRANCH   6  10
HETATM   10  S   UNL     1     -44.520 -53.667  13.483  1.00  0.00     0.225 S 
HETATM   11  C   UNL     1     -45.437 -55.164  13.820  1.00  0.00     0.186 C 
HETATM   12  O   UNL     1     -44.719 -53.300  12.095  1.00  0.00    -0.206 OA
HETATM   13  O   UNL     1     -44.769 -52.712  14.541  1.00  0.00    -0.206 OA
ENDBRANCH   6  10
ENDBRANCH   1   5
BRANCH   3  14
HETATM   14  C   UNL     1     -42.219 -49.744  12.173  1.00  0.00     0.143 C 
BRANCH  14  15
HETATM   15  C   UNL     1     -41.034 -49.228  11.344  1.00  0.00     0.148 C 
BRANCH  15  16
HETATM   16  N   UNL     1     -41.263 -47.912  10.786  1.00  0.00    -0.350 N 
HETATM   17  C   UNL     1     -40.553 -46.778  11.058  1.00  0.00     0.108 A 
HETATM   18  C   UNL     1     -41.187 -45.787  10.344  1.00  0.00     0.106 A 
HETATM   19  N   UNL     1     -42.263 -46.290   9.663  1.00  0.00    -0.361 N 
HETATM   20  C   UNL     1     -42.294 -47.571   9.957  1.00  0.00     0.182 A 
ATOM     21  HN  UNL     1     -42.905 -45.779   9.056  1.00  0.00     0.166 HD
ENDBRANCH  15  16
ENDBRANCH  14  15
ENDBRANCH   3  14
TORSDOF 5
ENDMDL
MODEL 3
REMARK VINA RESULT:      -5.2      4.147      6.373
REMARK  5 active torsions:
REMARK  status: ('A' for Active; 'I' for Inactive)
REMARK    1  A    between atoms: S_2  and  N_5 
REMARK    2  A    between atoms: C_9  and  C_10 
REMARK       I    between atoms: C_10  and  N_12 
REMARK    3  A    between atoms: N_12  and  C_13 
REMARK    4  A    between atoms: C_13  and  C_14 
REMARK    5  A    between atoms: C_14  and  N_15 
ROOT
HETATM    1  C   UNL     1     -44.074 -51.616  13.738  1.00  0.00     0.241 C 
HETATM    2  O   UNL     1     -44.662 -50.793  13.040  1.00  0.00    -0.271 OA
HETATM    3  N   UNL     1     -42.762 -51.981  13.498  1.00  0.00    -0.358 N 
HETATM    4  H   UNL     1     -42.498 -52.924  13.786  1.00  0.00     0.162 HD
ENDROOT
BRANCH   1   5
HETATM    5  C   UNL     1     -44.698 -52.257  14.983  1.00  0.00     0.187 C 
HETATM    6  N   UNL     1     -45.598 -53.402  14.737  1.00  0.00    -0.297 N 
HETATM    7  C   UNL     1     -46.968 -52.897  14.497  1.00  0.00     0.136 C 
HETATM    8  C   UNL     1     -46.960 -51.448  14.975  1.00  0.00     0.023 C 
HETATM    9  C   UNL     1     -45.629 -51.271  15.689  1.00  0.00     0.037 C 
BRANCH   6  10
HETATM   10  S   UNL     1     -45.024 -54.688  13.842  1.00  0.00     0.225 S 
HETATM   11  C   UNL     1     -43.527 -55.092  14.731  1.00  0.00     0.186 C 
HETATM   12  O   UNL     1     -44.667 -54.162  12.540  1.00  0.00    -0.206 OA
HETATM   13  O   UNL     1     -45.957 -55.788  13.962  1.00  0.00    -0.206 OA
ENDBRANCH   6  10
ENDBRANCH   1   5
BRANCH   3  14
HETATM   14  C   UNL     1     -41.995 -51.350  12.429  1.00  0.00     0.143 C 
BRANCH  14  15
HETATM   15  C   UNL     1     -40.544 -51.847  12.364  1.00  0.00     0.148 C 
BRANCH  15  16
HETATM   16  N   UNL     1     -39.596 -50.790  12.078  1.00  0.00    -0.350 N 
HETATM   17  C   UNL     1     -38.304 -50.718  12.513  1.00  0.00     0.108 A 
HETATM   18  C   UNL     1     -37.842 -49.511  12.040  1.00  0.00     0.106 A 
HETATM   19  N   UNL     1     -38.822 -48.852  11.347  1.00  0.00    -0.361 N 
HETATM   20  C   UNL     1     -39.873 -49.639  11.396  1.00  0.00     0.182 A 
ATOM     21  HN  UNL     1     -38.751 -47.942  10.889  1.00  0.00     0.166 HD
ENDBRANCH  15  16
ENDBRANCH  14  15
ENDBRANCH   3  14
TORSDOF 5
ENDMDL
MODEL 4
REMARK VINA RESULT:      -5.2      4.101      5.359
REMARK  5 active torsions:
REMARK  status: ('A' for Active; 'I' for Inactive)
REMARK    1  A    between atoms: S_2  and  N_5 
REMARK    2  A    between atoms: C_9  and  C_10 
REMARK       I    between atoms: C_10  and  N_12 
REMARK    3  A    between atoms: N_12  and  C_13 
REMARK    4  A    between atoms: C_13  and  C_14 
REMARK    5  A    between atoms: C_14  and  N_15 
ROOT
HETATM    1  C   UNL     1     -44.104 -51.589  13.733  1.00  0.00     0.241 C 
HETATM    2  O   UNL     1     -44.764 -50.867  12.989  1.00  0.00    -0.271 OA
HETATM    3  N   UNL     1     -42.751 -51.799  13.544  1.00  0.00    -0.358 N 
HETATM    4  H   UNL     1     -42.384 -52.693  13.875  1.00  0.00     0.162 HD
ENDROOT
BRANCH   1   5
HETATM    5  C   UNL     1     -44.685 -52.258  14.984  1.00  0.00     0.187 C 
HETATM    6  N   UNL     1     -45.566 -53.420  14.744  1.00  0.00    -0.297 N 
HETATM    7  C   UNL     1     -46.951 -52.942  14.541  1.00  0.00     0.136 C 
HETATM    8  C   UNL     1     -46.965 -51.499  15.036  1.00  0.00     0.023 C 
HETATM    9  C   UNL     1     -45.622 -51.301  15.723  1.00  0.00     0.037 C 
BRANCH   6  10
HETATM   10  S   UNL     1     -44.984 -54.682  13.822  1.00  0.00     0.225 S 
HETATM   11  C   UNL     1     -43.467 -55.073  14.682  1.00  0.00     0.186 C 
HETATM   12  O   UNL     1     -44.655 -54.131  12.522  1.00  0.00    -0.206 OA
HETATM   13  O   UNL     1     -45.896 -55.799  13.939  1.00  0.00    -0.206 OA
ENDBRANCH   6  10
ENDBRANCH   1   5
BRANCH   3  14
HETATM   14  C   UNL     1     -42.031 -51.117  12.474  1.00  0.00     0.143 C 
BRANCH  14  15
HETATM   15  C   UNL     1     -41.720 -49.651  12.806  1.00  0.00     0.148 C 
BRANCH  15  16
HETATM   16  N   UNL     1     -42.035 -48.746  11.720  1.00  0.00    -0.350 N 
HETATM   17  C   UNL     1     -43.186 -48.027  11.571  1.00  0.00     0.108 A 
HETATM   18  C   UNL     1     -43.039 -47.377  10.366  1.00  0.00     0.106 A 
HETATM   19  N   UNL     1     -41.841 -47.696   9.783  1.00  0.00    -0.361 N 
HETATM   20  C   UNL     1     -41.261 -48.533  10.615  1.00  0.00     0.182 A 
ATOM     21  HN  UNL     1     -41.476 -47.356   8.893  1.00  0.00     0.166 HD
ENDBRANCH  15  16
ENDBRANCH  14  15
ENDBRANCH   3  14
TORSDOF 5
ENDMDL
MODEL 5
REMARK VINA RESULT:      -5.1      3.145      5.192
REMARK  5 active torsions:
REMARK  status: ('A' for Active; 'I' for Inactive)
REMARK    1  A    between atoms: S_2  and  N_5 
REMARK    2  A    between atoms: C_9  and  C_10 
REMARK       I    between atoms: C_10  and  N_12 
REMARK    3  A    between atoms: N_12  and  C_13 
REMARK    4  A    between atoms: C_13  and  C_14 
REMARK    5  A    between atoms: C_14  and  N_15 
ROOT
HETATM    1  C   UNL     1     -41.850 -51.897  13.087  1.00  0.00     0.241 C 
HETATM    2  O   UNL     1     -41.336 -51.424  14.098  1.00  0.00    -0.271 OA
HETATM    3  N   UNL     1     -42.341 -51.100  12.070  1.00  0.00    -0.358 N 
HETATM    4  H   UNL     1     -43.109 -51.491  11.522  1.00  0.00     0.162 HD
ENDROOT
BRANCH   1   5
HETATM    5  C   UNL     1     -41.925 -53.403  12.811  1.00  0.00     0.187 C 
HETATM    6  N   UNL     1     -42.958 -54.146  13.562  1.00  0.00    -0.297 N 
HETATM    7  C   UNL     1     -42.399 -54.566  14.866  1.00  0.00     0.136 C 
HETATM    8  C   UNL     1     -40.889 -54.394  14.739  1.00  0.00     0.023 C 
HETATM    9  C   UNL     1     -40.643 -54.100  13.267  1.00  0.00     0.037 C 
BRANCH   6  10
HETATM   10  S   UNL     1     -44.539 -53.620  13.472  1.00  0.00     0.225 S 
HETATM   11  C   UNL     1     -45.430 -55.131  13.816  1.00  0.00     0.186 C 
HETATM   12  O   UNL     1     -44.774 -53.243  12.092  1.00  0.00    -0.206 OA
HETATM   13  O   UNL     1     -44.775 -52.678  14.544  1.00  0.00    -0.206 OA
ENDBRANCH   6  10
ENDBRANCH   1   5
BRANCH   3  14
HETATM   14  C   UNL     1     -42.214 -49.648  12.131  1.00  0.00     0.143 C 
BRANCH  14  15
HETATM   15  C   UNL     1     -41.077 -49.112  11.249  1.00  0.00     0.148 C 
BRANCH  15  16
HETATM   16  N   UNL     1     -39.790 -49.126  11.913  1.00  0.00    -0.350 N 
HETATM   17  C   UNL     1     -38.793 -50.041  11.733  1.00  0.00     0.108 A 
HETATM   18  C   UNL     1     -37.812 -49.671  12.624  1.00  0.00     0.106 A 
HETATM   19  N   UNL     1     -38.197 -48.569  13.343  1.00  0.00    -0.361 N 
HETATM   20  C   UNL     1     -39.399 -48.270  12.903  1.00  0.00     0.182 A 
ATOM     21  HN  UNL     1     -37.665 -48.085  14.066  1.00  0.00     0.166 HD
ENDBRANCH  15  16
ENDBRANCH  14  15
ENDBRANCH   3  14
TORSDOF 5
ENDMDL
MODEL 6
REMARK VINA RESULT:      -5.0      3.941      6.368
REMARK  5 active torsions:
REMARK  status: ('A' for Active; 'I' for Inactive)
REMARK    1  A    between atoms: S_2  and  N_5 
REMARK    2  A    between atoms: C_9  and  C_10 
REMARK       I    between atoms: C_10  and  N_12 
REMARK    3  A    between atoms: N_12  and  C_13 
REMARK    4  A    between atoms: C_13  and  C_14 
REMARK    5  A    between atoms: C_14  and  N_15 
ROOT
HETATM    1  C   UNL     1     -42.181 -52.699  13.885  1.00  0.00     0.241 C 
HETATM    2  O   UNL     1     -42.262 -52.690  12.658  1.00  0.00    -0.271 OA
HETATM    3  N   UNL     1     -40.988 -52.939  14.541  1.00  0.00    -0.358 N 
HETATM    4  H   UNL     1     -41.062 -53.363  15.467  1.00  0.00     0.162 HD
ENDROOT
BRANCH   1   5
HETATM    5  C   UNL     1     -43.361 -52.367  14.805  1.00  0.00     0.187 C 
HETATM    6  N   UNL     1     -44.687 -52.833  14.349  1.00  0.00    -0.297 N 
HETATM    7  C   UNL     1     -45.282 -51.805  13.467  1.00  0.00     0.136 C 
HETATM    8  C   UNL     1     -44.460 -50.540  13.697  1.00  0.00     0.023 C 
HETATM    9  C   UNL     1     -43.571 -50.855  14.890  1.00  0.00     0.037 C 
BRANCH   6  10
HETATM   10  S   UNL     1     -44.880 -54.448  13.981  1.00  0.00     0.225 S 
HETATM   11  C   UNL     1     -46.535 -54.749  14.585  1.00  0.00     0.186 C 
HETATM   12  O   UNL     1     -43.941 -55.178  14.810  1.00  0.00    -0.206 OA
HETATM   13  O   UNL     1     -44.866 -54.601  12.543  1.00  0.00    -0.206 OA
ENDBRANCH   6  10
ENDBRANCH   1   5
BRANCH   3  14
HETATM   14  C   UNL     1     -39.751 -53.135  13.794  1.00  0.00     0.143 C 
BRANCH  14  15
HETATM   15  C   UNL     1     -38.726 -52.019  14.035  1.00  0.00     0.148 C 
BRANCH  15  16
HETATM   16  N   UNL     1     -38.475 -51.216  12.856  1.00  0.00    -0.350 N 
HETATM   17  C   UNL     1     -37.253 -50.851  12.367  1.00  0.00     0.108 A 
HETATM   18  C   UNL     1     -37.535 -50.048  11.285  1.00  0.00     0.106 A 
HETATM   19  N   UNL     1     -38.888 -49.911  11.120  1.00  0.00    -0.361 N 
HETATM   20  C   UNL     1     -39.431 -50.615  12.088  1.00  0.00     0.182 A 
ATOM     21  HN  UNL     1     -39.372 -49.375  10.398  1.00  0.00     0.166 HD
ENDBRANCH  15  16
ENDBRANCH  14  15
ENDBRANCH   3  14
TORSDOF 5
ENDMDL
MODEL 7
REMARK VINA RESULT:      -4.9      4.188      6.935
REMARK  5 active torsions:
REMARK  status: ('A' for Active; 'I' for Inactive)
REMARK    1  A    between atoms: S_2  and  N_5 
REMARK    2  A    between atoms: C_9  and  C_10 
REMARK       I    between atoms: C_10  and  N_12 
REMARK    3  A    between atoms: N_12  and  C_13 
REMARK    4  A    between atoms: C_13  and  C_14 
REMARK    5  A    between atoms: C_14  and  N_15 
ROOT
HETATM    1  C   UNL     1     -43.765 -53.575  15.440  1.00  0.00     0.241 C 
HETATM    2  O   UNL     1     -43.305 -52.807  16.283  1.00  0.00    -0.271 OA
HETATM    3  N   UNL     1     -42.958 -54.380  14.658  1.00  0.00    -0.358 N 
HETATM    4  H   UNL     1     -43.324 -54.626  13.738  1.00  0.00     0.162 HD
ENDROOT
BRANCH   1   5
HETATM    5  C   UNL     1     -45.270 -53.780  15.227  1.00  0.00     0.187 C 
HETATM    6  N   UNL     1     -45.955 -52.745  14.427  1.00  0.00    -0.297 N 
HETATM    7  C   UNL     1     -46.386 -51.649  15.323  1.00  0.00     0.136 C 
HETATM    8  C   UNL     1     -46.284 -52.211  16.738  1.00  0.00     0.023 C 
HETATM    9  C   UNL     1     -46.020 -53.698  16.557  1.00  0.00     0.037 C 
BRANCH   6  10
HETATM   10  S   UNL     1     -45.359 -52.386  12.911  1.00  0.00     0.225 S 
HETATM   11  C   UNL     1     -46.834 -51.809  12.083  1.00  0.00     0.186 C 
HETATM   12  O   UNL     1     -44.952 -53.644  12.316  1.00  0.00    -0.206 OA
HETATM   13  O   UNL     1     -44.423 -51.290  13.030  1.00  0.00    -0.206 OA
ENDBRANCH   6  10
ENDBRANCH   1   5
BRANCH   3  14
HETATM   14  C   UNL     1     -41.511 -54.393  14.845  1.00  0.00     0.143 C 
BRANCH  14  15
HETATM   15  C   UNL     1     -40.740 -54.104  13.550  1.00  0.00     0.148 C 
BRANCH  15  16
HETATM   16  N   UNL     1     -40.904 -52.743  13.085  1.00  0.00    -0.350 N 
HETATM   17  C   UNL     1     -40.719 -51.605  13.817  1.00  0.00     0.108 A 
HETATM   18  C   UNL     1     -41.058 -50.580  12.964  1.00  0.00     0.106 A 
HETATM   19  N   UNL     1     -41.454 -51.069  11.747  1.00  0.00    -0.361 N 
HETATM   20  C   UNL     1     -41.364 -52.377  11.851  1.00  0.00     0.182 A 
ATOM     21  HN  UNL     1     -41.755 -50.533  10.933  1.00  0.00     0.166 HD
ENDBRANCH  15  16
ENDBRANCH  14  15
ENDBRANCH   3  14
TORSDOF 5
ENDMDL
MODEL 8
REMARK VINA RESULT:      -4.7      3.883      5.381
REMARK  5 active torsions:
REMARK  status: ('A' for Active; 'I' for Inactive)
REMARK    1  A    between atoms: S_2  and  N_5 
REMARK    2  A    between atoms: C_9  and  C_10 
REMARK       I    between atoms: C_10  and  N_12 
REMARK    3  A    between atoms: N_12  and  C_13 
REMARK    4  A    between atoms: C_13  and  C_14 
REMARK    5  A    between atoms: C_14  and  N_15 
ROOT
HETATM    1  C   UNL     1     -39.979 -51.462  13.285  1.00  0.00     0.241 C 
HETATM    2  O   UNL     1     -39.749 -52.403  12.528  1.00  0.00    -0.271 OA
HETATM    3  N   UNL     1     -41.114 -51.413  14.074  1.00  0.00    -0.358 N 
HETATM    4  H   UNL     1     -41.459 -50.481  14.308  1.00  0.00     0.162 HD
ENDROOT
BRANCH   1   5
HETATM    5  C   UNL     1     -39.005 -50.297  13.494  1.00  0.00     0.187 C 
HETATM    6  N   UNL     1     -39.012 -49.254  12.448  1.00  0.00    -0.297 N 
HETATM    7  C   UNL     1     -38.075 -49.645  11.371  1.00  0.00     0.136 C 
HETATM    8  C   UNL     1     -37.216 -50.760  11.959  1.00  0.00     0.023 C 
HETATM    9  C   UNL     1     -37.557 -50.787  13.441  1.00  0.00     0.037 C 
BRANCH   6  10
HETATM   10  S   UNL     1     -40.461 -48.528  12.057  1.00  0.00     0.225 S 
HETATM   11  C   UNL     1     -39.910 -46.918  11.509  1.00  0.00     0.186 C 
HETATM   12  O   UNL     1     -41.196 -48.372  13.297  1.00  0.00    -0.206 OA
HETATM   13  O   UNL     1     -41.047 -49.234  10.938  1.00  0.00    -0.206 OA
ENDBRANCH   6  10
ENDBRANCH   1   5
BRANCH   3  14
HETATM   14  C   UNL     1     -42.065 -52.519  14.083  1.00  0.00     0.143 C 
BRANCH  14  15
HETATM   15  C   UNL     1     -43.336 -52.219  13.276  1.00  0.00     0.148 C 
BRANCH  15  16
HETATM   16  N   UNL     1     -44.410 -53.154  13.541  1.00  0.00    -0.350 N 
HETATM   17  C   UNL     1     -44.276 -54.458  13.922  1.00  0.00     0.108 A 
HETATM   18  C   UNL     1     -45.564 -54.939  13.983  1.00  0.00     0.106 A 
HETATM   19  N   UNL     1     -46.464 -53.966  13.637  1.00  0.00    -0.361 N 
HETATM   20  C   UNL     1     -45.741 -52.904  13.363  1.00  0.00     0.182 A 
ATOM     21  HN  UNL     1     -47.481 -54.049  13.600  1.00  0.00     0.166 HD
ENDBRANCH  15  16
ENDBRANCH  14  15
ENDBRANCH   3  14
TORSDOF 5
ENDMDL
MODEL 9
REMARK VINA RESULT:      -4.7      2.543      4.091
REMARK  5 active torsions:
REMARK  status: ('A' for Active; 'I' for Inactive)
REMARK    1  A    between atoms: S_2  and  N_5 
REMARK    2  A    between atoms: C_9  and  C_10 
REMARK       I    between atoms: C_10  and  N_12 
REMARK    3  A    between atoms: N_12  and  C_13 
REMARK    4  A    between atoms: C_13  and  C_14 
REMARK    5  A    between atoms: C_14  and  N_15 
ROOT
HETATM    1  C   UNL     1     -41.103 -51.962  12.383  1.00  0.00     0.241 C 
HETATM    2  O   UNL     1     -39.930 -52.303  12.519  1.00  0.00    -0.271 OA
HETATM    3  N   UNL     1     -41.463 -50.819  11.694  1.00  0.00    -0.358 N 
HETATM    4  H   UNL     1     -42.333 -50.372  11.986  1.00  0.00     0.162 HD
ENDROOT
BRANCH   1   5
HETATM    5  C   UNL     1     -42.283 -52.802  12.887  1.00  0.00     0.187 C 
HETATM    6  N   UNL     1     -42.913 -52.343  14.142  1.00  0.00    -0.297 N 
HETATM    7  C   UNL     1     -42.194 -52.941  15.289  1.00  0.00     0.136 C 
HETATM    8  C   UNL     1     -41.353 -54.071  14.703  1.00  0.00     0.023 C 
HETATM    9  C   UNL     1     -41.822 -54.211  13.263  1.00  0.00     0.037 C 
BRANCH   6  10
HETATM   10  S   UNL     1     -43.447 -50.766  14.234  1.00  0.00     0.225 S 
HETATM   11  C   UNL     1     -44.588 -50.862  15.607  1.00  0.00     0.186 C 
HETATM   12  O   UNL     1     -44.198 -50.509  13.020  1.00  0.00    -0.206 OA
HETATM   13  O   UNL     1     -42.333 -49.920  14.603  1.00  0.00    -0.206 OA
ENDBRANCH   6  10
ENDBRANCH   1   5
BRANCH   3  14
HETATM   14  C   UNL     1     -40.453 -49.993  11.040  1.00  0.00     0.143 C 
BRANCH  14  15
HETATM   15  C   UNL     1     -40.236 -48.648  11.747  1.00  0.00     0.148 C 
BRANCH  15  16
HETATM   16  N   UNL     1     -40.806 -47.529  11.023  1.00  0.00    -0.350 N 
HETATM   17  C   UNL     1     -40.367 -46.237  11.049  1.00  0.00     0.108 A 
HETATM   18  C   UNL     1     -41.263 -45.548  10.263  1.00  0.00     0.106 A 
HETATM   19  N   UNL     1     -42.232 -46.386   9.779  1.00  0.00    -0.361 N 
HETATM   20  C   UNL     1     -41.940 -47.572  10.263  1.00  0.00     0.182 A 
ATOM     21  HN  UNL     1     -43.015 -46.141   9.172  1.00  0.00     0.166 HD
ENDBRANCH  15  16
ENDBRANCH  14  15
ENDBRANCH   3  14
TORSDOF 5
ENDMDL
