MODEL 1
REMARK VINA RESULT:      -6.8      0.000      0.000
REMARK  6 active torsions:
REMARK  status: ('A' for Active; 'I' for Inactive)
REMARK    1  A    between atoms: C_2  and  C_4 
REMARK    2  A    between atoms: C_4  and  N_5 
REMARK    3  A    between atoms: C_7  and  C_11 
REMARK       I    between atoms: C_11  and  N_13 
REMARK    4  A    between atoms: N_13  and  C_14 
REMARK    5  A    between atoms: C_14  and  C_15 
REMARK    6  A    between atoms: C_15  and  C_16 
ROOT
HETATM    1  C   UNL     1     -41.143 -52.368  12.773  1.00  0.00     0.223 C 
HETATM    2  O   UNL     1     -40.491 -52.030  13.756  1.00  0.00    -0.273 OA
HETATM    3  N   UNL     1     -41.189 -51.598  11.633  1.00  0.00    -0.360 N 
HETATM    4  H   UNL     1     -41.525 -52.013  10.771  1.00  0.00     0.162 HD
ENDROOT
BRANCH   1   5
HETATM    5  C   UNL     1     -42.011 -53.617  12.728  1.00  0.00     0.104 A 
HETATM    6  C   UNL     1     -43.443 -53.285  12.318  1.00  0.00     0.140 A 
HETATM    7  N   UNL     1     -44.291 -53.859  13.332  1.00  0.00    -0.351 N 
HETATM    8  C   UNL     1     -43.583 -54.471  14.347  1.00  0.00     0.220 A 
HETATM    9  C   UNL     1     -42.113 -54.310  14.086  1.00  0.00     0.118 A 
HETATM   10  O   UNL     1     -44.051 -55.025  15.330  1.00  0.00    -0.273 OA
BRANCH   7  11
HETATM   11  C   UNL     1     -45.682 -53.458  13.488  1.00  0.00     0.129 C 
BRANCH  11  12
HETATM   12  C   UNL     1     -45.934 -51.953  13.333  1.00  0.00    -0.005 C 
HETATM   13  C   UNL     1     -46.778 -51.659  12.094  1.00  0.00     0.011 C 
HETATM   14  C   UNL     1     -46.636 -51.418  14.585  1.00  0.00     0.011 C 
ENDBRANCH  11  12
ENDBRANCH   7  11
ENDBRANCH   1   5
BRANCH   3  15
HETATM   15  C   UNL     1     -40.362 -50.408  11.495  1.00  0.00     0.130 C 
BRANCH  15  16
HETATM   16  C   UNL     1     -41.027 -49.136  12.031  1.00  0.00     0.106 C 
BRANCH  16  17
HETATM   17  C   UNL     1     -42.003 -48.578  11.061  1.00  0.00     0.149 A 
HETATM   18  N   UNL     1     -41.849 -48.268   9.790  1.00  0.00    -0.327 N 
HETATM   19  C   UNL     1     -43.087 -47.773   9.467  1.00  0.00     0.100 A 
ATOM     20  HN  UNL     1     -41.024 -48.370   9.199  1.00  0.00     0.169 HD
HETATM   21  C   UNL     1     -43.408 -47.264   8.122  1.00  0.00     0.091 C 
HETATM   22  N   UNL     1     -43.979 -47.785  10.465  1.00  0.00    -0.248 N 
HETATM   23  O   UNL     1     -43.256 -48.317  11.534  1.00  0.00    -0.223 OA
ATOM     24  HN  UNL     1     -44.952 -47.480  10.448  1.00  0.00     0.196 HD
ENDBRANCH  16  17
ENDBRANCH  15  16
ENDBRANCH   3  15
TORSDOF 6
ENDMDL
MODEL 2
REMARK VINA RESULT:      -6.4      1.640      1.959
REMARK  6 active torsions:
REMARK  status: ('A' for Active; 'I' for Inactive)
REMARK    1  A    between atoms: C_2  and  C_4 
REMARK    2  A    between atoms: C_4  and  N_5 
REMARK    3  A    between atoms: C_7  and  C_11 
REMARK       I    between atoms: C_11  and  N_13 
REMARK    4  A    between atoms: N_13  and  C_14 
REMARK    5  A    between atoms: C_14  and  C_15 
REMARK    6  A    between atoms: C_15  and  C_16 
ROOT
HETATM    1  C   UNL     1     -41.162 -52.163  13.506  1.00  0.00     0.223 C 
HETATM    2  O   UNL     1     -41.652 -51.215  14.111  1.00  0.00    -0.273 OA
HETATM    3  N   UNL     1     -39.856 -52.149  13.071  1.00  0.00    -0.360 N 
HETATM    4  H   UNL     1     -39.417 -53.022  12.801  1.00  0.00     0.162 HD
ENDROOT
BRANCH   1   5
HETATM    5  C   UNL     1     -41.944 -53.408  13.117  1.00  0.00     0.104 A 
HETATM    6  C   UNL     1     -43.298 -53.049  12.511  1.00  0.00     0.140 A 
HETATM    7  N   UNL     1     -44.279 -53.795  13.257  1.00  0.00    -0.351 N 
HETATM    8  C   UNL     1     -43.728 -54.544  14.278  1.00  0.00     0.220 A 
HETATM    9  C   UNL     1     -42.245 -54.310  14.313  1.00  0.00     0.118 A 
HETATM   10  O   UNL     1     -44.332 -55.257  15.065  1.00  0.00    -0.273 OA
BRANCH   7  11
HETATM   11  C   UNL     1     -45.695 -53.457  13.219  1.00  0.00     0.129 C 
BRANCH  11  12
HETATM   12  C   UNL     1     -45.989 -51.959  13.063  1.00  0.00    -0.005 C 
HETATM   13  C   UNL     1     -46.922 -51.701  11.880  1.00  0.00     0.011 C 
HETATM   14  C   UNL     1     -46.615 -51.421  14.353  1.00  0.00     0.011 C 
ENDBRANCH  11  12
ENDBRANCH   7  11
ENDBRANCH   1   5
BRANCH   3  15
HETATM   15  C   UNL     1     -38.958 -51.058  13.421  1.00  0.00     0.130 C 
BRANCH  15  16
HETATM   16  C   UNL     1     -38.388 -50.321  12.204  1.00  0.00     0.106 C 
BRANCH  16  17
HETATM   17  C   UNL     1     -39.387 -49.402  11.603  1.00  0.00     0.149 A 
HETATM   18  N   UNL     1     -39.475 -48.089  11.669  1.00  0.00    -0.327 N 
HETATM   19  C   UNL     1     -40.618 -47.845  10.951  1.00  0.00     0.100 A 
ATOM     20  HN  UNL     1     -38.854 -47.427  12.132  1.00  0.00     0.169 HD
HETATM   21  C   UNL     1     -41.154 -46.487  10.755  1.00  0.00     0.091 C 
HETATM   22  N   UNL     1     -41.210 -48.934  10.443  1.00  0.00    -0.248 N 
HETATM   23  O   UNL     1     -40.393 -49.977  10.883  1.00  0.00    -0.223 OA
ATOM     24  HN  UNL     1     -42.054 -48.988   9.873  1.00  0.00     0.196 HD
ENDBRANCH  16  17
ENDBRANCH  15  16
ENDBRANCH   3  15
TORSDOF 6
ENDMDL
MODEL 3
REMARK VINA RESULT:      -6.3      1.293      1.923
REMARK  6 active torsions:
REMARK  status: ('A' for Active; 'I' for Inactive)
REMARK    1  A    between atoms: C_2  and  C_4 
REMARK    2  A    between atoms: C_4  and  N_5 
REMARK    3  A    between atoms: C_7  and  C_11 
REMARK       I    between atoms: C_11  and  N_13 
REMARK    4  A    between atoms: N_13  and  C_14 
REMARK    5  A    between atoms: C_14  and  C_15 
REMARK    6  A    between atoms: C_15  and  C_16 
ROOT
HETATM    1  C   UNL     1     -42.673 -52.644  12.534  1.00  0.00     0.223 C 
HETATM    2  O   UNL     1     -41.793 -53.287  13.095  1.00  0.00    -0.273 OA
HETATM    3  N   UNL     1     -42.441 -51.384  12.029  1.00  0.00    -0.360 N 
HETATM    4  H   UNL     1     -43.102 -50.989  11.369  1.00  0.00     0.162 HD
ENDROOT
BRANCH   1   5
HETATM    5  C   UNL     1     -44.110 -53.126  12.396  1.00  0.00     0.104 A 
HETATM    6  C   UNL     1     -45.104 -52.033  12.777  1.00  0.00     0.140 A 
HETATM    7  N   UNL     1     -45.981 -52.618  13.759  1.00  0.00    -0.351 N 
HETATM    8  C   UNL     1     -45.647 -53.919  14.077  1.00  0.00     0.220 A 
HETATM    9  C   UNL     1     -44.421 -54.313  13.307  1.00  0.00     0.118 A 
HETATM   10  O   UNL     1     -46.216 -54.640  14.882  1.00  0.00    -0.273 OA
BRANCH   7  11
HETATM   11  C   UNL     1     -46.827 -51.800  14.619  1.00  0.00     0.129 C 
BRANCH  11  12
HETATM   12  C   UNL     1     -46.305 -51.629  16.051  1.00  0.00    -0.005 C 
HETATM   13  C   UNL     1     -45.154 -50.625  16.102  1.00  0.00     0.011 C 
HETATM   14  C   UNL     1     -47.446 -51.167  16.962  1.00  0.00     0.011 C 
ENDBRANCH  11  12
ENDBRANCH   7  11
ENDBRANCH   1   5
BRANCH   3  15
HETATM   15  C   UNL     1     -41.104 -50.809  12.025  1.00  0.00     0.130 C 
BRANCH  15  16
HETATM   16  C   UNL     1     -41.096 -49.280  12.111  1.00  0.00     0.106 C 
BRANCH  16  17
HETATM   17  C   UNL     1     -42.041 -48.671  11.140  1.00  0.00     0.149 A 
HETATM   18  N   UNL     1     -41.842 -48.285   9.897  1.00  0.00    -0.327 N 
HETATM   19  C   UNL     1     -43.071 -47.779   9.558  1.00  0.00     0.100 A 
ATOM     20  HN  UNL     1     -40.995 -48.347   9.333  1.00  0.00     0.169 HD
HETATM   21  C   UNL     1     -43.347 -47.193   8.235  1.00  0.00     0.091 C 
HETATM   22  N   UNL     1     -44.000 -47.857  10.519  1.00  0.00    -0.248 N 
HETATM   23  O   UNL     1     -43.312 -48.447  11.581  1.00  0.00    -0.223 OA
ATOM     24  HN  UNL     1     -44.974 -47.557  10.484  1.00  0.00     0.196 HD
ENDBRANCH  16  17
ENDBRANCH  15  16
ENDBRANCH   3  15
TORSDOF 6
ENDMDL
MODEL 4
REMARK VINA RESULT:      -6.3      3.673      5.068
REMARK  6 active torsions:
REMARK  status: ('A' for Active; 'I' for Inactive)
REMARK    1  A    between atoms: C_2  and  C_4 
REMARK    2  A    between atoms: C_4  and  N_5 
REMARK    3  A    between atoms: C_7  and  C_11 
REMARK       I    between atoms: C_11  and  N_13 
REMARK    4  A    between atoms: N_13  and  C_14 
REMARK    5  A    between atoms: C_14  and  C_15 
REMARK    6  A    between atoms: C_15  and  C_16 
ROOT
HETATM    1  C   UNL     1     -39.591 -47.845  11.780  1.00  0.00     0.223 C 
HETATM    2  O   UNL     1     -39.467 -47.465  12.939  1.00  0.00    -0.273 OA
HETATM    3  N   UNL     1     -40.066 -47.015  10.790  1.00  0.00    -0.360 N 
HETATM    4  H   UNL     1     -39.926 -47.274   9.820  1.00  0.00     0.162 HD
ENDROOT
BRANCH   1   5
HETATM    5  C   UNL     1     -39.303 -49.269  11.327  1.00  0.00     0.104 A 
HETATM    6  C   UNL     1     -40.100 -50.285  12.139  1.00  0.00     0.140 A 
HETATM    7  N   UNL     1     -39.141 -51.238  12.638  1.00  0.00    -0.351 N 
HETATM    8  C   UNL     1     -37.842 -50.934  12.282  1.00  0.00     0.220 A 
HETATM    9  C   UNL     1     -37.833 -49.654  11.499  1.00  0.00     0.118 A 
HETATM   10  O   UNL     1     -36.839 -51.566  12.579  1.00  0.00    -0.273 OA
BRANCH   7  11
HETATM   11  C   UNL     1     -39.455 -52.143  13.735  1.00  0.00     0.129 C 
BRANCH  11  12
HETATM   12  C   UNL     1     -40.869 -52.735  13.689  1.00  0.00    -0.005 C 
HETATM   13  C   UNL     1     -40.861 -54.136  13.080  1.00  0.00     0.011 C 
HETATM   14  C   UNL     1     -41.454 -52.781  15.104  1.00  0.00     0.011 C 
ENDBRANCH  11  12
ENDBRANCH   7  11
ENDBRANCH   1   5
BRANCH   3  15
HETATM   15  C   UNL     1     -40.325 -45.606  11.050  1.00  0.00     0.130 C 
BRANCH  15  16
HETATM   16  C   UNL     1     -41.792 -45.303  11.370  1.00  0.00     0.106 C 
BRANCH  16  17
HETATM   17  C   UNL     1     -42.707 -45.899  10.363  1.00  0.00     0.149 A 
HETATM   18  N   UNL     1     -43.839 -46.550  10.531  1.00  0.00    -0.327 N 
HETATM   19  C   UNL     1     -44.176 -46.870   9.240  1.00  0.00     0.100 A 
ATOM     20  HN  UNL     1     -44.336 -46.762  11.395  1.00  0.00     0.169 HD
HETATM   21  C   UNL     1     -45.387 -47.640   8.907  1.00  0.00     0.091 C 
HETATM   22  N   UNL     1     -43.321 -46.432   8.308  1.00  0.00    -0.248 N 
HETATM   23  O   UNL     1     -42.334 -45.788   9.056  1.00  0.00    -0.223 OA
ATOM     24  HN  UNL     1     -43.377 -46.542   7.295  1.00  0.00     0.196 HD
ENDBRANCH  16  17
ENDBRANCH  15  16
ENDBRANCH   3  15
TORSDOF 6
ENDMDL
MODEL 5
REMARK VINA RESULT:      -5.7      2.127      3.722
REMARK  6 active torsions:
REMARK  status: ('A' for Active; 'I' for Inactive)
REMARK    1  A    between atoms: C_2  and  C_4 
REMARK    2  A    between atoms: C_4  and  N_5 
REMARK    3  A    between atoms: C_7  and  C_11 
REMARK       I    between atoms: C_11  and  N_13 
REMARK    4  A    between atoms: N_13  and  C_14 
REMARK    5  A    between atoms: C_14  and  C_15 
REMARK    6  A    between atoms: C_15  and  C_16 
ROOT
HETATM    1  C   UNL     1     -43.224 -49.459  13.556  1.00  0.00     0.223 C 
HETATM    2  O   UNL     1     -42.761 -48.531  14.210  1.00  0.00    -0.273 OA
HETATM    3  N   UNL     1     -42.991 -49.581  12.204  1.00  0.00    -0.360 N 
HETATM    4  H   UNL     1     -43.175 -50.469  11.751  1.00  0.00     0.162 HD
ENDROOT
BRANCH   1   5
HETATM    5  C   UNL     1     -44.147 -50.520  14.137  1.00  0.00     0.104 A 
HETATM    6  C   UNL     1     -43.356 -51.657  14.776  1.00  0.00     0.140 A 
HETATM    7  N   UNL     1     -43.856 -52.872  14.183  1.00  0.00    -0.351 N 
HETATM    8  C   UNL     1     -44.827 -52.649  13.228  1.00  0.00     0.220 A 
HETATM    9  C   UNL     1     -45.036 -51.170  13.076  1.00  0.00     0.118 A 
HETATM   10  O   UNL     1     -45.408 -53.497  12.568  1.00  0.00    -0.273 OA
BRANCH   7  11
HETATM   11  C   UNL     1     -43.121 -54.127  14.265  1.00  0.00     0.129 C 
BRANCH  11  12
HETATM   12  C   UNL     1     -41.600 -53.969  14.388  1.00  0.00    -0.005 C 
HETATM   13  C   UNL     1     -41.027 -54.931  15.428  1.00  0.00     0.011 C 
HETATM   14  C   UNL     1     -40.945 -54.217  13.026  1.00  0.00     0.011 C 
ENDBRANCH  11  12
ENDBRANCH   7  11
ENDBRANCH   1   5
BRANCH   3  15
HETATM   15  C   UNL     1     -42.076 -48.683  11.514  1.00  0.00     0.130 C 
BRANCH  15  16
HETATM   16  C   UNL     1     -42.645 -47.276  11.302  1.00  0.00     0.106 C 
BRANCH  16  17
HETATM   17  C   UNL     1     -43.772 -47.281  10.335  1.00  0.00     0.149 A 
HETATM   18  N   UNL     1     -44.789 -48.112  10.227  1.00  0.00    -0.327 N 
HETATM   19  C   UNL     1     -45.448 -47.611   9.133  1.00  0.00     0.100 A 
ATOM     20  HN  UNL     1     -45.025 -48.917  10.806  1.00  0.00     0.169 HD
HETATM   21  C   UNL     1     -46.671 -48.231   8.595  1.00  0.00     0.091 C 
HETATM   22  N   UNL     1     -44.896 -46.519   8.591  1.00  0.00    -0.248 N 
HETATM   23  O   UNL     1     -43.771 -46.299   9.389  1.00  0.00    -0.223 OA
ATOM     24  HN  UNL     1     -45.219 -45.977   7.789  1.00  0.00     0.196 HD
ENDBRANCH  16  17
ENDBRANCH  15  16
ENDBRANCH   3  15
TORSDOF 6
ENDMDL
MODEL 6
REMARK VINA RESULT:      -5.5      2.542      6.321
REMARK  6 active torsions:
REMARK  status: ('A' for Active; 'I' for Inactive)
REMARK    1  A    between atoms: C_2  and  C_4 
REMARK    2  A    between atoms: C_4  and  N_5 
REMARK    3  A    between atoms: C_7  and  C_11 
REMARK       I    between atoms: C_11  and  N_13 
REMARK    4  A    between atoms: N_13  and  C_14 
REMARK    5  A    between atoms: C_14  and  C_15 
REMARK    6  A    between atoms: C_15  and  C_16 
ROOT
HETATM    1  C   UNL     1     -39.312 -48.982  13.749  1.00  0.00     0.223 C 
HETATM    2  O   UNL     1     -38.111 -48.860  13.534  1.00  0.00    -0.273 OA
HETATM    3  N   UNL     1     -39.829 -50.099  14.366  1.00  0.00    -0.360 N 
HETATM    4  H   UNL     1     -40.769 -50.062  14.744  1.00  0.00     0.162 HD
ENDROOT
BRANCH   1   5
HETATM    5  C   UNL     1     -40.354 -47.965  13.306  1.00  0.00     0.104 A 
HETATM    6  C   UNL     1     -41.374 -48.589  12.358  1.00  0.00     0.140 A 
HETATM    7  N   UNL     1     -41.403 -47.743  11.192  1.00  0.00    -0.351 N 
HETATM    8  C   UNL     1     -40.508 -46.694  11.262  1.00  0.00     0.220 A 
HETATM    9  C   UNL     1     -39.740 -46.788  12.548  1.00  0.00     0.118 A 
HETATM   10  O   UNL     1     -40.322 -45.838  10.410  1.00  0.00    -0.273 OA
BRANCH   7  11
HETATM   11  C   UNL     1     -41.978 -48.191   9.931  1.00  0.00     0.129 C 
BRANCH  11  12
HETATM   12  C   UNL     1     -43.140 -47.332   9.418  1.00  0.00    -0.005 C 
HETATM   13  C   UNL     1     -43.495 -47.687   7.975  1.00  0.00     0.011 C 
HETATM   14  C   UNL     1     -44.361 -47.527  10.322  1.00  0.00     0.011 C 
ENDBRANCH  11  12
ENDBRANCH   7  11
ENDBRANCH   1   5
BRANCH   3  15
HETATM   15  C   UNL     1     -38.956 -51.131  14.907  1.00  0.00     0.130 C 
BRANCH  15  16
HETATM   16  C   UNL     1     -39.032 -52.457  14.143  1.00  0.00     0.106 C 
BRANCH  16  17
HETATM   17  C   UNL     1     -40.271 -52.552  13.331  1.00  0.00     0.149 A 
HETATM   18  N   UNL     1     -41.480 -52.945  13.677  1.00  0.00    -0.327 N 
HETATM   19  C   UNL     1     -42.161 -52.842  12.491  1.00  0.00     0.100 A 
ATOM     20  HN  UNL     1     -41.821 -53.247  14.589  1.00  0.00     0.169 HD
HETATM   21  C   UNL     1     -43.584 -53.202  12.363  1.00  0.00     0.091 C 
HETATM   22  N   UNL     1     -41.436 -52.392  11.459  1.00  0.00    -0.248 N 
HETATM   23  O   UNL     1     -40.170 -52.203  12.016  1.00  0.00    -0.223 OA
ATOM     24  HN  UNL     1     -41.736 -52.228  10.498  1.00  0.00     0.196 HD
ENDBRANCH  16  17
ENDBRANCH  15  16
ENDBRANCH   3  15
TORSDOF 6
ENDMDL
MODEL 7
REMARK VINA RESULT:      -5.5      3.307      7.303
REMARK  6 active torsions:
REMARK  status: ('A' for Active; 'I' for Inactive)
REMARK    1  A    between atoms: C_2  and  C_4 
REMARK    2  A    between atoms: C_4  and  N_5 
REMARK    3  A    between atoms: C_7  and  C_11 
REMARK       I    between atoms: C_11  and  N_13 
REMARK    4  A    between atoms: N_13  and  C_14 
REMARK    5  A    between atoms: C_14  and  C_15 
REMARK    6  A    between atoms: C_15  and  C_16 
ROOT
HETATM    1  C   UNL     1     -42.138 -49.081  11.586  1.00  0.00     0.223 C 
HETATM    2  O   UNL     1     -42.816 -48.718  12.541  1.00  0.00    -0.273 OA
HETATM    3  N   UNL     1     -41.605 -50.348  11.515  1.00  0.00    -0.360 N 
HETATM    4  H   UNL     1     -41.267 -50.690  10.622  1.00  0.00     0.162 HD
ENDROOT
BRANCH   1   5
HETATM    5  C   UNL     1     -41.759 -48.169  10.429  1.00  0.00     0.104 A 
HETATM    6  C   UNL     1     -40.835 -47.044  10.885  1.00  0.00     0.140 A 
HETATM    7  N   UNL     1     -41.446 -45.819  10.435  1.00  0.00    -0.351 N 
HETATM    8  C   UNL     1     -42.651 -46.020   9.792  1.00  0.00     0.220 A 
HETATM    9  C   UNL     1     -42.972 -47.487   9.797  1.00  0.00     0.118 A 
HETATM   10  O   UNL     1     -43.379 -45.158   9.322  1.00  0.00    -0.273 OA
BRANCH   7  11
HETATM   11  C   UNL     1     -41.061 -44.523  10.976  1.00  0.00     0.129 C 
BRANCH  11  12
HETATM   12  C   UNL     1     -40.997 -44.464  12.508  1.00  0.00    -0.005 C 
HETATM   13  C   UNL     1     -39.963 -43.443  12.977  1.00  0.00     0.011 C 
HETATM   14  C   UNL     1     -42.378 -44.109  13.067  1.00  0.00     0.011 C 
ENDBRANCH  11  12
ENDBRANCH   7  11
ENDBRANCH   1   5
BRANCH   3  15
HETATM   15  C   UNL     1     -41.930 -51.359  12.511  1.00  0.00     0.130 C 
BRANCH  15  16
HETATM   16  C   UNL     1     -40.698 -51.970  13.185  1.00  0.00     0.106 C 
BRANCH  16  17
HETATM   17  C   UNL     1     -39.560 -51.017  13.213  1.00  0.00     0.149 A 
HETATM   18  N   UNL     1     -39.302 -50.033  14.050  1.00  0.00    -0.327 N 
HETATM   19  C   UNL     1     -38.145 -49.512  13.528  1.00  0.00     0.100 A 
ATOM     20  HN  UNL     1     -39.825 -49.736  14.873  1.00  0.00     0.169 HD
HETATM   21  C   UNL     1     -37.463 -48.350  14.122  1.00  0.00     0.091 C 
HETATM   22  N   UNL     1     -37.685 -50.138  12.437  1.00  0.00    -0.248 N 
HETATM   23  O   UNL     1     -38.633 -51.141  12.221  1.00  0.00    -0.223 OA
ATOM     24  HN  UNL     1     -36.846 -49.932  11.896  1.00  0.00     0.196 HD
ENDBRANCH  16  17
ENDBRANCH  15  16
ENDBRANCH   3  15
TORSDOF 6
ENDMDL
MODEL 8
REMARK VINA RESULT:      -5.5      3.188      3.796
REMARK  6 active torsions:
REMARK  status: ('A' for Active; 'I' for Inactive)
REMARK    1  A    between atoms: C_2  and  C_4 
REMARK    2  A    between atoms: C_4  and  N_5 
REMARK    3  A    between atoms: C_7  and  C_11 
REMARK       I    between atoms: C_11  and  N_13 
REMARK    4  A    between atoms: N_13  and  C_14 
REMARK    5  A    between atoms: C_14  and  C_15 
REMARK    6  A    between atoms: C_15  and  C_16 
ROOT
HETATM    1  C   UNL     1     -41.442 -53.723  15.168  1.00  0.00     0.223 C 
HETATM    2  O   UNL     1     -41.822 -53.392  16.286  1.00  0.00    -0.273 OA
HETATM    3  N   UNL     1     -40.193 -53.386  14.697  1.00  0.00    -0.360 N 
HETATM    4  H   UNL     1     -39.824 -53.873  13.887  1.00  0.00     0.162 HD
ENDROOT
BRANCH   1   5
HETATM    5  C   UNL     1     -42.315 -54.468  14.168  1.00  0.00     0.104 A 
HETATM    6  C   UNL     1     -42.919 -53.517  13.139  1.00  0.00     0.140 A 
HETATM    7  N   UNL     1     -44.339 -53.763  13.155  1.00  0.00    -0.351 N 
HETATM    8  C   UNL     1     -44.714 -54.711  14.085  1.00  0.00     0.220 A 
HETATM    9  C   UNL     1     -43.497 -55.174  14.833  1.00  0.00     0.118 A 
HETATM   10  O   UNL     1     -45.850 -55.099  14.312  1.00  0.00    -0.273 OA
BRANCH   7  11
HETATM   11  C   UNL     1     -45.289 -52.820  12.580  1.00  0.00     0.129 C 
BRANCH  11  12
HETATM   12  C   UNL     1     -45.508 -51.549  13.410  1.00  0.00    -0.005 C 
HETATM   13  C   UNL     1     -46.700 -51.704  14.353  1.00  0.00     0.011 C 
HETATM   14  C   UNL     1     -44.242 -51.234  14.212  1.00  0.00     0.011 C 
ENDBRANCH  11  12
ENDBRANCH   7  11
ENDBRANCH   1   5
BRANCH   3  15
HETATM   15  C   UNL     1     -39.216 -52.731  15.555  1.00  0.00     0.130 C 
BRANCH  15  16
HETATM   16  C   UNL     1     -39.072 -51.231  15.281  1.00  0.00     0.106 C 
BRANCH  16  17
HETATM   17  C   UNL     1     -38.803 -50.959  13.846  1.00  0.00     0.149 A 
HETATM   18  N   UNL     1     -37.686 -50.599  13.248  1.00  0.00    -0.327 N 
HETATM   19  C   UNL     1     -38.091 -50.472  11.944  1.00  0.00     0.100 A 
ATOM     20  HN  UNL     1     -36.761 -50.454  13.651  1.00  0.00     0.169 HD
HETATM   21  C   UNL     1     -37.174 -50.055  10.869  1.00  0.00     0.091 C 
HETATM   22  N   UNL     1     -39.381 -50.752  11.722  1.00  0.00    -0.248 N 
HETATM   23  O   UNL     1     -39.862 -51.072  12.993  1.00  0.00    -0.223 OA
ATOM     24  HN  UNL     1     -39.890 -50.736  10.838  1.00  0.00     0.196 HD
ENDBRANCH  16  17
ENDBRANCH  15  16
ENDBRANCH   3  15
TORSDOF 6
ENDMDL
MODEL 9
REMARK VINA RESULT:      -5.3      2.452      4.239
REMARK  6 active torsions:
REMARK  status: ('A' for Active; 'I' for Inactive)
REMARK    1  A    between atoms: C_2  and  C_4 
REMARK    2  A    between atoms: C_4  and  N_5 
REMARK    3  A    between atoms: C_7  and  C_11 
REMARK       I    between atoms: C_11  and  N_13 
REMARK    4  A    between atoms: N_13  and  C_14 
REMARK    5  A    between atoms: C_14  and  C_15 
REMARK    6  A    between atoms: C_15  and  C_16 
ROOT
HETATM    1  C   UNL     1     -44.056 -49.967  15.164  1.00  0.00     0.223 C 
HETATM    2  O   UNL     1     -43.829 -49.503  16.276  1.00  0.00    -0.273 OA
HETATM    3  N   UNL     1     -43.423 -49.494  14.037  1.00  0.00    -0.360 N 
HETATM    4  H   UNL     1     -43.446 -50.049  13.189  1.00  0.00     0.162 HD
ENDROOT
BRANCH   1   5
HETATM    5  C   UNL     1     -45.093 -51.049  14.899  1.00  0.00     0.104 A 
HETATM    6  C   UNL     1     -44.708 -52.365  15.567  1.00  0.00     0.140 A 
HETATM    7  N   UNL     1     -44.756 -53.366  14.532  1.00  0.00    -0.351 N 
HETATM    8  C   UNL     1     -45.080 -52.849  13.294  1.00  0.00     0.220 A 
HETATM    9  C   UNL     1     -45.248 -51.362  13.411  1.00  0.00     0.118 A 
HETATM   10  O   UNL     1     -45.179 -53.472  12.247  1.00  0.00    -0.273 OA
BRANCH   7  11
HETATM   11  C   UNL     1     -44.116 -54.666  14.688  1.00  0.00     0.129 C 
BRANCH  11  12
HETATM   12  C   UNL     1     -42.682 -54.610  15.230  1.00  0.00    -0.005 C 
HETATM   13  C   UNL     1     -42.327 -55.891  15.983  1.00  0.00     0.011 C 
HETATM   14  C   UNL     1     -41.703 -54.394  14.072  1.00  0.00     0.011 C 
ENDBRANCH  11  12
ENDBRANCH   7  11
ENDBRANCH   1   5
BRANCH   3  15
HETATM   15  C   UNL     1     -42.358 -48.506  14.130  1.00  0.00     0.130 C 
BRANCH  15  16
HETATM   16  C   UNL     1     -41.965 -47.901  12.779  1.00  0.00     0.106 C 
BRANCH  16  17
HETATM   17  C   UNL     1     -40.880 -48.676  12.126  1.00  0.00     0.149 A 
HETATM   18  N   UNL     1     -39.607 -48.785  12.448  1.00  0.00    -0.327 N 
HETATM   19  C   UNL     1     -39.131 -49.599  11.452  1.00  0.00     0.100 A 
ATOM     20  HN  UNL     1     -39.106 -48.372  13.234  1.00  0.00     0.169 HD
HETATM   21  C   UNL     1     -37.717 -50.001  11.367  1.00  0.00     0.091 C 
HETATM   22  N   UNL     1     -40.048 -49.999  10.563  1.00  0.00    -0.248 N 
HETATM   23  O   UNL     1     -41.218 -49.379  11.007  1.00  0.00    -0.223 OA
ATOM     24  HN  UNL     1     -39.923 -50.610   9.755  1.00  0.00     0.196 HD
ENDBRANCH  16  17
ENDBRANCH  15  16
ENDBRANCH   3  15
TORSDOF 6
ENDMDL
