MODEL 1
REMARK VINA RESULT:      -5.8      0.000      0.000
REMARK  4 active torsions:
REMARK  status: ('A' for Active; 'I' for Inactive)
REMARK    1  A    between atoms: C_4  and  N_5 
REMARK       I    between atoms: N_5  and  C_6 
REMARK       I    between atoms: C_6  and  N_8 
REMARK    2  A    between atoms: N_8  and  C_9 
REMARK    3  A    between atoms: C_9  and  C_10 
REMARK    4  A    between atoms: C_10  and  N_11 
ROOT
HETATM    1  N   UNL     1     -41.043 -51.297  11.313  1.00  0.00    -0.293 N 
HETATM    2  C   UNL     1     -41.633 -51.912  12.450  1.00  0.00     0.321 C 
HETATM    3  O   UNL     1     -41.713 -51.360  13.529  1.00  0.00    -0.247 OA
HETATM    4  N   UNL     1     -42.076 -53.167  12.161  1.00  0.00    -0.341 N 
HETATM    5  H   UNL     1     -40.949 -51.830  10.463  1.00  0.00     0.172 HD
HETATM    6  H   UNL     1     -41.849 -53.623  11.291  1.00  0.00     0.164 HD
ENDROOT
BRANCH   1   7
HETATM    7  C   UNL     1     -40.605 -49.973  11.323  1.00  0.00     0.127 A 
HETATM    8  C   UNL     1     -41.352 -48.841  11.074  1.00  0.00     0.076 A 
HETATM    9  C   UNL     1     -40.460 -47.757  11.178  1.00  0.00     0.025 A 
HETATM   10  C   UNL     1     -40.775 -46.320  10.991  1.00  0.00     0.070 C 
HETATM   11  N   UNL     1     -39.221 -48.164  11.477  1.00  0.00    -0.302 N 
HETATM   12  N   UNL     1     -39.333 -49.507  11.562  1.00  0.00    -0.281 N 
ATOM     13  HN  UNL     1     -38.386 -47.593  11.610  1.00  0.00     0.186 HD
HETATM   14  C   UNL     1     -38.144 -50.256  11.883  1.00  0.00     0.179 C 
ENDBRANCH   1   7
BRANCH   4  15
HETATM   15  C   UNL     1     -42.619 -53.980  13.234  1.00  0.00     0.154 C 
BRANCH  15  16
HETATM   16  C   UNL     1     -44.151 -54.184  13.162  1.00  0.00     0.292 C 
BRANCH  16  17
HETATM   17  N   UNL     1     -44.863 -52.945  13.478  1.00  0.00     0.090 N 
HETATM   18  C   UNL     1     -45.521 -52.944  14.785  1.00  0.00     0.272 C 
HETATM   19  C   UNL     1     -46.564 -51.837  14.682  1.00  0.00     0.032 C 
HETATM   20  C   UNL     1     -46.581 -51.443  13.210  1.00  0.00     0.032 C 
HETATM   21  C   UNL     1     -45.911 -52.611  12.512  1.00  0.00     0.272 C 
ENDBRANCH  16  17
ENDBRANCH  15  16
ENDBRANCH   4  15
TORSDOF 4
ENDMDL
MODEL 2
REMARK VINA RESULT:      -5.7      1.900      2.706
REMARK  4 active torsions:
REMARK  status: ('A' for Active; 'I' for Inactive)
REMARK    1  A    between atoms: C_4  and  N_5 
REMARK       I    between atoms: N_5  and  C_6 
REMARK       I    between atoms: C_6  and  N_8 
REMARK    2  A    between atoms: N_8  and  C_9 
REMARK    3  A    between atoms: C_9  and  C_10 
REMARK    4  A    between atoms: C_10  and  N_11 
ROOT
HETATM    1  N   UNL     1     -41.213 -49.088  10.698  1.00  0.00    -0.293 N 
HETATM    2  C   UNL     1     -41.669 -49.823  11.826  1.00  0.00     0.321 C 
HETATM    3  O   UNL     1     -42.081 -49.289  12.836  1.00  0.00    -0.247 OA
HETATM    4  N   UNL     1     -41.577 -51.165  11.613  1.00  0.00    -0.341 N 
HETATM    5  H   UNL     1     -40.823 -49.588   9.915  1.00  0.00     0.172 HD
HETATM    6  H   UNL     1     -41.091 -51.545  10.816  1.00  0.00     0.164 HD
ENDROOT
BRANCH   1   7
HETATM    7  C   UNL     1     -41.301 -47.698  10.627  1.00  0.00     0.127 A 
HETATM    8  C   UNL     1     -40.338 -46.777  10.982  1.00  0.00     0.076 A 
HETATM    9  C   UNL     1     -40.908 -45.511  10.751  1.00  0.00     0.025 A 
HETATM   10  C   UNL     1     -40.275 -44.191  10.984  1.00  0.00     0.070 C 
HETATM   11  N   UNL     1     -42.156 -45.610  10.278  1.00  0.00    -0.302 N 
HETATM   12  N   UNL     1     -42.371 -46.941  10.209  1.00  0.00    -0.281 N 
ATOM     13  HN  UNL     1     -42.795 -44.856  10.028  1.00  0.00     0.186 HD
HETATM   14  C   UNL     1     -43.653 -47.385   9.720  1.00  0.00     0.179 C 
ENDBRANCH   1   7
BRANCH   4  15
HETATM   15  C   UNL     1     -41.909 -52.068  12.700  1.00  0.00     0.154 C 
BRANCH  15  16
HETATM   16  C   UNL     1     -43.260 -52.800  12.527  1.00  0.00     0.292 C 
BRANCH  16  17
HETATM   17  N   UNL     1     -44.372 -51.972  12.995  1.00  0.00     0.090 N 
HETATM   18  C   UNL     1     -44.354 -51.694  14.431  1.00  0.00     0.272 C 
HETATM   19  C   UNL     1     -45.786 -51.287  14.756  1.00  0.00     0.032 C 
HETATM   20  C   UNL     1     -46.583 -51.602  13.496  1.00  0.00     0.032 C 
HETATM   21  C   UNL     1     -45.688 -52.554  12.726  1.00  0.00     0.272 C 
ENDBRANCH  16  17
ENDBRANCH  15  16
ENDBRANCH   4  15
TORSDOF 4
ENDMDL
MODEL 3
REMARK VINA RESULT:      -5.6      1.895      6.737
REMARK  4 active torsions:
REMARK  status: ('A' for Active; 'I' for Inactive)
REMARK    1  A    between atoms: C_4  and  N_5 
REMARK       I    between atoms: N_5  and  C_6 
REMARK       I    between atoms: C_6  and  N_8 
REMARK    2  A    between atoms: N_8  and  C_9 
REMARK    3  A    between atoms: C_9  and  C_10 
REMARK    4  A    between atoms: C_10  and  N_11 
ROOT
HETATM    1  N   UNL     1     -42.068 -52.453  11.682  1.00  0.00    -0.293 N 
HETATM    2  C   UNL     1     -41.360 -51.310  12.140  1.00  0.00     0.321 C 
HETATM    3  O   UNL     1     -41.426 -50.911  13.286  1.00  0.00    -0.247 OA
HETATM    4  N   UNL     1     -40.625 -50.748  11.141  1.00  0.00    -0.341 N 
HETATM    5  H   UNL     1     -42.022 -52.697  10.705  1.00  0.00     0.172 HD
HETATM    6  H   UNL     1     -40.726 -51.036  10.180  1.00  0.00     0.164 HD
ENDROOT
BRANCH   1   7
HETATM    7  C   UNL     1     -42.811 -53.265  12.539  1.00  0.00     0.127 A 
HETATM    8  C   UNL     1     -44.180 -53.428  12.563  1.00  0.00     0.076 A 
HETATM    9  C   UNL     1     -44.447 -54.324  13.615  1.00  0.00     0.025 A 
HETATM   10  C   UNL     1     -45.774 -54.816  14.054  1.00  0.00     0.070 C 
HETATM   11  N   UNL     1     -43.323 -54.713  14.227  1.00  0.00    -0.302 N 
HETATM   12  N   UNL     1     -42.347 -54.063  13.559  1.00  0.00    -0.281 N 
ATOM     13  HN  UNL     1     -43.226 -55.353  15.016  1.00  0.00     0.186 HD
HETATM   14  C   UNL     1     -40.987 -54.282  13.984  1.00  0.00     0.179 C 
ENDBRANCH   1   7
BRANCH   4  15
HETATM   15  C   UNL     1     -39.914 -49.511  11.408  1.00  0.00     0.154 C 
BRANCH  15  16
HETATM   16  C   UNL     1     -38.373 -49.647  11.385  1.00  0.00     0.292 C 
BRANCH  16  17
HETATM   17  N   UNL     1     -37.814 -49.534  12.732  1.00  0.00     0.090 N 
HETATM   18  C   UNL     1     -37.725 -50.802  13.456  1.00  0.00     0.272 C 
HETATM   19  C   UNL     1     -37.613 -50.394  14.921  1.00  0.00     0.032 C 
HETATM   20  C   UNL     1     -37.892 -48.897  14.938  1.00  0.00     0.032 C 
HETATM   21  C   UNL     1     -38.570 -48.637  13.606  1.00  0.00     0.272 C 
ENDBRANCH  16  17
ENDBRANCH  15  16
ENDBRANCH   4  15
TORSDOF 4
ENDMDL
MODEL 4
REMARK VINA RESULT:      -5.6      1.773      6.889
REMARK  4 active torsions:
REMARK  status: ('A' for Active; 'I' for Inactive)
REMARK    1  A    between atoms: C_4  and  N_5 
REMARK       I    between atoms: N_5  and  C_6 
REMARK       I    between atoms: C_6  and  N_8 
REMARK    2  A    between atoms: N_8  and  C_9 
REMARK    3  A    between atoms: C_9  and  C_10 
REMARK    4  A    between atoms: C_10  and  N_11 
ROOT
HETATM    1  N   UNL     1     -42.123 -52.446  11.675  1.00  0.00    -0.293 N 
HETATM    2  C   UNL     1     -41.601 -51.192  12.093  1.00  0.00     0.321 C 
HETATM    3  O   UNL     1     -41.818 -50.722  13.192  1.00  0.00    -0.247 OA
HETATM    4  N   UNL     1     -40.852 -50.616  11.113  1.00  0.00    -0.341 N 
HETATM    5  H   UNL     1     -41.961 -52.751  10.729  1.00  0.00     0.172 HD
HETATM    6  H   UNL     1     -40.831 -50.983  10.175  1.00  0.00     0.164 HD
ENDROOT
BRANCH   1   7
HETATM    7  C   UNL     1     -42.839 -53.281  12.533  1.00  0.00     0.127 A 
HETATM    8  C   UNL     1     -44.196 -53.520  12.532  1.00  0.00     0.076 A 
HETATM    9  C   UNL     1     -44.436 -54.408  13.597  1.00  0.00     0.025 A 
HETATM   10  C   UNL     1     -45.743 -54.967  14.019  1.00  0.00     0.070 C 
HETATM   11  N   UNL     1     -43.305 -54.721  14.242  1.00  0.00    -0.302 N 
HETATM   12  N   UNL     1     -42.353 -54.030  13.580  1.00  0.00    -0.281 N 
ATOM     13  HN  UNL     1     -43.190 -55.338  15.046  1.00  0.00     0.186 HD
HETATM   14  C   UNL     1     -40.993 -54.162  14.039  1.00  0.00     0.179 C 
ENDBRANCH   1   7
BRANCH   4  15
HETATM   15  C   UNL     1     -40.321 -49.282  11.333  1.00  0.00     0.154 C 
BRANCH  15  16
HETATM   16  C   UNL     1     -41.249 -48.142  10.852  1.00  0.00     0.292 C 
BRANCH  16  17
HETATM   17  N   UNL     1     -40.920 -46.880  11.513  1.00  0.00     0.090 N 
HETATM   18  C   UNL     1     -40.484 -45.819  10.605  1.00  0.00     0.272 C 
HETATM   19  C   UNL     1     -39.743 -44.833  11.501  1.00  0.00     0.032 C 
HETATM   20  C   UNL     1     -39.606 -45.543  12.842  1.00  0.00     0.032 C 
HETATM   21  C   UNL     1     -39.855 -47.002  12.511  1.00  0.00     0.272 C 
ENDBRANCH  16  17
ENDBRANCH  15  16
ENDBRANCH   4  15
TORSDOF 4
ENDMDL
MODEL 5
REMARK VINA RESULT:      -5.4      1.907      6.916
REMARK  4 active torsions:
REMARK  status: ('A' for Active; 'I' for Inactive)
REMARK    1  A    between atoms: C_4  and  N_5 
REMARK       I    between atoms: N_5  and  C_6 
REMARK       I    between atoms: C_6  and  N_8 
REMARK    2  A    between atoms: N_8  and  C_9 
REMARK    3  A    between atoms: C_9  and  C_10 
REMARK    4  A    between atoms: C_10  and  N_11 
ROOT
HETATM    1  N   UNL     1     -44.489 -52.413  12.598  1.00  0.00    -0.293 N 
HETATM    2  C   UNL     1     -43.092 -52.351  12.852  1.00  0.00     0.321 C 
HETATM    3  O   UNL     1     -42.630 -52.289  13.974  1.00  0.00    -0.247 OA
HETATM    4  N   UNL     1     -42.376 -52.368  11.694  1.00  0.00    -0.341 N 
HETATM    5  H   UNL     1     -44.812 -52.399  11.644  1.00  0.00     0.172 HD
HETATM    6  H   UNL     1     -42.819 -52.272  10.794  1.00  0.00     0.164 HD
ENDROOT
BRANCH   1   7
HETATM    7  C   UNL     1     -45.431 -52.513  13.622  1.00  0.00     0.127 A 
HETATM    8  C   UNL     1     -46.053 -51.482  14.292  1.00  0.00     0.076 A 
HETATM    9  C   UNL     1     -46.893 -52.088  15.245  1.00  0.00     0.025 A 
HETATM   10  C   UNL     1     -47.774 -51.406  16.223  1.00  0.00     0.070 C 
HETATM   11  N   UNL     1     -46.817 -53.423  15.191  1.00  0.00    -0.302 N 
HETATM   12  N   UNL     1     -45.929 -53.657  14.201  1.00  0.00    -0.281 N 
ATOM     13  HN  UNL     1     -47.314 -54.106  15.763  1.00  0.00     0.186 HD
HETATM   14  C   UNL     1     -45.627 -55.032  13.887  1.00  0.00     0.179 C 
ENDBRANCH   1   7
BRANCH   4  15
HETATM   15  C   UNL     1     -40.934 -52.212  11.763  1.00  0.00     0.154 C 
BRANCH  15  16
HETATM   16  C   UNL     1     -40.455 -50.742  11.770  1.00  0.00     0.292 C 
BRANCH  16  17
HETATM   17  N   UNL     1     -39.673 -50.447  12.970  1.00  0.00     0.090 N 
HETATM   18  C   UNL     1     -38.499 -49.606  12.735  1.00  0.00     0.272 C 
HETATM   19  C   UNL     1     -37.609 -49.850  13.948  1.00  0.00     0.032 C 
HETATM   20  C   UNL     1     -38.252 -51.019  14.683  1.00  0.00     0.032 C 
HETATM   21  C   UNL     1     -39.168 -51.643  13.647  1.00  0.00     0.272 C 
ENDBRANCH  16  17
ENDBRANCH  15  16
ENDBRANCH   4  15
TORSDOF 4
ENDMDL
MODEL 6
REMARK VINA RESULT:      -5.3      3.622      5.838
REMARK  4 active torsions:
REMARK  status: ('A' for Active; 'I' for Inactive)
REMARK    1  A    between atoms: C_4  and  N_5 
REMARK       I    between atoms: N_5  and  C_6 
REMARK       I    between atoms: C_6  and  N_8 
REMARK    2  A    between atoms: N_8  and  C_9 
REMARK    3  A    between atoms: C_9  and  C_10 
REMARK    4  A    between atoms: C_10  and  N_11 
ROOT
HETATM    1  N   UNL     1     -41.493 -49.835  11.017  1.00  0.00    -0.293 N 
HETATM    2  C   UNL     1     -41.837 -48.458  11.064  1.00  0.00     0.321 C 
HETATM    3  O   UNL     1     -41.908 -47.833  12.103  1.00  0.00    -0.247 OA
HETATM    4  N   UNL     1     -42.070 -47.962   9.817  1.00  0.00    -0.341 N 
HETATM    5  H   UNL     1     -41.513 -50.313  10.130  1.00  0.00     0.172 HD
HETATM    6  H   UNL     1     -42.140 -48.562   9.011  1.00  0.00     0.164 HD
ENDROOT
BRANCH   1   7
HETATM    7  C   UNL     1     -41.108 -50.549  12.152  1.00  0.00     0.127 A 
HETATM    8  C   UNL     1     -39.827 -50.878  12.541  1.00  0.00     0.076 A 
HETATM    9  C   UNL     1     -39.960 -51.616  13.732  1.00  0.00     0.025 A 
HETATM   10  C   UNL     1     -38.870 -52.206  14.544  1.00  0.00     0.070 C 
HETATM   11  N   UNL     1     -41.243 -51.751  14.087  1.00  0.00    -0.302 N 
HETATM   12  N   UNL     1     -41.918 -51.096  13.119  1.00  0.00    -0.281 N 
ATOM     13  HN  UNL     1     -41.623 -52.236  14.900  1.00  0.00     0.186 HD
HETATM   14  C   UNL     1     -43.356 -51.054  13.220  1.00  0.00     0.179 C 
ENDBRANCH   1   7
BRANCH   4  15
HETATM   15  C   UNL     1     -42.530 -46.591   9.686  1.00  0.00     0.154 C 
BRANCH  15  16
HETATM   16  C   UNL     1     -43.659 -46.398   8.645  1.00  0.00     0.292 C 
BRANCH  16  17
HETATM   17  N   UNL     1     -44.756 -47.337   8.877  1.00  0.00     0.090 N 
HETATM   18  C   UNL     1     -44.983 -48.282   7.783  1.00  0.00     0.272 C 
HETATM   19  C   UNL     1     -46.406 -48.780   8.002  1.00  0.00     0.032 C 
HETATM   20  C   UNL     1     -46.978 -47.882   9.092  1.00  0.00     0.032 C 
HETATM   21  C   UNL     1     -46.046 -46.684   9.104  1.00  0.00     0.272 C 
ENDBRANCH  16  17
ENDBRANCH  15  16
ENDBRANCH   4  15
TORSDOF 4
ENDMDL
MODEL 7
REMARK VINA RESULT:      -5.2      1.539      6.950
REMARK  4 active torsions:
REMARK  status: ('A' for Active; 'I' for Inactive)
REMARK    1  A    between atoms: C_4  and  N_5 
REMARK       I    between atoms: N_5  and  C_6 
REMARK       I    between atoms: C_6  and  N_8 
REMARK    2  A    between atoms: N_8  and  C_9 
REMARK    3  A    between atoms: C_9  and  C_10 
REMARK    4  A    between atoms: C_10  and  N_11 
ROOT
HETATM    1  N   UNL     1     -41.928 -52.775  12.043  1.00  0.00    -0.293 N 
HETATM    2  C   UNL     1     -41.366 -51.488  12.258  1.00  0.00     0.321 C 
HETATM    3  O   UNL     1     -41.380 -50.937  13.341  1.00  0.00    -0.247 OA
HETATM    4  N   UNL     1     -40.832 -50.982  11.112  1.00  0.00    -0.341 N 
HETATM    5  H   UNL     1     -41.942 -53.152  11.109  1.00  0.00     0.172 HD
HETATM    6  H   UNL     1     -40.982 -51.421  10.218  1.00  0.00     0.164 HD
ENDROOT
BRANCH   1   7
HETATM    7  C   UNL     1     -42.445 -53.548  13.083  1.00  0.00     0.127 A 
HETATM    8  C   UNL     1     -41.740 -54.263  14.027  1.00  0.00     0.076 A 
HETATM    9  C   UNL     1     -42.703 -54.891  14.839  1.00  0.00     0.025 A 
HETATM   10  C   UNL     1     -42.453 -55.782  15.997  1.00  0.00     0.070 C 
HETATM   11  N   UNL     1     -43.948 -54.598  14.443  1.00  0.00    -0.302 N 
HETATM   12  N   UNL     1     -43.767 -53.783  13.382  1.00  0.00    -0.281 N 
ATOM     13  HN  UNL     1     -44.828 -54.917  14.849  1.00  0.00     0.186 HD
HETATM   14  C   UNL     1     -44.945 -53.279  12.721  1.00  0.00     0.179 C 
ENDBRANCH   1   7
BRANCH   4  15
HETATM   15  C   UNL     1     -40.301 -49.631  11.127  1.00  0.00     0.154 C 
BRANCH  15  16
HETATM   16  C   UNL     1     -41.351 -48.534  10.830  1.00  0.00     0.292 C 
BRANCH  16  17
HETATM   17  N   UNL     1     -40.737 -47.206  10.820  1.00  0.00     0.090 N 
HETATM   18  C   UNL     1     -40.085 -46.834  12.076  1.00  0.00     0.272 C 
HETATM   19  C   UNL     1     -39.983 -45.315  12.014  1.00  0.00     0.032 C 
HETATM   20  C   UNL     1     -40.819 -44.910  10.806  1.00  0.00     0.032 C 
HETATM   21  C   UNL     1     -41.684 -46.127  10.537  1.00  0.00     0.272 C 
ENDBRANCH  16  17
ENDBRANCH  15  16
ENDBRANCH   4  15
TORSDOF 4
ENDMDL
MODEL 8
REMARK VINA RESULT:      -5.2      2.444      3.936
REMARK  4 active torsions:
REMARK  status: ('A' for Active; 'I' for Inactive)
REMARK    1  A    between atoms: C_4  and  N_5 
REMARK       I    between atoms: N_5  and  C_6 
REMARK       I    between atoms: C_6  and  N_8 
REMARK    2  A    between atoms: N_8  and  C_9 
REMARK    3  A    between atoms: C_9  and  C_10 
REMARK    4  A    between atoms: C_10  and  N_11 
ROOT
HETATM    1  N   UNL     1     -41.586 -49.368  10.962  1.00  0.00    -0.293 N 
HETATM    2  C   UNL     1     -42.301 -49.844  12.094  1.00  0.00     0.321 C 
HETATM    3  O   UNL     1     -42.754 -49.104  12.944  1.00  0.00    -0.247 OA
HETATM    4  N   UNL     1     -42.396 -51.202  12.084  1.00  0.00    -0.341 N 
HETATM    5  H   UNL     1     -41.180 -50.035  10.325  1.00  0.00     0.172 HD
HETATM    6  H   UNL     1     -41.875 -51.767  11.433  1.00  0.00     0.164 HD
ENDROOT
BRANCH   1   7
HETATM    7  C   UNL     1     -41.441 -48.008  10.687  1.00  0.00     0.127 A 
HETATM    8  C   UNL     1     -40.451 -47.162  11.140  1.00  0.00     0.076 A 
HETATM    9  C   UNL     1     -40.753 -45.893  10.612  1.00  0.00     0.025 A 
HETATM   10  C   UNL     1     -39.991 -44.637  10.814  1.00  0.00     0.070 C 
HETATM   11  N   UNL     1     -41.864 -45.920   9.867  1.00  0.00    -0.302 N 
HETATM   12  N   UNL     1     -42.261 -47.209   9.925  1.00  0.00    -0.281 N 
ATOM     13  HN  UNL     1     -42.307 -45.147   9.371  1.00  0.00     0.186 HD
HETATM   14  C   UNL     1     -43.455 -47.572   9.202  1.00  0.00     0.179 C 
ENDBRANCH   1   7
BRANCH   4  15
HETATM   15  C   UNL     1     -43.011 -51.866  13.220  1.00  0.00     0.154 C 
BRANCH  15  16
HETATM   16  C   UNL     1     -42.981 -53.411  13.144  1.00  0.00     0.292 C 
BRANCH  16  17
HETATM   17  N   UNL     1     -41.832 -53.953  13.869  1.00  0.00     0.090 N 
HETATM   18  C   UNL     1     -41.407 -53.146  15.014  1.00  0.00     0.272 C 
HETATM   19  C   UNL     1     -39.974 -53.593  15.279  1.00  0.00     0.032 C 
HETATM   20  C   UNL     1     -39.604 -54.468  14.089  1.00  0.00     0.032 C 
HETATM   21  C   UNL     1     -40.638 -54.112  13.038  1.00  0.00     0.272 C 
ENDBRANCH  16  17
ENDBRANCH  15  16
ENDBRANCH   4  15
TORSDOF 4
ENDMDL
MODEL 9
REMARK VINA RESULT:      -5.2      5.546      8.477
REMARK  4 active torsions:
REMARK  status: ('A' for Active; 'I' for Inactive)
REMARK    1  A    between atoms: C_4  and  N_5 
REMARK       I    between atoms: N_5  and  C_6 
REMARK       I    between atoms: C_6  and  N_8 
REMARK    2  A    between atoms: N_8  and  C_9 
REMARK    3  A    between atoms: C_9  and  C_10 
REMARK    4  A    between atoms: C_10  and  N_11 
ROOT
HETATM    1  N   UNL     1     -42.258 -47.384   9.941  1.00  0.00    -0.293 N 
HETATM    2  C   UNL     1     -41.708 -46.109  10.246  1.00  0.00     0.321 C 
HETATM    3  O   UNL     1     -42.266 -45.068   9.964  1.00  0.00    -0.247 OA
HETATM    4  N   UNL     1     -40.506 -46.226  10.876  1.00  0.00    -0.341 N 
HETATM    5  H   UNL     1     -41.717 -48.209  10.144  1.00  0.00     0.172 HD
HETATM    6  H   UNL     1     -40.028 -47.110  10.949  1.00  0.00     0.164 HD
ENDROOT
BRANCH   1   7
HETATM    7  C   UNL     1     -43.530 -47.536   9.388  1.00  0.00     0.127 A 
HETATM    8  C   UNL     1     -44.744 -47.336  10.010  1.00  0.00     0.076 A 
HETATM    9  C   UNL     1     -45.727 -47.640   9.050  1.00  0.00     0.025 A 
HETATM   10  C   UNL     1     -47.197 -47.588   9.229  1.00  0.00     0.070 C 
HETATM   11  N   UNL     1     -45.181 -48.010   7.886  1.00  0.00    -0.302 N 
HETATM   12  N   UNL     1     -43.852 -47.937   8.113  1.00  0.00    -0.281 N 
ATOM     13  HN  UNL     1     -45.657 -48.284   7.026  1.00  0.00     0.186 HD
HETATM   14  C   UNL     1     -42.970 -48.278   7.025  1.00  0.00     0.179 C 
ENDBRANCH   1   7
BRANCH   4  15
HETATM   15  C   UNL     1     -39.755 -45.020  11.174  1.00  0.00     0.154 C 
BRANCH  15  16
HETATM   16  C   UNL     1     -39.899 -44.526  12.633  1.00  0.00     0.292 C 
BRANCH  16  17
HETATM   17  N   UNL     1     -40.687 -43.295  12.698  1.00  0.00     0.090 N 
HETATM   18  C   UNL     1     -40.575 -42.445  11.512  1.00  0.00     0.272 C 
HETATM   19  C   UNL     1     -41.029 -41.070  11.989  1.00  0.00     0.032 C 
HETATM   20  C   UNL     1     -41.141 -41.192  13.503  1.00  0.00     0.032 C 
HETATM   21  C   UNL     1     -40.336 -42.436  13.830  1.00  0.00     0.272 C 
ENDBRANCH  16  17
ENDBRANCH  15  16
ENDBRANCH   4  15
TORSDOF 4
ENDMDL
