MODEL 1
REMARK VINA RESULT:      -5.3      0.000      0.000
REMARK  2 active torsions:
REMARK  status: ('A' for Active; 'I' for Inactive)
REMARK    1  A    between atoms: C_4  and  C_8 
REMARK    2  A    between atoms: C_14  and  N_15 
ROOT
HETATM    1  C   UNL     1     -42.103 -46.163  10.311  1.00  0.00     0.153 C 
HETATM    2  N   UNL     1     -41.334 -47.385  10.195  1.00  0.00    -0.350 N 
HETATM    3  C   UNL     1     -41.263 -48.347  11.158  1.00  0.00     0.218 C 
HETATM    4  O   UNL     1     -40.752 -49.434  10.895  1.00  0.00    -0.274 OA
HETATM    5  C   UNL     1     -41.729 -48.006  12.562  1.00  0.00     0.105 C 
HETATM    6  C   UNL     1     -42.603 -46.762  12.694  1.00  0.00     0.047 C 
HETATM    7  C   UNL     1     -42.084 -45.648  11.779  1.00  0.00     0.245 C 
HETATM    8  H   UNL     1     -41.033 -47.685   9.276  1.00  0.00     0.163 HD
ENDROOT
BRANCH   1   9
HETATM    9  C   UNL     1     -43.480 -46.395   9.746  1.00  0.00     0.001 A 
HETATM   10  C   UNL     1     -44.263 -47.538   9.741  1.00  0.00     0.120 A 
HETATM   11  N   UNL     1     -45.446 -47.203   9.150  1.00  0.00    -0.307 N 
HETATM   12  C   UNL     1     -46.599 -48.051   8.964  1.00  0.00     0.177 C 
HETATM   13  N   UNL     1     -45.487 -45.924   8.736  1.00  0.00    -0.310 N 
HETATM   14  C   UNL     1     -44.295 -45.439   9.087  1.00  0.00     0.118 A 
ATOM     15  HN  UNL     1     -46.250 -45.439   8.264  1.00  0.00     0.186 HD
ENDBRANCH   1   9
BRANCH   7  16
HETATM   16  N   UNL     1     -42.804 -44.395  12.033  1.00  0.00     0.085 N 
HETATM   17  H   UNL     1     -43.676 -44.372  11.503  1.00  0.00     0.313 HD
HETATM   18  H   UNL     1     -42.247 -43.602  11.714  1.00  0.00     0.313 HD
ENDBRANCH   7  16
TORSDOF 2
ENDMDL
MODEL 2
REMARK VINA RESULT:      -5.0      7.356      8.902
REMARK  2 active torsions:
REMARK  status: ('A' for Active; 'I' for Inactive)
REMARK    1  A    between atoms: C_4  and  C_8 
REMARK    2  A    between atoms: C_14  and  N_15 
ROOT
HETATM    1  C   UNL     1     -45.542 -54.217  14.562  1.00  0.00     0.153 C 
HETATM    2  N   UNL     1     -46.100 -53.872  13.270  1.00  0.00    -0.350 N 
HETATM    3  C   UNL     1     -46.313 -52.597  12.835  1.00  0.00     0.218 C 
HETATM    4  O   UNL     1     -46.601 -52.396  11.657  1.00  0.00    -0.274 OA
HETATM    5  C   UNL     1     -46.287 -51.469  13.851  1.00  0.00     0.105 C 
HETATM    6  C   UNL     1     -45.636 -51.792  15.193  1.00  0.00     0.047 C 
HETATM    7  C   UNL     1     -46.017 -53.205  15.644  1.00  0.00     0.245 C 
HETATM    8  H   UNL     1     -46.104 -54.573  12.539  1.00  0.00     0.163 HD
ENDROOT
BRANCH   1   9
HETATM    9  C   UNL     1     -44.046 -54.339  14.432  1.00  0.00     0.001 A 
HETATM   10  C   UNL     1     -43.204 -53.952  13.403  1.00  0.00     0.120 A 
HETATM   11  N   UNL     1     -41.932 -54.240  13.805  1.00  0.00    -0.307 N 
HETATM   12  C   UNL     1     -40.709 -53.968  13.089  1.00  0.00     0.177 C 
HETATM   13  N   UNL     1     -41.879 -54.820  15.017  1.00  0.00    -0.310 N 
HETATM   14  C   UNL     1     -43.158 -54.889  15.391  1.00  0.00     0.118 A 
ATOM     15  HN  UNL     1     -41.055 -55.134  15.529  1.00  0.00     0.186 HD
ENDBRANCH   1   9
BRANCH   7  16
HETATM   16  N   UNL     1     -45.548 -53.455  17.012  1.00  0.00     0.085 N 
HETATM   17  H   UNL     1     -45.574 -54.455  17.219  1.00  0.00     0.313 HD
HETATM   18  H   UNL     1     -46.168 -53.002  17.682  1.00  0.00     0.313 HD
ENDBRANCH   7  16
TORSDOF 2
ENDMDL
MODEL 3
REMARK VINA RESULT:      -4.8      2.673      3.932
REMARK  2 active torsions:
REMARK  status: ('A' for Active; 'I' for Inactive)
REMARK    1  A    between atoms: C_4  and  C_8 
REMARK    2  A    between atoms: C_14  and  N_15 
ROOT
HETATM    1  C   UNL     1     -42.062 -45.597  12.166  1.00  0.00     0.153 C 
HETATM    2  N   UNL     1     -42.894 -44.422  12.003  1.00  0.00    -0.350 N 
HETATM    3  C   UNL     1     -42.496 -43.274  11.386  1.00  0.00     0.218 C 
HETATM    4  O   UNL     1     -43.327 -42.408  11.118  1.00  0.00    -0.274 OA
HETATM    5  C   UNL     1     -41.014 -43.056  11.140  1.00  0.00     0.105 C 
HETATM    6  C   UNL     1     -40.130 -44.297  11.235  1.00  0.00     0.047 C 
HETATM    7  C   UNL     1     -40.580 -45.183  12.401  1.00  0.00     0.245 C 
HETATM    8  H   UNL     1     -43.896 -44.517  12.112  1.00  0.00     0.163 HD
ENDROOT
BRANCH   1   9
HETATM    9  C   UNL     1     -42.277 -46.517  10.993  1.00  0.00     0.001 A 
HETATM   10  C   UNL     1     -43.163 -46.420   9.933  1.00  0.00     0.120 A 
HETATM   11  N   UNL     1     -42.918 -47.485   9.116  1.00  0.00    -0.307 N 
HETATM   12  C   UNL     1     -43.557 -47.783   7.856  1.00  0.00     0.177 C 
HETATM   13  N   UNL     1     -41.951 -48.296   9.580  1.00  0.00    -0.310 N 
HETATM   14  C   UNL     1     -41.572 -47.716  10.720  1.00  0.00     0.118 A 
ATOM     15  HN  UNL     1     -41.593 -49.153   9.159  1.00  0.00     0.186 HD
ENDBRANCH   1   9
BRANCH   7  16
HETATM   16  N   UNL     1     -39.629 -46.280  12.613  1.00  0.00     0.085 N 
HETATM   17  H   UNL     1     -40.055 -47.173  12.360  1.00  0.00     0.313 HD
HETATM   18  H   UNL     1     -39.383 -46.343  13.600  1.00  0.00     0.313 HD
ENDBRANCH   7  16
TORSDOF 2
ENDMDL
MODEL 4
REMARK VINA RESULT:      -4.6      6.241      7.597
REMARK  2 active torsions:
REMARK  status: ('A' for Active; 'I' for Inactive)
REMARK    1  A    between atoms: C_4  and  C_8 
REMARK    2  A    between atoms: C_14  and  N_15 
ROOT
HETATM    1  C   UNL     1     -43.966 -52.732  15.156  1.00  0.00     0.153 C 
HETATM    2  N   UNL     1     -44.559 -54.042  14.983  1.00  0.00    -0.350 N 
HETATM    3  C   UNL     1     -45.811 -54.265  14.493  1.00  0.00     0.218 C 
HETATM    4  O   UNL     1     -46.154 -55.408  14.196  1.00  0.00    -0.274 OA
HETATM    5  C   UNL     1     -46.784 -53.101  14.428  1.00  0.00     0.105 C 
HETATM    6  C   UNL     1     -46.169 -51.708  14.534  1.00  0.00     0.047 C 
HETATM    7  C   UNL     1     -45.049 -51.699  15.579  1.00  0.00     0.245 C 
HETATM    8  H   UNL     1     -43.952 -54.853  14.974  1.00  0.00     0.163 HD
ENDROOT
BRANCH   1   9
HETATM    9  C   UNL     1     -43.208 -52.368  13.905  1.00  0.00     0.001 A 
HETATM   10  C   UNL     1     -42.266 -51.376  13.688  1.00  0.00     0.120 A 
HETATM   11  N   UNL     1     -41.849 -51.504  12.396  1.00  0.00    -0.307 N 
HETATM   12  C   UNL     1     -40.835 -50.726  11.725  1.00  0.00     0.177 C 
HETATM   13  N   UNL     1     -42.473 -52.495  11.734  1.00  0.00    -0.310 N 
HETATM   14  C   UNL     1     -43.302 -53.009  12.644  1.00  0.00     0.118 A 
ATOM     15  HN  UNL     1     -42.344 -52.784  10.765  1.00  0.00     0.186 HD
ENDBRANCH   1   9
BRANCH   7  16
HETATM   16  N   UNL     1     -44.578 -50.330  15.818  1.00  0.00     0.085 N 
HETATM   17  H   UNL     1     -45.369 -49.706  15.986  1.00  0.00     0.313 HD
HETATM   18  H   UNL     1     -44.097 -49.977  14.992  1.00  0.00     0.313 HD
ENDBRANCH   7  16
TORSDOF 2
ENDMDL
MODEL 5
REMARK VINA RESULT:      -4.6      2.369      4.498
REMARK  2 active torsions:
REMARK  status: ('A' for Active; 'I' for Inactive)
REMARK    1  A    between atoms: C_4  and  C_8 
REMARK    2  A    between atoms: C_14  and  N_15 
ROOT
HETATM    1  C   UNL     1     -43.254 -47.714  11.563  1.00  0.00     0.153 C 
HETATM    2  N   UNL     1     -44.215 -47.946  10.503  1.00  0.00    -0.350 N 
HETATM    3  C   UNL     1     -44.128 -47.413   9.252  1.00  0.00     0.218 C 
HETATM    4  O   UNL     1     -44.874 -47.821   8.364  1.00  0.00    -0.274 OA
HETATM    5  C   UNL     1     -43.176 -46.253   9.020  1.00  0.00     0.105 C 
HETATM    6  C   UNL     1     -42.108 -46.039  10.090  1.00  0.00     0.047 C 
HETATM    7  C   UNL     1     -42.701 -46.262  11.485  1.00  0.00     0.245 C 
HETATM    8  H   UNL     1     -44.847 -48.732  10.584  1.00  0.00     0.163 HD
ENDROOT
BRANCH   1   9
HETATM    9  C   UNL     1     -42.200 -48.789  11.513  1.00  0.00     0.001 A 
HETATM   10  C   UNL     1     -42.016 -49.899  12.321  1.00  0.00     0.120 A 
HETATM   11  N   UNL     1     -40.947 -50.580  11.818  1.00  0.00    -0.307 N 
HETATM   12  C   UNL     1     -40.407 -51.832  12.295  1.00  0.00     0.177 C 
HETATM   13  N   UNL     1     -40.391 -49.980  10.751  1.00  0.00    -0.310 N 
HETATM   14  C   UNL     1     -41.143 -48.892  10.573  1.00  0.00     0.118 A 
ATOM     15  HN  UNL     1     -39.585 -50.285  10.205  1.00  0.00     0.186 HD
ENDBRANCH   1   9
BRANCH   7  16
HETATM   16  N   UNL     1     -41.737 -45.881  12.523  1.00  0.00     0.085 N 
HETATM   17  H   UNL     1     -41.259 -46.709  12.883  1.00  0.00     0.313 HD
HETATM   18  H   UNL     1     -42.222 -45.457  13.313  1.00  0.00     0.313 HD
ENDBRANCH   7  16
TORSDOF 2
ENDMDL
MODEL 6
REMARK VINA RESULT:      -4.6      3.385      4.911
REMARK  2 active torsions:
REMARK  status: ('A' for Active; 'I' for Inactive)
REMARK    1  A    between atoms: C_4  and  C_8 
REMARK    2  A    between atoms: C_14  and  N_15 
ROOT
HETATM    1  C   UNL     1     -41.433 -46.633  11.214  1.00  0.00     0.153 C 
HETATM    2  N   UNL     1     -40.887 -45.826  10.141  1.00  0.00    -0.350 N 
HETATM    3  C   UNL     1     -39.867 -44.934  10.288  1.00  0.00     0.218 C 
HETATM    4  O   UNL     1     -39.340 -44.444   9.291  1.00  0.00    -0.274 OA
HETATM    5  C   UNL     1     -39.482 -44.493  11.689  1.00  0.00     0.105 C 
HETATM    6  C   UNL     1     -39.986 -45.373  12.829  1.00  0.00     0.047 C 
HETATM    7  C   UNL     1     -41.419 -45.836  12.551  1.00  0.00     0.245 C 
HETATM    8  H   UNL     1     -41.075 -46.099   9.185  1.00  0.00     0.163 HD
ENDROOT
BRANCH   1   9
HETATM    9  C   UNL     1     -40.699 -47.948  11.261  1.00  0.00     0.001 A 
HETATM   10  C   UNL     1     -39.434 -48.248  11.739  1.00  0.00     0.120 A 
HETATM   11  N   UNL     1     -39.268 -49.595  11.597  1.00  0.00    -0.307 N 
HETATM   12  C   UNL     1     -38.128 -50.381  12.004  1.00  0.00     0.177 C 
HETATM   13  N   UNL     1     -40.326 -50.201  11.030  1.00  0.00    -0.310 N 
HETATM   14  C   UNL     1     -41.186 -49.203  10.818  1.00  0.00     0.118 A 
ATOM     15  HN  UNL     1     -40.443 -51.190  10.813  1.00  0.00     0.186 HD
ENDBRANCH   1   9
BRANCH   7  16
HETATM   16  N   UNL     1     -41.975 -46.527  13.720  1.00  0.00     0.085 N 
HETATM   17  H   UNL     1     -42.896 -46.911  13.501  1.00  0.00     0.313 HD
HETATM   18  H   UNL     1     -42.109 -45.867  14.485  1.00  0.00     0.313 HD
ENDBRANCH   7  16
TORSDOF 2
ENDMDL
MODEL 7
REMARK VINA RESULT:      -4.6      5.611      7.397
REMARK  2 active torsions:
REMARK  status: ('A' for Active; 'I' for Inactive)
REMARK    1  A    between atoms: C_4  and  C_8 
REMARK    2  A    between atoms: C_14  and  N_15 
ROOT
HETATM    1  C   UNL     1     -41.506 -52.835  12.167  1.00  0.00     0.153 C 
HETATM    2  N   UNL     1     -42.896 -52.822  11.761  1.00  0.00    -0.350 N 
HETATM    3  C   UNL     1     -43.921 -53.337  12.497  1.00  0.00     0.218 C 
HETATM    4  O   UNL     1     -45.083 -53.105  12.169  1.00  0.00    -0.274 OA
HETATM    5  C   UNL     1     -43.592 -54.272  13.647  1.00  0.00     0.105 C 
HETATM    6  C   UNL     1     -42.147 -54.246  14.138  1.00  0.00     0.047 C 
HETATM    7  C   UNL     1     -41.183 -54.139  12.952  1.00  0.00     0.245 C 
HETATM    8  H   UNL     1     -43.182 -52.185  11.027  1.00  0.00     0.163 HD
ENDROOT
BRANCH   1   9
HETATM    9  C   UNL     1     -41.201 -51.563  12.914  1.00  0.00     0.001 A 
HETATM   10  C   UNL     1     -39.985 -50.957  13.188  1.00  0.00     0.120 A 
HETATM   11  N   UNL     1     -40.264 -49.796  13.848  1.00  0.00    -0.307 N 
HETATM   12  C   UNL     1     -39.320 -48.799  14.295  1.00  0.00     0.177 C 
HETATM   13  N   UNL     1     -41.579 -49.608  14.056  1.00  0.00    -0.310 N 
HETATM   14  C   UNL     1     -42.144 -50.681  13.500  1.00  0.00     0.118 A 
ATOM     15  HN  UNL     1     -42.037 -48.828  14.528  1.00  0.00     0.186 HD
ENDBRANCH   1   9
BRANCH   7  16
HETATM   16  N   UNL     1     -39.795 -54.297  13.399  1.00  0.00     0.085 N 
HETATM   17  H   UNL     1     -39.630 -53.749  14.245  1.00  0.00     0.313 HD
HETATM   18  H   UNL     1     -39.157 -53.939  12.689  1.00  0.00     0.313 HD
ENDBRANCH   7  16
TORSDOF 2
ENDMDL
MODEL 8
REMARK VINA RESULT:      -4.5      2.910      5.329
REMARK  2 active torsions:
REMARK  status: ('A' for Active; 'I' for Inactive)
REMARK    1  A    between atoms: C_4  and  C_8 
REMARK    2  A    between atoms: C_14  and  N_15 
ROOT
HETATM    1  C   UNL     1     -41.601 -48.403  10.745  1.00  0.00     0.153 C 
HETATM    2  N   UNL     1     -41.273 -47.149  10.097  1.00  0.00    -0.350 N 
HETATM    3  C   UNL     1     -41.506 -45.918  10.633  1.00  0.00     0.218 C 
HETATM    4  O   UNL     1     -41.017 -44.922  10.104  1.00  0.00    -0.274 OA
HETATM    5  C   UNL     1     -42.454 -45.807  11.814  1.00  0.00     0.105 C 
HETATM    6  C   UNL     1     -42.753 -47.107  12.556  1.00  0.00     0.047 C 
HETATM    7  C   UNL     1     -42.918 -48.261  11.563  1.00  0.00     0.245 C 
HETATM    8  H   UNL     1     -40.612 -47.157   9.330  1.00  0.00     0.163 HD
ENDROOT
BRANCH   1   9
HETATM    9  C   UNL     1     -40.413 -48.866  11.546  1.00  0.00     0.001 A 
HETATM   10  C   UNL     1     -39.993 -50.148  11.861  1.00  0.00     0.120 A 
HETATM   11  N   UNL     1     -38.830 -50.020  12.564  1.00  0.00    -0.307 N 
HETATM   12  C   UNL     1     -37.992 -51.084  13.063  1.00  0.00     0.177 C 
HETATM   13  N   UNL     1     -38.469 -48.740  12.761  1.00  0.00    -0.310 N 
HETATM   14  C   UNL     1     -39.431 -48.043  12.155  1.00  0.00     0.118 A 
ATOM     15  HN  UNL     1     -37.652 -48.386  13.257  1.00  0.00     0.186 HD
ENDBRANCH   1   9
BRANCH   7  16
HETATM   16  N   UNL     1     -43.384 -49.471  12.250  1.00  0.00     0.085 N 
HETATM   17  H   UNL     1     -43.794 -50.123  11.580  1.00  0.00     0.313 HD
HETATM   18  H   UNL     1     -44.121 -49.233  12.914  1.00  0.00     0.313 HD
ENDBRANCH   7  16
TORSDOF 2
ENDMDL
MODEL 9
REMARK VINA RESULT:      -4.5      3.323      5.146
REMARK  2 active torsions:
REMARK  status: ('A' for Active; 'I' for Inactive)
REMARK    1  A    between atoms: C_4  and  C_8 
REMARK    2  A    between atoms: C_14  and  N_15 
ROOT
HETATM    1  C   UNL     1     -40.408 -48.999  12.823  1.00  0.00     0.153 C 
HETATM    2  N   UNL     1     -39.537 -48.622  13.918  1.00  0.00    -0.350 N 
HETATM    3  C   UNL     1     -38.190 -48.831  13.941  1.00  0.00     0.218 C 
HETATM    4  O   UNL     1     -37.507 -48.302  14.816  1.00  0.00    -0.274 OA
HETATM    5  C   UNL     1     -37.587 -49.799  12.939  1.00  0.00     0.105 C 
HETATM    6  C   UNL     1     -38.463 -50.151  11.739  1.00  0.00     0.047 C 
HETATM    7  C   UNL     1     -39.920 -50.327  12.176  1.00  0.00     0.245 C 
HETATM    8  H   UNL     1     -39.870 -47.945  14.593  1.00  0.00     0.163 HD
ENDROOT
BRANCH   1   9
HETATM    9  C   UNL     1     -40.522 -47.841  11.866  1.00  0.00     0.001 A 
HETATM   10  C   UNL     1     -39.740 -46.704  11.742  1.00  0.00     0.120 A 
HETATM   11  N   UNL     1     -40.236 -45.998  10.686  1.00  0.00    -0.307 N 
HETATM   12  C   UNL     1     -39.718 -44.766  10.139  1.00  0.00     0.177 C 
HETATM   13  N   UNL     1     -41.313 -46.574  10.123  1.00  0.00    -0.310 N 
HETATM   14  C   UNL     1     -41.491 -47.683  10.843  1.00  0.00     0.118 A 
ATOM     15  HN  UNL     1     -41.863 -46.243   9.331  1.00  0.00     0.186 HD
ENDBRANCH   1   9
BRANCH   7  16
HETATM   16  N   UNL     1     -40.733 -50.842  11.069  1.00  0.00     0.085 N 
HETATM   17  H   UNL     1     -41.603 -50.313  10.991  1.00  0.00     0.313 HD
HETATM   18  H   UNL     1     -40.996 -51.811  11.250  1.00  0.00     0.313 HD
ENDBRANCH   7  16
TORSDOF 2
ENDMDL
