MODEL 1
REMARK VINA RESULT:      -6.3      0.000      0.000
REMARK  5 active torsions:
REMARK  status: ('A' for Active; 'I' for Inactive)
REMARK    1  A    between atoms: O_2  and  C_3 
REMARK    2  A    between atoms: C_9  and  N_10 
REMARK       I    between atoms: N_10  and  C_11 
REMARK       I    between atoms: C_11  and  N_13 
REMARK    3  A    between atoms: N_13  and  C_14 
REMARK    4  A    between atoms: C_14  and  C_15 
REMARK    5  A    between atoms: C_15  and  N_16 
ROOT
HETATM    1  N   UNL     1     -41.983 -48.193   9.477  1.00  0.00    -0.305 N 
HETATM    2  C   UNL     1     -41.551 -48.706  10.684  1.00  0.00     0.320 C 
HETATM    3  O   UNL     1     -41.959 -48.360  11.789  1.00  0.00    -0.247 OA
HETATM    4  N   UNL     1     -40.583 -49.685  10.539  1.00  0.00    -0.341 N 
HETATM    5  H   UNL     1     -41.312 -48.169   8.720  1.00  0.00     0.171 HD
HETATM    6  H   UNL     1     -40.708 -50.264   9.721  1.00  0.00     0.164 HD
ENDROOT
BRANCH   1   7
HETATM    7  C   UNL     1     -43.112 -47.334   9.332  1.00  0.00     0.087 A 
HETATM    8  C   UNL     1     -42.994 -45.945   9.477  1.00  0.00     0.169 A 
HETATM    9  N   UNL     1     -44.028 -45.075   9.342  1.00  0.00    -0.345 N 
HETATM   10  C   UNL     1     -45.238 -45.596   9.058  1.00  0.00     0.090 A 
ATOM     11  HN  UNL     1     -43.894 -44.069   9.451  1.00  0.00     0.167 HD
HETATM   12  C   UNL     1     -45.462 -46.949   8.889  1.00  0.00     0.019 A 
HETATM   13  C   UNL     1     -44.384 -47.821   9.019  1.00  0.00     0.035 A 
BRANCH   8  14
HETATM   14  O   UNL     1     -41.744 -45.428   9.780  1.00  0.00    -0.339 OA
HETATM   15  C   UNL     1     -41.713 -44.848  11.088  1.00  0.00     0.211 C 
ENDBRANCH   8  14
ENDBRANCH   1   7
BRANCH   4  16
HETATM   16  C   UNL     1     -40.152 -50.363  11.763  1.00  0.00     0.154 C 
BRANCH  16  17
HETATM   17  C   UNL     1     -40.952 -51.637  12.126  1.00  0.00     0.292 C 
BRANCH  17  18
HETATM   18  N   UNL     1     -41.308 -51.725  13.564  1.00  0.00     0.094 N 
HETATM   19  C   UNL     1     -40.477 -52.698  14.305  1.00  0.00     0.273 C 
HETATM   20  C   UNL     1     -40.781 -54.156  13.951  1.00  0.00     0.030 C 
HETATM   21  C   UNL     1     -42.259 -54.478  14.141  1.00  0.00     0.004 C 
HETATM   22  C   UNL     1     -43.149 -53.441  13.459  1.00  0.00     0.035 C 
HETATM   23  C   UNL     1     -42.735 -52.012  13.850  1.00  0.00     0.219 C 
HETATM   24  C   UNL     1     -43.711 -50.981  13.278  1.00  0.00     0.043 C 
ENDBRANCH  17  18
ENDBRANCH  16  17
ENDBRANCH   4  16
TORSDOF 5
ENDMDL
MODEL 2
REMARK VINA RESULT:      -6.2      1.592      2.682
REMARK  5 active torsions:
REMARK  status: ('A' for Active; 'I' for Inactive)
REMARK    1  A    between atoms: O_2  and  C_3 
REMARK    2  A    between atoms: C_9  and  N_10 
REMARK       I    between atoms: N_10  and  C_11 
REMARK       I    between atoms: C_11  and  N_13 
REMARK    3  A    between atoms: N_13  and  C_14 
REMARK    4  A    between atoms: C_14  and  C_15 
REMARK    5  A    between atoms: C_15  and  N_16 
ROOT
HETATM    1  N   UNL     1     -40.946 -48.836  10.569  1.00  0.00    -0.305 N 
HETATM    2  C   UNL     1     -41.028 -49.768  11.584  1.00  0.00     0.320 C 
HETATM    3  O   UNL     1     -41.210 -49.511  12.770  1.00  0.00    -0.247 OA
HETATM    4  N   UNL     1     -40.886 -51.069  11.134  1.00  0.00    -0.341 N 
HETATM    5  H   UNL     1     -40.354 -49.064   9.780  1.00  0.00     0.171 HD
HETATM    6  H   UNL     1     -41.284 -51.232  10.221  1.00  0.00     0.164 HD
ENDROOT
BRANCH   1   7
HETATM    7  C   UNL     1     -41.266 -47.456  10.724  1.00  0.00     0.087 A 
HETATM    8  C   UNL     1     -42.537 -46.962  10.398  1.00  0.00     0.169 A 
HETATM    9  N   UNL     1     -42.906 -45.661  10.531  1.00  0.00    -0.345 N 
HETATM   10  C   UNL     1     -41.978 -44.804  11.001  1.00  0.00     0.090 A 
ATOM     11  HN  UNL     1     -43.845 -45.347  10.287  1.00  0.00     0.167 HD
HETATM   12  C   UNL     1     -40.699 -45.187  11.358  1.00  0.00     0.019 A 
HETATM   13  C   UNL     1     -40.349 -46.528  11.224  1.00  0.00     0.035 A 
BRANCH   8  14
HETATM   14  O   UNL     1     -43.475 -47.856   9.905  1.00  0.00    -0.339 OA
HETATM   15  C   UNL     1     -43.891 -47.511   8.580  1.00  0.00     0.211 C 
ENDBRANCH   8  14
ENDBRANCH   1   7
BRANCH   4  16
HETATM   16  C   UNL     1     -41.074 -52.128  12.129  1.00  0.00     0.154 C 
BRANCH  16  17
HETATM   17  C   UNL     1     -42.514 -52.685  12.233  1.00  0.00     0.292 C 
BRANCH  17  18
HETATM   18  N   UNL     1     -43.140 -52.465  13.560  1.00  0.00     0.094 N 
HETATM   19  C   UNL     1     -42.290 -52.923  14.681  1.00  0.00     0.273 C 
HETATM   20  C   UNL     1     -42.177 -54.446  14.780  1.00  0.00     0.030 C 
HETATM   21  C   UNL     1     -43.552 -55.101  14.864  1.00  0.00     0.004 C 
HETATM   22  C   UNL     1     -44.484 -54.584  13.771  1.00  0.00     0.035 C 
HETATM   23  C   UNL     1     -44.494 -53.047  13.730  1.00  0.00     0.219 C 
HETATM   24  C   UNL     1     -45.530 -52.530  12.729  1.00  0.00     0.043 C 
ENDBRANCH  17  18
ENDBRANCH  16  17
ENDBRANCH   4  16
TORSDOF 5
ENDMDL
MODEL 3
REMARK VINA RESULT:      -6.0      2.929      6.942
REMARK  5 active torsions:
REMARK  status: ('A' for Active; 'I' for Inactive)
REMARK    1  A    between atoms: O_2  and  C_3 
REMARK    2  A    between atoms: C_9  and  N_10 
REMARK       I    between atoms: N_10  and  C_11 
REMARK       I    between atoms: C_11  and  N_13 
REMARK    3  A    between atoms: N_13  and  C_14 
REMARK    4  A    between atoms: C_14  and  C_15 
REMARK    5  A    between atoms: C_15  and  N_16 
ROOT
HETATM    1  N   UNL     1     -43.497 -52.926  11.975  1.00  0.00    -0.305 N 
HETATM    2  C   UNL     1     -42.494 -52.080  12.402  1.00  0.00     0.320 C 
HETATM    3  O   UNL     1     -42.426 -51.564  13.513  1.00  0.00    -0.247 OA
HETATM    4  N   UNL     1     -41.529 -51.857  11.435  1.00  0.00    -0.341 N 
HETATM    5  H   UNL     1     -43.726 -52.909  10.990  1.00  0.00     0.171 HD
HETATM    6  H   UNL     1     -41.345 -52.659  10.850  1.00  0.00     0.164 HD
ENDROOT
BRANCH   1   7
HETATM    7  C   UNL     1     -44.491 -53.484  12.832  1.00  0.00     0.087 A 
HETATM    8  C   UNL     1     -45.729 -52.854  13.018  1.00  0.00     0.169 A 
HETATM    9  N   UNL     1     -46.719 -53.339  13.812  1.00  0.00    -0.345 N 
HETATM   10  C   UNL     1     -46.476 -54.495  14.461  1.00  0.00     0.090 A 
ATOM     11  HN  UNL     1     -47.608 -52.849  13.913  1.00  0.00     0.167 HD
HETATM   12  C   UNL     1     -45.293 -55.199  14.343  1.00  0.00     0.019 A 
HETATM   13  C   UNL     1     -44.298 -54.689  13.513  1.00  0.00     0.035 A 
BRANCH   8  14
HETATM   14  O   UNL     1     -45.957 -51.660  12.351  1.00  0.00    -0.339 OA
HETATM   15  C   UNL     1     -47.097 -51.743  11.490  1.00  0.00     0.211 C 
ENDBRANCH   8  14
ENDBRANCH   1   7
BRANCH   4  16
HETATM   16  C   UNL     1     -40.367 -51.063  11.843  1.00  0.00     0.154 C 
BRANCH  16  17
HETATM   17  C   UNL     1     -40.323 -49.624  11.277  1.00  0.00     0.292 C 
BRANCH  17  18
HETATM   18  N   UNL     1     -41.138 -48.656  12.052  1.00  0.00     0.094 N 
HETATM   19  C   UNL     1     -42.439 -48.357  11.415  1.00  0.00     0.273 C 
HETATM   20  C   UNL     1     -42.317 -47.517  10.141  1.00  0.00     0.030 C 
HETATM   21  C   UNL     1     -41.552 -46.223  10.399  1.00  0.00     0.004 C 
HETATM   22  C   UNL     1     -40.240 -46.488  11.135  1.00  0.00     0.035 C 
HETATM   23  C   UNL     1     -40.468 -47.372  12.373  1.00  0.00     0.219 C 
HETATM   24  C   UNL     1     -39.179 -47.522  13.186  1.00  0.00     0.043 C 
ENDBRANCH  17  18
ENDBRANCH  16  17
ENDBRANCH   4  16
TORSDOF 5
ENDMDL
MODEL 4
REMARK VINA RESULT:      -6.0      1.842      2.458
REMARK  5 active torsions:
REMARK  status: ('A' for Active; 'I' for Inactive)
REMARK    1  A    between atoms: O_2  and  C_3 
REMARK    2  A    between atoms: C_9  and  N_10 
REMARK       I    between atoms: N_10  and  C_11 
REMARK       I    between atoms: C_11  and  N_13 
REMARK    3  A    between atoms: N_13  and  C_14 
REMARK    4  A    between atoms: C_14  and  C_15 
REMARK    5  A    between atoms: C_15  and  N_16 
ROOT
HETATM    1  N   UNL     1     -41.135 -49.307  10.518  1.00  0.00    -0.305 N 
HETATM    2  C   UNL     1     -41.291 -50.118  11.624  1.00  0.00     0.320 C 
HETATM    3  O   UNL     1     -41.719 -49.756  12.715  1.00  0.00    -0.247 OA
HETATM    4  N   UNL     1     -40.913 -51.429  11.388  1.00  0.00    -0.341 N 
HETATM    5  H   UNL     1     -40.384 -49.537   9.880  1.00  0.00     0.171 HD
HETATM    6  H   UNL     1     -41.113 -51.750  10.452  1.00  0.00     0.164 HD
ENDROOT
BRANCH   1   7
HETATM    7  C   UNL     1     -41.641 -47.977  10.425  1.00  0.00     0.087 A 
HETATM    8  C   UNL     1     -40.899 -46.881  10.889  1.00  0.00     0.169 A 
HETATM    9  N   UNL     1     -41.321 -45.592  10.820  1.00  0.00    -0.345 N 
HETATM   10  C   UNL     1     -42.535 -45.371  10.277  1.00  0.00     0.090 A 
ATOM     11  HN  UNL     1     -40.745 -44.825  11.165  1.00  0.00     0.167 HD
HETATM   12  C   UNL     1     -43.344 -46.377   9.785  1.00  0.00     0.019 A 
HETATM   13  C   UNL     1     -42.884 -47.690   9.854  1.00  0.00     0.035 A 
BRANCH   8  14
HETATM   14  O   UNL     1     -39.658 -47.130  11.455  1.00  0.00    -0.339 OA
HETATM   15  C   UNL     1     -39.628 -46.777  12.841  1.00  0.00     0.211 C 
ENDBRANCH   8  14
ENDBRANCH   1   7
BRANCH   4  16
HETATM   16  C   UNL     1     -41.154 -52.383  12.473  1.00  0.00     0.154 C 
BRANCH  16  17
HETATM   17  C   UNL     1     -42.601 -52.925  12.564  1.00  0.00     0.292 C 
BRANCH  17  18
HETATM   18  N   UNL     1     -43.220 -52.740  13.900  1.00  0.00     0.094 N 
HETATM   19  C   UNL     1     -43.036 -53.910  14.786  1.00  0.00     0.273 C 
HETATM   20  C   UNL     1     -43.859 -55.131  14.368  1.00  0.00     0.030 C 
HETATM   21  C   UNL     1     -45.341 -54.789  14.254  1.00  0.00     0.004 C 
HETATM   22  C   UNL     1     -45.561 -53.533  13.414  1.00  0.00     0.035 C 
HETATM   23  C   UNL     1     -44.659 -52.381  13.890  1.00  0.00     0.219 C 
HETATM   24  C   UNL     1     -44.980 -51.086  13.140  1.00  0.00     0.043 C 
ENDBRANCH  17  18
ENDBRANCH  16  17
ENDBRANCH   4  16
TORSDOF 5
ENDMDL
MODEL 5
REMARK VINA RESULT:      -6.0      2.121      3.691
REMARK  5 active torsions:
REMARK  status: ('A' for Active; 'I' for Inactive)
REMARK    1  A    between atoms: O_2  and  C_3 
REMARK    2  A    between atoms: C_9  and  N_10 
REMARK       I    between atoms: N_10  and  C_11 
REMARK       I    between atoms: C_11  and  N_13 
REMARK    3  A    between atoms: N_13  and  C_14 
REMARK    4  A    between atoms: C_14  and  C_15 
REMARK    5  A    between atoms: C_15  and  N_16 
ROOT
HETATM    1  N   UNL     1     -41.862 -49.156  10.899  1.00  0.00    -0.305 N 
HETATM    2  C   UNL     1     -41.818 -49.906  12.057  1.00  0.00     0.320 C 
HETATM    3  O   UNL     1     -41.568 -49.469  13.176  1.00  0.00    -0.247 OA
HETATM    4  N   UNL     1     -42.092 -51.246  11.842  1.00  0.00    -0.341 N 
HETATM    5  H   UNL     1     -41.603 -49.620  10.038  1.00  0.00     0.171 HD
HETATM    6  H   UNL     1     -42.777 -51.411  11.120  1.00  0.00     0.164 HD
ENDROOT
BRANCH   1   7
HETATM    7  C   UNL     1     -41.828 -47.731  10.868  1.00  0.00     0.087 A 
HETATM    8  C   UNL     1     -43.003 -46.976  10.751  1.00  0.00     0.169 A 
HETATM    9  N   UNL     1     -43.036 -45.618  10.726  1.00  0.00    -0.345 N 
HETATM   10  C   UNL     1     -41.856 -44.972  10.812  1.00  0.00     0.090 A 
ATOM     11  HN  UNL     1     -43.917 -45.109  10.645  1.00  0.00     0.167 HD
HETATM   12  C   UNL     1     -40.642 -45.619  10.936  1.00  0.00     0.019 A 
HETATM   13  C   UNL     1     -40.634 -47.011  10.973  1.00  0.00     0.035 A 
BRANCH   8  14
HETATM   14  O   UNL     1     -44.206 -47.658  10.652  1.00  0.00    -0.339 OA
HETATM   15  C   UNL     1     -44.835 -47.442   9.385  1.00  0.00     0.211 C 
ENDBRANCH   8  14
ENDBRANCH   1   7
BRANCH   4  16
HETATM   16  C   UNL     1     -42.179 -52.093  13.034  1.00  0.00     0.154 C 
BRANCH  16  17
HETATM   17  C   UNL     1     -43.507 -51.989  13.820  1.00  0.00     0.292 C 
BRANCH  17  18
HETATM   18  N   UNL     1     -44.596 -52.826  13.258  1.00  0.00     0.094 N 
HETATM   19  C   UNL     1     -45.765 -52.033  12.821  1.00  0.00     0.273 C 
HETATM   20  C   UNL     1     -46.570 -51.439  13.980  1.00  0.00     0.030 C 
HETATM   21  C   UNL     1     -47.008 -52.519  14.963  1.00  0.00     0.004 C 
HETATM   22  C   UNL     1     -45.838 -53.412  15.370  1.00  0.00     0.035 C 
HETATM   23  C   UNL     1     -45.074 -53.922  14.136  1.00  0.00     0.219 C 
HETATM   24  C   UNL     1     -43.990 -54.926  14.536  1.00  0.00     0.043 C 
ENDBRANCH  17  18
ENDBRANCH  16  17
ENDBRANCH   4  16
TORSDOF 5
ENDMDL
MODEL 6
REMARK VINA RESULT:      -5.9      4.678      6.766
REMARK  5 active torsions:
REMARK  status: ('A' for Active; 'I' for Inactive)
REMARK    1  A    between atoms: O_2  and  C_3 
REMARK    2  A    between atoms: C_9  and  N_10 
REMARK       I    between atoms: N_10  and  C_11 
REMARK       I    between atoms: C_11  and  N_13 
REMARK    3  A    between atoms: N_13  and  C_14 
REMARK    4  A    between atoms: C_14  and  C_15 
REMARK    5  A    between atoms: C_15  and  N_16 
ROOT
HETATM    1  N   UNL     1     -44.320 -52.205  12.471  1.00  0.00    -0.305 N 
HETATM    2  C   UNL     1     -42.980 -52.207  12.801  1.00  0.00     0.320 C 
HETATM    3  O   UNL     1     -42.530 -52.138  13.940  1.00  0.00    -0.247 OA
HETATM    4  N   UNL     1     -42.153 -52.302  11.695  1.00  0.00    -0.341 N 
HETATM    5  H   UNL     1     -44.575 -51.797  11.580  1.00  0.00     0.171 HD
HETATM    6  H   UNL     1     -42.526 -52.876  10.954  1.00  0.00     0.164 HD
ENDROOT
BRANCH   1   7
HETATM    7  C   UNL     1     -45.377 -52.329  13.420  1.00  0.00     0.087 A 
HETATM    8  C   UNL     1     -45.881 -53.583  13.790  1.00  0.00     0.169 A 
HETATM    9  N   UNL     1     -46.878 -53.768  14.693  1.00  0.00    -0.345 N 
HETATM   10  C   UNL     1     -47.411 -52.664  15.255  1.00  0.00     0.090 A 
ATOM     11  HN  UNL     1     -47.210 -54.701  14.937  1.00  0.00     0.167 HD
HETATM   12  C   UNL     1     -46.984 -51.382  14.967  1.00  0.00     0.019 A 
HETATM   13  C   UNL     1     -45.951 -51.219  14.047  1.00  0.00     0.035 A 
BRANCH   8  14
HETATM   14  O   UNL     1     -45.328 -54.706  13.193  1.00  0.00    -0.339 OA
HETATM   15  C   UNL     1     -44.452 -55.402  14.084  1.00  0.00     0.211 C 
ENDBRANCH   8  14
ENDBRANCH   1   7
BRANCH   4  16
HETATM   16  C   UNL     1     -40.718 -52.426  11.962  1.00  0.00     0.154 C 
BRANCH  16  17
HETATM   17  C   UNL     1     -39.962 -51.087  12.137  1.00  0.00     0.292 C 
BRANCH  17  18
HETATM   18  N   UNL     1     -38.660 -51.228  12.833  1.00  0.00     0.094 N 
HETATM   19  C   UNL     1     -38.804 -51.409  14.294  1.00  0.00     0.273 C 
HETATM   20  C   UNL     1     -39.268 -50.147  15.024  1.00  0.00     0.030 C 
HETATM   21  C   UNL     1     -38.348 -48.966  14.732  1.00  0.00     0.004 C 
HETATM   22  C   UNL     1     -38.108 -48.803  13.232  1.00  0.00     0.035 C 
HETATM   23  C   UNL     1     -37.686 -50.135  12.590  1.00  0.00     0.219 C 
HETATM   24  C   UNL     1     -37.313 -49.942  11.118  1.00  0.00     0.043 C 
ENDBRANCH  17  18
ENDBRANCH  16  17
ENDBRANCH   4  16
TORSDOF 5
ENDMDL
MODEL 7
REMARK VINA RESULT:      -5.8      2.253      7.287
REMARK  5 active torsions:
REMARK  status: ('A' for Active; 'I' for Inactive)
REMARK    1  A    between atoms: O_2  and  C_3 
REMARK    2  A    between atoms: C_9  and  N_10 
REMARK       I    between atoms: N_10  and  C_11 
REMARK       I    between atoms: C_11  and  N_13 
REMARK    3  A    between atoms: N_13  and  C_14 
REMARK    4  A    between atoms: C_14  and  C_15 
REMARK    5  A    between atoms: C_15  and  N_16 
ROOT
HETATM    1  N   UNL     1     -42.361 -52.593  11.813  1.00  0.00    -0.305 N 
HETATM    2  C   UNL     1     -41.815 -51.375  12.167  1.00  0.00     0.320 C 
HETATM    3  O   UNL     1     -42.110 -50.729  13.167  1.00  0.00    -0.247 OA
HETATM    4  N   UNL     1     -40.866 -50.927  11.264  1.00  0.00    -0.341 N 
HETATM    5  H   UNL     1     -42.429 -52.798  10.824  1.00  0.00     0.171 HD
HETATM    6  H   UNL     1     -40.314 -51.665  10.852  1.00  0.00     0.164 HD
ENDROOT
BRANCH   1   7
HETATM    7  C   UNL     1     -43.197 -53.371  12.666  1.00  0.00     0.087 A 
HETATM    8  C   UNL     1     -42.654 -54.205  13.654  1.00  0.00     0.169 A 
HETATM    9  N   UNL     1     -43.396 -54.963  14.503  1.00  0.00    -0.345 N 
HETATM   10  C   UNL     1     -44.736 -54.904  14.367  1.00  0.00     0.090 A 
ATOM     11  HN  UNL     1     -42.958 -55.551  15.211  1.00  0.00     0.167 HD
HETATM   12  C   UNL     1     -45.373 -54.112  13.432  1.00  0.00     0.019 A 
HETATM   13  C   UNL     1     -44.591 -53.333  12.582  1.00  0.00     0.035 A 
BRANCH   8  14
HETATM   14  O   UNL     1     -41.274 -54.261  13.770  1.00  0.00    -0.339 OA
HETATM   15  C   UNL     1     -40.827 -53.742  15.027  1.00  0.00     0.211 C 
ENDBRANCH   8  14
ENDBRANCH   1   7
BRANCH   4  16
HETATM   16  C   UNL     1     -40.154 -49.698  11.622  1.00  0.00     0.154 C 
BRANCH  16  17
HETATM   17  C   UNL     1     -40.647 -48.419  10.903  1.00  0.00     0.292 C 
BRANCH  17  18
HETATM   18  N   UNL     1     -41.652 -47.652  11.680  1.00  0.00     0.094 N 
HETATM   19  C   UNL     1     -43.038 -47.895  11.226  1.00  0.00     0.273 C 
HETATM   20  C   UNL     1     -43.352 -47.279   9.860  1.00  0.00     0.030 C 
HETATM   21  C   UNL     1     -43.049 -45.784   9.842  1.00  0.00     0.004 C 
HETATM   22  C   UNL     1     -41.653 -45.491  10.387  1.00  0.00     0.035 C 
HETATM   23  C   UNL     1     -41.427 -46.187  11.740  1.00  0.00     0.219 C 
HETATM   24  C   UNL     1     -40.084 -45.781  12.350  1.00  0.00     0.043 C 
ENDBRANCH  17  18
ENDBRANCH  16  17
ENDBRANCH   4  16
TORSDOF 5
ENDMDL
MODEL 8
REMARK VINA RESULT:      -5.8      2.710      5.045
REMARK  5 active torsions:
REMARK  status: ('A' for Active; 'I' for Inactive)
REMARK    1  A    between atoms: O_2  and  C_3 
REMARK    2  A    between atoms: C_9  and  N_10 
REMARK       I    between atoms: N_10  and  C_11 
REMARK       I    between atoms: C_11  and  N_13 
REMARK    3  A    between atoms: N_13  and  C_14 
REMARK    4  A    between atoms: C_14  and  C_15 
REMARK    5  A    between atoms: C_15  and  N_16 
ROOT
HETATM    1  N   UNL     1     -41.188 -51.454  11.406  1.00  0.00    -0.305 N 
HETATM    2  C   UNL     1     -41.641 -52.358  12.346  1.00  0.00     0.320 C 
HETATM    3  O   UNL     1     -41.123 -52.563  13.439  1.00  0.00    -0.247 OA
HETATM    4  N   UNL     1     -42.776 -53.037  11.938  1.00  0.00    -0.341 N 
HETATM    5  H   UNL     1     -41.351 -51.681  10.433  1.00  0.00     0.171 HD
HETATM    6  H   UNL     1     -43.406 -52.481  11.378  1.00  0.00     0.164 HD
ENDROOT
BRANCH   1   7
HETATM    7  C   UNL     1     -40.174 -50.484  11.654  1.00  0.00     0.087 A 
HETATM    8  C   UNL     1     -40.375 -49.128  11.359  1.00  0.00     0.169 A 
HETATM    9  N   UNL     1     -39.453 -48.156  11.580  1.00  0.00    -0.345 N 
HETATM   10  C   UNL     1     -38.273 -48.536  12.110  1.00  0.00     0.090 A 
ATOM     11  HN  UNL     1     -39.645 -47.179  11.355  1.00  0.00     0.167 HD
HETATM   12  C   UNL     1     -37.975 -49.843  12.444  1.00  0.00     0.019 A 
HETATM   13  C   UNL     1     -38.941 -50.820  12.219  1.00  0.00     0.035 A 
BRANCH   8  14
HETATM   14  O   UNL     1     -41.590 -48.758  10.803  1.00  0.00    -0.339 OA
HETATM   15  C   UNL     1     -41.666 -47.345  10.588  1.00  0.00     0.211 C 
ENDBRANCH   8  14
ENDBRANCH   1   7
BRANCH   4  16
HETATM   16  C   UNL     1     -43.390 -53.932  12.922  1.00  0.00     0.154 C 
BRANCH  16  17
HETATM   17  C   UNL     1     -44.677 -53.392  13.590  1.00  0.00     0.292 C 
BRANCH  17  18
HETATM   18  N   UNL     1     -44.733 -51.911  13.656  1.00  0.00     0.094 N 
HETATM   19  C   UNL     1     -44.112 -51.364  14.882  1.00  0.00     0.273 C 
HETATM   20  C   UNL     1     -44.922 -51.636  16.152  1.00  0.00     0.030 C 
HETATM   21  C   UNL     1     -46.353 -51.126  16.018  1.00  0.00     0.004 C 
HETATM   22  C   UNL     1     -46.997 -51.602  14.717  1.00  0.00     0.035 C 
HETATM   23  C   UNL     1     -46.085 -51.318  13.511  1.00  0.00     0.219 C 
HETATM   24  C   UNL     1     -46.788 -51.669  12.197  1.00  0.00     0.043 C 
ENDBRANCH  17  18
ENDBRANCH  16  17
ENDBRANCH   4  16
TORSDOF 5
ENDMDL
MODEL 9
REMARK VINA RESULT:      -5.7      3.760      6.760
REMARK  5 active torsions:
REMARK  status: ('A' for Active; 'I' for Inactive)
REMARK    1  A    between atoms: O_2  and  C_3 
REMARK    2  A    between atoms: C_9  and  N_10 
REMARK       I    between atoms: N_10  and  C_11 
REMARK       I    between atoms: C_11  and  N_13 
REMARK    3  A    between atoms: N_13  and  C_14 
REMARK    4  A    between atoms: C_14  and  C_15 
REMARK    5  A    between atoms: C_15  and  N_16 
ROOT
HETATM    1  N   UNL     1     -42.938 -52.580  12.046  1.00  0.00    -0.305 N 
HETATM    2  C   UNL     1     -42.472 -51.332  12.405  1.00  0.00     0.320 C 
HETATM    3  O   UNL     1     -42.786 -50.723  13.424  1.00  0.00    -0.247 OA
HETATM    4  N   UNL     1     -41.582 -50.803  11.486  1.00  0.00    -0.341 N 
HETATM    5  H   UNL     1     -43.018 -52.775  11.056  1.00  0.00     0.171 HD
HETATM    6  H   UNL     1     -40.990 -51.492  11.047  1.00  0.00     0.164 HD
ENDROOT
BRANCH   1   7
HETATM    7  C   UNL     1     -43.692 -53.430  12.907  1.00  0.00     0.087 A 
HETATM    8  C   UNL     1     -45.090 -53.489  12.831  1.00  0.00     0.169 A 
HETATM    9  N   UNL     1     -45.863 -54.284  13.616  1.00  0.00    -0.345 N 
HETATM   10  C   UNL     1     -45.230 -55.053  14.525  1.00  0.00     0.090 A 
ATOM     11  HN  UNL     1     -46.878 -54.298  13.522  1.00  0.00     0.167 HD
HETATM   12  C   UNL     1     -43.857 -55.076  14.678  1.00  0.00     0.019 A 
HETATM   13  C   UNL     1     -43.085 -54.262  13.853  1.00  0.00     0.035 A 
BRANCH   8  14
HETATM   14  O   UNL     1     -45.724 -52.682  11.898  1.00  0.00    -0.339 OA
HETATM   15  C   UNL     1     -46.518 -51.671  12.526  1.00  0.00     0.211 C 
ENDBRANCH   8  14
ENDBRANCH   1   7
BRANCH   4  16
HETATM   16  C   UNL     1     -40.952 -49.530  11.846  1.00  0.00     0.154 C 
BRANCH  16  17
HETATM   17  C   UNL     1     -39.600 -49.653  12.589  1.00  0.00     0.292 C 
BRANCH  17  18
HETATM   18  N   UNL     1     -39.700 -49.403  14.048  1.00  0.00     0.094 N 
HETATM   19  C   UNL     1     -39.503 -47.981  14.403  1.00  0.00     0.273 C 
HETATM   20  C   UNL     1     -38.059 -47.502  14.233  1.00  0.00     0.030 C 
HETATM   21  C   UNL     1     -37.087 -48.378  15.018  1.00  0.00     0.004 C 
HETATM   22  C   UNL     1     -37.322 -49.861  14.739  1.00  0.00     0.035 C 
HETATM   23  C   UNL     1     -38.807 -50.227  14.898  1.00  0.00     0.219 C 
HETATM   24  C   UNL     1     -39.020 -51.736  14.755  1.00  0.00     0.043 C 
ENDBRANCH  17  18
ENDBRANCH  16  17
ENDBRANCH   4  16
TORSDOF 5
ENDMDL
