MODEL 1
REMARK VINA RESULT:      -6.0      0.000      0.000
REMARK  3 active torsions:
REMARK  status: ('A' for Active; 'I' for Inactive)
REMARK    1  A    between atoms: C_4  and  N_5 
REMARK       I    between atoms: N_5  and  C_6 
REMARK       I    between atoms: C_6  and  N_8 
REMARK    2  A    between atoms: N_8  and  C_9 
REMARK    3  A    between atoms: C_9  and  C_10 
ROOT
HETATM    1  N   UNL     1     -41.799 -47.060  10.160  1.00  0.00    -0.293 N 
HETATM    2  C   UNL     1     -40.945 -47.865  10.863  1.00  0.00     0.321 C 
HETATM    3  O   UNL     1     -39.928 -47.388  11.363  1.00  0.00    -0.247 OA
HETATM    4  N   UNL     1     -41.243 -49.188  10.890  1.00  0.00    -0.340 N 
HETATM    5  H   UNL     1     -41.480 -46.109  10.056  1.00  0.00     0.172 HD
HETATM    6  H   UNL     1     -42.225 -49.421  10.762  1.00  0.00     0.164 HD
ENDROOT
BRANCH   1   7
HETATM    7  C   UNL     1     -42.945 -47.444   9.491  1.00  0.00     0.132 A 
HETATM    8  C   UNL     1     -44.252 -47.392  10.030  1.00  0.00     0.084 A 
HETATM    9  C   UNL     1     -45.066 -47.786   8.994  1.00  0.00     0.076 A 
HETATM   10  C   UNL     1     -46.518 -47.894   8.791  1.00  0.00     0.079 C 
HETATM   11  O   UNL     1     -44.297 -48.117   7.927  1.00  0.00    -0.241 OA
HETATM   12  N   UNL     1     -42.974 -47.902   8.234  1.00  0.00    -0.245 N 
ATOM     13  HN  UNL     1     -42.173 -48.060   7.623  1.00  0.00     0.196 HD
ENDBRANCH   1   7
BRANCH   4  14
HETATM   14  C   UNL     1     -40.425 -50.192  11.536  1.00  0.00     0.156 C 
BRANCH  14  15
HETATM   15  C   UNL     1     -41.207 -51.486  11.781  1.00  0.00     0.139 C 
HETATM   16  C   UNL     1     -42.262 -51.417  12.880  1.00  0.00     0.035 C 
HETATM   17  C   UNL     1     -42.234 -52.790  13.523  1.00  0.00     0.029 C 
HETATM   18  C   UNL     1     -41.123 -53.535  12.815  1.00  0.00     0.168 C 
HETATM   19  O   UNL     1     -40.314 -52.542  12.180  1.00  0.00    -0.384 OA
ENDBRANCH  14  15
ENDBRANCH   4  14
TORSDOF 3
ENDMDL
MODEL 2
REMARK VINA RESULT:      -5.9      1.410      1.704
REMARK  3 active torsions:
REMARK  status: ('A' for Active; 'I' for Inactive)
REMARK    1  A    between atoms: C_4  and  N_5 
REMARK       I    between atoms: N_5  and  C_6 
REMARK       I    between atoms: C_6  and  N_8 
REMARK    2  A    between atoms: N_8  and  C_9 
REMARK    3  A    between atoms: C_9  and  C_10 
ROOT
HETATM    1  N   UNL     1     -41.531 -47.777  10.179  1.00  0.00    -0.293 N 
HETATM    2  C   UNL     1     -41.065 -48.692  11.084  1.00  0.00     0.321 C 
HETATM    3  O   UNL     1     -39.909 -48.613  11.494  1.00  0.00    -0.247 OA
HETATM    4  N   UNL     1     -41.909 -49.702  11.413  1.00  0.00    -0.340 N 
HETATM    5  H   UNL     1     -40.837 -47.117   9.864  1.00  0.00     0.172 HD
HETATM    6  H   UNL     1     -42.901 -49.499  11.308  1.00  0.00     0.164 HD
ENDROOT
BRANCH   1   7
HETATM    7  C   UNL     1     -42.774 -47.758   9.579  1.00  0.00     0.132 A 
HETATM    8  C   UNL     1     -43.968 -47.323  10.204  1.00  0.00     0.084 A 
HETATM    9  C   UNL     1     -44.920 -47.401   9.215  1.00  0.00     0.076 A 
HETATM   10  C   UNL     1     -46.342 -47.043   9.107  1.00  0.00     0.079 C 
HETATM   11  O   UNL     1     -44.354 -47.911   8.093  1.00  0.00    -0.241 OA
HETATM   12  N   UNL     1     -43.016 -48.131   8.317  1.00  0.00    -0.245 N 
ATOM     13  HN  UNL     1     -42.340 -48.506   7.651  1.00  0.00     0.196 HD
ENDBRANCH   1   7
BRANCH   4  14
HETATM   14  C   UNL     1     -41.568 -50.786  12.309  1.00  0.00     0.156 C 
BRANCH  14  15
HETATM   15  C   UNL     1     -42.815 -51.408  12.945  1.00  0.00     0.139 C 
HETATM   16  C   UNL     1     -43.917 -50.425  13.325  1.00  0.00     0.035 C 
HETATM   17  C   UNL     1     -44.518 -50.997  14.594  1.00  0.00     0.029 C 
HETATM   18  C   UNL     1     -43.685 -52.221  14.908  1.00  0.00     0.168 C 
HETATM   19  O   UNL     1     -42.469 -52.081  14.169  1.00  0.00    -0.384 OA
ENDBRANCH  14  15
ENDBRANCH   4  14
TORSDOF 3
ENDMDL
MODEL 3
REMARK VINA RESULT:      -5.9      3.284      5.555
REMARK  3 active torsions:
REMARK  status: ('A' for Active; 'I' for Inactive)
REMARK    1  A    between atoms: C_4  and  N_5 
REMARK       I    between atoms: N_5  and  C_6 
REMARK       I    between atoms: C_6  and  N_8 
REMARK    2  A    between atoms: N_8  and  C_9 
REMARK    3  A    between atoms: C_9  and  C_10 
ROOT
HETATM    1  N   UNL     1     -41.527 -47.935  10.493  1.00  0.00    -0.293 N 
HETATM    2  C   UNL     1     -40.623 -46.944  10.767  1.00  0.00     0.321 C 
HETATM    3  O   UNL     1     -39.641 -47.189  11.465  1.00  0.00    -0.247 OA
HETATM    4  N   UNL     1     -40.926 -45.704  10.308  1.00  0.00    -0.340 N 
HETATM    5  H   UNL     1     -41.334 -48.810  10.955  1.00  0.00     0.172 HD
HETATM    6  H   UNL     1     -41.534 -45.673   9.492  1.00  0.00     0.164 HD
ENDROOT
BRANCH   1   7
HETATM    7  C   UNL     1     -42.704 -47.815   9.781  1.00  0.00     0.132 A 
HETATM    8  C   UNL     1     -43.962 -47.496  10.345  1.00  0.00     0.084 A 
HETATM    9  C   UNL     1     -44.808 -47.404   9.266  1.00  0.00     0.076 A 
HETATM   10  C   UNL     1     -46.219 -47.034   9.074  1.00  0.00     0.079 C 
HETATM   11  O   UNL     1     -44.122 -47.711   8.137  1.00  0.00    -0.241 OA
HETATM   12  N   UNL     1     -42.810 -47.965   8.455  1.00  0.00    -0.245 N 
ATOM     13  HN  UNL     1     -42.063 -48.218   7.808  1.00  0.00     0.196 HD
ENDBRANCH   1   7
BRANCH   4  14
HETATM   14  C   UNL     1     -40.117 -44.528  10.549  1.00  0.00     0.156 C 
BRANCH  14  15
HETATM   15  C   UNL     1     -40.919 -43.422  11.241  1.00  0.00     0.139 C 
HETATM   16  C   UNL     1     -41.419 -43.754  12.643  1.00  0.00     0.035 C 
HETATM   17  C   UNL     1     -42.765 -43.063  12.741  1.00  0.00     0.029 C 
HETATM   18  C   UNL     1     -42.993 -42.446  11.378  1.00  0.00     0.168 C 
HETATM   19  O   UNL     1     -42.101 -43.112  10.481  1.00  0.00    -0.384 OA
ENDBRANCH  14  15
ENDBRANCH   4  14
TORSDOF 3
ENDMDL
MODEL 4
REMARK VINA RESULT:      -5.7      4.221      6.605
REMARK  3 active torsions:
REMARK  status: ('A' for Active; 'I' for Inactive)
REMARK    1  A    between atoms: C_4  and  N_5 
REMARK       I    between atoms: N_5  and  C_6 
REMARK       I    between atoms: C_6  and  N_8 
REMARK    2  A    between atoms: N_8  and  C_9 
REMARK    3  A    between atoms: C_9  and  C_10 
ROOT
HETATM    1  N   UNL     1     -42.882 -53.804  12.556  1.00  0.00    -0.293 N 
HETATM    2  C   UNL     1     -44.240 -53.655  12.633  1.00  0.00     0.321 C 
HETATM    3  O   UNL     1     -44.965 -54.648  12.638  1.00  0.00    -0.247 OA
HETATM    4  N   UNL     1     -44.712 -52.383  12.613  1.00  0.00    -0.340 N 
HETATM    5  H   UNL     1     -42.576 -54.759  12.446  1.00  0.00     0.172 HD
HETATM    6  H   UNL     1     -44.068 -51.669  12.947  1.00  0.00     0.164 HD
ENDROOT
BRANCH   1   7
HETATM    7  C   UNL     1     -41.937 -52.800  12.481  1.00  0.00     0.132 A 
HETATM    8  C   UNL     1     -41.385 -52.124  13.595  1.00  0.00     0.084 A 
HETATM    9  C   UNL     1     -40.442 -51.283  13.053  1.00  0.00     0.076 A 
HETATM   10  C   UNL     1     -39.438 -50.353  13.594  1.00  0.00     0.079 C 
HETATM   11  O   UNL     1     -40.472 -51.395  11.702  1.00  0.00    -0.241 OA
HETATM   12  N   UNL     1     -41.401 -52.343  11.344  1.00  0.00    -0.245 N 
ATOM     13  HN  UNL     1     -41.635 -52.639  10.396  1.00  0.00     0.196 HD
ENDBRANCH   1   7
BRANCH   4  14
HETATM   14  C   UNL     1     -46.117 -52.037  12.630  1.00  0.00     0.156 C 
BRANCH  14  15
HETATM   15  C   UNL     1     -46.542 -51.468  13.987  1.00  0.00     0.139 C 
HETATM   16  C   UNL     1     -45.410 -50.935  14.858  1.00  0.00     0.035 C 
HETATM   17  C   UNL     1     -45.830 -51.268  16.276  1.00  0.00     0.029 C 
HETATM   18  C   UNL     1     -47.128 -52.034  16.134  1.00  0.00     0.168 C 
HETATM   19  O   UNL     1     -47.183 -52.485  14.778  1.00  0.00    -0.384 OA
ENDBRANCH  14  15
ENDBRANCH   4  14
TORSDOF 3
ENDMDL
MODEL 5
REMARK VINA RESULT:      -5.7      2.749      5.328
REMARK  3 active torsions:
REMARK  status: ('A' for Active; 'I' for Inactive)
REMARK    1  A    between atoms: C_4  and  N_5 
REMARK       I    between atoms: N_5  and  C_6 
REMARK       I    between atoms: C_6  and  N_8 
REMARK    2  A    between atoms: N_8  and  C_9 
REMARK    3  A    between atoms: C_9  and  C_10 
ROOT
HETATM    1  N   UNL     1     -41.788 -52.864  12.869  1.00  0.00    -0.293 N 
HETATM    2  C   UNL     1     -40.884 -51.989  12.331  1.00  0.00     0.321 C 
HETATM    3  O   UNL     1     -39.680 -52.170  12.501  1.00  0.00    -0.247 OA
HETATM    4  N   UNL     1     -41.396 -50.901  11.700  1.00  0.00    -0.340 N 
HETATM    5  H   UNL     1     -41.375 -53.588  13.436  1.00  0.00     0.172 HD
HETATM    6  H   UNL     1     -42.334 -51.013  11.322  1.00  0.00     0.164 HD
ENDROOT
BRANCH   1   7
HETATM    7  C   UNL     1     -43.165 -52.774  12.822  1.00  0.00     0.132 A 
HETATM    8  C   UNL     1     -43.957 -52.015  13.717  1.00  0.00     0.084 A 
HETATM    9  C   UNL     1     -45.239 -52.154  13.241  1.00  0.00     0.076 A 
HETATM   10  C   UNL     1     -46.552 -51.597  13.602  1.00  0.00     0.079 C 
HETATM   11  O   UNL     1     -45.229 -52.991  12.175  1.00  0.00    -0.241 OA
HETATM   12  N   UNL     1     -43.936 -53.377  11.910  1.00  0.00    -0.245 N 
ATOM     13  HN  UNL     1     -43.626 -54.000  11.164  1.00  0.00     0.196 HD
ENDBRANCH   1   7
BRANCH   4  14
HETATM   14  C   UNL     1     -40.593 -49.846  11.121  1.00  0.00     0.156 C 
BRANCH  14  15
HETATM   15  C   UNL     1     -41.341 -48.509  11.108  1.00  0.00     0.139 C 
HETATM   16  C   UNL     1     -42.532 -48.415  12.056  1.00  0.00     0.035 C 
HETATM   17  C   UNL     1     -43.539 -47.555  11.318  1.00  0.00     0.029 C 
HETATM   18  C   UNL     1     -42.906 -47.272   9.973  1.00  0.00     0.168 C 
HETATM   19  O   UNL     1     -41.877 -48.249   9.799  1.00  0.00    -0.384 OA
ENDBRANCH  14  15
ENDBRANCH   4  14
TORSDOF 3
ENDMDL
MODEL 6
REMARK VINA RESULT:      -5.6      4.753      7.179
REMARK  3 active torsions:
REMARK  status: ('A' for Active; 'I' for Inactive)
REMARK    1  A    between atoms: C_4  and  N_5 
REMARK       I    between atoms: N_5  and  C_6 
REMARK       I    between atoms: C_6  and  N_8 
REMARK    2  A    between atoms: N_8  and  C_9 
REMARK    3  A    between atoms: C_9  and  C_10 
ROOT
HETATM    1  N   UNL     1     -41.942 -54.505  14.553  1.00  0.00    -0.293 N 
HETATM    2  C   UNL     1     -43.215 -54.954  14.781  1.00  0.00     0.321 C 
HETATM    3  O   UNL     1     -43.431 -55.739  15.702  1.00  0.00    -0.247 OA
HETATM    4  N   UNL     1     -44.165 -54.556  13.897  1.00  0.00    -0.340 N 
HETATM    5  H   UNL     1     -41.244 -54.920  15.150  1.00  0.00     0.172 HD
HETATM    6  H   UNL     1     -43.977 -53.681  13.413  1.00  0.00     0.164 HD
ENDROOT
BRANCH   1   7
HETATM    7  C   UNL     1     -41.522 -53.674  13.533  1.00  0.00     0.132 A 
HETATM    8  C   UNL     1     -41.611 -52.262  13.552  1.00  0.00     0.084 A 
HETATM    9  C   UNL     1     -41.006 -51.865  12.383  1.00  0.00     0.076 A 
HETATM   10  C   UNL     1     -40.661 -50.571  11.774  1.00  0.00     0.079 C 
HETATM   11  O   UNL     1     -40.638 -52.963  11.679  1.00  0.00    -0.241 OA
HETATM   12  N   UNL     1     -40.957 -54.092  12.394  1.00  0.00    -0.245 N 
ATOM     13  HN  UNL     1     -40.794 -55.059  12.113  1.00  0.00     0.196 HD
ENDBRANCH   1   7
BRANCH   4  14
HETATM   14  C   UNL     1     -45.549 -54.975  13.949  1.00  0.00     0.156 C 
BRANCH  14  15
HETATM   15  C   UNL     1     -46.477 -53.815  14.323  1.00  0.00     0.139 C 
HETATM   16  C   UNL     1     -46.279 -52.533  13.522  1.00  0.00     0.035 C 
HETATM   17  C   UNL     1     -46.547 -51.418  14.514  1.00  0.00     0.029 C 
HETATM   18  C   UNL     1     -46.805 -52.116  15.832  1.00  0.00     0.168 C 
HETATM   19  O   UNL     1     -46.278 -53.438  15.698  1.00  0.00    -0.384 OA
ENDBRANCH  14  15
ENDBRANCH   4  14
TORSDOF 3
ENDMDL
MODEL 7
REMARK VINA RESULT:      -5.6      2.952      4.809
REMARK  3 active torsions:
REMARK  status: ('A' for Active; 'I' for Inactive)
REMARK    1  A    between atoms: C_4  and  N_5 
REMARK       I    between atoms: N_5  and  C_6 
REMARK       I    between atoms: C_6  and  N_8 
REMARK    2  A    between atoms: N_8  and  C_9 
REMARK    3  A    between atoms: C_9  and  C_10 
ROOT
HETATM    1  N   UNL     1     -40.677 -51.886  12.029  1.00  0.00    -0.293 N 
HETATM    2  C   UNL     1     -41.535 -52.913  12.316  1.00  0.00     0.321 C 
HETATM    3  O   UNL     1     -41.088 -54.012  12.636  1.00  0.00    -0.247 OA
HETATM    4  N   UNL     1     -42.858 -52.665  12.139  1.00  0.00    -0.340 N 
HETATM    5  H   UNL     1     -39.702 -52.144  12.049  1.00  0.00     0.172 HD
HETATM    6  H   UNL     1     -43.136 -51.689  12.213  1.00  0.00     0.164 HD
ENDROOT
BRANCH   1   7
HETATM    7  C   UNL     1     -41.011 -50.617  11.600  1.00  0.00     0.132 A 
HETATM    8  C   UNL     1     -41.849 -49.719  12.303  1.00  0.00     0.084 A 
HETATM    9  C   UNL     1     -41.829 -48.569  11.550  1.00  0.00     0.076 A 
HETATM   10  C   UNL     1     -42.387 -47.216  11.696  1.00  0.00     0.079 C 
HETATM   11  O   UNL     1     -41.085 -48.781  10.437  1.00  0.00    -0.241 OA
HETATM   12  N   UNL     1     -40.572 -50.056  10.467  1.00  0.00    -0.245 N 
ATOM     13  HN  UNL     1     -39.974 -50.490   9.763  1.00  0.00     0.196 HD
ENDBRANCH   1   7
BRANCH   4  14
HETATM   14  C   UNL     1     -43.902 -53.646  12.340  1.00  0.00     0.156 C 
BRANCH  14  15
HETATM   15  C   UNL     1     -45.227 -52.989  12.738  1.00  0.00     0.139 C 
HETATM   16  C   UNL     1     -45.119 -51.558  13.255  1.00  0.00     0.035 C 
HETATM   17  C   UNL     1     -46.192 -51.457  14.322  1.00  0.00     0.029 C 
HETATM   18  C   UNL     1     -46.794 -52.842  14.409  1.00  0.00     0.168 C 
HETATM   19  O   UNL     1     -45.853 -53.730  13.801  1.00  0.00    -0.384 OA
ENDBRANCH  14  15
ENDBRANCH   4  14
TORSDOF 3
ENDMDL
MODEL 8
REMARK VINA RESULT:      -5.4      2.803      4.525
REMARK  3 active torsions:
REMARK  status: ('A' for Active; 'I' for Inactive)
REMARK    1  A    between atoms: C_4  and  N_5 
REMARK       I    between atoms: N_5  and  C_6 
REMARK       I    between atoms: C_6  and  N_8 
REMARK    2  A    between atoms: N_8  and  C_9 
REMARK    3  A    between atoms: C_9  and  C_10 
ROOT
HETATM    1  N   UNL     1     -40.676 -50.615  11.146  1.00  0.00    -0.293 N 
HETATM    2  C   UNL     1     -41.347 -51.415  12.031  1.00  0.00     0.321 C 
HETATM    3  O   UNL     1     -41.212 -52.635  11.977  1.00  0.00    -0.247 OA
HETATM    4  N   UNL     1     -42.207 -50.793  12.877  1.00  0.00    -0.340 N 
HETATM    5  H   UNL     1     -40.146 -51.120  10.453  1.00  0.00     0.172 HD
HETATM    6  H   UNL     1     -41.999 -49.818  13.078  1.00  0.00     0.164 HD
ENDROOT
BRANCH   1   7
HETATM    7  C   UNL     1     -40.762 -49.241  11.034  1.00  0.00     0.132 A 
HETATM    8  C   UNL     1     -39.991 -48.319  11.780  1.00  0.00     0.084 A 
HETATM    9  C   UNL     1     -40.351 -47.089  11.281  1.00  0.00     0.076 A 
HETATM   10  C   UNL     1     -39.914 -45.703  11.509  1.00  0.00     0.079 C 
HETATM   11  O   UNL     1     -41.319 -47.255  10.346  1.00  0.00    -0.241 OA
HETATM   12  N   UNL     1     -41.575 -48.596  10.188  1.00  0.00    -0.245 N 
ATOM     13  HN  UNL     1     -42.252 -49.017   9.552  1.00  0.00     0.196 HD
ENDBRANCH   1   7
BRANCH   4  14
HETATM   14  C   UNL     1     -43.039 -51.482  13.840  1.00  0.00     0.156 C 
BRANCH  14  15
HETATM   15  C   UNL     1     -44.504 -51.048  13.735  1.00  0.00     0.139 C 
HETATM   16  C   UNL     1     -45.296 -51.091  15.037  1.00  0.00     0.035 C 
HETATM   17  C   UNL     1     -46.694 -51.504  14.620  1.00  0.00     0.029 C 
HETATM   18  C   UNL     1     -46.605 -51.747  13.129  1.00  0.00     0.168 C 
HETATM   19  O   UNL     1     -45.217 -51.909  12.829  1.00  0.00    -0.384 OA
ENDBRANCH  14  15
ENDBRANCH   4  14
TORSDOF 3
ENDMDL
MODEL 9
REMARK VINA RESULT:      -5.4      2.883      4.078
REMARK  3 active torsions:
REMARK  status: ('A' for Active; 'I' for Inactive)
REMARK    1  A    between atoms: C_4  and  N_5 
REMARK       I    between atoms: N_5  and  C_6 
REMARK       I    between atoms: C_6  and  N_8 
REMARK    2  A    between atoms: N_8  and  C_9 
REMARK    3  A    between atoms: C_9  and  C_10 
ROOT
HETATM    1  N   UNL     1     -38.206 -50.156  11.421  1.00  0.00    -0.293 N 
HETATM    2  C   UNL     1     -37.954 -51.103  12.377  1.00  0.00     0.321 C 
HETATM    3  O   UNL     1     -36.867 -51.677  12.397  1.00  0.00    -0.247 OA
HETATM    4  N   UNL     1     -38.981 -51.414  13.208  1.00  0.00    -0.340 N 
HETATM    5  H   UNL     1     -37.467 -50.043  10.746  1.00  0.00     0.172 HD
HETATM    6  H   UNL     1     -39.678 -50.684  13.338  1.00  0.00     0.164 HD
ENDROOT
BRANCH   1   7
HETATM    7  C   UNL     1     -39.386 -49.466  11.224  1.00  0.00     0.132 A 
HETATM    8  C   UNL     1     -39.690 -48.205  11.789  1.00  0.00     0.084 A 
HETATM    9  C   UNL     1     -40.915 -47.877  11.257  1.00  0.00     0.076 A 
HETATM   10  C   UNL     1     -41.801 -46.705  11.321  1.00  0.00     0.079 C 
HETATM   11  O   UNL     1     -41.348 -48.900  10.478  1.00  0.00    -0.241 OA
HETATM   12  N   UNL     1     -40.396 -49.890  10.454  1.00  0.00    -0.245 N 
ATOM     13  HN  UNL     1     -40.449 -50.775   9.949  1.00  0.00     0.196 HD
ENDBRANCH   1   7
BRANCH   4  14
HETATM   14  C   UNL     1     -38.914 -52.427  14.239  1.00  0.00     0.156 C 
BRANCH  14  15
HETATM   15  C   UNL     1     -39.902 -53.567  13.977  1.00  0.00     0.139 C 
HETATM   16  C   UNL     1     -40.817 -53.377  12.772  1.00  0.00     0.035 C 
HETATM   17  C   UNL     1     -42.131 -54.011  13.187  1.00  0.00     0.029 C 
HETATM   18  C   UNL     1     -41.921 -54.453  14.619  1.00  0.00     0.168 C 
HETATM   19  O   UNL     1     -40.786 -53.730  15.102  1.00  0.00    -0.384 OA
ENDBRANCH  14  15
ENDBRANCH   4  14
TORSDOF 3
ENDMDL
