MODEL 1
REMARK VINA RESULT:      -6.3      0.000      0.000
REMARK  5 active torsions:
REMARK  status: ('A' for Active; 'I' for Inactive)
REMARK    1  A    between atoms: O_2  and  C_3 
REMARK    2  A    between atoms: C_6  and  N_7 
REMARK       I    between atoms: N_7  and  C_8 
REMARK       I    between atoms: C_8  and  N_10 
REMARK    3  A    between atoms: N_10  and  C_11 
REMARK    4  A    between atoms: C_11  and  C_12 
REMARK    5  A    between atoms: C_12  and  N_17 
ROOT
HETATM    1  N   UNL     1     -42.473 -49.343  11.356  1.00  0.00    -0.308 N 
HETATM    2  C   UNL     1     -42.527 -49.898  12.613  1.00  0.00     0.320 C 
HETATM    3  O   UNL     1     -42.261 -49.316  13.661  1.00  0.00    -0.247 OA
HETATM    4  N   UNL     1     -42.954 -51.204  12.609  1.00  0.00    -0.340 N 
HETATM    5  H   UNL     1     -42.974 -49.833  10.630  1.00  0.00     0.170 HD
HETATM    6  H   UNL     1     -43.046 -51.722  11.749  1.00  0.00     0.164 HD
ENDROOT
BRANCH   1   7
HETATM    7  C   UNL     1     -42.020 -48.030  11.068  1.00  0.00     0.051 A 
HETATM    8  C   UNL     1     -42.876 -46.938  10.922  1.00  0.00     0.035 A 
HETATM    9  C   UNL     1     -42.362 -45.683  10.610  1.00  0.00     0.058 A 
HETATM   10  C   UNL     1     -40.994 -45.547  10.464  1.00  0.00     0.141 A 
HETATM   11  N   UNL     1     -40.120 -46.567  10.618  1.00  0.00    -0.345 N 
HETATM   12  C   UNL     1     -40.656 -47.778  10.919  1.00  0.00     0.119 A 
ATOM     13  HN  UNL     1     -39.115 -46.434  10.514  1.00  0.00     0.167 HD
BRANCH  10  14
HETATM   14  O   UNL     1     -40.548 -44.277  10.159  1.00  0.00    -0.341 OA
HETATM   15  C   UNL     1     -40.491 -43.413  11.286  1.00  0.00     0.211 C 
ENDBRANCH  10  14
ENDBRANCH   1   7
BRANCH   4  16
HETATM   16  C   UNL     1     -43.112 -51.933  13.861  1.00  0.00     0.166 C 
BRANCH  16  17
HETATM   17  C   UNL     1     -44.586 -52.383  14.148  1.00  0.00     0.174 C 
HETATM   18  C   UNL     1     -45.429 -52.180  12.855  1.00  0.00     0.043 C 
HETATM   19  C   UNL     1     -46.812 -51.673  13.273  1.00  0.00     0.003 C 
HETATM   20  C   UNL     1     -46.725 -51.310  14.747  1.00  0.00     0.003 C 
HETATM   21  C   UNL     1     -45.243 -51.337  15.088  1.00  0.00     0.043 C 
BRANCH  17  22
HETATM   22  N   UNL     1     -44.613 -53.806  14.624  1.00  0.00     0.091 N 
HETATM   23  C   UNL     1     -45.108 -54.762  13.625  1.00  0.00     0.310 C 
HETATM   24  C   UNL     1     -43.375 -54.329  15.200  1.00  0.00     0.310 C 
ENDBRANCH  17  22
ENDBRANCH  16  17
ENDBRANCH   4  16
TORSDOF 5
ENDMDL
MODEL 2
REMARK VINA RESULT:      -5.7      1.169      2.425
REMARK  5 active torsions:
REMARK  status: ('A' for Active; 'I' for Inactive)
REMARK    1  A    between atoms: O_2  and  C_3 
REMARK    2  A    between atoms: C_6  and  N_7 
REMARK       I    between atoms: N_7  and  C_8 
REMARK       I    between atoms: C_8  and  N_10 
REMARK    3  A    between atoms: N_10  and  C_11 
REMARK    4  A    between atoms: C_11  and  C_12 
REMARK    5  A    between atoms: C_12  and  N_17 
ROOT
HETATM    1  N   UNL     1     -42.985 -49.119  11.467  1.00  0.00    -0.308 N 
HETATM    2  C   UNL     1     -43.160 -49.602  12.743  1.00  0.00     0.320 C 
HETATM    3  O   UNL     1     -42.845 -49.018  13.775  1.00  0.00    -0.247 OA
HETATM    4  N   UNL     1     -43.773 -50.832  12.775  1.00  0.00    -0.340 N 
HETATM    5  H   UNL     1     -43.530 -49.564  10.743  1.00  0.00     0.170 HD
HETATM    6  H   UNL     1     -43.913 -51.369  11.934  1.00  0.00     0.164 HD
ENDROOT
BRANCH   1   7
HETATM    7  C   UNL     1     -42.337 -47.900  11.144  1.00  0.00     0.051 A 
HETATM    8  C   UNL     1     -43.010 -46.686  11.005  1.00  0.00     0.035 A 
HETATM    9  C   UNL     1     -42.310 -45.534  10.657  1.00  0.00     0.058 A 
HETATM   10  C   UNL     1     -40.944 -45.623  10.468  1.00  0.00     0.141 A 
HETATM   11  N   UNL     1     -40.241 -46.768  10.613  1.00  0.00    -0.345 N 
HETATM   12  C   UNL     1     -40.955 -47.874  10.950  1.00  0.00     0.119 A 
ATOM     13  HN  UNL     1     -39.232 -46.800  10.476  1.00  0.00     0.167 HD
BRANCH  10  14
HETATM   14  O   UNL     1     -40.309 -44.445  10.128  1.00  0.00    -0.341 OA
HETATM   15  C   UNL     1     -40.465 -43.420  11.100  1.00  0.00     0.211 C 
ENDBRANCH  10  14
ENDBRANCH   1   7
BRANCH   4  16
HETATM   16  C   UNL     1     -44.076 -51.472  14.048  1.00  0.00     0.166 C 
BRANCH  16  17
HETATM   17  C   UNL     1     -43.465 -52.909  14.195  1.00  0.00     0.174 C 
HETATM   18  C   UNL     1     -42.240 -52.832  15.153  1.00  0.00     0.043 C 
HETATM   19  C   UNL     1     -41.161 -53.773  14.609  1.00  0.00     0.003 C 
HETATM   20  C   UNL     1     -41.601 -54.195  13.215  1.00  0.00     0.003 C 
HETATM   21  C   UNL     1     -42.765 -53.282  12.861  1.00  0.00     0.043 C 
BRANCH  17  22
HETATM   22  N   UNL     1     -44.507 -53.871  14.684  1.00  0.00     0.091 N 
HETATM   23  C   UNL     1     -45.453 -53.291  15.646  1.00  0.00     0.310 C 
HETATM   24  C   UNL     1     -45.262 -54.596  13.663  1.00  0.00     0.310 C 
ENDBRANCH  17  22
ENDBRANCH  16  17
ENDBRANCH   4  16
TORSDOF 5
ENDMDL
MODEL 3
REMARK VINA RESULT:      -5.6      1.062      2.292
REMARK  5 active torsions:
REMARK  status: ('A' for Active; 'I' for Inactive)
REMARK    1  A    between atoms: O_2  and  C_3 
REMARK    2  A    between atoms: C_6  and  N_7 
REMARK       I    between atoms: N_7  and  C_8 
REMARK       I    between atoms: C_8  and  N_10 
REMARK    3  A    between atoms: N_10  and  C_11 
REMARK    4  A    between atoms: C_11  and  C_12 
REMARK    5  A    between atoms: C_12  and  N_17 
ROOT
HETATM    1  N   UNL     1     -42.153 -49.371  11.097  1.00  0.00    -0.308 N 
HETATM    2  C   UNL     1     -42.139 -50.021  12.310  1.00  0.00     0.320 C 
HETATM    3  O   UNL     1     -41.717 -49.553  13.363  1.00  0.00    -0.247 OA
HETATM    4  N   UNL     1     -42.690 -51.278  12.255  1.00  0.00    -0.340 N 
HETATM    5  H   UNL     1     -42.769 -49.753  10.394  1.00  0.00     0.170 HD
HETATM    6  H   UNL     1     -42.915 -51.713  11.373  1.00  0.00     0.164 HD
ENDROOT
BRANCH   1   7
HETATM    7  C   UNL     1     -41.605 -48.085  10.860  1.00  0.00     0.051 A 
HETATM    8  C   UNL     1     -40.369 -47.674  11.360  1.00  0.00     0.035 A 
HETATM    9  C   UNL     1     -39.907 -46.384  11.111  1.00  0.00     0.058 A 
HETATM   10  C   UNL     1     -40.693 -45.537  10.351  1.00  0.00     0.141 A 
HETATM   11  N   UNL     1     -41.885 -45.893   9.825  1.00  0.00    -0.345 N 
HETATM   12  C   UNL     1     -42.307 -47.158  10.090  1.00  0.00     0.119 A 
ATOM     13  HN  UNL     1     -42.438 -45.249   9.260  1.00  0.00     0.167 HD
BRANCH  10  14
HETATM   14  O   UNL     1     -40.177 -44.275  10.138  1.00  0.00    -0.341 OA
HETATM   15  C   UNL     1     -40.497 -43.353  11.171  1.00  0.00     0.211 C 
ENDBRANCH  10  14
ENDBRANCH   1   7
BRANCH   4  16
HETATM   16  C   UNL     1     -42.796 -52.091  13.459  1.00  0.00     0.166 C 
BRANCH  16  17
HETATM   17  C   UNL     1     -44.214 -52.725  13.671  1.00  0.00     0.174 C 
HETATM   18  C   UNL     1     -44.305 -53.260  15.131  1.00  0.00     0.043 C 
HETATM   19  C   UNL     1     -45.080 -54.580  15.097  1.00  0.00     0.003 C 
HETATM   20  C   UNL     1     -45.214 -54.981  13.636  1.00  0.00     0.003 C 
HETATM   21  C   UNL     1     -44.280 -54.055  12.872  1.00  0.00     0.043 C 
BRANCH  17  22
HETATM   22  N   UNL     1     -45.286 -51.720  13.369  1.00  0.00     0.091 N 
HETATM   23  C   UNL     1     -46.199 -52.126  12.292  1.00  0.00     0.310 C 
HETATM   24  C   UNL     1     -46.079 -51.246  14.502  1.00  0.00     0.310 C 
ENDBRANCH  17  22
ENDBRANCH  16  17
ENDBRANCH   4  16
TORSDOF 5
ENDMDL
MODEL 4
REMARK VINA RESULT:      -5.6      3.588      4.489
REMARK  5 active torsions:
REMARK  status: ('A' for Active; 'I' for Inactive)
REMARK    1  A    between atoms: O_2  and  C_3 
REMARK    2  A    between atoms: C_6  and  N_7 
REMARK       I    between atoms: N_7  and  C_8 
REMARK       I    between atoms: C_8  and  N_10 
REMARK    3  A    between atoms: N_10  and  C_11 
REMARK    4  A    between atoms: C_11  and  C_12 
REMARK    5  A    between atoms: C_12  and  N_17 
ROOT
HETATM    1  N   UNL     1     -41.178 -48.960  10.441  1.00  0.00    -0.308 N 
HETATM    2  C   UNL     1     -41.335 -49.771  11.540  1.00  0.00     0.320 C 
HETATM    3  O   UNL     1     -42.106 -49.565  12.474  1.00  0.00    -0.247 OA
HETATM    4  N   UNL     1     -40.551 -50.898  11.495  1.00  0.00    -0.340 N 
HETATM    5  H   UNL     1     -40.732 -49.378   9.638  1.00  0.00     0.170 HD
HETATM    6  H   UNL     1     -39.827 -51.005  10.802  1.00  0.00     0.164 HD
ENDROOT
BRANCH   1   7
HETATM    7  C   UNL     1     -41.827 -47.712  10.255  1.00  0.00     0.051 A 
HETATM    8  C   UNL     1     -43.017 -47.566   9.541  1.00  0.00     0.035 A 
HETATM    9  C   UNL     1     -43.582 -46.304   9.375  1.00  0.00     0.058 A 
HETATM   10  C   UNL     1     -42.945 -45.216   9.942  1.00  0.00     0.141 A 
HETATM   11  N   UNL     1     -41.806 -45.307  10.662  1.00  0.00    -0.345 N 
HETATM   12  C   UNL     1     -41.280 -46.552  10.802  1.00  0.00     0.119 A 
ATOM     13  HN  UNL     1     -41.364 -44.486  11.076  1.00  0.00     0.167 HD
BRANCH  10  14
HETATM   14  O   UNL     1     -43.558 -43.995   9.743  1.00  0.00    -0.341 OA
HETATM   15  C   UNL     1     -43.231 -43.032  10.736  1.00  0.00     0.211 C 
ENDBRANCH  10  14
ENDBRANCH   1   7
BRANCH   4  16
HETATM   16  C   UNL     1     -40.624 -51.891  12.559  1.00  0.00     0.166 C 
BRANCH  16  17
HETATM   17  C   UNL     1     -39.428 -51.823  13.571  1.00  0.00     0.174 C 
HETATM   18  C   UNL     1     -39.750 -50.747  14.649  1.00  0.00     0.043 C 
HETATM   19  C   UNL     1     -38.451 -50.004  14.971  1.00  0.00     0.003 C 
HETATM   20  C   UNL     1     -37.429 -50.420  13.924  1.00  0.00     0.003 C 
HETATM   21  C   UNL     1     -38.219 -51.162  12.857  1.00  0.00     0.043 C 
BRANCH  17  22
HETATM   22  N   UNL     1     -39.179 -53.174  14.176  1.00  0.00     0.091 N 
HETATM   23  C   UNL     1     -39.330 -53.212  15.637  1.00  0.00     0.310 C 
HETATM   24  C   UNL     1     -39.915 -54.297  13.599  1.00  0.00     0.310 C 
ENDBRANCH  17  22
ENDBRANCH  16  17
ENDBRANCH   4  16
TORSDOF 5
ENDMDL
MODEL 5
REMARK VINA RESULT:      -5.5      2.597      3.293
REMARK  5 active torsions:
REMARK  status: ('A' for Active; 'I' for Inactive)
REMARK    1  A    between atoms: O_2  and  C_3 
REMARK    2  A    between atoms: C_6  and  N_7 
REMARK       I    between atoms: N_7  and  C_8 
REMARK       I    between atoms: C_8  and  N_10 
REMARK    3  A    between atoms: N_10  and  C_11 
REMARK    4  A    between atoms: C_11  and  C_12 
REMARK    5  A    between atoms: C_12  and  N_17 
ROOT
HETATM    1  N   UNL     1     -42.909 -49.024  11.623  1.00  0.00    -0.308 N 
HETATM    2  C   UNL     1     -41.793 -49.822  11.731  1.00  0.00     0.320 C 
HETATM    3  O   UNL     1     -40.634 -49.450  11.576  1.00  0.00    -0.247 OA
HETATM    4  N   UNL     1     -42.088 -51.120  12.072  1.00  0.00    -0.340 N 
HETATM    5  H   UNL     1     -43.755 -49.383  12.041  1.00  0.00     0.170 HD
HETATM    6  H   UNL     1     -43.038 -51.459  12.071  1.00  0.00     0.164 HD
ENDROOT
BRANCH   1   7
HETATM    7  C   UNL     1     -42.895 -47.660  11.236  1.00  0.00     0.051 A 
HETATM    8  C   UNL     1     -42.998 -47.238   9.911  1.00  0.00     0.035 A 
HETATM    9  C   UNL     1     -42.948 -45.881   9.603  1.00  0.00     0.058 A 
HETATM   10  C   UNL     1     -42.809 -44.974  10.637  1.00  0.00     0.141 A 
HETATM   11  N   UNL     1     -42.729 -45.329  11.938  1.00  0.00    -0.345 N 
HETATM   12  C   UNL     1     -42.778 -46.661  12.203  1.00  0.00     0.119 A 
ATOM     13  HN  UNL     1     -42.637 -44.636  12.680  1.00  0.00     0.167 HD
BRANCH  10  14
HETATM   14  O   UNL     1     -42.770 -43.645  10.266  1.00  0.00    -0.341 OA
HETATM   15  C   UNL     1     -43.037 -42.752  11.338  1.00  0.00     0.211 C 
ENDBRANCH  10  14
ENDBRANCH   1   7
BRANCH   4  16
HETATM   16  C   UNL     1     -41.021 -52.091  12.271  1.00  0.00     0.166 C 
BRANCH  16  17
HETATM   17  C   UNL     1     -41.134 -52.888  13.616  1.00  0.00     0.174 C 
HETATM   18  C   UNL     1     -41.795 -54.267  13.323  1.00  0.00     0.043 C 
HETATM   19  C   UNL     1     -42.736 -54.591  14.487  1.00  0.00     0.003 C 
HETATM   20  C   UNL     1     -42.860 -53.327  15.324  1.00  0.00     0.003 C 
HETATM   21  C   UNL     1     -42.231 -52.222  14.490  1.00  0.00     0.043 C 
BRANCH  17  22
HETATM   22  N   UNL     1     -39.782 -53.032  14.252  1.00  0.00     0.091 N 
HETATM   23  C   UNL     1     -39.157 -54.344  14.037  1.00  0.00     0.310 C 
HETATM   24  C   UNL     1     -38.802 -51.990  13.952  1.00  0.00     0.310 C 
ENDBRANCH  17  22
ENDBRANCH  16  17
ENDBRANCH   4  16
TORSDOF 5
ENDMDL
MODEL 6
REMARK VINA RESULT:      -5.5      1.279      1.747
REMARK  5 active torsions:
REMARK  status: ('A' for Active; 'I' for Inactive)
REMARK    1  A    between atoms: O_2  and  C_3 
REMARK    2  A    between atoms: C_6  and  N_7 
REMARK       I    between atoms: N_7  and  C_8 
REMARK       I    between atoms: C_8  and  N_10 
REMARK    3  A    between atoms: N_10  and  C_11 
REMARK    4  A    between atoms: C_11  and  C_12 
REMARK    5  A    between atoms: C_12  and  N_17 
ROOT
HETATM    1  N   UNL     1     -43.082 -48.911  11.588  1.00  0.00    -0.308 N 
HETATM    2  C   UNL     1     -43.236 -49.371  12.875  1.00  0.00     0.320 C 
HETATM    3  O   UNL     1     -42.852 -48.793  13.888  1.00  0.00    -0.247 OA
HETATM    4  N   UNL     1     -43.911 -50.565  12.944  1.00  0.00    -0.340 N 
HETATM    5  H   UNL     1     -43.675 -49.333  10.889  1.00  0.00     0.170 HD
HETATM    6  H   UNL     1     -44.110 -51.103  12.115  1.00  0.00     0.164 HD
ENDROOT
BRANCH   1   7
HETATM    7  C   UNL     1     -42.382 -47.731  11.226  1.00  0.00     0.051 A 
HETATM    8  C   UNL     1     -43.000 -46.491  11.068  1.00  0.00     0.035 A 
HETATM    9  C   UNL     1     -42.252 -45.381  10.683  1.00  0.00     0.058 A 
HETATM   10  C   UNL     1     -40.895 -45.539  10.477  1.00  0.00     0.141 A 
HETATM   11  N   UNL     1     -40.244 -46.712  10.638  1.00  0.00    -0.345 N 
HETATM   12  C   UNL     1     -41.004 -47.775  11.012  1.00  0.00     0.119 A 
ATOM     13  HN  UNL     1     -39.240 -46.795  10.488  1.00  0.00     0.167 HD
BRANCH  10  14
HETATM   14  O   UNL     1     -40.211 -44.400  10.100  1.00  0.00    -0.341 OA
HETATM   15  C   UNL     1     -40.368 -43.321  11.010  1.00  0.00     0.211 C 
ENDBRANCH  10  14
ENDBRANCH   1   7
BRANCH   4  16
HETATM   16  C   UNL     1     -44.200 -51.175  14.235  1.00  0.00     0.166 C 
BRANCH  16  17
HETATM   17  C   UNL     1     -44.019 -52.732  14.255  1.00  0.00     0.174 C 
HETATM   18  C   UNL     1     -44.193 -53.270  12.804  1.00  0.00     0.043 C 
HETATM   19  C   UNL     1     -44.952 -54.597  12.886  1.00  0.00     0.003 C 
HETATM   20  C   UNL     1     -45.471 -54.726  14.310  1.00  0.00     0.003 C 
HETATM   21  C   UNL     1     -45.258 -53.361  14.946  1.00  0.00     0.043 C 
BRANCH  17  22
HETATM   22  N   UNL     1     -42.684 -53.095  14.836  1.00  0.00     0.091 N 
HETATM   23  C   UNL     1     -41.655 -53.394  13.832  1.00  0.00     0.310 C 
HETATM   24  C   UNL     1     -42.124 -52.170  15.820  1.00  0.00     0.310 C 
ENDBRANCH  17  22
ENDBRANCH  16  17
ENDBRANCH   4  16
TORSDOF 5
ENDMDL
MODEL 7
REMARK VINA RESULT:      -5.4      1.437      2.903
REMARK  5 active torsions:
REMARK  status: ('A' for Active; 'I' for Inactive)
REMARK    1  A    between atoms: O_2  and  C_3 
REMARK    2  A    between atoms: C_6  and  N_7 
REMARK       I    between atoms: N_7  and  C_8 
REMARK       I    between atoms: C_8  and  N_10 
REMARK    3  A    between atoms: N_10  and  C_11 
REMARK    4  A    between atoms: C_11  and  C_12 
REMARK    5  A    between atoms: C_12  and  N_17 
ROOT
HETATM    1  N   UNL     1     -41.561 -50.249  11.497  1.00  0.00    -0.308 N 
HETATM    2  C   UNL     1     -42.598 -50.596  12.331  1.00  0.00     0.320 C 
HETATM    3  O   UNL     1     -43.287 -49.810  12.974  1.00  0.00    -0.247 OA
HETATM    4  N   UNL     1     -42.834 -51.949  12.365  1.00  0.00    -0.340 N 
HETATM    5  H   UNL     1     -41.270 -50.950  10.831  1.00  0.00     0.170 HD
HETATM    6  H   UNL     1     -42.192 -52.603  11.945  1.00  0.00     0.164 HD
ENDROOT
BRANCH   1   7
HETATM    7  C   UNL     1     -41.074 -48.929  11.314  1.00  0.00     0.051 A 
HETATM    8  C   UNL     1     -40.007 -48.397  12.038  1.00  0.00     0.035 A 
HETATM    9  C   UNL     1     -39.603 -47.082  11.825  1.00  0.00     0.058 A 
HETATM   10  C   UNL     1     -40.272 -46.332  10.875  1.00  0.00     0.141 A 
HETATM   11  N   UNL     1     -41.294 -46.807  10.131  1.00  0.00    -0.345 N 
HETATM   12  C   UNL     1     -41.665 -48.092  10.367  1.00  0.00     0.119 A 
ATOM     13  HN  UNL     1     -41.762 -46.232   9.431  1.00  0.00     0.167 HD
BRANCH  10  14
HETATM   14  O   UNL     1     -39.820 -45.038  10.709  1.00  0.00    -0.341 OA
HETATM   15  C   UNL     1     -40.795 -44.055  11.031  1.00  0.00     0.211 C 
ENDBRANCH  10  14
ENDBRANCH   1   7
BRANCH   4  16
HETATM   16  C   UNL     1     -43.926 -52.487  13.165  1.00  0.00     0.166 C 
BRANCH  16  17
HETATM   17  C   UNL     1     -43.461 -53.151  14.507  1.00  0.00     0.174 C 
HETATM   18  C   UNL     1     -41.919 -53.358  14.449  1.00  0.00     0.043 C 
HETATM   19  C   UNL     1     -41.602 -54.700  15.114  1.00  0.00     0.003 C 
HETATM   20  C   UNL     1     -42.927 -55.419  15.318  1.00  0.00     0.003 C 
HETATM   21  C   UNL     1     -43.949 -54.624  14.520  1.00  0.00     0.043 C 
BRANCH  17  22
HETATM   22  N   UNL     1     -43.876 -52.308  15.677  1.00  0.00     0.091 N 
HETATM   23  C   UNL     1     -42.820 -51.419  16.179  1.00  0.00     0.310 C 
HETATM   24  C   UNL     1     -45.107 -51.534  15.525  1.00  0.00     0.310 C 
ENDBRANCH  17  22
ENDBRANCH  16  17
ENDBRANCH   4  16
TORSDOF 5
ENDMDL
MODEL 8
REMARK VINA RESULT:      -5.3      2.556      7.985
REMARK  5 active torsions:
REMARK  status: ('A' for Active; 'I' for Inactive)
REMARK    1  A    between atoms: O_2  and  C_3 
REMARK    2  A    between atoms: C_6  and  N_7 
REMARK       I    between atoms: N_7  and  C_8 
REMARK       I    between atoms: C_8  and  N_10 
REMARK    3  A    between atoms: N_10  and  C_11 
REMARK    4  A    between atoms: C_11  and  C_12 
REMARK    5  A    between atoms: C_12  and  N_17 
ROOT
HETATM    1  N   UNL     1     -41.125 -50.965  11.467  1.00  0.00    -0.308 N 
HETATM    2  C   UNL     1     -40.543 -49.832  11.985  1.00  0.00     0.320 C 
HETATM    3  O   UNL     1     -40.304 -49.633  13.172  1.00  0.00    -0.247 OA
HETATM    4  N   UNL     1     -40.206 -48.911  11.023  1.00  0.00    -0.340 N 
HETATM    5  H   UNL     1     -41.009 -51.113  10.476  1.00  0.00     0.170 HD
HETATM    6  H   UNL     1     -40.517 -49.011  10.069  1.00  0.00     0.164 HD
ENDROOT
BRANCH   1   7
HETATM    7  C   UNL     1     -41.614 -52.050  12.239  1.00  0.00     0.051 A 
HETATM    8  C   UNL     1     -40.870 -53.200  12.503  1.00  0.00     0.035 A 
HETATM    9  C   UNL     1     -41.427 -54.239  13.244  1.00  0.00     0.058 A 
HETATM   10  C   UNL     1     -42.718 -54.094  13.718  1.00  0.00     0.141 A 
HETATM   11  N   UNL     1     -43.472 -52.992  13.510  1.00  0.00    -0.345 N 
HETATM   12  C   UNL     1     -42.899 -51.999  12.781  1.00  0.00     0.119 A 
ATOM     13  HN  UNL     1     -44.418 -52.910  13.881  1.00  0.00     0.167 HD
BRANCH  10  14
HETATM   14  O   UNL     1     -43.210 -55.157  14.448  1.00  0.00    -0.341 OA
HETATM   15  C   UNL     1     -42.566 -55.324  15.704  1.00  0.00     0.211 C 
ENDBRANCH  10  14
ENDBRANCH   1   7
BRANCH   4  16
HETATM   16  C   UNL     1     -39.539 -47.669  11.392  1.00  0.00     0.166 C 
BRANCH  16  17
HETATM   17  C   UNL     1     -40.480 -46.415  11.374  1.00  0.00     0.174 C 
HETATM   18  C   UNL     1     -39.904 -45.376  10.368  1.00  0.00     0.043 C 
HETATM   19  C   UNL     1     -40.109 -43.982  10.966  1.00  0.00     0.003 C 
HETATM   20  C   UNL     1     -40.540 -44.178  12.412  1.00  0.00     0.003 C 
HETATM   21  C   UNL     1     -40.303 -45.650  12.712  1.00  0.00     0.043 C 
BRANCH  17  22
HETATM   22  N   UNL     1     -41.883 -46.821  11.027  1.00  0.00     0.091 N 
HETATM   23  C   UNL     1     -42.818 -46.765  12.158  1.00  0.00     0.310 C 
HETATM   24  C   UNL     1     -42.494 -46.153   9.879  1.00  0.00     0.310 C 
ENDBRANCH  17  22
ENDBRANCH  16  17
ENDBRANCH   4  16
TORSDOF 5
ENDMDL
MODEL 9
REMARK VINA RESULT:      -5.2      1.956      3.015
REMARK  5 active torsions:
REMARK  status: ('A' for Active; 'I' for Inactive)
REMARK    1  A    between atoms: O_2  and  C_3 
REMARK    2  A    between atoms: C_6  and  N_7 
REMARK       I    between atoms: N_7  and  C_8 
REMARK       I    between atoms: C_8  and  N_10 
REMARK    3  A    between atoms: N_10  and  C_11 
REMARK    4  A    between atoms: C_11  and  C_12 
REMARK    5  A    between atoms: C_12  and  N_17 
ROOT
HETATM    1  N   UNL     1     -41.760 -49.952  11.278  1.00  0.00    -0.308 N 
HETATM    2  C   UNL     1     -42.388 -50.391  12.420  1.00  0.00     0.320 C 
HETATM    3  O   UNL     1     -42.775 -49.676  13.340  1.00  0.00    -0.247 OA
HETATM    4  N   UNL     1     -42.588 -51.750  12.438  1.00  0.00    -0.340 N 
HETATM    5  H   UNL     1     -41.750 -50.594  10.499  1.00  0.00     0.170 HD
HETATM    6  H   UNL     1     -42.159 -52.352  11.752  1.00  0.00     0.164 HD
ENDROOT
BRANCH   1   7
HETATM    7  C   UNL     1     -41.388 -48.607  11.023  1.00  0.00     0.051 A 
HETATM    8  C   UNL     1     -40.285 -47.991  11.615  1.00  0.00     0.035 A 
HETATM    9  C   UNL     1     -39.998 -46.657  11.340  1.00  0.00     0.058 A 
HETATM   10  C   UNL     1     -40.819 -45.972  10.463  1.00  0.00     0.141 A 
HETATM   11  N   UNL     1     -41.884 -46.528   9.847  1.00  0.00    -0.345 N 
HETATM   12  C   UNL     1     -42.138 -47.830  10.140  1.00  0.00     0.119 A 
ATOM     13  HN  UNL     1     -42.466 -46.000   9.197  1.00  0.00     0.167 HD
BRANCH  10  14
HETATM   14  O   UNL     1     -40.478 -44.655  10.230  1.00  0.00    -0.341 OA
HETATM   15  C   UNL     1     -39.193 -44.500   9.644  1.00  0.00     0.211 C 
ENDBRANCH  10  14
ENDBRANCH   1   7
BRANCH   4  16
HETATM   16  C   UNL     1     -43.280 -52.380  13.554  1.00  0.00     0.166 C 
BRANCH  16  17
HETATM   17  C   UNL     1     -42.339 -53.212  14.493  1.00  0.00     0.174 C 
HETATM   18  C   UNL     1     -42.753 -54.711  14.408  1.00  0.00     0.043 C 
HETATM   19  C   UNL     1     -42.631 -55.310  15.812  1.00  0.00     0.003 C 
HETATM   20  C   UNL     1     -42.423 -54.150  16.774  1.00  0.00     0.003 C 
HETATM   21  C   UNL     1     -42.711 -52.894  15.966  1.00  0.00     0.043 C 
BRANCH  17  22
HETATM   22  N   UNL     1     -40.903 -52.999  14.115  1.00  0.00     0.091 N 
HETATM   23  C   UNL     1     -40.146 -52.186  15.076  1.00  0.00     0.310 C 
HETATM   24  C   UNL     1     -40.124 -54.194  13.796  1.00  0.00     0.310 C 
ENDBRANCH  17  22
ENDBRANCH  16  17
ENDBRANCH   4  16
TORSDOF 5
ENDMDL
