MODEL 1
REMARK VINA RESULT:      -6.8      0.000      0.000
REMARK  4 active torsions:
REMARK  status: ('A' for Active; 'I' for Inactive)
REMARK    1  A    between atoms: C_2  and  C_3 
REMARK    2  A    between atoms: C_6  and  N_7 
REMARK       I    between atoms: N_7  and  C_8 
REMARK       I    between atoms: C_8  and  N_10 
REMARK    3  A    between atoms: N_10  and  C_11 
REMARK    4  A    between atoms: C_15  and  C_17 
ROOT
HETATM    1  N   UNL     1     -41.826 -48.276   9.888  1.00  0.00    -0.289 N 
HETATM    2  C   UNL     1     -41.274 -48.174  11.140  1.00  0.00     0.322 C 
HETATM    3  O   UNL     1     -41.679 -47.499  12.074  1.00  0.00    -0.247 OA
HETATM    4  N   UNL     1     -40.125 -48.938  11.251  1.00  0.00    -0.338 N 
HETATM    5  H   UNL     1     -41.332 -48.731   9.142  1.00  0.00     0.172 HD
HETATM    6  H   UNL     1     -39.996 -49.676  10.576  1.00  0.00     0.164 HD
ENDROOT
BRANCH   1   7
HETATM    7  C   UNL     1     -42.959 -47.588   9.556  1.00  0.00     0.152 A 
HETATM    8  S   UNL     1     -42.706 -45.957   9.123  1.00  0.00    -0.064 SA
HETATM    9  C   UNL     1     -44.404 -45.767   8.937  1.00  0.00     0.078 A 
HETATM   10  C   UNL     1     -45.040 -46.974   9.168  1.00  0.00     0.017 A 
HETATM   11  N   UNL     1     -44.195 -48.007   9.527  1.00  0.00    -0.340 N 
ATOM     12  HN  UNL     1     -44.494 -48.958   9.739  1.00  0.00     0.168 HD
BRANCH  10  13
HETATM   13  C   UNL     1     -46.501 -47.264   9.068  1.00  0.00     0.053 C 
HETATM   14  C   UNL     1     -46.782 -48.720   8.735  1.00  0.00     0.011 C 
ENDBRANCH  10  13
ENDBRANCH   1   7
BRANCH   4  15
HETATM   15  C   UNL     1     -39.433 -49.041  12.539  1.00  0.00     0.090 C 
HETATM   16  C   UNL     1     -37.932 -49.267  12.335  1.00  0.00     0.051 C 
HETATM   17  C   UNL     1     -37.632 -50.699  11.913  1.00  0.00     0.170 C 
HETATM   18  O   UNL     1     -38.209 -51.634  12.822  1.00  0.00    -0.385 OA
HETATM   19  C   UNL     1     -39.636 -51.526  12.884  1.00  0.00     0.127 C 
HETATM   20  C   UNL     1     -40.018 -50.149  13.424  1.00  0.00     0.057 C 
BRANCH  19  21
HETATM   21  C   UNL     1     -40.145 -52.630  13.768  1.00  0.00     0.015 A 
HETATM   22  C   UNL     1     -39.334 -53.892  13.933  1.00  0.00     0.007 A 
HETATM   23  C   UNL     1     -40.628 -53.932  13.171  1.00  0.00     0.007 A 
ENDBRANCH  19  21
ENDBRANCH   4  15
TORSDOF 4
ENDMDL
MODEL 2
REMARK VINA RESULT:      -6.1      2.955      4.380
REMARK  4 active torsions:
REMARK  status: ('A' for Active; 'I' for Inactive)
REMARK    1  A    between atoms: C_2  and  C_3 
REMARK    2  A    between atoms: C_6  and  N_7 
REMARK       I    between atoms: N_7  and  C_8 
REMARK       I    between atoms: C_8  and  N_10 
REMARK    3  A    between atoms: N_10  and  C_11 
REMARK    4  A    between atoms: C_15  and  C_17 
ROOT
HETATM    1  N   UNL     1     -41.725 -49.370  11.066  1.00  0.00    -0.289 N 
HETATM    2  C   UNL     1     -41.353 -49.813  12.310  1.00  0.00     0.322 C 
HETATM    3  O   UNL     1     -40.927 -49.143  13.238  1.00  0.00    -0.247 OA
HETATM    4  N   UNL     1     -41.488 -51.188  12.420  1.00  0.00    -0.338 N 
HETATM    5  H   UNL     1     -41.911 -50.018  10.322  1.00  0.00     0.172 HD
HETATM    6  H   UNL     1     -42.093 -51.645  11.754  1.00  0.00     0.164 HD
ENDROOT
BRANCH   1   7
HETATM    7  C   UNL     1     -41.654 -48.046  10.736  1.00  0.00     0.152 A 
HETATM    8  S   UNL     1     -43.142 -47.338  10.293  1.00  0.00    -0.064 SA
HETATM    9  C   UNL     1     -42.320 -45.861   9.983  1.00  0.00     0.078 A 
HETATM   10  C   UNL     1     -40.977 -45.996  10.289  1.00  0.00     0.017 A 
HETATM   11  N   UNL     1     -40.612 -47.259  10.715  1.00  0.00    -0.340 N 
ATOM     12  HN  UNL     1     -39.666 -47.538  10.975  1.00  0.00     0.168 HD
BRANCH  10  13
HETATM   13  C   UNL     1     -39.917 -44.949  10.211  1.00  0.00     0.053 C 
HETATM   14  C   UNL     1     -40.270 -43.704  11.007  1.00  0.00     0.011 C 
ENDBRANCH  10  13
ENDBRANCH   1   7
BRANCH   4  15
HETATM   15  C   UNL     1     -41.229 -51.850  13.701  1.00  0.00     0.090 C 
HETATM   16  C   UNL     1     -40.307 -53.058  13.513  1.00  0.00     0.051 C 
HETATM   17  C   UNL     1     -41.047 -54.241  12.903  1.00  0.00     0.170 C 
HETATM   18  O   UNL     1     -42.218 -54.556  13.652  1.00  0.00    -0.385 OA
HETATM   19  C   UNL     1     -43.154 -53.472  13.685  1.00  0.00     0.127 C 
HETATM   20  C   UNL     1     -42.524 -52.279  14.403  1.00  0.00     0.057 C 
BRANCH  19  21
HETATM   21  C   UNL     1     -44.393 -53.953  14.389  1.00  0.00     0.015 A 
HETATM   22  C   UNL     1     -45.194 -55.090  13.803  1.00  0.00     0.007 A 
HETATM   23  C   UNL     1     -45.760 -53.700  13.797  1.00  0.00     0.007 A 
ENDBRANCH  19  21
ENDBRANCH   4  15
TORSDOF 4
ENDMDL
MODEL 3
REMARK VINA RESULT:      -6.1      3.315      7.139
REMARK  4 active torsions:
REMARK  status: ('A' for Active; 'I' for Inactive)
REMARK    1  A    between atoms: C_2  and  C_3 
REMARK    2  A    between atoms: C_6  and  N_7 
REMARK       I    between atoms: N_7  and  C_8 
REMARK       I    between atoms: C_8  and  N_10 
REMARK    3  A    between atoms: N_10  and  C_11 
REMARK    4  A    between atoms: C_15  and  C_17 
ROOT
HETATM    1  N   UNL     1     -41.903 -50.963  11.920  1.00  0.00    -0.289 N 
HETATM    2  C   UNL     1     -42.758 -49.919  12.171  1.00  0.00     0.322 C 
HETATM    3  O   UNL     1     -43.531 -49.805  13.110  1.00  0.00    -0.247 OA
HETATM    4  N   UNL     1     -42.681 -48.952  11.183  1.00  0.00    -0.338 N 
HETATM    5  H   UNL     1     -41.425 -51.038  11.040  1.00  0.00     0.172 HD
HETATM    6  H   UNL     1     -41.854 -48.950  10.605  1.00  0.00     0.164 HD
ENDROOT
BRANCH   1   7
HETATM    7  C   UNL     1     -41.831 -52.037  12.763  1.00  0.00     0.152 A 
HETATM    8  S   UNL     1     -40.262 -52.405  13.320  1.00  0.00    -0.064 SA
HETATM    9  C   UNL     1     -40.904 -53.756  14.165  1.00  0.00     0.078 A 
HETATM   10  C   UNL     1     -42.278 -53.802  14.005  1.00  0.00     0.017 A 
HETATM   11  N   UNL     1     -42.792 -52.809  13.191  1.00  0.00    -0.340 N 
ATOM     12  HN  UNL     1     -43.779 -52.697  12.960  1.00  0.00     0.168 HD
BRANCH  10  13
HETATM   13  C   UNL     1     -43.231 -54.782  14.604  1.00  0.00     0.053 C 
HETATM   14  C   UNL     1     -44.610 -54.716  13.967  1.00  0.00     0.011 C 
ENDBRANCH  10  13
ENDBRANCH   1   7
BRANCH   4  15
HETATM   15  C   UNL     1     -43.447 -47.710  11.310  1.00  0.00     0.090 C 
HETATM   16  C   UNL     1     -44.231 -47.419  10.027  1.00  0.00     0.051 C 
HETATM   17  C   UNL     1     -43.324 -46.898   8.921  1.00  0.00     0.170 C 
HETATM   18  O   UNL     1     -42.564 -45.776   9.365  1.00  0.00    -0.385 OA
HETATM   19  C   UNL     1     -41.706 -46.099  10.466  1.00  0.00     0.127 C 
HETATM   20  C   UNL     1     -42.556 -46.512  11.667  1.00  0.00     0.057 C 
BRANCH  19  21
HETATM   21  C   UNL     1     -40.868 -44.889  10.769  1.00  0.00     0.015 A 
HETATM   22  C   UNL     1     -39.544 -44.700  10.069  1.00  0.00     0.007 A 
HETATM   23  C   UNL     1     -39.573 -45.023  11.535  1.00  0.00     0.007 A 
ENDBRANCH  19  21
ENDBRANCH   4  15
TORSDOF 4
ENDMDL
MODEL 4
REMARK VINA RESULT:      -5.7      2.939      7.355
REMARK  4 active torsions:
REMARK  status: ('A' for Active; 'I' for Inactive)
REMARK    1  A    between atoms: C_2  and  C_3 
REMARK    2  A    between atoms: C_6  and  N_7 
REMARK       I    between atoms: N_7  and  C_8 
REMARK       I    between atoms: C_8  and  N_10 
REMARK    3  A    between atoms: N_10  and  C_11 
REMARK    4  A    between atoms: C_15  and  C_17 
ROOT
HETATM    1  N   UNL     1     -40.916 -50.326  11.443  1.00  0.00    -0.289 N 
HETATM    2  C   UNL     1     -41.982 -49.543  11.807  1.00  0.00     0.322 C 
HETATM    3  O   UNL     1     -42.588 -49.565  12.867  1.00  0.00    -0.247 OA
HETATM    4  N   UNL     1     -42.353 -48.684  10.786  1.00  0.00    -0.338 N 
HETATM    5  H   UNL     1     -40.590 -50.343  10.493  1.00  0.00     0.172 HD
HETATM    6  H   UNL     1     -41.670 -48.504  10.066  1.00  0.00     0.164 HD
ENDROOT
BRANCH   1   7
HETATM    7  C   UNL     1     -40.398 -51.259  12.297  1.00  0.00     0.152 A 
HETATM    8  S   UNL     1     -38.904 -50.832  13.001  1.00  0.00    -0.064 SA
HETATM    9  C   UNL     1     -38.869 -52.356  13.794  1.00  0.00     0.078 A 
HETATM   10  C   UNL     1     -40.024 -53.062  13.507  1.00  0.00     0.017 A 
HETATM   11  N   UNL     1     -40.888 -52.418  12.642  1.00  0.00    -0.340 N 
ATOM     12  HN  UNL     1     -41.779 -52.795  12.319  1.00  0.00     0.168 HD
BRANCH  10  13
HETATM   13  C   UNL     1     -40.420 -54.405  14.024  1.00  0.00     0.053 C 
HETATM   14  C   UNL     1     -41.800 -54.400  14.661  1.00  0.00     0.011 C 
ENDBRANCH  10  13
ENDBRANCH   1   7
BRANCH   4  15
HETATM   15  C   UNL     1     -43.414 -47.698  11.006  1.00  0.00     0.090 C 
HETATM   16  C   UNL     1     -44.056 -47.282   9.679  1.00  0.00     0.051 C 
HETATM   17  C   UNL     1     -43.159 -46.335   8.893  1.00  0.00     0.170 C 
HETATM   18  O   UNL     1     -42.771 -45.217   9.688  1.00  0.00    -0.385 OA
HETATM   19  C   UNL     1     -42.025 -45.604  10.847  1.00  0.00     0.127 C 
HETATM   20  C   UNL     1     -42.907 -46.459  11.756  1.00  0.00     0.057 C 
BRANCH  19  21
HETATM   21  C   UNL     1     -41.565 -44.351  11.540  1.00  0.00     0.015 A 
HETATM   22  C   UNL     1     -40.467 -43.516  10.926  1.00  0.00     0.007 A 
HETATM   23  C   UNL     1     -40.201 -44.287  12.186  1.00  0.00     0.007 A 
ENDBRANCH  19  21
ENDBRANCH   4  15
TORSDOF 4
ENDMDL
MODEL 5
REMARK VINA RESULT:      -5.6      2.769      4.587
REMARK  4 active torsions:
REMARK  status: ('A' for Active; 'I' for Inactive)
REMARK    1  A    between atoms: C_2  and  C_3 
REMARK    2  A    between atoms: C_6  and  N_7 
REMARK       I    between atoms: N_7  and  C_8 
REMARK       I    between atoms: C_8  and  N_10 
REMARK    3  A    between atoms: N_10  and  C_11 
REMARK    4  A    between atoms: C_15  and  C_17 
ROOT
HETATM    1  N   UNL     1     -40.536 -50.361  12.906  1.00  0.00    -0.289 N 
HETATM    2  C   UNL     1     -40.825 -51.663  12.585  1.00  0.00     0.322 C 
HETATM    3  O   UNL     1     -41.376 -52.071  11.574  1.00  0.00    -0.247 OA
HETATM    4  N   UNL     1     -40.434 -52.533  13.590  1.00  0.00    -0.338 N 
HETATM    5  H   UNL     1     -40.227 -50.114  13.829  1.00  0.00     0.172 HD
HETATM    6  H   UNL     1     -39.750 -52.195  14.250  1.00  0.00     0.164 HD
ENDROOT
BRANCH   1   7
HETATM    7  C   UNL     1     -40.854 -49.336  12.060  1.00  0.00     0.152 A 
HETATM    8  S   UNL     1     -39.814 -47.987  12.148  1.00  0.00    -0.064 SA
HETATM    9  C   UNL     1     -40.792 -47.186  10.983  1.00  0.00     0.078 A 
HETATM   10  C   UNL     1     -41.813 -48.024  10.571  1.00  0.00     0.017 A 
HETATM   11  N   UNL     1     -41.836 -49.253  11.204  1.00  0.00    -0.340 N 
ATOM     12  HN  UNL     1     -42.521 -49.987  11.028  1.00  0.00     0.168 HD
BRANCH  10  13
HETATM   13  C   UNL     1     -42.858 -47.746   9.542  1.00  0.00     0.053 C 
HETATM   14  C   UNL     1     -44.220 -47.472  10.156  1.00  0.00     0.011 C 
ENDBRANCH  10  13
ENDBRANCH   1   7
BRANCH   4  15
HETATM   15  C   UNL     1     -40.571 -53.979  13.403  1.00  0.00     0.090 C 
HETATM   16  C   UNL     1     -41.869 -54.490  14.034  1.00  0.00     0.051 C 
HETATM   17  C   UNL     1     -41.766 -54.565  15.551  1.00  0.00     0.170 C 
HETATM   18  O   UNL     1     -40.626 -55.323  15.951  1.00  0.00    -0.385 OA
HETATM   19  C   UNL     1     -39.398 -54.746  15.495  1.00  0.00     0.127 C 
HETATM   20  C   UNL     1     -39.371 -54.752  13.967  1.00  0.00     0.057 C 
BRANCH  19  21
HETATM   21  C   UNL     1     -38.266 -55.549  16.073  1.00  0.00     0.015 A 
HETATM   22  C   UNL     1     -38.477 -56.330  17.347  1.00  0.00     0.007 A 
HETATM   23  C   UNL     1     -37.593 -55.116  17.354  1.00  0.00     0.007 A 
ENDBRANCH  19  21
ENDBRANCH   4  15
TORSDOF 4
ENDMDL
MODEL 6
REMARK VINA RESULT:      -5.3      2.787      7.484
REMARK  4 active torsions:
REMARK  status: ('A' for Active; 'I' for Inactive)
REMARK    1  A    between atoms: C_2  and  C_3 
REMARK    2  A    between atoms: C_6  and  N_7 
REMARK       I    between atoms: N_7  and  C_8 
REMARK       I    between atoms: C_8  and  N_10 
REMARK    3  A    between atoms: N_10  and  C_11 
REMARK    4  A    between atoms: C_15  and  C_17 
ROOT
HETATM    1  N   UNL     1     -41.955 -49.638  13.504  1.00  0.00    -0.289 N 
HETATM    2  C   UNL     1     -41.500 -49.332  12.247  1.00  0.00     0.322 C 
HETATM    3  O   UNL     1     -40.829 -50.038  11.510  1.00  0.00    -0.247 OA
HETATM    4  N   UNL     1     -41.872 -48.052  11.870  1.00  0.00    -0.338 N 
HETATM    5  H   UNL     1     -42.362 -48.932  14.091  1.00  0.00     0.172 HD
HETATM    6  H   UNL     1     -42.640 -47.630  12.370  1.00  0.00     0.164 HD
ENDROOT
BRANCH   1   7
HETATM    7  C   UNL     1     -41.685 -50.848  14.079  1.00  0.00     0.152 A 
HETATM    8  S   UNL     1     -43.042 -51.645  14.738  1.00  0.00    -0.064 SA
HETATM    9  C   UNL     1     -42.008 -52.907  15.279  1.00  0.00     0.078 A 
HETATM   10  C   UNL     1     -40.709 -52.657  14.874  1.00  0.00     0.017 A 
HETATM   11  N   UNL     1     -40.542 -51.467  14.191  1.00  0.00    -0.340 N 
ATOM     12  HN  UNL     1     -39.654 -51.123  13.826  1.00  0.00     0.168 HD
BRANCH  10  13
HETATM   13  C   UNL     1     -39.508 -53.516  15.091  1.00  0.00     0.053 C 
HETATM   14  C   UNL     1     -39.304 -54.523  13.971  1.00  0.00     0.011 C 
ENDBRANCH  10  13
ENDBRANCH   1   7
BRANCH   4  15
HETATM   15  C   UNL     1     -41.563 -47.564  10.523  1.00  0.00     0.090 C 
HETATM   16  C   UNL     1     -41.288 -46.058  10.539  1.00  0.00     0.051 C 
HETATM   17  C   UNL     1     -42.573 -45.253  10.676  1.00  0.00     0.170 C 
HETATM   18  O   UNL     1     -43.522 -45.626   9.680  1.00  0.00    -0.385 OA
HETATM   19  C   UNL     1     -43.901 -47.004   9.775  1.00  0.00     0.127 C 
HETATM   20  C   UNL     1     -42.679 -47.885   9.520  1.00  0.00     0.057 C 
BRANCH  19  21
HETATM   21  C   UNL     1     -44.987 -47.256   8.767  1.00  0.00     0.015 A 
HETATM   22  C   UNL     1     -46.357 -46.658   8.976  1.00  0.00     0.007 A 
HETATM   23  C   UNL     1     -46.163 -48.140   9.109  1.00  0.00     0.007 A 
ENDBRANCH  19  21
ENDBRANCH   4  15
TORSDOF 4
ENDMDL
MODEL 7
REMARK VINA RESULT:      -5.3      6.464     10.029
REMARK  4 active torsions:
REMARK  status: ('A' for Active; 'I' for Inactive)
REMARK    1  A    between atoms: C_2  and  C_3 
REMARK    2  A    between atoms: C_6  and  N_7 
REMARK       I    between atoms: N_7  and  C_8 
REMARK       I    between atoms: C_8  and  N_10 
REMARK    3  A    between atoms: N_10  and  C_11 
REMARK    4  A    between atoms: C_15  and  C_17 
ROOT
HETATM    1  N   UNL     1     -41.823 -53.927  15.096  1.00  0.00    -0.289 N 
HETATM    2  C   UNL     1     -43.085 -54.423  14.885  1.00  0.00     0.322 C 
HETATM    3  O   UNL     1     -43.479 -55.559  15.101  1.00  0.00    -0.247 OA
HETATM    4  N   UNL     1     -43.924 -53.463  14.343  1.00  0.00    -0.338 N 
HETATM    5  H   UNL     1     -41.557 -53.027  14.739  1.00  0.00     0.172 HD
HETATM    6  H   UNL     1     -43.647 -52.499  14.449  1.00  0.00     0.164 HD
ENDROOT
BRANCH   1   7
HETATM    7  C   UNL     1     -40.831 -54.713  15.611  1.00  0.00     0.152 A 
HETATM    8  S   UNL     1     -39.251 -54.268  15.144  1.00  0.00    -0.064 SA
HETATM    9  C   UNL     1     -38.638 -55.610  16.024  1.00  0.00     0.078 A 
HETATM   10  C   UNL     1     -39.676 -56.274  16.654  1.00  0.00     0.017 A 
HETATM   11  N   UNL     1     -40.929 -55.747  16.401  1.00  0.00    -0.340 N 
ATOM     12  HN  UNL     1     -41.803 -56.113  16.777  1.00  0.00     0.168 HD
BRANCH  10  13
HETATM   13  C   UNL     1     -39.583 -57.461  17.554  1.00  0.00     0.053 C 
HETATM   14  C   UNL     1     -38.266 -57.516  18.309  1.00  0.00     0.011 C 
ENDBRANCH  10  13
ENDBRANCH   1   7
BRANCH   4  15
HETATM   15  C   UNL     1     -45.341 -53.765  14.127  1.00  0.00     0.090 C 
HETATM   16  C   UNL     1     -45.922 -52.886  13.015  1.00  0.00     0.051 C 
HETATM   17  C   UNL     1     -46.165 -51.461  13.494  1.00  0.00     0.170 C 
HETATM   18  O   UNL     1     -46.960 -51.446  14.678  1.00  0.00    -0.385 OA
HETATM   19  C   UNL     1     -46.332 -52.132  15.767  1.00  0.00     0.127 C 
HETATM   20  C   UNL     1     -46.169 -53.609  15.409  1.00  0.00     0.057 C 
BRANCH  19  21
HETATM   21  C   UNL     1     -47.192 -51.948  16.986  1.00  0.00     0.015 A 
HETATM   22  C   UNL     1     -48.144 -50.779  17.062  1.00  0.00     0.007 A 
HETATM   23  C   UNL     1     -46.931 -50.812  17.946  1.00  0.00     0.007 A 
ENDBRANCH  19  21
ENDBRANCH   4  15
TORSDOF 4
ENDMDL
MODEL 8
REMARK VINA RESULT:      -5.2      3.363      7.344
REMARK  4 active torsions:
REMARK  status: ('A' for Active; 'I' for Inactive)
REMARK    1  A    between atoms: C_2  and  C_3 
REMARK    2  A    between atoms: C_6  and  N_7 
REMARK       I    between atoms: N_7  and  C_8 
REMARK       I    between atoms: C_8  and  N_10 
REMARK    3  A    between atoms: N_10  and  C_11 
REMARK    4  A    between atoms: C_15  and  C_17 
ROOT
HETATM    1  N   UNL     1     -43.347 -50.987  13.538  1.00  0.00    -0.289 N 
HETATM    2  C   UNL     1     -42.357 -50.566  12.685  1.00  0.00     0.322 C 
HETATM    3  O   UNL     1     -41.586 -51.264  12.045  1.00  0.00    -0.247 OA
HETATM    4  N   UNL     1     -42.289 -49.184  12.630  1.00  0.00    -0.338 N 
HETATM    5  H   UNL     1     -43.822 -50.336  14.137  1.00  0.00     0.172 HD
HETATM    6  H   UNL     1     -43.101 -48.671  12.937  1.00  0.00     0.164 HD
ENDROOT
BRANCH   1   7
HETATM    7  C   UNL     1     -43.576 -52.316  13.754  1.00  0.00     0.152 A 
HETATM    8  S   UNL     1     -44.855 -52.980  12.840  1.00  0.00    -0.064 SA
HETATM    9  C   UNL     1     -44.605 -54.487  13.628  1.00  0.00     0.078 A 
HETATM   10  C   UNL     1     -43.531 -54.392  14.495  1.00  0.00     0.017 A 
HETATM   11  N   UNL     1     -42.956 -53.136  14.558  1.00  0.00    -0.340 N 
ATOM     12  HN  UNL     1     -42.162 -52.887  15.147  1.00  0.00     0.168 HD
BRANCH  10  13
HETATM   13  C   UNL     1     -42.946 -55.474  15.340  1.00  0.00     0.053 C 
HETATM   14  C   UNL     1     -41.565 -55.120  15.866  1.00  0.00     0.011 C 
ENDBRANCH  10  13
ENDBRANCH   1   7
BRANCH   4  15
HETATM   15  C   UNL     1     -41.358 -48.532  11.706  1.00  0.00     0.090 C 
HETATM   16  C   UNL     1     -40.799 -47.242  12.315  1.00  0.00     0.051 C 
HETATM   17  C   UNL     1     -41.823 -46.116  12.283  1.00  0.00     0.170 C 
HETATM   18  O   UNL     1     -42.335 -45.924  10.965  1.00  0.00    -0.385 OA
HETATM   19  C   UNL     1     -43.003 -47.087  10.464  1.00  0.00     0.127 C 
HETATM   20  C   UNL     1     -42.003 -48.236  10.346  1.00  0.00     0.057 C 
BRANCH  19  21
HETATM   21  C   UNL     1     -43.605 -46.736   9.132  1.00  0.00     0.015 A 
HETATM   22  C   UNL     1     -44.339 -45.428   8.963  1.00  0.00     0.007 A 
HETATM   23  C   UNL     1     -45.104 -46.719   8.947  1.00  0.00     0.007 A 
ENDBRANCH  19  21
ENDBRANCH   4  15
TORSDOF 4
ENDMDL
MODEL 9
REMARK VINA RESULT:      -5.2      6.156     10.343
REMARK  4 active torsions:
REMARK  status: ('A' for Active; 'I' for Inactive)
REMARK    1  A    between atoms: C_2  and  C_3 
REMARK    2  A    between atoms: C_6  and  N_7 
REMARK       I    between atoms: N_7  and  C_8 
REMARK       I    between atoms: C_8  and  N_10 
REMARK    3  A    between atoms: N_10  and  C_11 
REMARK    4  A    between atoms: C_15  and  C_17 
ROOT
HETATM    1  N   UNL     1     -39.658 -55.193  16.842  1.00  0.00    -0.289 N 
HETATM    2  C   UNL     1     -39.483 -54.997  15.496  1.00  0.00     0.322 C 
HETATM    3  O   UNL     1     -38.863 -55.707  14.718  1.00  0.00    -0.247 OA
HETATM    4  N   UNL     1     -40.090 -53.827  15.070  1.00  0.00    -0.338 N 
HETATM    5  H   UNL     1     -40.048 -54.472  17.421  1.00  0.00     0.172 HD
HETATM    6  H   UNL     1     -40.807 -53.439  15.664  1.00  0.00     0.164 HD
ENDROOT
BRANCH   1   7
HETATM    7  C   UNL     1     -39.124 -56.281  17.474  1.00  0.00     0.152 A 
HETATM    8  S   UNL     1     -37.769 -55.946  18.454  1.00  0.00    -0.064 SA
HETATM    9  C   UNL     1     -37.637 -57.623  18.805  1.00  0.00     0.078 A 
HETATM   10  C   UNL     1     -38.667 -58.314  18.192  1.00  0.00     0.017 A 
HETATM   11  N   UNL     1     -39.508 -57.528  17.428  1.00  0.00    -0.340 N 
ATOM     12  HN  UNL     1     -40.313 -57.871  16.903  1.00  0.00     0.168 HD
BRANCH  10  13
HETATM   13  C   UNL     1     -38.955 -59.776  18.273  1.00  0.00     0.053 C 
HETATM   14  C   UNL     1     -39.359 -60.213  19.671  1.00  0.00     0.011 C 
ENDBRANCH  10  13
ENDBRANCH   1   7
BRANCH   4  15
HETATM   15  C   UNL     1     -40.098 -53.480  13.646  1.00  0.00     0.090 C 
HETATM   16  C   UNL     1     -40.050 -51.962  13.455  1.00  0.00     0.051 C 
HETATM   17  C   UNL     1     -41.395 -51.314  13.754  1.00  0.00     0.170 C 
HETATM   18  O   UNL     1     -42.439 -51.928  13.001  1.00  0.00    -0.385 OA
HETATM   19  C   UNL     1     -42.587 -53.319  13.308  1.00  0.00     0.127 C 
HETATM   20  C   UNL     1     -41.313 -54.065  12.914  1.00  0.00     0.057 C 
BRANCH  19  21
HETATM   21  C   UNL     1     -43.785 -53.832  12.557  1.00  0.00     0.015 A 
HETATM   22  C   UNL     1     -45.096 -53.089  12.640  1.00  0.00     0.007 A 
HETATM   23  C   UNL     1     -44.958 -54.431  13.298  1.00  0.00     0.007 A 
ENDBRANCH  19  21
ENDBRANCH   4  15
TORSDOF 4
ENDMDL
