MODEL 1
REMARK VINA RESULT:      -7.2      0.000      0.000
REMARK  4 active torsions:
REMARK  status: ('A' for Active; 'I' for Inactive)
REMARK       I    between atoms: C_2  and  N_3 
REMARK    1  A    between atoms: C_2  and  C_13 
REMARK    2  A    between atoms: N_3  and  C_4 
REMARK    3  A    between atoms: C_4  and  C_5 
REMARK    4  A    between atoms: C_5  and  C_6 
ROOT
HETATM    1  C   UNL     1     -42.381 -50.603  12.452  1.00  0.00     0.076 A 
HETATM    2  C   UNL     1     -41.112 -51.044  12.344  1.00  0.00     0.022 A 
HETATM    3  C   UNL     1     -40.755 -52.435  12.506  1.00  0.00     0.018 A 
HETATM    4  C   UNL     1     -41.711 -53.331  12.778  1.00  0.00     0.092 A 
HETATM    5  N   UNL     1     -43.050 -52.989  12.929  1.00  0.00    -0.341 N 
HETATM    6  C   UNL     1     -44.051 -54.042  13.106  1.00  0.00     0.146 C 
HETATM    7  C   UNL     1     -45.187 -53.546  13.952  1.00  0.00     0.183 C 
HETATM    8  S   UNL     1     -45.915 -52.186  13.105  1.00  0.00     0.233 S 
HETATM    9  O   UNL     1     -46.418 -52.677  11.837  1.00  0.00    -0.206 OA
HETATM   10  O   UNL     1     -46.808 -51.532  14.038  1.00  0.00    -0.206 OA
HETATM   11  N   UNL     1     -44.668 -51.203  12.831  1.00  0.00    -0.269 N 
ATOM     12  HN  UNL     1     -44.840 -50.204  12.716  1.00  0.00     0.180 HD
HETATM   13  C   UNL     1     -43.447 -51.648  12.753  1.00  0.00     0.132 A 
ENDROOT
BRANCH   1  14
HETATM   14  C   UNL     1     -42.614 -49.137  12.251  1.00  0.00     0.255 C 
HETATM   15  O   UNL     1     -42.982 -48.415  13.175  1.00  0.00    -0.268 OA
HETATM   16  N   UNL     1     -42.399 -48.660  10.982  1.00  0.00    -0.356 N 
HETATM   17  H   UNL     1     -41.935 -49.280  10.321  1.00  0.00     0.162 HD
BRANCH  16  18
HETATM   18  C   UNL     1     -42.451 -47.240  10.700  1.00  0.00     0.127 C 
BRANCH  18  19
HETATM   19  C   UNL     1     -42.721 -46.943   9.225  1.00  0.00     0.060 C 
BRANCH  19  20
HETATM   20  C   UNL     1     -44.042 -47.512   8.782  1.00  0.00    -0.041 A 
HETATM   21  C   UNL     1     -45.170 -47.455   9.603  1.00  0.00     0.010 A 
HETATM   22  C   UNL     1     -46.364 -48.031   9.178  1.00  0.00     0.018 A 
HETATM   23  C   UNL     1     -46.389 -48.651   7.940  1.00  0.00     0.087 A 
HETATM   24  N   UNL     1     -45.321 -48.729   7.118  1.00  0.00    -0.375 N 
HETATM   25  C   UNL     1     -44.175 -48.161   7.558  1.00  0.00     0.094 A 
ATOM     26  HN  UNL     1     -45.375 -49.192   6.211  1.00  0.00     0.164 HD
ENDBRANCH  19  20
ENDBRANCH  18  19
ENDBRANCH  16  18
ENDBRANCH   1  14
TORSDOF 4
ENDMDL
MODEL 2
REMARK VINA RESULT:      -6.8      2.826      4.700
REMARK  4 active torsions:
REMARK  status: ('A' for Active; 'I' for Inactive)
REMARK       I    between atoms: C_2  and  N_3 
REMARK    1  A    between atoms: C_2  and  C_13 
REMARK    2  A    between atoms: N_3  and  C_4 
REMARK    3  A    between atoms: C_4  and  C_5 
REMARK    4  A    between atoms: C_5  and  C_6 
ROOT
HETATM    1  C   UNL     1     -42.194 -51.407  12.624  1.00  0.00     0.076 A 
HETATM    2  C   UNL     1     -41.044 -52.109  12.674  1.00  0.00     0.022 A 
HETATM    3  C   UNL     1     -41.007 -53.525  12.958  1.00  0.00     0.018 A 
HETATM    4  C   UNL     1     -42.152 -54.179  13.185  1.00  0.00     0.092 A 
HETATM    5  N   UNL     1     -43.396 -53.557  13.177  1.00  0.00    -0.341 N 
HETATM    6  C   UNL     1     -44.610 -54.362  13.316  1.00  0.00     0.146 C 
HETATM    7  C   UNL     1     -45.684 -53.574  14.008  1.00  0.00     0.183 C 
HETATM    8  S   UNL     1     -46.027 -52.168  13.008  1.00  0.00     0.233 S 
HETATM    9  O   UNL     1     -46.512 -52.647  11.728  1.00  0.00    -0.206 OA
HETATM   10  O   UNL     1     -46.838 -51.268  13.803  1.00  0.00    -0.206 OA
HETATM   11  N   UNL     1     -44.580 -51.489  12.803  1.00  0.00    -0.269 N 
ATOM     12  HN  UNL     1     -44.524 -50.489  12.609  1.00  0.00     0.180 HD
HETATM   13  C   UNL     1     -43.480 -52.181  12.878  1.00  0.00     0.132 A 
ENDROOT
BRANCH   1  14
HETATM   14  C   UNL     1     -42.090 -49.947  12.310  1.00  0.00     0.255 C 
HETATM   15  O   UNL     1     -42.751 -49.111  12.923  1.00  0.00    -0.268 OA
HETATM   16  N   UNL     1     -41.224 -49.606  11.300  1.00  0.00    -0.356 N 
HETATM   17  H   UNL     1     -40.593 -50.330  10.961  1.00  0.00     0.162 HD
BRANCH  16  18
HETATM   18  C   UNL     1     -40.932 -48.218  11.004  1.00  0.00     0.127 C 
BRANCH  18  19
HETATM   19  C   UNL     1     -39.718 -47.697  11.775  1.00  0.00     0.060 C 
BRANCH  19  20
HETATM   20  C   UNL     1     -38.854 -48.826  12.269  1.00  0.00    -0.041 A 
HETATM   21  C   UNL     1     -38.100 -49.604  11.387  1.00  0.00     0.010 A 
HETATM   22  C   UNL     1     -37.346 -50.667  11.876  1.00  0.00     0.018 A 
HETATM   23  C   UNL     1     -37.375 -50.921  13.237  1.00  0.00     0.087 A 
HETATM   24  N   UNL     1     -38.091 -50.194  14.121  1.00  0.00    -0.375 N 
HETATM   25  C   UNL     1     -38.813 -49.167  13.618  1.00  0.00     0.094 A 
ATOM     26  HN  UNL     1     -38.087 -50.408  15.118  1.00  0.00     0.164 HD
ENDBRANCH  19  20
ENDBRANCH  18  19
ENDBRANCH  16  18
ENDBRANCH   1  14
TORSDOF 4
ENDMDL
MODEL 3
REMARK VINA RESULT:      -6.6      1.533      2.037
REMARK  4 active torsions:
REMARK  status: ('A' for Active; 'I' for Inactive)
REMARK       I    between atoms: C_2  and  N_3 
REMARK    1  A    between atoms: C_2  and  C_13 
REMARK    2  A    between atoms: N_3  and  C_4 
REMARK    3  A    between atoms: C_4  and  C_5 
REMARK    4  A    between atoms: C_5  and  C_6 
ROOT
HETATM    1  C   UNL     1     -42.300 -51.144  12.942  1.00  0.00     0.076 A 
HETATM    2  C   UNL     1     -41.114 -51.785  12.960  1.00  0.00     0.022 A 
HETATM    3  C   UNL     1     -41.007 -53.222  13.062  1.00  0.00     0.018 A 
HETATM    4  C   UNL     1     -42.121 -53.960  13.148  1.00  0.00     0.092 A 
HETATM    5  N   UNL     1     -43.397 -53.408  13.157  1.00  0.00    -0.341 N 
HETATM    6  C   UNL     1     -44.567 -54.287  13.132  1.00  0.00     0.146 C 
HETATM    7  C   UNL     1     -45.713 -53.652  13.864  1.00  0.00     0.183 C 
HETATM    8  S   UNL     1     -46.095 -52.148  13.036  1.00  0.00     0.233 S 
HETATM    9  O   UNL     1     -46.496 -52.481  11.683  1.00  0.00    -0.206 OA
HETATM   10  O   UNL     1     -46.990 -51.403  13.897  1.00  0.00    -0.206 OA
HETATM   11  N   UNL     1     -44.683 -51.374  12.991  1.00  0.00    -0.269 N 
ATOM     12  HN  UNL     1     -44.677 -50.355  12.929  1.00  0.00     0.180 HD
HETATM   13  C   UNL     1     -43.549 -52.011  13.032  1.00  0.00     0.132 A 
ENDROOT
BRANCH   1  14
HETATM   14  C   UNL     1     -42.268 -49.652  12.822  1.00  0.00     0.255 C 
HETATM   15  O   UNL     1     -43.270 -48.972  13.030  1.00  0.00    -0.268 OA
HETATM   16  N   UNL     1     -41.063 -49.101  12.463  1.00  0.00    -0.356 N 
HETATM   17  H   UNL     1     -40.247 -49.710  12.477  1.00  0.00     0.162 HD
BRANCH  16  18
HETATM   18  C   UNL     1     -40.872 -47.665  12.456  1.00  0.00     0.127 C 
BRANCH  18  19
HETATM   19  C   UNL     1     -40.643 -47.109  11.050  1.00  0.00     0.060 C 
BRANCH  19  20
HETATM   20  C   UNL     1     -41.945 -46.832  10.350  1.00  0.00    -0.041 A 
HETATM   21  C   UNL     1     -42.578 -47.808   9.577  1.00  0.00     0.010 A 
HETATM   22  C   UNL     1     -43.760 -47.501   8.908  1.00  0.00     0.018 A 
HETATM   23  C   UNL     1     -44.270 -46.220   9.032  1.00  0.00     0.087 A 
HETATM   24  N   UNL     1     -43.689 -45.249   9.768  1.00  0.00    -0.375 N 
HETATM   25  C   UNL     1     -42.542 -45.575  10.406  1.00  0.00     0.094 A 
ATOM     26  HN  UNL     1     -44.094 -44.315   9.839  1.00  0.00     0.164 HD
ENDBRANCH  19  20
ENDBRANCH  18  19
ENDBRANCH  16  18
ENDBRANCH   1  14
TORSDOF 4
ENDMDL
MODEL 4
REMARK VINA RESULT:      -6.4      2.538      3.950
REMARK  4 active torsions:
REMARK  status: ('A' for Active; 'I' for Inactive)
REMARK       I    between atoms: C_2  and  N_3 
REMARK    1  A    between atoms: C_2  and  C_13 
REMARK    2  A    between atoms: N_3  and  C_4 
REMARK    3  A    between atoms: C_4  and  C_5 
REMARK    4  A    between atoms: C_5  and  C_6 
ROOT
HETATM    1  C   UNL     1     -42.237 -51.253  12.606  1.00  0.00     0.076 A 
HETATM    2  C   UNL     1     -41.065 -51.918  12.631  1.00  0.00     0.022 A 
HETATM    3  C   UNL     1     -40.980 -53.338  12.886  1.00  0.00     0.018 A 
HETATM    4  C   UNL     1     -42.101 -54.033  13.110  1.00  0.00     0.092 A 
HETATM    5  N   UNL     1     -43.364 -53.451  13.126  1.00  0.00    -0.341 N 
HETATM    6  C   UNL     1     -44.550 -54.298  13.259  1.00  0.00     0.146 C 
HETATM    7  C   UNL     1     -45.642 -53.560  13.977  1.00  0.00     0.183 C 
HETATM    8  S   UNL     1     -46.040 -52.145  13.009  1.00  0.00     0.233 S 
HETATM    9  O   UNL     1     -46.521 -52.614  11.724  1.00  0.00    -0.206 OA
HETATM   10  O   UNL     1     -46.872 -51.289  13.830  1.00  0.00    -0.206 OA
HETATM   11  N   UNL     1     -44.618 -51.417  12.805  1.00  0.00    -0.269 N 
ATOM     12  HN  UNL     1     -44.596 -50.411  12.631  1.00  0.00     0.180 HD
HETATM   13  C   UNL     1     -43.495 -52.074  12.856  1.00  0.00     0.132 A 
ENDROOT
BRANCH   1  14
HETATM   14  C   UNL     1     -42.183 -49.784  12.321  1.00  0.00     0.255 C 
HETATM   15  O   UNL     1     -42.604 -48.959  13.130  1.00  0.00    -0.268 OA
HETATM   16  N   UNL     1     -41.647 -49.423  11.110  1.00  0.00    -0.356 N 
HETATM   17  H   UNL     1     -41.170 -50.146  10.575  1.00  0.00     0.162 HD
BRANCH  16  18
HETATM   18  C   UNL     1     -41.411 -48.032  10.784  1.00  0.00     0.127 C 
BRANCH  18  19
HETATM   19  C   UNL     1     -40.081 -47.517  11.338  1.00  0.00     0.060 C 
BRANCH  19  20
HETATM   20  C   UNL     1     -40.140 -46.042  11.626  1.00  0.00    -0.041 A 
HETATM   21  C   UNL     1     -40.141 -45.099  10.595  1.00  0.00     0.010 A 
HETATM   22  C   UNL     1     -40.151 -43.740  10.902  1.00  0.00     0.018 A 
HETATM   23  C   UNL     1     -40.157 -43.369  12.235  1.00  0.00     0.087 A 
HETATM   24  N   UNL     1     -40.156 -44.249  13.259  1.00  0.00    -0.375 N 
HETATM   25  C   UNL     1     -40.145 -45.561  12.932  1.00  0.00     0.094 A 
ATOM     26  HN  UNL     1     -40.162 -43.939  14.232  1.00  0.00     0.164 HD
ENDBRANCH  19  20
ENDBRANCH  18  19
ENDBRANCH  16  18
ENDBRANCH   1  14
TORSDOF 4
ENDMDL
MODEL 5
REMARK VINA RESULT:      -6.2      2.099      2.751
REMARK  4 active torsions:
REMARK  status: ('A' for Active; 'I' for Inactive)
REMARK       I    between atoms: C_2  and  N_3 
REMARK    1  A    between atoms: C_2  and  C_13 
REMARK    2  A    between atoms: N_3  and  C_4 
REMARK    3  A    between atoms: C_4  and  C_5 
REMARK    4  A    between atoms: C_5  and  C_6 
ROOT
HETATM    1  C   UNL     1     -43.901 -51.631  13.649  1.00  0.00     0.076 A 
HETATM    2  C   UNL     1     -43.484 -52.444  12.658  1.00  0.00     0.022 A 
HETATM    3  C   UNL     1     -43.904 -53.823  12.553  1.00  0.00     0.018 A 
HETATM    4  C   UNL     1     -44.737 -54.327  13.471  1.00  0.00     0.092 A 
HETATM    5  N   UNL     1     -45.217 -53.588  14.547  1.00  0.00    -0.341 N 
HETATM    6  C   UNL     1     -46.217 -54.175  15.440  1.00  0.00     0.146 C 
HETATM    7  C   UNL     1     -46.058 -53.633  16.831  1.00  0.00     0.183 C 
HETATM    8  S   UNL     1     -46.302 -51.893  16.745  1.00  0.00     0.233 S 
HETATM    9  O   UNL     1     -47.654 -51.661  16.275  1.00  0.00    -0.206 OA
HETATM   10  O   UNL     1     -45.866 -51.339  18.011  1.00  0.00    -0.206 OA
HETATM   11  N   UNL     1     -45.261 -51.423  15.608  1.00  0.00    -0.269 N 
ATOM     12  HN  UNL     1     -44.911 -50.465  15.622  1.00  0.00     0.180 HD
HETATM   13  C   UNL     1     -44.854 -52.231  14.673  1.00  0.00     0.132 A 
ENDROOT
BRANCH   1  14
HETATM   14  C   UNL     1     -43.396 -50.221  13.633  1.00  0.00     0.255 C 
HETATM   15  O   UNL     1     -43.389 -49.532  14.651  1.00  0.00    -0.268 OA
HETATM   16  N   UNL     1     -42.954 -49.751  12.421  1.00  0.00    -0.356 N 
HETATM   17  H   UNL     1     -42.834 -50.430  11.672  1.00  0.00     0.162 HD
BRANCH  16  18
HETATM   18  C   UNL     1     -42.312 -48.458  12.311  1.00  0.00     0.127 C 
BRANCH  18  19
HETATM   19  C   UNL     1     -43.264 -47.369  11.816  1.00  0.00     0.060 C 
BRANCH  19  20
HETATM   20  C   UNL     1     -43.610 -47.559  10.364  1.00  0.00    -0.041 A 
HETATM   21  C   UNL     1     -44.936 -47.571   9.927  1.00  0.00     0.010 A 
HETATM   22  C   UNL     1     -45.218 -47.794   8.582  1.00  0.00     0.018 A 
HETATM   23  C   UNL     1     -44.159 -48.001   7.715  1.00  0.00     0.087 A 
HETATM   24  N   UNL     1     -42.865 -47.998   8.098  1.00  0.00    -0.375 N 
HETATM   25  C   UNL     1     -42.620 -47.780   9.410  1.00  0.00     0.094 A 
ATOM     26  HN  UNL     1     -42.108 -48.153   7.430  1.00  0.00     0.164 HD
ENDBRANCH  19  20
ENDBRANCH  18  19
ENDBRANCH  16  18
ENDBRANCH   1  14
TORSDOF 4
ENDMDL
MODEL 6
REMARK VINA RESULT:      -6.2      3.666      6.075
REMARK  4 active torsions:
REMARK  status: ('A' for Active; 'I' for Inactive)
REMARK       I    between atoms: C_2  and  N_3 
REMARK    1  A    between atoms: C_2  and  C_13 
REMARK    2  A    between atoms: N_3  and  C_4 
REMARK    3  A    between atoms: C_4  and  C_5 
REMARK    4  A    between atoms: C_5  and  C_6 
ROOT
HETATM    1  C   UNL     1     -40.107 -50.975  12.860  1.00  0.00     0.076 A 
HETATM    2  C   UNL     1     -38.958 -51.192  13.531  1.00  0.00     0.022 A 
HETATM    3  C   UNL     1     -38.011 -50.139  13.816  1.00  0.00     0.018 A 
HETATM    4  C   UNL     1     -38.269 -48.894  13.402  1.00  0.00     0.092 A 
HETATM    5  N   UNL     1     -39.413 -48.554  12.687  1.00  0.00    -0.341 N 
HETATM    6  C   UNL     1     -39.680 -47.150  12.374  1.00  0.00     0.146 C 
HETATM    7  C   UNL     1     -40.428 -47.037  11.077  1.00  0.00     0.183 C 
HETATM    8  S   UNL     1     -41.952 -47.892  11.275  1.00  0.00     0.233 S 
HETATM    9  O   UNL     1     -42.692 -47.230  12.332  1.00  0.00    -0.206 OA
HETATM   10  O   UNL     1     -42.536 -48.034   9.957  1.00  0.00    -0.206 OA
HETATM   11  N   UNL     1     -41.500 -49.353  11.783  1.00  0.00    -0.269 N 
ATOM     12  HN  UNL     1     -42.114 -50.150  11.608  1.00  0.00     0.180 HD
HETATM   13  C   UNL     1     -40.376 -49.545  12.409  1.00  0.00     0.132 A 
ENDROOT
BRANCH   1  14
HETATM   14  C   UNL     1     -41.003 -52.153  12.640  1.00  0.00     0.255 C 
HETATM   15  O   UNL     1     -41.357 -52.487  11.511  1.00  0.00    -0.268 OA
HETATM   16  N   UNL     1     -41.407 -52.824  13.768  1.00  0.00    -0.356 N 
HETATM   17  H   UNL     1     -40.939 -52.593  14.642  1.00  0.00     0.162 HD
BRANCH  16  18
HETATM   18  C   UNL     1     -42.155 -54.061  13.673  1.00  0.00     0.127 C 
BRANCH  18  19
HETATM   19  C   UNL     1     -43.422 -54.048  14.529  1.00  0.00     0.060 C 
BRANCH  19  20
HETATM   20  C   UNL     1     -44.471 -53.141  13.945  1.00  0.00    -0.041 A 
HETATM   21  C   UNL     1     -45.201 -52.262  14.749  1.00  0.00     0.010 A 
HETATM   22  C   UNL     1     -46.194 -51.470  14.179  1.00  0.00     0.018 A 
HETATM   23  C   UNL     1     -46.427 -51.585  12.819  1.00  0.00     0.087 A 
HETATM   24  N   UNL     1     -45.743 -52.422  12.010  1.00  0.00    -0.375 N 
HETATM   25  C   UNL     1     -44.785 -53.180  12.590  1.00  0.00     0.094 A 
ATOM     26  HN  UNL     1     -45.940 -52.479  11.010  1.00  0.00     0.164 HD
ENDBRANCH  19  20
ENDBRANCH  18  19
ENDBRANCH  16  18
ENDBRANCH   1  14
TORSDOF 4
ENDMDL
MODEL 7
REMARK VINA RESULT:      -6.1      3.615      6.839
REMARK  4 active torsions:
REMARK  status: ('A' for Active; 'I' for Inactive)
REMARK       I    between atoms: C_2  and  N_3 
REMARK    1  A    between atoms: C_2  and  C_13 
REMARK    2  A    between atoms: N_3  and  C_4 
REMARK    3  A    between atoms: C_4  and  C_5 
REMARK    4  A    between atoms: C_5  and  C_6 
ROOT
HETATM    1  C   UNL     1     -43.286 -52.621  12.891  1.00  0.00     0.076 A 
HETATM    2  C   UNL     1     -42.818 -53.848  13.198  1.00  0.00     0.022 A 
HETATM    3  C   UNL     1     -41.410 -54.172  13.177  1.00  0.00     0.018 A 
HETATM    4  C   UNL     1     -40.524 -53.228  12.838  1.00  0.00     0.092 A 
HETATM    5  N   UNL     1     -40.891 -51.934  12.487  1.00  0.00    -0.341 N 
HETATM    6  C   UNL     1     -39.856 -50.927  12.246  1.00  0.00     0.146 C 
HETATM    7  C   UNL     1     -40.324 -49.931  11.224  1.00  0.00     0.183 C 
HETATM    8  S   UNL     1     -41.759 -49.149  11.874  1.00  0.00     0.233 S 
HETATM    9  O   UNL     1     -41.372 -48.464  13.093  1.00  0.00    -0.206 OA
HETATM   10  O   UNL     1     -42.371 -48.412  10.788  1.00  0.00    -0.206 OA
HETATM   11  N   UNL     1     -42.724 -50.385  12.248  1.00  0.00    -0.269 N 
ATOM     12  HN  UNL     1     -43.733 -50.235  12.273  1.00  0.00     0.180 HD
HETATM   13  C   UNL     1     -42.252 -51.567  12.519  1.00  0.00     0.132 A 
ENDROOT
BRANCH   1  14
HETATM   14  C   UNL     1     -44.768 -52.419  12.962  1.00  0.00     0.255 C 
HETATM   15  O   UNL     1     -45.527 -52.962  12.162  1.00  0.00    -0.268 OA
HETATM   16  N   UNL     1     -45.217 -51.591  13.960  1.00  0.00    -0.356 N 
HETATM   17  H   UNL     1     -44.549 -51.319  14.679  1.00  0.00     0.162 HD
BRANCH  16  18
HETATM   18  C   UNL     1     -46.634 -51.433  14.218  1.00  0.00     0.127 C 
BRANCH  18  19
HETATM   19  C   UNL     1     -47.157 -52.432  15.251  1.00  0.00     0.060 C 
BRANCH  19  20
HETATM   20  C   UNL     1     -47.164 -51.840  16.634  1.00  0.00    -0.041 A 
HETATM   21  C   UNL     1     -48.113 -50.888  17.014  1.00  0.00     0.010 A 
HETATM   22  C   UNL     1     -48.060 -50.331  18.289  1.00  0.00     0.018 A 
HETATM   23  C   UNL     1     -47.053 -50.744  19.144  1.00  0.00     0.087 A 
HETATM   24  N   UNL     1     -46.118 -51.660  18.815  1.00  0.00    -0.375 N 
HETATM   25  C   UNL     1     -46.193 -52.184  17.571  1.00  0.00     0.094 A 
ATOM     26  HN  UNL     1     -45.390 -51.943  19.473  1.00  0.00     0.164 HD
ENDBRANCH  19  20
ENDBRANCH  18  19
ENDBRANCH  16  18
ENDBRANCH   1  14
TORSDOF 4
ENDMDL
MODEL 8
REMARK VINA RESULT:      -6.1      2.642      3.664
REMARK  4 active torsions:
REMARK  status: ('A' for Active; 'I' for Inactive)
REMARK       I    between atoms: C_2  and  N_3 
REMARK    1  A    between atoms: C_2  and  C_13 
REMARK    2  A    between atoms: N_3  and  C_4 
REMARK    3  A    between atoms: C_4  and  C_5 
REMARK    4  A    between atoms: C_5  and  C_6 
ROOT
HETATM    1  C   UNL     1     -40.698 -52.874  13.467  1.00  0.00     0.076 A 
HETATM    2  C   UNL     1     -39.615 -53.361  14.104  1.00  0.00     0.022 A 
HETATM    3  C   UNL     1     -39.708 -54.350  15.153  1.00  0.00     0.018 A 
HETATM    4  C   UNL     1     -40.910 -54.807  15.521  1.00  0.00     0.092 A 
HETATM    5  N   UNL     1     -42.098 -54.365  14.947  1.00  0.00    -0.341 N 
HETATM    6  C   UNL     1     -43.362 -54.999  15.319  1.00  0.00     0.146 C 
HETATM    7  C   UNL     1     -44.488 -54.009  15.238  1.00  0.00     0.183 C 
HETATM    8  S   UNL     1     -44.580 -53.457  13.570  1.00  0.00     0.233 S 
HETATM    9  O   UNL     1     -44.874 -54.610  12.742  1.00  0.00    -0.206 OA
HETATM   10  O   UNL     1     -45.456 -52.304  13.551  1.00  0.00    -0.206 OA
HETATM   11  N   UNL     1     -43.082 -52.953  13.258  1.00  0.00    -0.269 N 
ATOM     12  HN  UNL     1     -42.937 -52.247  12.535  1.00  0.00     0.180 HD
HETATM   13  C   UNL     1     -42.051 -53.420  13.901  1.00  0.00     0.132 A 
ENDROOT
BRANCH   1  14
HETATM   14  C   UNL     1     -40.459 -51.860  12.391  1.00  0.00     0.255 C 
HETATM   15  O   UNL     1     -41.172 -51.807  11.392  1.00  0.00    -0.268 OA
HETATM   16  N   UNL     1     -39.399 -51.009  12.588  1.00  0.00    -0.356 N 
HETATM   17  H   UNL     1     -38.968 -51.005  13.509  1.00  0.00     0.162 HD
BRANCH  16  18
HETATM   18  C   UNL     1     -39.159 -49.898  11.690  1.00  0.00     0.127 C 
BRANCH  18  19
HETATM   19  C   UNL     1     -39.534 -48.551  12.310  1.00  0.00     0.060 C 
BRANCH  19  20
HETATM   20  C   UNL     1     -40.561 -47.831  11.480  1.00  0.00    -0.041 A 
HETATM   21  C   UNL     1     -41.789 -48.420  11.169  1.00  0.00     0.010 A 
HETATM   22  C   UNL     1     -42.696 -47.739  10.361  1.00  0.00     0.018 A 
HETATM   23  C   UNL     1     -42.343 -46.488   9.887  1.00  0.00     0.087 A 
HETATM   24  N   UNL     1     -41.167 -45.885  10.163  1.00  0.00    -0.375 N 
HETATM   25  C   UNL     1     -40.304 -46.569  10.949  1.00  0.00     0.094 A 
ATOM     26  HN  UNL     1     -40.940 -44.960   9.798  1.00  0.00     0.164 HD
ENDBRANCH  19  20
ENDBRANCH  18  19
ENDBRANCH  16  18
ENDBRANCH   1  14
TORSDOF 4
ENDMDL
MODEL 9
REMARK VINA RESULT:      -6.0      5.421      7.119
REMARK  4 active torsions:
REMARK  status: ('A' for Active; 'I' for Inactive)
REMARK       I    between atoms: C_2  and  N_3 
REMARK    1  A    between atoms: C_2  and  C_13 
REMARK    2  A    between atoms: N_3  and  C_4 
REMARK    3  A    between atoms: C_4  and  C_5 
REMARK    4  A    between atoms: C_5  and  C_6 
ROOT
HETATM    1  C   UNL     1     -42.068 -54.351  14.410  1.00  0.00     0.076 A 
HETATM    2  C   UNL     1     -41.566 -53.568  13.434  1.00  0.00     0.022 A 
HETATM    3  C   UNL     1     -40.152 -53.310  13.293  1.00  0.00     0.018 A 
HETATM    4  C   UNL     1     -39.294 -53.859  14.160  1.00  0.00     0.092 A 
HETATM    5  N   UNL     1     -39.697 -54.669  15.216  1.00  0.00    -0.341 N 
HETATM    6  C   UNL     1     -38.691 -55.329  16.049  1.00  0.00     0.146 C 
HETATM    7  C   UNL     1     -39.199 -55.494  17.451  1.00  0.00     0.183 C 
HETATM    8  S   UNL     1     -40.640 -56.499  17.372  1.00  0.00     0.233 S 
HETATM    9  O   UNL     1     -40.249 -57.786  16.833  1.00  0.00    -0.206 OA
HETATM   10  O   UNL     1     -41.288 -56.417  18.664  1.00  0.00    -0.206 OA
HETATM   11  N   UNL     1     -41.569 -55.738  16.297  1.00  0.00    -0.269 N 
ATOM     12  HN  UNL     1     -42.581 -55.864  16.339  1.00  0.00     0.180 HD
HETATM   13  C   UNL     1     -41.066 -54.969  15.376  1.00  0.00     0.132 A 
ENDROOT
BRANCH   1  14
HETATM   14  C   UNL     1     -43.553 -54.543  14.436  1.00  0.00     0.255 C 
HETATM   15  O   UNL     1     -44.066 -55.490  15.030  1.00  0.00    -0.268 OA
HETATM   16  N   UNL     1     -44.295 -53.609  13.756  1.00  0.00    -0.356 N 
HETATM   17  H   UNL     1     -43.813 -52.771  13.438  1.00  0.00     0.162 HD
BRANCH  16  18
HETATM   18  C   UNL     1     -45.741 -53.608  13.830  1.00  0.00     0.127 C 
BRANCH  18  19
HETATM   19  C   UNL     1     -46.332 -52.200  13.750  1.00  0.00     0.060 C 
BRANCH  19  20
HETATM   20  C   UNL     1     -46.382 -51.547  15.105  1.00  0.00    -0.041 A 
HETATM   21  C   UNL     1     -45.287 -50.848  15.617  1.00  0.00     0.010 A 
HETATM   22  C   UNL     1     -45.356 -50.295  16.893  1.00  0.00     0.018 A 
HETATM   23  C   UNL     1     -46.522 -50.463  17.619  1.00  0.00     0.087 A 
HETATM   24  N   UNL     1     -47.602 -51.132  17.160  1.00  0.00    -0.375 N 
HETATM   25  C   UNL     1     -47.507 -51.659  15.918  1.00  0.00     0.094 A 
ATOM     26  HN  UNL     1     -48.447 -51.235  17.723  1.00  0.00     0.164 HD
ENDBRANCH  19  20
ENDBRANCH  18  19
ENDBRANCH  16  18
ENDBRANCH   1  14
TORSDOF 4
ENDMDL
