MODEL 1
REMARK VINA RESULT:      -5.5      0.000      0.000
REMARK  6 active torsions:
REMARK  status: ('A' for Active; 'I' for Inactive)
REMARK    1  A    between atoms: C_2  and  N_3 
REMARK    2  A    between atoms: C_2  and  C_13 
REMARK    3  A    between atoms: N_3  and  C_4 
REMARK    4  A    between atoms: C_4  and  C_5 
REMARK    5  A    between atoms: C_5  and  N_6 
REMARK    6  A    between atoms: C_13  and  N_15 
ROOT
HETATM    1  N   UNL     1     -42.040 -54.212  12.908  1.00  0.00     0.091 N 
HETATM    2  H   UNL     1     -42.210 -53.529  12.169  1.00  0.00     0.316 HD
ENDROOT
BRANCH   1   3
HETATM    3  C   UNL     1     -43.162 -54.177  13.875  1.00  0.00     0.240 C 
HETATM    4  C   UNL     1     -42.907 -55.185  15.007  1.00  0.00     0.045 C 
BRANCH   3   5
HETATM    5  C   UNL     1     -44.587 -54.320  13.248  1.00  0.00     0.136 C 
HETATM    6  C   UNL     1     -45.406 -55.463  13.863  1.00  0.00     0.036 C 
BRANCH   5   7
HETATM    7  N   UNL     1     -45.361 -53.078  13.324  1.00  0.00    -0.297 N 
HETATM    8  C   UNL     1     -46.049 -52.587  14.401  1.00  0.00     0.112 A 
HETATM    9  C   UNL     1     -46.663 -51.434  13.970  1.00  0.00     0.037 A 
HETATM   10  C   UNL     1     -46.306 -51.326  12.615  1.00  0.00     0.108 A 
HETATM   11  N   UNL     1     -45.541 -52.341  12.207  1.00  0.00    -0.310 N 
ATOM     12  HN  UNL     1     -45.178 -52.518  11.270  1.00  0.00     0.186 HD
ENDBRANCH   5   7
ENDBRANCH   3   5
ENDBRANCH   1   3
BRANCH   1  13
HETATM   13  C   UNL     1     -40.713 -53.968  13.494  1.00  0.00     0.290 C 
BRANCH  13  14
HETATM   14  C   UNL     1     -40.583 -52.517  13.990  1.00  0.00     0.166 C 
BRANCH  14  15
HETATM   15  N   UNL     1     -40.397 -51.571  12.903  1.00  0.00    -0.267 N 
HETATM   16  C   UNL     1     -41.403 -50.910  12.256  1.00  0.00     0.245 A 
HETATM   17  O   UNL     1     -42.605 -51.032  12.442  1.00  0.00    -0.271 OA
HETATM   18  C   UNL     1     -40.782 -49.940  11.265  1.00  0.00     0.227 A 
HETATM   19  N   UNL     1     -39.388 -50.203  11.470  1.00  0.00    -0.334 N 
HETATM   20  C   UNL     1     -39.182 -51.137  12.460  1.00  0.00     0.325 A 
HETATM   21  H   UNL     1     -38.612 -49.721  11.034  1.00  0.00     0.164 HD
HETATM   22  O   UNL     1     -38.081 -51.481  12.852  1.00  0.00    -0.247 OA
ENDBRANCH  14  15
ENDBRANCH  13  14
ENDBRANCH   1  13
TORSDOF 6
ENDMDL
MODEL 2
REMARK VINA RESULT:      -5.2      2.570      6.028
REMARK  6 active torsions:
REMARK  status: ('A' for Active; 'I' for Inactive)
REMARK    1  A    between atoms: C_2  and  N_3 
REMARK    2  A    between atoms: C_2  and  C_13 
REMARK    3  A    between atoms: N_3  and  C_4 
REMARK    4  A    between atoms: C_4  and  C_5 
REMARK    5  A    between atoms: C_5  and  N_6 
REMARK    6  A    between atoms: C_13  and  N_15 
ROOT
HETATM    1  N   UNL     1     -42.706 -51.460  12.195  1.00  0.00     0.091 N 
HETATM    2  H   UNL     1     -43.252 -51.497  11.334  1.00  0.00     0.316 HD
ENDROOT
BRANCH   1   3
HETATM    3  C   UNL     1     -41.326 -51.020  11.880  1.00  0.00     0.240 C 
HETATM    4  C   UNL     1     -40.314 -51.906  12.624  1.00  0.00     0.045 C 
BRANCH   3   5
HETATM    5  C   UNL     1     -41.052 -49.494  12.076  1.00  0.00     0.136 C 
HETATM    6  C   UNL     1     -39.594 -49.101  11.801  1.00  0.00     0.036 C 
BRANCH   5   7
HETATM    7  N   UNL     1     -41.938 -48.656  11.264  1.00  0.00    -0.297 N 
HETATM    8  C   UNL     1     -43.110 -48.061  11.649  1.00  0.00     0.112 A 
HETATM    9  C   UNL     1     -43.607 -47.435  10.529  1.00  0.00     0.037 A 
HETATM   10  C   UNL     1     -42.679 -47.729   9.515  1.00  0.00     0.108 A 
HETATM   11  N   UNL     1     -41.679 -48.500   9.947  1.00  0.00    -0.310 N 
ATOM     12  HN  UNL     1     -40.900 -48.881   9.410  1.00  0.00     0.186 HD
ENDBRANCH   5   7
ENDBRANCH   3   5
ENDBRANCH   1   3
BRANCH   1  13
HETATM   13  C   UNL     1     -42.799 -52.757  12.882  1.00  0.00     0.290 C 
BRANCH  13  14
HETATM   14  C   UNL     1     -44.011 -53.564  12.383  1.00  0.00     0.166 C 
BRANCH  14  15
HETATM   15  N   UNL     1     -45.138 -53.501  13.297  1.00  0.00    -0.267 N 
HETATM   16  C   UNL     1     -45.914 -52.396  13.513  1.00  0.00     0.245 A 
HETATM   17  O   UNL     1     -45.769 -51.286  13.022  1.00  0.00    -0.271 OA
HETATM   18  C   UNL     1     -47.043 -52.778  14.455  1.00  0.00     0.227 A 
HETATM   19  N   UNL     1     -46.736 -54.157  14.696  1.00  0.00    -0.334 N 
HETATM   20  C   UNL     1     -45.635 -54.571  13.981  1.00  0.00     0.325 A 
HETATM   21  H   UNL     1     -47.283 -54.811  15.242  1.00  0.00     0.164 HD
HETATM   22  O   UNL     1     -45.217 -55.715  13.978  1.00  0.00    -0.247 OA
ENDBRANCH  14  15
ENDBRANCH  13  14
ENDBRANCH   1  13
TORSDOF 6
ENDMDL
MODEL 3
REMARK VINA RESULT:      -5.2      3.066      6.120
REMARK  6 active torsions:
REMARK  status: ('A' for Active; 'I' for Inactive)
REMARK    1  A    between atoms: C_2  and  N_3 
REMARK    2  A    between atoms: C_2  and  C_13 
REMARK    3  A    between atoms: N_3  and  C_4 
REMARK    4  A    between atoms: C_4  and  C_5 
REMARK    5  A    between atoms: C_5  and  N_6 
REMARK    6  A    between atoms: C_13  and  N_15 
ROOT
HETATM    1  N   UNL     1     -42.337 -50.142  11.783  1.00  0.00     0.091 N 
HETATM    2  H   UNL     1     -42.779 -50.613  10.992  1.00  0.00     0.316 HD
ENDROOT
BRANCH   1   3
HETATM    3  C   UNL     1     -41.356 -49.154  11.276  1.00  0.00     0.240 C 
HETATM    4  C   UNL     1     -40.087 -49.187  12.143  1.00  0.00     0.045 C 
BRANCH   3   5
HETATM    5  C   UNL     1     -41.912 -47.707  11.074  1.00  0.00     0.136 C 
HETATM    6  C   UNL     1     -40.814 -46.671  10.796  1.00  0.00     0.036 C 
BRANCH   5   7
HETATM    7  N   UNL     1     -42.920 -47.636  10.013  1.00  0.00    -0.297 N 
HETATM    8  C   UNL     1     -44.266 -47.425  10.153  1.00  0.00     0.112 A 
HETATM    9  C   UNL     1     -44.800 -47.505   8.887  1.00  0.00     0.037 A 
HETATM   10  C   UNL     1     -43.702 -47.790   8.056  1.00  0.00     0.108 A 
HETATM   11  N   UNL     1     -42.562 -47.905   8.739  1.00  0.00    -0.310 N 
ATOM     12  HN  UNL     1     -41.635 -48.140   8.383  1.00  0.00     0.186 HD
ENDBRANCH   5   7
ENDBRANCH   3   5
ENDBRANCH   1   3
BRANCH   1  13
HETATM   13  C   UNL     1     -41.780 -51.151  12.696  1.00  0.00     0.290 C 
BRANCH  13  14
HETATM   14  C   UNL     1     -41.903 -52.566  12.102  1.00  0.00     0.166 C 
BRANCH  14  15
HETATM   15  N   UNL     1     -42.586 -53.487  12.994  1.00  0.00    -0.267 N 
HETATM   16  C   UNL     1     -42.010 -54.125  14.057  1.00  0.00     0.245 A 
HETATM   17  O   UNL     1     -40.839 -54.068  14.405  1.00  0.00    -0.271 OA
HETATM   18  C   UNL     1     -43.086 -54.909  14.789  1.00  0.00     0.227 A 
HETATM   19  N   UNL     1     -44.230 -54.616  13.976  1.00  0.00    -0.334 N 
HETATM   20  C   UNL     1     -43.923 -53.753  12.949  1.00  0.00     0.325 A 
HETATM   21  H   UNL     1     -45.184 -54.908  14.149  1.00  0.00     0.164 HD
HETATM   22  O   UNL     1     -44.742 -53.314  12.162  1.00  0.00    -0.247 OA
ENDBRANCH  14  15
ENDBRANCH  13  14
ENDBRANCH   1  13
TORSDOF 6
ENDMDL
MODEL 4
REMARK VINA RESULT:      -5.2      3.165      5.957
REMARK  6 active torsions:
REMARK  status: ('A' for Active; 'I' for Inactive)
REMARK    1  A    between atoms: C_2  and  N_3 
REMARK    2  A    between atoms: C_2  and  C_13 
REMARK    3  A    between atoms: N_3  and  C_4 
REMARK    4  A    between atoms: C_4  and  C_5 
REMARK    5  A    between atoms: C_5  and  N_6 
REMARK    6  A    between atoms: C_13  and  N_15 
ROOT
HETATM    1  N   UNL     1     -41.973 -49.891  11.588  1.00  0.00     0.091 N 
HETATM    2  H   UNL     1     -42.611 -50.253  10.878  1.00  0.00     0.316 HD
ENDROOT
BRANCH   1   3
HETATM    3  C   UNL     1     -41.189 -48.772  11.017  1.00  0.00     0.240 C 
HETATM    4  C   UNL     1     -39.883 -48.594  11.807  1.00  0.00     0.045 C 
BRANCH   3   5
HETATM    5  C   UNL     1     -41.974 -47.432  10.838  1.00  0.00     0.136 C 
HETATM    6  C   UNL     1     -41.063 -46.233  10.539  1.00  0.00     0.036 C 
BRANCH   5   7
HETATM    7  N   UNL     1     -43.008 -47.520   9.804  1.00  0.00    -0.297 N 
HETATM    8  C   UNL     1     -44.360 -47.368   9.959  1.00  0.00     0.112 A 
HETATM    9  C   UNL     1     -44.916 -47.602   8.723  1.00  0.00     0.037 A 
HETATM   10  C   UNL     1     -43.824 -47.911   7.894  1.00  0.00     0.108 A 
HETATM   11  N   UNL     1     -42.663 -47.897   8.553  1.00  0.00    -0.310 N 
ATOM     12  HN  UNL     1     -41.733 -48.117   8.196  1.00  0.00     0.186 HD
ENDBRANCH   5   7
ENDBRANCH   3   5
ENDBRANCH   1   3
BRANCH   1  13
HETATM   13  C   UNL     1     -41.168 -51.001  12.121  1.00  0.00     0.290 C 
BRANCH  13  14
HETATM   14  C   UNL     1     -41.729 -51.499  13.465  1.00  0.00     0.166 C 
BRANCH  14  15
HETATM   15  N   UNL     1     -42.882 -52.367  13.301  1.00  0.00    -0.267 N 
HETATM   16  C   UNL     1     -44.174 -51.940  13.169  1.00  0.00     0.245 A 
HETATM   17  O   UNL     1     -44.579 -50.787  13.213  1.00  0.00    -0.271 OA
HETATM   18  C   UNL     1     -45.057 -53.150  12.912  1.00  0.00     0.227 A 
HETATM   19  N   UNL     1     -44.086 -54.203  12.953  1.00  0.00    -0.334 N 
HETATM   20  C   UNL     1     -42.812 -53.720  13.147  1.00  0.00     0.325 A 
HETATM   21  H   UNL     1     -44.252 -55.185  12.774  1.00  0.00     0.164 HD
HETATM   22  O   UNL     1     -41.814 -54.419  13.160  1.00  0.00    -0.247 OA
ENDBRANCH  14  15
ENDBRANCH  13  14
ENDBRANCH   1  13
TORSDOF 6
ENDMDL
MODEL 5
REMARK VINA RESULT:      -5.2      3.631      6.437
REMARK  6 active torsions:
REMARK  status: ('A' for Active; 'I' for Inactive)
REMARK    1  A    between atoms: C_2  and  N_3 
REMARK    2  A    between atoms: C_2  and  C_13 
REMARK    3  A    between atoms: N_3  and  C_4 
REMARK    4  A    between atoms: C_4  and  C_5 
REMARK    5  A    between atoms: C_5  and  N_6 
REMARK    6  A    between atoms: C_13  and  N_15 
ROOT
HETATM    1  N   UNL     1     -39.645 -47.603  11.400  1.00  0.00     0.091 N 
HETATM    2  H   UNL     1     -40.382 -47.925  10.772  1.00  0.00     0.316 HD
ENDROOT
BRANCH   1   3
HETATM    3  C   UNL     1     -39.353 -48.662  12.394  1.00  0.00     0.240 C 
HETATM    4  C   UNL     1     -38.311 -48.157  13.405  1.00  0.00     0.045 C 
BRANCH   3   5
HETATM    5  C   UNL     1     -38.983 -50.057  11.792  1.00  0.00     0.136 C 
HETATM    6  C   UNL     1     -37.560 -50.510  12.146  1.00  0.00     0.036 C 
BRANCH   5   7
HETATM    7  N   UNL     1     -39.932 -51.104  12.180  1.00  0.00    -0.297 N 
HETATM    8  C   UNL     1     -39.885 -51.905  13.290  1.00  0.00     0.112 A 
HETATM    9  C   UNL     1     -40.951 -52.768  13.185  1.00  0.00     0.037 A 
HETATM   10  C   UNL     1     -41.566 -52.427  11.967  1.00  0.00     0.108 A 
HETATM   11  N   UNL     1     -40.932 -51.438  11.335  1.00  0.00    -0.310 N 
ATOM     12  HN  UNL     1     -41.150 -51.030  10.426  1.00  0.00     0.186 HD
ENDBRANCH   5   7
ENDBRANCH   3   5
ENDBRANCH   1   3
BRANCH   1  13
HETATM   13  C   UNL     1     -40.034 -46.307  11.976  1.00  0.00     0.290 C 
BRANCH  13  14
HETATM   14  C   UNL     1     -41.529 -46.288  12.342  1.00  0.00     0.166 C 
BRANCH  14  15
HETATM   15  N   UNL     1     -42.383 -46.634  11.219  1.00  0.00    -0.267 N 
HETATM   16  C   UNL     1     -42.769 -45.771  10.231  1.00  0.00     0.245 A 
HETATM   17  O   UNL     1     -42.509 -44.579  10.149  1.00  0.00    -0.271 OA
HETATM   18  C   UNL     1     -43.563 -46.549   9.196  1.00  0.00     0.227 A 
HETATM   19  N   UNL     1     -43.549 -47.859   9.777  1.00  0.00    -0.334 N 
HETATM   20  C   UNL     1     -42.822 -47.895  10.945  1.00  0.00     0.325 A 
HETATM   21  H   UNL     1     -43.931 -48.704   9.371  1.00  0.00     0.164 HD
HETATM   22  O   UNL     1     -42.620 -48.909  11.589  1.00  0.00    -0.247 OA
ENDBRANCH  14  15
ENDBRANCH  13  14
ENDBRANCH   1  13
TORSDOF 6
ENDMDL
MODEL 6
REMARK VINA RESULT:      -5.1      2.578      6.745
REMARK  6 active torsions:
REMARK  status: ('A' for Active; 'I' for Inactive)
REMARK    1  A    between atoms: C_2  and  N_3 
REMARK    2  A    between atoms: C_2  and  C_13 
REMARK    3  A    between atoms: N_3  and  C_4 
REMARK    4  A    between atoms: C_4  and  C_5 
REMARK    5  A    between atoms: C_5  and  N_6 
REMARK    6  A    between atoms: C_13  and  N_15 
ROOT
HETATM    1  N   UNL     1     -43.165 -51.002  12.452  1.00  0.00     0.091 N 
HETATM    2  H   UNL     1     -43.296 -51.151  11.450  1.00  0.00     0.316 HD
ENDROOT
BRANCH   1   3
HETATM    3  C   UNL     1     -42.169 -49.925  12.659  1.00  0.00     0.240 C 
HETATM    4  C   UNL     1     -42.865 -48.669  13.206  1.00  0.00     0.045 C 
BRANCH   3   5
HETATM    5  C   UNL     1     -41.251 -49.621  11.431  1.00  0.00     0.136 C 
HETATM    6  C   UNL     1     -41.598 -48.301  10.729  1.00  0.00     0.036 C 
BRANCH   5   7
HETATM    7  N   UNL     1     -39.828 -49.620  11.780  1.00  0.00    -0.297 N 
HETATM    8  C   UNL     1     -39.247 -49.128  12.919  1.00  0.00     0.112 A 
HETATM    9  C   UNL     1     -37.891 -49.298  12.762  1.00  0.00     0.037 A 
HETATM   10  C   UNL     1     -37.750 -49.878  11.489  1.00  0.00     0.108 A 
HETATM   11  N   UNL     1     -38.922 -50.045  10.872  1.00  0.00    -0.310 N 
ATOM     12  HN  UNL     1     -39.095 -50.409   9.935  1.00  0.00     0.186 HD
ENDBRANCH   5   7
ENDBRANCH   3   5
ENDBRANCH   1   3
BRANCH   1  13
HETATM   13  C   UNL     1     -42.831 -52.284  13.090  1.00  0.00     0.290 C 
BRANCH  13  14
HETATM   14  C   UNL     1     -43.667 -53.433  12.499  1.00  0.00     0.166 C 
BRANCH  14  15
HETATM   15  N   UNL     1     -44.882 -53.685  13.255  1.00  0.00    -0.267 N 
HETATM   16  C   UNL     1     -45.009 -54.613  14.251  1.00  0.00     0.245 A 
HETATM   17  O   UNL     1     -44.160 -55.403  14.636  1.00  0.00    -0.271 OA
HETATM   18  C   UNL     1     -46.398 -54.484  14.853  1.00  0.00     0.227 A 
HETATM   19  N   UNL     1     -46.942 -53.430  14.049  1.00  0.00    -0.334 N 
HETATM   20  C   UNL     1     -46.025 -52.951  13.141  1.00  0.00     0.325 A 
HETATM   21  H   UNL     1     -47.849 -52.993  14.158  1.00  0.00     0.164 HD
HETATM   22  O   UNL     1     -46.237 -52.017  12.388  1.00  0.00    -0.247 OA
ENDBRANCH  14  15
ENDBRANCH  13  14
ENDBRANCH   1  13
TORSDOF 6
ENDMDL
MODEL 7
REMARK VINA RESULT:      -5.1      2.108      3.131
REMARK  6 active torsions:
REMARK  status: ('A' for Active; 'I' for Inactive)
REMARK    1  A    between atoms: C_2  and  N_3 
REMARK    2  A    between atoms: C_2  and  C_13 
REMARK    3  A    between atoms: N_3  and  C_4 
REMARK    4  A    between atoms: C_4  and  C_5 
REMARK    5  A    between atoms: C_5  and  N_6 
REMARK    6  A    between atoms: C_13  and  N_15 
ROOT
HETATM    1  N   UNL     1     -42.241 -51.915  11.907  1.00  0.00     0.091 N 
HETATM    2  H   UNL     1     -43.152 -51.795  11.462  1.00  0.00     0.316 HD
ENDROOT
BRANCH   1   3
HETATM    3  C   UNL     1     -42.354 -52.922  12.988  1.00  0.00     0.240 C 
HETATM    4  C   UNL     1     -41.156 -53.883  12.932  1.00  0.00     0.045 C 
BRANCH   3   5
HETATM    5  C   UNL     1     -43.725 -53.670  13.062  1.00  0.00     0.136 C 
HETATM    6  C   UNL     1     -43.793 -54.697  14.200  1.00  0.00     0.036 C 
BRANCH   5   7
HETATM    7  N   UNL     1     -44.860 -52.750  13.174  1.00  0.00    -0.297 N 
HETATM    8  C   UNL     1     -45.336 -52.144  14.307  1.00  0.00     0.112 A 
HETATM    9  C   UNL     1     -46.445 -51.429  13.921  1.00  0.00     0.037 A 
HETATM   10  C   UNL     1     -46.573 -51.685  12.545  1.00  0.00     0.108 A 
HETATM   11  N   UNL     1     -45.632 -52.515  12.091  1.00  0.00    -0.310 N 
ATOM     12  HN  UNL     1     -45.520 -52.885  11.147  1.00  0.00     0.186 HD
ENDBRANCH   5   7
ENDBRANCH   3   5
ENDBRANCH   1   3
BRANCH   1  13
HETATM   13  C   UNL     1     -41.739 -50.601  12.337  1.00  0.00     0.290 C 
BRANCH  13  14
HETATM   14  C   UNL     1     -40.710 -50.045  11.337  1.00  0.00     0.166 C 
BRANCH  14  15
HETATM   15  N   UNL     1     -40.658 -48.593  11.339  1.00  0.00    -0.267 N 
HETATM   16  C   UNL     1     -39.728 -47.841  12.000  1.00  0.00     0.245 A 
HETATM   17  O   UNL     1     -38.830 -48.246  12.724  1.00  0.00    -0.271 OA
HETATM   18  C   UNL     1     -39.961 -46.379  11.658  1.00  0.00     0.227 A 
HETATM   19  N   UNL     1     -41.098 -46.484  10.793  1.00  0.00    -0.334 N 
HETATM   20  C   UNL     1     -41.470 -47.793  10.590  1.00  0.00     0.325 A 
HETATM   21  H   UNL     1     -41.549 -45.727  10.293  1.00  0.00     0.164 HD
HETATM   22  O   UNL     1     -42.372 -48.137   9.847  1.00  0.00    -0.247 OA
ENDBRANCH  14  15
ENDBRANCH  13  14
ENDBRANCH   1  13
TORSDOF 6
ENDMDL
MODEL 8
REMARK VINA RESULT:      -5.1      1.703      2.301
REMARK  6 active torsions:
REMARK  status: ('A' for Active; 'I' for Inactive)
REMARK    1  A    between atoms: C_2  and  N_3 
REMARK    2  A    between atoms: C_2  and  C_13 
REMARK    3  A    between atoms: N_3  and  C_4 
REMARK    4  A    between atoms: C_4  and  C_5 
REMARK    5  A    between atoms: C_5  and  N_6 
REMARK    6  A    between atoms: C_13  and  N_15 
ROOT
HETATM    1  N   UNL     1     -42.194 -52.206  11.832  1.00  0.00     0.091 N 
HETATM    2  H   UNL     1     -43.068 -52.147  11.307  1.00  0.00     0.316 HD
ENDROOT
BRANCH   1   3
HETATM    3  C   UNL     1     -42.375 -53.126  12.980  1.00  0.00     0.240 C 
HETATM    4  C   UNL     1     -41.225 -54.145  13.017  1.00  0.00     0.045 C 
BRANCH   3   5
HETATM    5  C   UNL     1     -43.782 -53.800  13.078  1.00  0.00     0.136 C 
HETATM    6  C   UNL     1     -43.887 -54.815  14.225  1.00  0.00     0.036 C 
BRANCH   5   7
HETATM    7  N   UNL     1     -44.866 -52.821  13.201  1.00  0.00    -0.297 N 
HETATM    8  C   UNL     1     -45.319 -52.215  14.343  1.00  0.00     0.112 A 
HETATM    9  C   UNL     1     -46.383 -51.430  13.963  1.00  0.00     0.037 A 
HETATM   10  C   UNL     1     -46.509 -51.646  12.579  1.00  0.00     0.108 A 
HETATM   11  N   UNL     1     -45.610 -52.517  12.116  1.00  0.00    -0.310 N 
ATOM     12  HN  UNL     1     -45.509 -52.871  11.164  1.00  0.00     0.186 HD
ENDBRANCH   5   7
ENDBRANCH   3   5
ENDBRANCH   1   3
BRANCH   1  13
HETATM   13  C   UNL     1     -41.757 -50.849  12.193  1.00  0.00     0.290 C 
BRANCH  13  14
HETATM   14  C   UNL     1     -40.473 -50.460  11.438  1.00  0.00     0.166 C 
BRANCH  14  15
HETATM   15  N   UNL     1     -39.438 -49.953  12.322  1.00  0.00    -0.267 N 
HETATM   16  C   UNL     1     -39.251 -48.637  12.640  1.00  0.00     0.245 A 
HETATM   17  O   UNL     1     -39.876 -47.678  12.210  1.00  0.00    -0.271 OA
HETATM   18  C   UNL     1     -38.140 -48.544  13.671  1.00  0.00     0.227 A 
HETATM   19  N   UNL     1     -37.787 -49.927  13.810  1.00  0.00    -0.334 N 
HETATM   20  C   UNL     1     -38.583 -50.740  13.037  1.00  0.00     0.325 A 
HETATM   21  H   UNL     1     -37.108 -50.315  14.453  1.00  0.00     0.164 HD
HETATM   22  O   UNL     1     -38.512 -51.956  13.032  1.00  0.00    -0.247 OA
ENDBRANCH  14  15
ENDBRANCH  13  14
ENDBRANCH   1  13
TORSDOF 6
ENDMDL
MODEL 9
REMARK VINA RESULT:      -5.0      5.094      7.496
REMARK  6 active torsions:
REMARK  status: ('A' for Active; 'I' for Inactive)
REMARK    1  A    between atoms: C_2  and  N_3 
REMARK    2  A    between atoms: C_2  and  C_13 
REMARK    3  A    between atoms: N_3  and  C_4 
REMARK    4  A    between atoms: C_4  and  C_5 
REMARK    5  A    between atoms: C_5  and  N_6 
REMARK    6  A    between atoms: C_13  and  N_15 
ROOT
HETATM    1  N   UNL     1     -39.717 -46.359  11.879  1.00  0.00     0.091 N 
HETATM    2  H   UNL     1     -39.898 -47.302  11.531  1.00  0.00     0.316 HD
ENDROOT
BRANCH   1   3
HETATM    3  C   UNL     1     -39.985 -46.316  13.335  1.00  0.00     0.240 C 
HETATM    4  C   UNL     1     -38.944 -45.423  14.030  1.00  0.00     0.045 C 
BRANCH   3   5
HETATM    5  C   UNL     1     -40.142 -47.709  14.026  1.00  0.00     0.136 C 
HETATM    6  C   UNL     1     -41.599 -48.181  14.112  1.00  0.00     0.036 C 
BRANCH   5   7
HETATM    7  N   UNL     1     -39.336 -48.749  13.380  1.00  0.00    -0.297 N 
HETATM    8  C   UNL     1     -37.973 -48.877  13.390  1.00  0.00     0.112 A 
HETATM    9  C   UNL     1     -37.684 -49.964  12.598  1.00  0.00     0.037 A 
HETATM   10  C   UNL     1     -38.935 -50.410  12.136  1.00  0.00     0.108 A 
HETATM   11  N   UNL     1     -39.941 -49.655  12.581  1.00  0.00    -0.310 N 
ATOM     12  HN  UNL     1     -40.935 -49.742  12.368  1.00  0.00     0.186 HD
ENDBRANCH   5   7
ENDBRANCH   3   5
ENDBRANCH   1   3
BRANCH   1  13
HETATM   13  C   UNL     1     -40.490 -45.395  11.081  1.00  0.00     0.290 C 
BRANCH  13  14
HETATM   14  C   UNL     1     -42.003 -45.625  11.243  1.00  0.00     0.166 C 
BRANCH  14  15
HETATM   15  N   UNL     1     -42.566 -46.411  10.159  1.00  0.00    -0.267 N 
HETATM   16  C   UNL     1     -43.371 -45.920   9.168  1.00  0.00     0.245 A 
HETATM   17  O   UNL     1     -43.783 -44.775   9.052  1.00  0.00    -0.271 OA
HETATM   18  C   UNL     1     -43.653 -47.039   8.179  1.00  0.00     0.227 A 
HETATM   19  N   UNL     1     -42.935 -48.121   8.787  1.00  0.00    -0.334 N 
HETATM   20  C   UNL     1     -42.276 -47.723   9.928  1.00  0.00     0.325 A 
HETATM   21  H   UNL     1     -42.820 -49.054   8.413  1.00  0.00     0.164 HD
HETATM   22  O   UNL     1     -41.554 -48.452  10.585  1.00  0.00    -0.247 OA
ENDBRANCH  14  15
ENDBRANCH  13  14
ENDBRANCH   1  13
TORSDOF 6
ENDMDL
