MODEL 1
REMARK VINA RESULT:      -6.7      0.000      0.000
REMARK  4 active torsions:
REMARK  status: ('A' for Active; 'I' for Inactive)
REMARK       I    between atoms: N_2  and  C_3 
REMARK    1  A    between atoms: C_3  and  C_5 
REMARK    2  A    between atoms: N_10  and  C_11 
REMARK    3  A    between atoms: C_11  and  C_12 
REMARK       I    between atoms: C_12  and  N_14 
REMARK    4  A    between atoms: N_14  and  C_15 
ROOT
HETATM    1  C   UNL     1     -41.841 -48.079  11.082  1.00  0.00     0.047 A 
HETATM    2  C   UNL     1     -40.577 -47.381  11.205  1.00  0.00     0.024 A 
HETATM    3  C   UNL     1     -39.635 -47.815  12.055  1.00  0.00     0.075 A 
HETATM    4  C   UNL     1     -39.856 -49.038  12.873  1.00  0.00     0.247 A 
HETATM    5  O   UNL     1     -38.960 -49.437  13.608  1.00  0.00    -0.268 OA
HETATM    6  N   UNL     1     -41.091 -49.659  12.707  1.00  0.00    -0.315 N 
HETATM    7  C   UNL     1     -42.056 -49.174  11.834  1.00  0.00     0.111 A 
ENDROOT
BRANCH   6   8
HETATM    8  C   UNL     1     -41.357 -50.887  13.460  1.00  0.00     0.234 C 
BRANCH   8   9
HETATM    9  C   UNL     1     -42.454 -51.797  12.884  1.00  0.00     0.236 C 
HETATM   10  O   UNL     1     -42.236 -52.486  11.886  1.00  0.00    -0.272 OA
HETATM   11  N   UNL     1     -43.635 -51.872  13.594  1.00  0.00    -0.355 N 
HETATM   12  H   UNL     1     -43.797 -51.179  14.314  1.00  0.00     0.162 HD
BRANCH  11  13
HETATM   13  C   UNL     1     -44.752 -52.702  13.144  1.00  0.00     0.088 C 
HETATM   14  C   UNL     1     -46.005 -51.849  12.890  1.00  0.00     0.025 C 
HETATM   15  C   UNL     1     -46.687 -51.397  14.181  1.00  0.00     0.002 C 
HETATM   16  C   UNL     1     -46.996 -52.574  15.098  1.00  0.00     0.001 C 
HETATM   17  C   UNL     1     -45.743 -53.391  15.401  1.00  0.00     0.006 C 
HETATM   18  C   UNL     1     -45.061 -53.868  14.111  1.00  0.00     0.004 C 
HETATM   19  C   UNL     1     -43.824 -54.709  14.427  1.00  0.00     0.012 C 
ENDBRANCH  11  13
ENDBRANCH   8   9
ENDBRANCH   6   8
BRANCH   1  20
HETATM   20  C   UNL     1     -42.894 -47.744  10.072  1.00  0.00     0.252 C 
HETATM   21  N   UNL     1     -42.590 -48.039   8.767  1.00  0.00    -0.361 N 
HETATM   22  C   UNL     1     -43.555 -47.793   7.723  1.00  0.00     0.149 C 
HETATM   23  H   UNL     1     -41.657 -48.316   8.502  1.00  0.00     0.162 HD
HETATM   24  O   UNL     1     -43.959 -47.236  10.406  1.00  0.00    -0.268 OA
ENDBRANCH   1  20
TORSDOF 4
ENDMDL
MODEL 2
REMARK VINA RESULT:      -6.6      1.356      1.548
REMARK  4 active torsions:
REMARK  status: ('A' for Active; 'I' for Inactive)
REMARK       I    between atoms: N_2  and  C_3 
REMARK    1  A    between atoms: C_3  and  C_5 
REMARK    2  A    between atoms: N_10  and  C_11 
REMARK    3  A    between atoms: C_11  and  C_12 
REMARK       I    between atoms: C_12  and  N_14 
REMARK    4  A    between atoms: N_14  and  C_15 
ROOT
HETATM    1  C   UNL     1     -40.447 -48.927  11.579  1.00  0.00     0.047 A 
HETATM    2  C   UNL     1     -39.020 -49.140  11.439  1.00  0.00     0.024 A 
HETATM    3  C   UNL     1     -38.415 -50.159  12.065  1.00  0.00     0.075 A 
HETATM    4  C   UNL     1     -39.199 -51.112  12.897  1.00  0.00     0.247 A 
HETATM    5  O   UNL     1     -38.627 -52.061  13.421  1.00  0.00    -0.268 OA
HETATM    6  N   UNL     1     -40.563 -50.849  12.991  1.00  0.00    -0.315 N 
HETATM    7  C   UNL     1     -41.158 -49.772  12.348  1.00  0.00     0.111 A 
ENDROOT
BRANCH   6   8
HETATM    8  C   UNL     1     -41.395 -51.770  13.769  1.00  0.00     0.234 C 
BRANCH   8   9
HETATM    9  C   UNL     1     -42.665 -52.275  13.067  1.00  0.00     0.236 C 
HETATM   10  O   UNL     1     -42.602 -52.778  11.944  1.00  0.00    -0.272 OA
HETATM   11  N   UNL     1     -43.838 -52.226  13.793  1.00  0.00    -0.355 N 
HETATM   12  H   UNL     1     -43.844 -51.675  14.642  1.00  0.00     0.162 HD
BRANCH  11  13
HETATM   13  C   UNL     1     -45.111 -52.677  13.230  1.00  0.00     0.088 C 
HETATM   14  C   UNL     1     -46.152 -51.547  13.251  1.00  0.00     0.025 C 
HETATM   15  C   UNL     1     -46.712 -51.279  14.649  1.00  0.00     0.002 C 
HETATM   16  C   UNL     1     -47.260 -52.550  15.289  1.00  0.00     0.001 C 
HETATM   17  C   UNL     1     -46.210 -53.657  15.324  1.00  0.00     0.006 C 
HETATM   18  C   UNL     1     -45.656 -53.947  13.922  1.00  0.00     0.004 C 
HETATM   19  C   UNL     1     -44.627 -55.077  13.966  1.00  0.00     0.012 C 
ENDBRANCH  11  13
ENDBRANCH   8   9
ENDBRANCH   6   8
BRANCH   1  20
HETATM   20  C   UNL     1     -41.224 -47.898  10.820  1.00  0.00     0.252 C 
HETATM   21  N   UNL     1     -42.310 -48.360  10.120  1.00  0.00    -0.361 N 
HETATM   22  C   UNL     1     -43.149 -47.441   9.389  1.00  0.00     0.149 C 
HETATM   23  H   UNL     1     -42.469 -49.350  10.006  1.00  0.00     0.162 HD
HETATM   24  O   UNL     1     -40.898 -46.715  10.831  1.00  0.00    -0.268 OA
ENDBRANCH   1  20
TORSDOF 4
ENDMDL
MODEL 3
REMARK VINA RESULT:      -6.5      2.240      6.542
REMARK  4 active torsions:
REMARK  status: ('A' for Active; 'I' for Inactive)
REMARK       I    between atoms: N_2  and  C_3 
REMARK    1  A    between atoms: C_3  and  C_5 
REMARK    2  A    between atoms: N_10  and  C_11 
REMARK    3  A    between atoms: C_11  and  C_12 
REMARK       I    between atoms: C_12  and  N_14 
REMARK    4  A    between atoms: N_14  and  C_15 
ROOT
HETATM    1  C   UNL     1     -42.957 -53.552  13.015  1.00  0.00     0.047 A 
HETATM    2  C   UNL     1     -41.922 -54.326  13.671  1.00  0.00     0.024 A 
HETATM    3  C   UNL     1     -40.648 -53.908  13.667  1.00  0.00     0.075 A 
HETATM    4  C   UNL     1     -40.272 -52.627  13.010  1.00  0.00     0.247 A 
HETATM    5  O   UNL     1     -39.107 -52.248  13.060  1.00  0.00    -0.268 OA
HETATM    6  N   UNL     1     -41.313 -51.935  12.397  1.00  0.00    -0.315 N 
HETATM    7  C   UNL     1     -42.620 -52.404  12.400  1.00  0.00     0.111 A 
ENDROOT
BRANCH   6   8
HETATM    8  C   UNL     1     -41.012 -50.650  11.761  1.00  0.00     0.234 C 
BRANCH   8   9
HETATM    9  C   UNL     1     -41.980 -49.503  12.088  1.00  0.00     0.236 C 
HETATM   10  O   UNL     1     -42.245 -49.220  13.258  1.00  0.00    -0.272 OA
HETATM   11  N   UNL     1     -42.446 -48.759  11.023  1.00  0.00    -0.355 N 
HETATM   12  H   UNL     1     -42.305 -49.130  10.092  1.00  0.00     0.162 HD
BRANCH  11  13
HETATM   13  C   UNL     1     -43.373 -47.644  11.209  1.00  0.00     0.088 C 
HETATM   14  C   UNL     1     -44.596 -47.785  10.289  1.00  0.00     0.025 C 
HETATM   15  C   UNL     1     -44.283 -47.455   8.829  1.00  0.00     0.002 C 
HETATM   16  C   UNL     1     -43.639 -46.081   8.687  1.00  0.00     0.001 C 
HETATM   17  C   UNL     1     -42.390 -45.955   9.555  1.00  0.00     0.006 C 
HETATM   18  C   UNL     1     -42.698 -46.265  11.027  1.00  0.00     0.004 C 
HETATM   19  C   UNL     1     -41.445 -46.108  11.890  1.00  0.00     0.012 C 
ENDBRANCH  11  13
ENDBRANCH   8   9
ENDBRANCH   6   8
BRANCH   1  20
HETATM   20  C   UNL     1     -44.418 -53.873  13.078  1.00  0.00     0.252 C 
HETATM   21  N   UNL     1     -44.825 -54.609  14.162  1.00  0.00    -0.361 N 
HETATM   22  C   UNL     1     -46.219 -54.935  14.337  1.00  0.00     0.149 C 
HETATM   23  H   UNL     1     -44.152 -55.032  14.783  1.00  0.00     0.162 HD
HETATM   24  O   UNL     1     -45.192 -53.494  12.206  1.00  0.00    -0.268 OA
ENDBRANCH   1  20
TORSDOF 4
ENDMDL
MODEL 4
REMARK VINA RESULT:      -6.5      1.766      2.497
REMARK  4 active torsions:
REMARK  status: ('A' for Active; 'I' for Inactive)
REMARK       I    between atoms: N_2  and  C_3 
REMARK    1  A    between atoms: C_3  and  C_5 
REMARK    2  A    between atoms: N_10  and  C_11 
REMARK    3  A    between atoms: C_11  and  C_12 
REMARK       I    between atoms: C_12  and  N_14 
REMARK    4  A    between atoms: N_14  and  C_15 
ROOT
HETATM    1  C   UNL     1     -42.308 -46.836  10.378  1.00  0.00     0.047 A 
HETATM    2  C   UNL     1     -41.384 -45.887  10.965  1.00  0.00     0.024 A 
HETATM    3  C   UNL     1     -40.277 -46.308  11.593  1.00  0.00     0.075 A 
HETATM    4  C   UNL     1     -39.959 -47.759  11.679  1.00  0.00     0.247 A 
HETATM    5  O   UNL     1     -38.917 -48.113  12.220  1.00  0.00    -0.268 OA
HETATM    6  N   UNL     1     -40.888 -48.616  11.097  1.00  0.00    -0.315 N 
HETATM    7  C   UNL     1     -42.038 -48.151  10.471  1.00  0.00     0.111 A 
ENDROOT
BRANCH   6   8
HETATM    8  C   UNL     1     -40.616 -50.055  11.120  1.00  0.00     0.234 C 
BRANCH   8   9
HETATM    9  C   UNL     1     -41.066 -50.797  12.389  1.00  0.00     0.236 C 
HETATM   10  O   UNL     1     -40.309 -50.902  13.355  1.00  0.00    -0.272 OA
HETATM   11  N   UNL     1     -42.374 -51.238  12.420  1.00  0.00    -0.355 N 
HETATM   12  H   UNL     1     -42.889 -51.246  11.549  1.00  0.00     0.162 HD
BRANCH  11  13
HETATM   13  C   UNL     1     -42.916 -51.957  13.572  1.00  0.00     0.088 C 
HETATM   14  C   UNL     1     -43.358 -53.375  13.177  1.00  0.00     0.025 C 
HETATM   15  C   UNL     1     -44.665 -53.391  12.383  1.00  0.00     0.002 C 
HETATM   16  C   UNL     1     -45.777 -52.648  13.113  1.00  0.00     0.001 C 
HETATM   17  C   UNL     1     -45.365 -51.219  13.455  1.00  0.00     0.006 C 
HETATM   18  C   UNL     1     -44.064 -51.193  14.271  1.00  0.00     0.004 C 
HETATM   19  C   UNL     1     -43.677 -49.758  14.632  1.00  0.00     0.012 C 
ENDBRANCH  11  13
ENDBRANCH   8   9
ENDBRANCH   6   8
BRANCH   1  20
HETATM   20  C   UNL     1     -43.496 -46.455   9.551  1.00  0.00     0.252 C 
HETATM   21  N   UNL     1     -44.649 -47.158   9.796  1.00  0.00    -0.361 N 
HETATM   22  C   UNL     1     -45.861 -46.837   9.081  1.00  0.00     0.149 C 
HETATM   23  H   UNL     1     -44.641 -47.977  10.383  1.00  0.00     0.162 HD
HETATM   24  O   UNL     1     -43.428 -45.565   8.710  1.00  0.00    -0.268 OA
ENDBRANCH   1  20
TORSDOF 4
ENDMDL
MODEL 5
REMARK VINA RESULT:      -6.4      1.714      2.302
REMARK  4 active torsions:
REMARK  status: ('A' for Active; 'I' for Inactive)
REMARK       I    between atoms: N_2  and  C_3 
REMARK    1  A    between atoms: C_3  and  C_5 
REMARK    2  A    between atoms: N_10  and  C_11 
REMARK    3  A    between atoms: C_11  and  C_12 
REMARK       I    between atoms: C_12  and  N_14 
REMARK    4  A    between atoms: N_14  and  C_15 
ROOT
HETATM    1  C   UNL     1     -42.571 -47.159  10.426  1.00  0.00     0.047 A 
HETATM    2  C   UNL     1     -41.434 -46.263  10.371  1.00  0.00     0.024 A 
HETATM    3  C   UNL     1     -40.402 -46.414  11.213  1.00  0.00     0.075 A 
HETATM    4  C   UNL     1     -40.389 -47.522  12.207  1.00  0.00     0.247 A 
HETATM    5  O   UNL     1     -39.412 -47.663  12.934  1.00  0.00    -0.268 OA
HETATM    6  N   UNL     1     -41.512 -48.345  12.207  1.00  0.00    -0.315 N 
HETATM    7  C   UNL     1     -42.576 -48.150  11.336  1.00  0.00     0.111 A 
ENDROOT
BRANCH   6   8
HETATM    8  C   UNL     1     -41.545 -49.473  13.140  1.00  0.00     0.234 C 
BRANCH   8   9
HETATM    9  C   UNL     1     -41.628 -50.866  12.497  1.00  0.00     0.236 C 
HETATM   10  O   UNL     1     -40.934 -51.147  11.518  1.00  0.00    -0.272 OA
HETATM   11  N   UNL     1     -42.431 -51.796  13.127  1.00  0.00    -0.355 N 
HETATM   12  H   UNL     1     -43.075 -51.461  13.832  1.00  0.00     0.162 HD
BRANCH  11  13
HETATM   13  C   UNL     1     -42.590 -53.154  12.608  1.00  0.00     0.088 C 
HETATM   14  C   UNL     1     -44.075 -53.493  12.403  1.00  0.00     0.025 C 
HETATM   15  C   UNL     1     -44.809 -53.766  13.716  1.00  0.00     0.002 C 
HETATM   16  C   UNL     1     -44.106 -54.835  14.544  1.00  0.00     0.001 C 
HETATM   17  C   UNL     1     -42.646 -54.474  14.801  1.00  0.00     0.006 C 
HETATM   18  C   UNL     1     -41.894 -54.218  13.487  1.00  0.00     0.004 C 
HETATM   19  C   UNL     1     -40.425 -53.885  13.756  1.00  0.00     0.012 C 
ENDBRANCH  11  13
ENDBRANCH   8   9
ENDBRANCH   6   8
BRANCH   1  20
HETATM   20  C   UNL     1     -43.703 -47.146   9.446  1.00  0.00     0.252 C 
HETATM   21  N   UNL     1     -44.837 -47.817   9.828  1.00  0.00    -0.361 N 
HETATM   22  C   UNL     1     -45.998 -47.827   8.972  1.00  0.00     0.149 C 
HETATM   23  H   UNL     1     -44.838 -48.407  10.646  1.00  0.00     0.162 HD
HETATM   24  O   UNL     1     -43.608 -46.565   8.370  1.00  0.00    -0.268 OA
ENDBRANCH   1  20
TORSDOF 4
ENDMDL
MODEL 6
REMARK VINA RESULT:      -6.4      2.258      6.497
REMARK  4 active torsions:
REMARK  status: ('A' for Active; 'I' for Inactive)
REMARK       I    between atoms: N_2  and  C_3 
REMARK    1  A    between atoms: C_3  and  C_5 
REMARK    2  A    between atoms: N_10  and  C_11 
REMARK    3  A    between atoms: C_11  and  C_12 
REMARK       I    between atoms: C_12  and  N_14 
REMARK    4  A    between atoms: N_14  and  C_15 
ROOT
HETATM    1  C   UNL     1     -42.870 -53.053  12.796  1.00  0.00     0.047 A 
HETATM    2  C   UNL     1     -41.987 -54.184  13.004  1.00  0.00     0.024 A 
HETATM    3  C   UNL     1     -40.685 -53.997  13.262  1.00  0.00     0.075 A 
HETATM    4  C   UNL     1     -40.121 -52.624  13.367  1.00  0.00     0.247 A 
HETATM    5  O   UNL     1     -38.937 -52.483  13.649  1.00  0.00    -0.268 OA
HETATM    6  N   UNL     1     -41.022 -51.584  13.155  1.00  0.00    -0.315 N 
HETATM    7  C   UNL     1     -42.362 -51.810  12.868  1.00  0.00     0.111 A 
ENDROOT
BRANCH   6   8
HETATM    8  C   UNL     1     -40.535 -50.208  13.276  1.00  0.00     0.234 C 
BRANCH   8   9
HETATM    9  C   UNL     1     -40.518 -49.392  11.974  1.00  0.00     0.236 C 
HETATM   10  O   UNL     1     -40.134 -49.901  10.920  1.00  0.00    -0.272 OA
HETATM   11  N   UNL     1     -41.042 -48.116  12.034  1.00  0.00    -0.355 N 
HETATM   12  H   UNL     1     -41.204 -47.715  12.949  1.00  0.00     0.162 HD
BRANCH  11  13
HETATM   13  C   UNL     1     -41.079 -47.243  10.861  1.00  0.00     0.088 C 
HETATM   14  C   UNL     1     -39.877 -46.287  10.849  1.00  0.00     0.025 C 
HETATM   15  C   UNL     1     -40.010 -45.151  11.863  1.00  0.00     0.002 C 
HETATM   16  C   UNL     1     -41.322 -44.394  11.692  1.00  0.00     0.001 C 
HETATM   17  C   UNL     1     -42.524 -45.332  11.763  1.00  0.00     0.006 C 
HETATM   18  C   UNL     1     -42.409 -46.465  10.733  1.00  0.00     0.004 C 
HETATM   19  C   UNL     1     -43.632 -47.382  10.794  1.00  0.00     0.012 C 
ENDBRANCH  11  13
ENDBRANCH   8   9
ENDBRANCH   6   8
BRANCH   1  20
HETATM   20  C   UNL     1     -44.354 -53.162  12.630  1.00  0.00     0.252 C 
HETATM   21  N   UNL     1     -45.044 -51.976  12.606  1.00  0.00    -0.361 N 
HETATM   22  C   UNL     1     -46.473 -51.972  12.409  1.00  0.00     0.149 C 
HETATM   23  H   UNL     1     -44.589 -51.108  12.843  1.00  0.00     0.162 HD
HETATM   24  O   UNL     1     -44.905 -54.252  12.524  1.00  0.00    -0.268 OA
ENDBRANCH   1  20
TORSDOF 4
ENDMDL
MODEL 7
REMARK VINA RESULT:      -6.2      2.807      6.661
REMARK  4 active torsions:
REMARK  status: ('A' for Active; 'I' for Inactive)
REMARK       I    between atoms: N_2  and  C_3 
REMARK    1  A    between atoms: C_3  and  C_5 
REMARK    2  A    between atoms: N_10  and  C_11 
REMARK    3  A    between atoms: C_11  and  C_12 
REMARK       I    between atoms: C_12  and  N_14 
REMARK    4  A    between atoms: N_14  and  C_15 
ROOT
HETATM    1  C   UNL     1     -44.942 -53.137  13.315  1.00  0.00     0.047 A 
HETATM    2  C   UNL     1     -45.489 -54.430  13.673  1.00  0.00     0.024 A 
HETATM    3  C   UNL     1     -44.760 -55.313  14.370  1.00  0.00     0.075 A 
HETATM    4  C   UNL     1     -43.381 -54.975  14.815  1.00  0.00     0.247 A 
HETATM    5  O   UNL     1     -42.754 -55.784  15.490  1.00  0.00    -0.268 OA
HETATM    6  N   UNL     1     -42.916 -53.718  14.436  1.00  0.00    -0.315 N 
HETATM    7  C   UNL     1     -43.688 -52.833  13.695  1.00  0.00     0.111 A 
ENDROOT
BRANCH   6   8
HETATM    8  C   UNL     1     -41.577 -53.314  14.871  1.00  0.00     0.234 C 
BRANCH   8   9
HETATM    9  C   UNL     1     -40.599 -52.934  13.748  1.00  0.00     0.236 C 
HETATM   10  O   UNL     1     -40.241 -53.771  12.918  1.00  0.00    -0.272 OA
HETATM   11  N   UNL     1     -40.235 -51.605  13.665  1.00  0.00    -0.355 N 
HETATM   12  H   UNL     1     -40.448 -51.008  14.453  1.00  0.00     0.162 HD
BRANCH  11  13
HETATM   13  C   UNL     1     -39.310 -51.123  12.639  1.00  0.00     0.088 C 
HETATM   14  C   UNL     1     -37.858 -51.170  13.143  1.00  0.00     0.025 C 
HETATM   15  C   UNL     1     -37.540 -50.057  14.142  1.00  0.00     0.002 C 
HETATM   16  C   UNL     1     -37.890 -48.682  13.585  1.00  0.00     0.001 C 
HETATM   17  C   UNL     1     -39.347 -48.613  13.138  1.00  0.00     0.006 C 
HETATM   18  C   UNL     1     -39.672 -49.714  12.119  1.00  0.00     0.004 C 
HETATM   19  C   UNL     1     -41.127 -49.616  11.657  1.00  0.00     0.012 C 
ENDBRANCH  11  13
ENDBRANCH   8   9
ENDBRANCH   6   8
BRANCH   1  20
HETATM   20  C   UNL     1     -45.723 -52.045  12.653  1.00  0.00     0.252 C 
HETATM   21  N   UNL     1     -46.621 -52.444  11.696  1.00  0.00    -0.361 N 
HETATM   22  C   UNL     1     -47.453 -51.471  11.029  1.00  0.00     0.149 C 
HETATM   23  H   UNL     1     -46.631 -53.395  11.360  1.00  0.00     0.162 HD
HETATM   24  O   UNL     1     -45.560 -50.868  12.959  1.00  0.00    -0.268 OA
ENDBRANCH   1  20
TORSDOF 4
ENDMDL
MODEL 8
REMARK VINA RESULT:      -6.1      1.139      2.066
REMARK  4 active torsions:
REMARK  status: ('A' for Active; 'I' for Inactive)
REMARK       I    between atoms: N_2  and  C_3 
REMARK    1  A    between atoms: C_3  and  C_5 
REMARK    2  A    between atoms: N_10  and  C_11 
REMARK    3  A    between atoms: C_11  and  C_12 
REMARK       I    between atoms: C_12  and  N_14 
REMARK    4  A    between atoms: N_14  and  C_15 
ROOT
HETATM    1  C   UNL     1     -41.409 -47.978  11.015  1.00  0.00     0.047 A 
HETATM    2  C   UNL     1     -40.240 -47.252  11.468  1.00  0.00     0.024 A 
HETATM    3  C   UNL     1     -39.312 -47.853  12.227  1.00  0.00     0.075 A 
HETATM    4  C   UNL     1     -39.449 -49.288  12.598  1.00  0.00     0.247 A 
HETATM    5  O   UNL     1     -38.563 -49.823  13.255  1.00  0.00    -0.268 OA
HETATM    6  N   UNL     1     -40.595 -49.925  12.132  1.00  0.00    -0.315 N 
HETATM    7  C   UNL     1     -41.550 -49.270  11.366  1.00  0.00     0.111 A 
ENDROOT
BRANCH   6   8
HETATM    8  C   UNL     1     -40.772 -51.347  12.438  1.00  0.00     0.234 C 
BRANCH   8   9
HETATM    9  C   UNL     1     -41.611 -51.659  13.687  1.00  0.00     0.236 C 
HETATM   10  O   UNL     1     -41.165 -51.435  14.813  1.00  0.00    -0.272 OA
HETATM   11  N   UNL     1     -42.901 -52.101  13.474  1.00  0.00    -0.355 N 
HETATM   12  H   UNL     1     -43.150 -52.397  12.539  1.00  0.00     0.162 HD
BRANCH  11  13
HETATM   13  C   UNL     1     -43.794 -52.432  14.585  1.00  0.00     0.088 C 
HETATM   14  C   UNL     1     -43.328 -53.708  15.303  1.00  0.00     0.025 C 
HETATM   15  C   UNL     1     -43.626 -54.980  14.510  1.00  0.00     0.002 C 
HETATM   16  C   UNL     1     -45.097 -55.069  14.119  1.00  0.00     0.001 C 
HETATM   17  C   UNL     1     -45.550 -53.830  13.353  1.00  0.00     0.006 C 
HETATM   18  C   UNL     1     -45.273 -52.548  14.151  1.00  0.00     0.004 C 
HETATM   19  C   UNL     1     -45.757 -51.315  13.385  1.00  0.00     0.012 C 
ENDBRANCH  11  13
ENDBRANCH   8   9
ENDBRANCH   6   8
BRANCH   1  20
HETATM   20  C   UNL     1     -42.427 -47.429  10.064  1.00  0.00     0.252 C 
HETATM   21  N   UNL     1     -42.605 -48.134   8.901  1.00  0.00    -0.361 N 
HETATM   22  C   UNL     1     -43.593 -47.710   7.938  1.00  0.00     0.149 C 
HETATM   23  H   UNL     1     -41.976 -48.880   8.647  1.00  0.00     0.162 HD
HETATM   24  O   UNL     1     -43.056 -46.408  10.323  1.00  0.00    -0.268 OA
ENDBRANCH   1  20
TORSDOF 4
ENDMDL
MODEL 9
REMARK VINA RESULT:      -6.0      3.974      6.985
REMARK  4 active torsions:
REMARK  status: ('A' for Active; 'I' for Inactive)
REMARK       I    between atoms: N_2  and  C_3 
REMARK    1  A    between atoms: C_3  and  C_5 
REMARK    2  A    between atoms: N_10  and  C_11 
REMARK    3  A    between atoms: C_11  and  C_12 
REMARK       I    between atoms: C_12  and  N_14 
REMARK    4  A    between atoms: N_14  and  C_15 
ROOT
HETATM    1  C   UNL     1     -41.137 -55.410  16.463  1.00  0.00     0.047 A 
HETATM    2  C   UNL     1     -39.713 -55.142  16.455  1.00  0.00     0.024 A 
HETATM    3  C   UNL     1     -39.135 -54.543  15.405  1.00  0.00     0.075 A 
HETATM    4  C   UNL     1     -39.947 -54.115  14.234  1.00  0.00     0.247 A 
HETATM    5  O   UNL     1     -39.399 -53.528  13.307  1.00  0.00    -0.268 OA
HETATM    6  N   UNL     1     -41.307 -54.403  14.305  1.00  0.00    -0.315 N 
HETATM    7  C   UNL     1     -41.874 -55.045  15.398  1.00  0.00     0.111 A 
ENDROOT
BRANCH   6   8
HETATM    8  C   UNL     1     -42.166 -53.978  13.197  1.00  0.00     0.234 C 
BRANCH   8   9
HETATM    9  C   UNL     1     -42.771 -52.572  13.327  1.00  0.00     0.236 C 
HETATM   10  O   UNL     1     -42.135 -51.579  12.969  1.00  0.00    -0.272 OA
HETATM   11  N   UNL     1     -44.080 -52.496  13.762  1.00  0.00    -0.355 N 
HETATM   12  H   UNL     1     -44.489 -53.327  14.170  1.00  0.00     0.162 HD
BRANCH  11  13
HETATM   13  C   UNL     1     -44.763 -51.214  13.926  1.00  0.00     0.088 C 
HETATM   14  C   UNL     1     -44.483 -50.615  15.314  1.00  0.00     0.025 C 
HETATM   15  C   UNL     1     -45.251 -51.320  16.432  1.00  0.00     0.002 C 
HETATM   16  C   UNL     1     -46.747 -51.371  16.142  1.00  0.00     0.001 C 
HETATM   17  C   UNL     1     -47.034 -52.019  14.791  1.00  0.00     0.006 C 
HETATM   18  C   UNL     1     -46.283 -51.305  13.658  1.00  0.00     0.004 C 
HETATM   19  C   UNL     1     -46.601 -51.945  12.306  1.00  0.00     0.012 C 
ENDBRANCH  11  13
ENDBRANCH   8   9
ENDBRANCH   6   8
BRANCH   1  20
HETATM   20  C   UNL     1     -41.885 -55.956  17.639  1.00  0.00     0.252 C 
HETATM   21  N   UNL     1     -41.122 -56.335  18.714  1.00  0.00    -0.361 N 
HETATM   22  C   UNL     1     -41.751 -56.835  19.912  1.00  0.00     0.149 C 
HETATM   23  H   UNL     1     -40.117 -56.385  18.644  1.00  0.00     0.162 HD
HETATM   24  O   UNL     1     -43.108 -56.052  17.628  1.00  0.00    -0.268 OA
ENDBRANCH   1  20
TORSDOF 4
ENDMDL
