MODEL 1
REMARK VINA RESULT:      -5.8      0.000      0.000
REMARK  3 active torsions:
REMARK  status: ('A' for Active; 'I' for Inactive)
REMARK    1  A    between atoms: C_2  and  N_3 
REMARK    2  A    between atoms: C_2  and  C_16 
REMARK    3  A    between atoms: N_3  and  C_4 
ROOT
HETATM    1  C   UNL     1     -40.858 -53.644  13.786  1.00  0.00     0.113 A 
HETATM    2  C   UNL     1     -41.233 -54.485  14.773  1.00  0.00     0.151 A 
HETATM    3  C   UNL     1     -40.315 -54.991  15.741  1.00  0.00     0.108 C 
HETATM    4  N   UNL     1     -39.512 -55.378  16.489  1.00  0.00    -0.191 NA
HETATM    5  C   UNL     1     -42.633 -54.941  14.884  1.00  0.00     0.275 A 
HETATM    6  O   UNL     1     -42.958 -55.715  15.785  1.00  0.00    -0.266 OA
HETATM    7  N   UNL     1     -43.521 -54.450  13.954  1.00  0.00    -0.269 N 
HETATM    8  C   UNL     1     -44.920 -54.839  14.043  1.00  0.00     0.164 C 
HETATM    9  C   UNL     1     -43.177 -53.560  12.951  1.00  0.00     0.332 A 
HETATM   10  O   UNL     1     -44.024 -53.121  12.171  1.00  0.00    -0.246 OA
HETATM   11  N   UNL     1     -41.831 -53.193  12.896  1.00  0.00    -0.293 N 
HETATM   12  C   UNL     1     -41.463 -52.193  11.890  1.00  0.00     0.162 C 
ENDROOT
BRANCH   1  13
HETATM   13  N   UNL     1     -39.546 -53.149  13.685  1.00  0.00    -0.271 NA
HETATM   14  H   UNL     1     -39.294 -52.943  12.716  1.00  0.00     0.129 HD
BRANCH  13  15
HETATM   15  C   UNL     1     -39.007 -52.089  14.574  1.00  0.00     0.086 C 
HETATM   16  C   UNL     1     -40.151 -51.309  15.234  1.00  0.00     0.029 C 
BRANCH  15  17
HETATM   17  C   UNL     1     -38.093 -51.114  13.786  1.00  0.00     0.139 C 
HETATM   18  C   UNL     1     -38.679 -49.736  13.496  1.00  0.00     0.035 C 
HETATM   19  C   UNL     1     -38.208 -49.396  12.099  1.00  0.00     0.029 C 
HETATM   20  C   UNL     1     -37.354 -50.568  11.675  1.00  0.00     0.168 C 
HETATM   21  O   UNL     1     -37.715 -51.665  12.514  1.00  0.00    -0.384 OA
ENDBRANCH  15  17
ENDBRANCH  13  15
ENDBRANCH   1  13
TORSDOF 3
ENDMDL
MODEL 2
REMARK VINA RESULT:      -5.7      2.639      5.952
REMARK  3 active torsions:
REMARK  status: ('A' for Active; 'I' for Inactive)
REMARK    1  A    between atoms: C_2  and  N_3 
REMARK    2  A    between atoms: C_2  and  C_16 
REMARK    3  A    between atoms: N_3  and  C_4 
ROOT
HETATM    1  C   UNL     1     -41.825 -51.143  12.607  1.00  0.00     0.113 A 
HETATM    2  C   UNL     1     -41.110 -52.171  13.112  1.00  0.00     0.151 A 
HETATM    3  C   UNL     1     -41.723 -53.355  13.621  1.00  0.00     0.108 C 
HETATM    4  N   UNL     1     -42.286 -54.286  14.032  1.00  0.00    -0.191 NA
HETATM    5  C   UNL     1     -39.637 -52.104  13.180  1.00  0.00     0.275 A 
HETATM    6  O   UNL     1     -39.000 -53.046  13.651  1.00  0.00    -0.266 OA
HETATM    7  N   UNL     1     -39.044 -50.965  12.685  1.00  0.00    -0.269 N 
HETATM    8  C   UNL     1     -37.593 -50.865  12.693  1.00  0.00     0.164 C 
HETATM    9  C   UNL     1     -39.745 -49.908  12.128  1.00  0.00     0.332 A 
HETATM   10  O   UNL     1     -39.157 -48.930  11.663  1.00  0.00    -0.246 OA
HETATM   11  N   UNL     1     -41.135 -50.034  12.121  1.00  0.00    -0.293 N 
HETATM   12  C   UNL     1     -41.889 -48.961  11.467  1.00  0.00     0.162 C 
ENDROOT
BRANCH   1  13
HETATM   13  N   UNL     1     -43.223 -51.198  12.479  1.00  0.00    -0.271 NA
HETATM   14  H   UNL     1     -43.540 -52.120  12.173  1.00  0.00     0.129 HD
BRANCH  13  15
HETATM   15  C   UNL     1     -44.155 -50.671  13.509  1.00  0.00     0.086 C 
HETATM   16  C   UNL     1     -43.372 -50.079  14.687  1.00  0.00     0.029 C 
BRANCH  15  17
HETATM   17  C   UNL     1     -45.108 -51.783  14.018  1.00  0.00     0.139 C 
HETATM   18  C   UNL     1     -46.586 -51.411  14.098  1.00  0.00     0.035 C 
HETATM   19  C   UNL     1     -47.089 -52.077  15.361  1.00  0.00     0.029 C 
HETATM   20  C   UNL     1     -45.896 -52.820  15.917  1.00  0.00     0.168 C 
HETATM   21  O   UNL     1     -44.736 -52.231  15.331  1.00  0.00    -0.384 OA
ENDBRANCH  15  17
ENDBRANCH  13  15
ENDBRANCH   1  13
TORSDOF 3
ENDMDL
MODEL 3
REMARK VINA RESULT:      -5.6      0.910      2.818
REMARK  3 active torsions:
REMARK  status: ('A' for Active; 'I' for Inactive)
REMARK    1  A    between atoms: C_2  and  N_3 
REMARK    2  A    between atoms: C_2  and  C_16 
REMARK    3  A    between atoms: N_3  and  C_4 
ROOT
HETATM    1  C   UNL     1     -40.979 -53.569  14.133  1.00  0.00     0.113 A 
HETATM    2  C   UNL     1     -41.818 -53.068  13.201  1.00  0.00     0.151 A 
HETATM    3  C   UNL     1     -41.412 -52.080  12.254  1.00  0.00     0.108 C 
HETATM    4  N   UNL     1     -41.021 -51.267  11.521  1.00  0.00    -0.191 NA
HETATM    5  C   UNL     1     -43.224 -53.515  13.133  1.00  0.00     0.275 A 
HETATM    6  O   UNL     1     -43.978 -53.042  12.283  1.00  0.00    -0.266 OA
HETATM    7  N   UNL     1     -43.615 -54.471  14.043  1.00  0.00    -0.269 N 
HETATM    8  C   UNL     1     -44.980 -54.973  13.993  1.00  0.00     0.164 C 
HETATM    9  C   UNL     1     -42.772 -55.030  14.988  1.00  0.00     0.332 A 
HETATM   10  O   UNL     1     -43.168 -55.913  15.750  1.00  0.00    -0.246 OA
HETATM   11  N   UNL     1     -41.465 -54.541  15.006  1.00  0.00    -0.293 N 
HETATM   12  C   UNL     1     -40.538 -55.175  15.948  1.00  0.00     0.162 C 
ENDROOT
BRANCH   1  13
HETATM   13  N   UNL     1     -39.623 -53.204  14.190  1.00  0.00    -0.271 NA
HETATM   14  H   UNL     1     -39.210 -53.137  13.257  1.00  0.00     0.129 HD
BRANCH  13  15
HETATM   15  C   UNL     1     -39.114 -52.096  15.037  1.00  0.00     0.086 C 
HETATM   16  C   UNL     1     -40.278 -51.265  15.589  1.00  0.00     0.029 C 
BRANCH  15  17
HETATM   17  C   UNL     1     -38.148 -51.183  14.239  1.00  0.00     0.139 C 
HETATM   18  C   UNL     1     -38.620 -49.751  14.009  1.00  0.00     0.035 C 
HETATM   19  C   UNL     1     -38.175 -49.412  12.602  1.00  0.00     0.029 C 
HETATM   20  C   UNL     1     -37.446 -50.642  12.114  1.00  0.00     0.168 C 
HETATM   21  O   UNL     1     -37.870 -51.727  12.938  1.00  0.00    -0.384 OA
ENDBRANCH  15  17
ENDBRANCH  13  15
ENDBRANCH   1  13
TORSDOF 3
ENDMDL
MODEL 4
REMARK VINA RESULT:      -5.6      2.697      6.652
REMARK  3 active torsions:
REMARK  status: ('A' for Active; 'I' for Inactive)
REMARK    1  A    between atoms: C_2  and  N_3 
REMARK    2  A    between atoms: C_2  and  C_16 
REMARK    3  A    between atoms: N_3  and  C_4 
ROOT
HETATM    1  C   UNL     1     -41.922 -51.291  12.479  1.00  0.00     0.113 A 
HETATM    2  C   UNL     1     -41.368 -50.107  12.139  1.00  0.00     0.151 A 
HETATM    3  C   UNL     1     -42.138 -49.017  11.635  1.00  0.00     0.108 C 
HETATM    4  N   UNL     1     -42.822 -48.174  11.217  1.00  0.00    -0.191 NA
HETATM    5  C   UNL     1     -39.913 -49.892  12.260  1.00  0.00     0.275 A 
HETATM    6  O   UNL     1     -39.423 -48.810  11.938  1.00  0.00    -0.266 OA
HETATM    7  N   UNL     1     -39.169 -50.942  12.751  1.00  0.00    -0.269 N 
HETATM    8  C   UNL     1     -37.736 -50.768  12.925  1.00  0.00     0.164 C 
HETATM    9  C   UNL     1     -39.709 -52.156  13.140  1.00  0.00     0.332 A 
HETATM   10  O   UNL     1     -38.999 -53.046  13.612  1.00  0.00    -0.246 OA
HETATM   11  N   UNL     1     -41.088 -52.292  12.975  1.00  0.00    -0.293 N 
HETATM   12  C   UNL     1     -41.687 -53.541  13.453  1.00  0.00     0.162 C 
ENDROOT
BRANCH   1  13
HETATM   13  N   UNL     1     -43.309 -51.510  12.427  1.00  0.00    -0.271 NA
HETATM   14  H   UNL     1     -43.532 -52.501  12.316  1.00  0.00     0.129 HD
BRANCH  13  15
HETATM   15  C   UNL     1     -44.265 -50.890  13.379  1.00  0.00     0.086 C 
HETATM   16  C   UNL     1     -43.605 -50.691  14.749  1.00  0.00     0.029 C 
BRANCH  15  17
HETATM   17  C   UNL     1     -45.540 -51.760  13.532  1.00  0.00     0.139 C 
HETATM   18  C   UNL     1     -46.548 -51.290  14.577  1.00  0.00     0.035 C 
HETATM   19  C   UNL     1     -47.067 -52.558  15.219  1.00  0.00     0.029 C 
HETATM   20  C   UNL     1     -46.364 -53.683  14.494  1.00  0.00     0.168 C 
HETATM   21  O   UNL     1     -45.210 -53.116  13.875  1.00  0.00    -0.384 OA
ENDBRANCH  15  17
ENDBRANCH  13  15
ENDBRANCH   1  13
TORSDOF 3
ENDMDL
MODEL 5
REMARK VINA RESULT:      -5.6      2.535      5.174
REMARK  3 active torsions:
REMARK  status: ('A' for Active; 'I' for Inactive)
REMARK    1  A    between atoms: C_2  and  N_3 
REMARK    2  A    between atoms: C_2  and  C_16 
REMARK    3  A    between atoms: N_3  and  C_4 
ROOT
HETATM    1  C   UNL     1     -41.619 -53.964  15.084  1.00  0.00     0.113 A 
HETATM    2  C   UNL     1     -40.313 -54.301  15.009  1.00  0.00     0.151 A 
HETATM    3  C   UNL     1     -39.382 -53.590  14.195  1.00  0.00     0.108 C 
HETATM    4  N   UNL     1     -38.680 -52.977  13.499  1.00  0.00    -0.191 NA
HETATM    5  C   UNL     1     -39.787 -55.454  15.767  1.00  0.00     0.275 A 
HETATM    6  O   UNL     1     -38.596 -55.753  15.681  1.00  0.00    -0.266 OA
HETATM    7  N   UNL     1     -40.683 -56.138  16.558  1.00  0.00    -0.269 N 
HETATM    8  C   UNL     1     -40.207 -57.258  17.353  1.00  0.00     0.164 C 
HETATM    9  C   UNL     1     -42.019 -55.798  16.684  1.00  0.00     0.332 A 
HETATM   10  O   UNL     1     -42.766 -56.423  17.439  1.00  0.00    -0.246 OA
HETATM   11  N   UNL     1     -42.448 -54.712  15.919  1.00  0.00    -0.293 N 
HETATM   12  C   UNL     1     -43.840 -54.290  16.098  1.00  0.00     0.162 C 
ENDROOT
BRANCH   1  13
HETATM   13  N   UNL     1     -42.139 -52.841  14.418  1.00  0.00    -0.271 NA
HETATM   14  H   UNL     1     -41.508 -52.040  14.479  1.00  0.00     0.129 HD
BRANCH  13  15
HETATM   15  C   UNL     1     -42.731 -52.905  13.057  1.00  0.00     0.086 C 
HETATM   16  C   UNL     1     -41.806 -52.226  12.039  1.00  0.00     0.029 C 
BRANCH  15  17
HETATM   17  C   UNL     1     -44.129 -52.234  13.026  1.00  0.00     0.139 C 
HETATM   18  C   UNL     1     -44.401 -51.207  14.120  1.00  0.00     0.035 C 
HETATM   19  C   UNL     1     -45.847 -51.425  14.511  1.00  0.00     0.029 C 
HETATM   20  C   UNL     1     -46.337 -52.531  13.605  1.00  0.00     0.168 C 
HETATM   21  O   UNL     1     -45.179 -53.211  13.122  1.00  0.00    -0.384 OA
ENDBRANCH  15  17
ENDBRANCH  13  15
ENDBRANCH   1  13
TORSDOF 3
ENDMDL
MODEL 6
REMARK VINA RESULT:      -5.4      2.341      5.129
REMARK  3 active torsions:
REMARK  status: ('A' for Active; 'I' for Inactive)
REMARK    1  A    between atoms: C_2  and  N_3 
REMARK    2  A    between atoms: C_2  and  C_16 
REMARK    3  A    between atoms: N_3  and  C_4 
ROOT
HETATM    1  C   UNL     1     -41.896 -53.661  14.749  1.00  0.00     0.113 A 
HETATM    2  C   UNL     1     -42.617 -54.706  15.209  1.00  0.00     0.151 A 
HETATM    3  C   UNL     1     -44.017 -54.837  14.968  1.00  0.00     0.108 C 
HETATM    4  N   UNL     1     -45.159 -54.876  14.748  1.00  0.00    -0.191 NA
HETATM    5  C   UNL     1     -41.979 -55.768  16.013  1.00  0.00     0.275 A 
HETATM    6  O   UNL     1     -42.652 -56.709  16.432  1.00  0.00    -0.266 OA
HETATM    7  N   UNL     1     -40.627 -55.645  16.242  1.00  0.00    -0.269 N 
HETATM    8  C   UNL     1     -39.944 -56.684  16.996  1.00  0.00     0.164 C 
HETATM    9  C   UNL     1     -39.852 -54.606  15.756  1.00  0.00     0.332 A 
HETATM   10  O   UNL     1     -38.637 -54.569  15.958  1.00  0.00    -0.246 OA
HETATM   11  N   UNL     1     -40.530 -53.629  15.024  1.00  0.00    -0.293 N 
HETATM   12  C   UNL     1     -39.714 -52.562  14.438  1.00  0.00     0.162 C 
ENDROOT
BRANCH   1  13
HETATM   13  N   UNL     1     -42.461 -52.664  13.937  1.00  0.00    -0.271 NA
HETATM   14  H   UNL     1     -43.155 -53.048  13.293  1.00  0.00     0.129 HD
BRANCH  13  15
HETATM   15  C   UNL     1     -42.944 -51.362  14.465  1.00  0.00     0.086 C 
HETATM   16  C   UNL     1     -42.966 -51.381  15.998  1.00  0.00     0.029 C 
BRANCH  15  17
HETATM   17  C   UNL     1     -44.359 -51.032  13.923  1.00  0.00     0.139 C 
HETATM   18  C   UNL     1     -45.482 -51.014  14.955  1.00  0.00     0.035 C 
HETATM   19  C   UNL     1     -46.672 -51.629  14.250  1.00  0.00     0.029 C 
HETATM   20  C   UNL     1     -46.186 -51.932  12.851  1.00  0.00     0.168 C 
HETATM   21  O   UNL     1     -44.761 -51.966  12.908  1.00  0.00    -0.384 OA
ENDBRANCH  15  17
ENDBRANCH  13  15
ENDBRANCH   1  13
TORSDOF 3
ENDMDL
MODEL 7
REMARK VINA RESULT:      -5.4      5.715      8.475
REMARK  3 active torsions:
REMARK  status: ('A' for Active; 'I' for Inactive)
REMARK    1  A    between atoms: C_2  and  N_3 
REMARK    2  A    between atoms: C_2  and  C_16 
REMARK    3  A    between atoms: N_3  and  C_4 
ROOT
HETATM    1  C   UNL     1     -40.738 -46.151  12.266  1.00  0.00     0.113 A 
HETATM    2  C   UNL     1     -41.711 -45.673  11.461  1.00  0.00     0.151 A 
HETATM    3  C   UNL     1     -42.652 -46.522  10.805  1.00  0.00     0.108 C 
HETATM    4  N   UNL     1     -43.377 -47.271  10.290  1.00  0.00    -0.191 NA
HETATM    5  C   UNL     1     -41.833 -44.224  11.204  1.00  0.00     0.275 A 
HETATM    6  O   UNL     1     -42.719 -43.804  10.460  1.00  0.00    -0.266 OA
HETATM    7  N   UNL     1     -40.929 -43.403  11.839  1.00  0.00    -0.269 N 
HETATM    8  C   UNL     1     -41.030 -41.964  11.649  1.00  0.00     0.164 C 
HETATM    9  C   UNL     1     -39.942 -43.857  12.698  1.00  0.00     0.332 A 
HETATM   10  O   UNL     1     -39.186 -43.071  13.271  1.00  0.00    -0.246 OA
HETATM   11  N   UNL     1     -39.875 -45.240  12.873  1.00  0.00    -0.293 N 
HETATM   12  C   UNL     1     -38.887 -45.734  13.836  1.00  0.00     0.162 C 
ENDROOT
BRANCH   1  13
HETATM   13  N   UNL     1     -40.629 -47.518  12.573  1.00  0.00    -0.271 NA
HETATM   14  H   UNL     1     -41.524 -47.912  12.871  1.00  0.00     0.129 HD
BRANCH  13  15
HETATM   15  C   UNL     1     -39.924 -48.493  11.703  1.00  0.00     0.086 C 
HETATM   16  C   UNL     1     -40.836 -49.684  11.384  1.00  0.00     0.029 C 
BRANCH  15  17
HETATM   17  C   UNL     1     -38.619 -48.996  12.372  1.00  0.00     0.139 C 
HETATM   18  C   UNL     1     -37.702 -49.844  11.496  1.00  0.00     0.035 C 
HETATM   19  C   UNL     1     -37.161 -50.915  12.418  1.00  0.00     0.029 C 
HETATM   20  C   UNL     1     -37.759 -50.610  13.771  1.00  0.00     0.168 C 
HETATM   21  O   UNL     1     -38.900 -49.785  13.540  1.00  0.00    -0.384 OA
ENDBRANCH  15  17
ENDBRANCH  13  15
ENDBRANCH   1  13
TORSDOF 3
ENDMDL
MODEL 8
REMARK VINA RESULT:      -5.2      5.245      7.540
REMARK  3 active torsions:
REMARK  status: ('A' for Active; 'I' for Inactive)
REMARK    1  A    between atoms: C_2  and  N_3 
REMARK    2  A    between atoms: C_2  and  C_16 
REMARK    3  A    between atoms: N_3  and  C_4 
ROOT
HETATM    1  C   UNL     1     -40.400 -46.727  11.824  1.00  0.00     0.113 A 
HETATM    2  C   UNL     1     -40.631 -45.401  11.728  1.00  0.00     0.151 A 
HETATM    3  C   UNL     1     -39.856 -44.433  12.434  1.00  0.00     0.108 C 
HETATM    4  N   UNL     1     -39.195 -43.699  13.048  1.00  0.00    -0.191 NA
HETATM    5  C   UNL     1     -41.729 -44.885  10.886  1.00  0.00     0.275 A 
HETATM    6  O   UNL     1     -41.933 -43.673  10.815  1.00  0.00    -0.266 OA
HETATM    7  N   UNL     1     -42.475 -45.817  10.199  1.00  0.00    -0.269 N 
HETATM    8  C   UNL     1     -43.544 -45.359   9.327  1.00  0.00     0.164 C 
HETATM    9  C   UNL     1     -42.242 -47.181  10.249  1.00  0.00     0.332 A 
HETATM   10  O   UNL     1     -42.917 -47.966   9.580  1.00  0.00    -0.246 OA
HETATM   11  N   UNL     1     -41.203 -47.594  11.084  1.00  0.00    -0.293 N 
HETATM   12  C   UNL     1     -40.893 -49.026  11.090  1.00  0.00     0.162 C 
ENDROOT
BRANCH   1  13
HETATM   13  N   UNL     1     -39.330 -47.246  12.573  1.00  0.00    -0.271 NA
HETATM   14  H   UNL     1     -38.519 -46.624  12.556  1.00  0.00     0.129 HD
BRANCH  13  15
HETATM   15  C   UNL     1     -39.491 -47.812  13.937  1.00  0.00     0.086 C 
HETATM   16  C   UNL     1     -39.027 -46.803  14.994  1.00  0.00     0.029 C 
BRANCH  15  17
HETATM   17  C   UNL     1     -38.696 -49.135  14.088  1.00  0.00     0.139 C 
HETATM   18  C   UNL     1     -37.648 -49.411  13.014  1.00  0.00     0.035 C 
HETATM   19  C   UNL     1     -37.733 -50.900  12.757  1.00  0.00     0.029 C 
HETATM   20  C   UNL     1     -38.791 -51.405  13.712  1.00  0.00     0.168 C 
HETATM   21  O   UNL     1     -39.573 -50.274  14.095  1.00  0.00    -0.384 OA
ENDBRANCH  15  17
ENDBRANCH  13  15
ENDBRANCH   1  13
TORSDOF 3
ENDMDL
MODEL 9
REMARK VINA RESULT:      -5.1      1.854      2.341
REMARK  3 active torsions:
REMARK  status: ('A' for Active; 'I' for Inactive)
REMARK    1  A    between atoms: C_2  and  N_3 
REMARK    2  A    between atoms: C_2  and  C_16 
REMARK    3  A    between atoms: N_3  and  C_4 
ROOT
HETATM    1  C   UNL     1     -42.387 -53.061  14.680  1.00  0.00     0.113 A 
HETATM    2  C   UNL     1     -43.235 -54.058  15.010  1.00  0.00     0.151 A 
HETATM    3  C   UNL     1     -42.806 -55.239  15.687  1.00  0.00     0.108 C 
HETATM    4  N   UNL     1     -42.387 -56.181  16.225  1.00  0.00    -0.191 NA
HETATM    5  C   UNL     1     -44.668 -53.977  14.661  1.00  0.00     0.275 A 
HETATM    6  O   UNL     1     -45.426 -54.899  14.961  1.00  0.00    -0.266 OA
HETATM    7  N   UNL     1     -45.085 -52.836  14.012  1.00  0.00    -0.269 N 
HETATM    8  C   UNL     1     -46.493 -52.691  13.680  1.00  0.00     0.164 C 
HETATM    9  C   UNL     1     -44.249 -51.781  13.691  1.00  0.00     0.332 A 
HETATM   10  O   UNL     1     -44.686 -50.766  13.146  1.00  0.00    -0.246 OA
HETATM   11  N   UNL     1     -42.904 -51.940  14.032  1.00  0.00    -0.293 N 
HETATM   12  C   UNL     1     -42.020 -50.802  13.768  1.00  0.00     0.162 C 
ENDROOT
BRANCH   1  13
HETATM   13  N   UNL     1     -41.030 -53.083  15.045  1.00  0.00    -0.271 NA
HETATM   14  H   UNL     1     -40.894 -53.501  15.968  1.00  0.00     0.129 HD
BRANCH  13  15
HETATM   15  C   UNL     1     -39.950 -53.536  14.131  1.00  0.00     0.086 C 
HETATM   16  C   UNL     1     -39.423 -54.909  14.563  1.00  0.00     0.029 C 
BRANCH  15  17
HETATM   17  C   UNL     1     -38.785 -52.513  14.098  1.00  0.00     0.139 C 
HETATM   18  C   UNL     1     -38.772 -51.478  15.219  1.00  0.00     0.035 C 
HETATM   19  C   UNL     1     -38.321 -50.192  14.559  1.00  0.00     0.029 C 
HETATM   20  C   UNL     1     -38.064 -50.559  13.116  1.00  0.00     0.168 C 
HETATM   21  O   UNL     1     -38.774 -51.772  12.867  1.00  0.00    -0.384 OA
ENDBRANCH  15  17
ENDBRANCH  13  15
ENDBRANCH   1  13
TORSDOF 3
ENDMDL
