MODEL 1
REMARK VINA RESULT:      -6.9      0.000      0.000
REMARK  5 active torsions:
REMARK  status: ('A' for Active; 'I' for Inactive)
REMARK    1  A    between atoms: C_8  and  N_9 
REMARK       I    between atoms: N_9  and  C_10 
REMARK       I    between atoms: C_10  and  N_12 
REMARK    2  A    between atoms: N_12  and  C_13 
REMARK    3  A    between atoms: C_13  and  C_14 
REMARK    4  A    between atoms: C_14  and  C_15 
REMARK       I    between atoms: C_15  and  N_17 
REMARK    5  A    between atoms: N_17  and  C_18 
ROOT
HETATM    1  N   UNL     1     -43.433 -53.797  13.147  1.00  0.00    -0.295 N 
HETATM    2  C   UNL     1     -42.137 -53.412  12.938  1.00  0.00     0.321 C 
HETATM    3  O   UNL     1     -41.271 -54.256  12.725  1.00  0.00    -0.247 OA
HETATM    4  N   UNL     1     -41.884 -52.078  13.009  1.00  0.00    -0.342 N 
HETATM    5  H   UNL     1     -43.565 -54.796  13.124  1.00  0.00     0.172 HD
HETATM    6  H   UNL     1     -42.716 -51.493  13.053  1.00  0.00     0.164 HD
ENDROOT
BRANCH   4   7
HETATM    7  C   UNL     1     -40.628 -51.446  12.687  1.00  0.00     0.133 C 
BRANCH   7   8
HETATM    8  C   UNL     1     -40.766 -50.404  11.593  1.00  0.00     0.122 C 
BRANCH   8   9
HETATM    9  C   UNL     1     -41.740 -49.336  12.026  1.00  0.00     0.219 C 
HETATM   10  O   UNL     1     -41.887 -48.984  13.194  1.00  0.00    -0.274 OA
HETATM   11  N   UNL     1     -42.412 -48.759  10.972  1.00  0.00    -0.356 N 
HETATM   12  H   UNL     1     -42.390 -49.253  10.089  1.00  0.00     0.162 HD
BRANCH  11  13
HETATM   13  C   UNL     1     -43.456 -47.761  11.175  1.00  0.00     0.084 C 
HETATM   14  C   UNL     1     -44.536 -47.857  10.091  1.00  0.00     0.025 C 
HETATM   15  C   UNL     1     -44.029 -47.415   8.716  1.00  0.00     0.002 C 
HETATM   16  C   UNL     1     -43.359 -46.043   8.755  1.00  0.00     0.000 C 
HETATM   17  C   UNL     1     -42.294 -45.941   9.842  1.00  0.00     0.002 C 
HETATM   18  C   UNL     1     -42.847 -46.356  11.206  1.00  0.00     0.025 C 
ENDBRANCH  11  13
ENDBRANCH   8   9
ENDBRANCH   7   8
ENDBRANCH   4   7
BRANCH   1  19
HETATM   19  C   UNL     1     -44.551 -52.977  13.343  1.00  0.00     0.109 A 
HETATM   20  N   UNL     1     -45.347 -52.706  12.289  1.00  0.00    -0.346 N 
HETATM   21  C   UNL     1     -46.431 -51.919  12.468  1.00  0.00     0.007 A 
ATOM     22  HN  UNL     1     -45.135 -53.090  11.368  1.00  0.00     0.167 HD
HETATM   23  C   UNL     1     -46.755 -51.383  13.705  1.00  0.00     0.031 A 
HETATM   24  C   UNL     1     -47.256 -51.659  11.248  1.00  0.00     0.068 C 
HETATM   25  C   UNL     1     -45.933 -51.665  14.800  1.00  0.00    -0.057 A 
HETATM   26  C   UNL     1     -46.249 -51.108  16.156  1.00  0.00     0.048 C 
HETATM   27  C   UNL     1     -44.810 -52.479  14.612  1.00  0.00     0.055 A 
ENDBRANCH   1  19
TORSDOF 5
ENDMDL
MODEL 2
REMARK VINA RESULT:      -6.8      1.519      2.244
REMARK  5 active torsions:
REMARK  status: ('A' for Active; 'I' for Inactive)
REMARK    1  A    between atoms: C_8  and  N_9 
REMARK       I    between atoms: N_9  and  C_10 
REMARK       I    between atoms: C_10  and  N_12 
REMARK    2  A    between atoms: N_12  and  C_13 
REMARK    3  A    between atoms: C_13  and  C_14 
REMARK    4  A    between atoms: C_14  and  C_15 
REMARK       I    between atoms: C_15  and  N_17 
REMARK    5  A    between atoms: N_17  and  C_18 
ROOT
HETATM    1  N   UNL     1     -42.949 -52.663  12.816  1.00  0.00    -0.295 N 
HETATM    2  C   UNL     1     -41.955 -51.909  12.255  1.00  0.00     0.321 C 
HETATM    3  O   UNL     1     -40.879 -52.426  11.964  1.00  0.00    -0.247 OA
HETATM    4  N   UNL     1     -42.227 -50.590  12.073  1.00  0.00    -0.342 N 
HETATM    5  H   UNL     1     -42.687 -53.625  12.967  1.00  0.00     0.172 HD
HETATM    6  H   UNL     1     -43.201 -50.335  12.230  1.00  0.00     0.164 HD
ENDROOT
BRANCH   4   7
HETATM    7  C   UNL     1     -41.385 -49.648  11.378  1.00  0.00     0.133 C 
BRANCH   7   8
HETATM    8  C   UNL     1     -41.716 -48.208  11.723  1.00  0.00     0.122 C 
BRANCH   8   9
HETATM    9  C   UNL     1     -41.965 -47.425  10.457  1.00  0.00     0.219 C 
HETATM   10  O   UNL     1     -41.249 -46.503  10.076  1.00  0.00    -0.274 OA
HETATM   11  N   UNL     1     -43.049 -47.885   9.743  1.00  0.00    -0.356 N 
HETATM   12  H   UNL     1     -43.695 -48.492  10.232  1.00  0.00     0.162 HD
BRANCH  11  13
HETATM   13  C   UNL     1     -43.512 -47.222   8.530  1.00  0.00     0.084 C 
HETATM   14  C   UNL     1     -44.270 -45.929   8.857  1.00  0.00     0.025 C 
HETATM   15  C   UNL     1     -45.618 -46.193   9.530  1.00  0.00     0.002 C 
HETATM   16  C   UNL     1     -46.473 -47.192   8.752  1.00  0.00     0.000 C 
HETATM   17  C   UNL     1     -45.716 -48.473   8.414  1.00  0.00     0.002 C 
HETATM   18  C   UNL     1     -44.393 -48.170   7.712  1.00  0.00     0.025 C 
ENDBRANCH  11  13
ENDBRANCH   8   9
ENDBRANCH   7   8
ENDBRANCH   4   7
BRANCH   1  19
HETATM   19  C   UNL     1     -44.246 -52.260  13.153  1.00  0.00     0.109 A 
HETATM   20  N   UNL     1     -45.176 -52.194  12.178  1.00  0.00    -0.346 N 
HETATM   21  C   UNL     1     -46.433 -51.809  12.493  1.00  0.00     0.007 A 
ATOM     22  HN  UNL     1     -44.935 -52.430  11.216  1.00  0.00     0.167 HD
HETATM   23  C   UNL     1     -46.800 -51.484  13.790  1.00  0.00     0.031 A 
HETATM   24  C   UNL     1     -47.400 -51.752  11.354  1.00  0.00     0.068 C 
HETATM   25  C   UNL     1     -45.839 -51.555  14.802  1.00  0.00    -0.057 A 
HETATM   26  C   UNL     1     -46.195 -51.216  16.219  1.00  0.00     0.048 C 
HETATM   27  C   UNL     1     -44.537 -51.952  14.474  1.00  0.00     0.055 A 
ENDBRANCH   1  19
TORSDOF 5
ENDMDL
MODEL 3
REMARK VINA RESULT:      -6.8      1.602      5.985
REMARK  5 active torsions:
REMARK  status: ('A' for Active; 'I' for Inactive)
REMARK    1  A    between atoms: C_8  and  N_9 
REMARK       I    between atoms: N_9  and  C_10 
REMARK       I    between atoms: C_10  and  N_12 
REMARK    2  A    between atoms: N_12  and  C_13 
REMARK    3  A    between atoms: C_13  and  C_14 
REMARK    4  A    between atoms: C_14  and  C_15 
REMARK       I    between atoms: C_15  and  N_17 
REMARK    5  A    between atoms: N_17  and  C_18 
ROOT
HETATM    1  N   UNL     1     -39.858 -49.104  11.276  1.00  0.00    -0.295 N 
HETATM    2  C   UNL     1     -39.739 -50.441  11.541  1.00  0.00     0.321 C 
HETATM    3  O   UNL     1     -38.626 -50.945  11.676  1.00  0.00    -0.247 OA
HETATM    4  N   UNL     1     -40.897 -51.148  11.616  1.00  0.00    -0.342 N 
HETATM    5  H   UNL     1     -38.972 -48.630  11.191  1.00  0.00     0.172 HD
HETATM    6  H   UNL     1     -41.740 -50.577  11.623  1.00  0.00     0.164 HD
ENDROOT
BRANCH   4   7
HETATM    7  C   UNL     1     -41.012 -52.528  12.019  1.00  0.00     0.133 C 
BRANCH   7   8
HETATM    8  C   UNL     1     -41.132 -52.685  13.524  1.00  0.00     0.122 C 
BRANCH   8   9
HETATM    9  C   UNL     1     -42.336 -53.533  13.853  1.00  0.00     0.219 C 
HETATM   10  O   UNL     1     -42.261 -54.690  14.258  1.00  0.00    -0.274 OA
HETATM   11  N   UNL     1     -43.527 -52.861  13.701  1.00  0.00    -0.356 N 
HETATM   12  H   UNL     1     -43.504 -52.002  13.164  1.00  0.00     0.162 HD
BRANCH  11  13
HETATM   13  C   UNL     1     -44.815 -53.517  13.890  1.00  0.00     0.084 C 
HETATM   14  C   UNL     1     -45.835 -53.056  12.842  1.00  0.00     0.025 C 
HETATM   15  C   UNL     1     -46.263 -51.600  13.042  1.00  0.00     0.002 C 
HETATM   16  C   UNL     1     -46.723 -51.318  14.471  1.00  0.00     0.000 C 
HETATM   17  C   UNL     1     -45.716 -51.790  15.515  1.00  0.00     0.002 C 
HETATM   18  C   UNL     1     -45.340 -53.257  15.305  1.00  0.00     0.025 C 
ENDBRANCH  11  13
ENDBRANCH   8   9
ENDBRANCH   7   8
ENDBRANCH   4   7
BRANCH   1  19
HETATM   19  C   UNL     1     -41.034 -48.356  11.152  1.00  0.00     0.109 A 
HETATM   20  N   UNL     1     -41.662 -48.330   9.958  1.00  0.00    -0.346 N 
HETATM   21  C   UNL     1     -42.800 -47.613   9.830  1.00  0.00     0.007 A 
ATOM     22  HN  UNL     1     -41.283 -48.844   9.164  1.00  0.00     0.167 HD
HETATM   23  C   UNL     1     -43.348 -46.904  10.888  1.00  0.00     0.031 A 
HETATM   24  C   UNL     1     -43.428 -47.628   8.472  1.00  0.00     0.068 C 
HETATM   25  C   UNL     1     -42.701 -46.932  12.126  1.00  0.00    -0.057 A 
HETATM   26  C   UNL     1     -43.262 -46.182  13.297  1.00  0.00     0.048 C 
HETATM   27  C   UNL     1     -41.521 -47.673  12.258  1.00  0.00     0.055 A 
ENDBRANCH   1  19
TORSDOF 5
ENDMDL
MODEL 4
REMARK VINA RESULT:      -6.7      3.045      6.817
REMARK  5 active torsions:
REMARK  status: ('A' for Active; 'I' for Inactive)
REMARK    1  A    between atoms: C_8  and  N_9 
REMARK       I    between atoms: N_9  and  C_10 
REMARK       I    between atoms: C_10  and  N_12 
REMARK    2  A    between atoms: N_12  and  C_13 
REMARK    3  A    between atoms: C_13  and  C_14 
REMARK    4  A    between atoms: C_14  and  C_15 
REMARK       I    between atoms: C_15  and  N_17 
REMARK    5  A    between atoms: N_17  and  C_18 
ROOT
HETATM    1  N   UNL     1     -41.740 -50.973  11.839  1.00  0.00    -0.295 N 
HETATM    2  C   UNL     1     -42.055 -52.227  12.287  1.00  0.00     0.321 C 
HETATM    3  O   UNL     1     -43.083 -52.778  11.902  1.00  0.00    -0.247 OA
HETATM    4  N   UNL     1     -41.192 -52.786  13.176  1.00  0.00    -0.342 N 
HETATM    5  H   UNL     1     -42.429 -50.585  11.213  1.00  0.00     0.172 HD
HETATM    6  H   UNL     1     -40.319 -52.275  13.294  1.00  0.00     0.164 HD
ENDROOT
BRANCH   4   7
HETATM    7  C   UNL     1     -41.254 -54.141  13.666  1.00  0.00     0.133 C 
BRANCH   7   8
HETATM    8  C   UNL     1     -41.893 -54.233  15.040  1.00  0.00     0.122 C 
BRANCH   8   9
HETATM    9  C   UNL     1     -43.322 -54.696  14.907  1.00  0.00     0.219 C 
HETATM   10  O   UNL     1     -43.675 -55.863  15.062  1.00  0.00    -0.274 OA
HETATM   11  N   UNL     1     -44.200 -53.669  14.646  1.00  0.00    -0.356 N 
HETATM   12  H   UNL     1     -43.802 -52.796  14.324  1.00  0.00     0.162 HD
BRANCH  11  13
HETATM   13  C   UNL     1     -45.618 -53.907  14.403  1.00  0.00     0.084 C 
HETATM   14  C   UNL     1     -46.178 -52.926  13.365  1.00  0.00     0.025 C 
HETATM   15  C   UNL     1     -46.251 -51.492  13.894  1.00  0.00     0.002 C 
HETATM   16  C   UNL     1     -46.974 -51.401  15.236  1.00  0.00     0.000 C 
HETATM   17  C   UNL     1     -46.428 -52.386  16.265  1.00  0.00     0.002 C 
HETATM   18  C   UNL     1     -46.404 -53.812  15.713  1.00  0.00     0.025 C 
ENDBRANCH  11  13
ENDBRANCH   8   9
ENDBRANCH   7   8
ENDBRANCH   4   7
BRANCH   1  19
HETATM   19  C   UNL     1     -40.592 -50.225  12.122  1.00  0.00     0.109 A 
HETATM   20  N   UNL     1     -39.475 -50.457  11.402  1.00  0.00    -0.346 N 
HETATM   21  C   UNL     1     -38.363 -49.737  11.664  1.00  0.00     0.007 A 
ATOM     22  HN  UNL     1     -39.470 -51.167  10.670  1.00  0.00     0.167 HD
HETATM   23  C   UNL     1     -38.332 -48.761  12.648  1.00  0.00     0.031 A 
HETATM   24  C   UNL     1     -37.165 -50.063  10.829  1.00  0.00     0.068 C 
HETATM   25  C   UNL     1     -39.488 -48.516  13.393  1.00  0.00    -0.057 A 
HETATM   26  C   UNL     1     -39.499 -47.466  14.464  1.00  0.00     0.048 C 
HETATM   27  C   UNL     1     -40.640 -49.264  13.122  1.00  0.00     0.055 A 
ENDBRANCH   1  19
TORSDOF 5
ENDMDL
MODEL 5
REMARK VINA RESULT:      -6.7      1.832      6.652
REMARK  5 active torsions:
REMARK  status: ('A' for Active; 'I' for Inactive)
REMARK    1  A    between atoms: C_8  and  N_9 
REMARK       I    between atoms: N_9  and  C_10 
REMARK       I    between atoms: C_10  and  N_12 
REMARK    2  A    between atoms: N_12  and  C_13 
REMARK    3  A    between atoms: C_13  and  C_14 
REMARK    4  A    between atoms: C_14  and  C_15 
REMARK       I    between atoms: C_15  and  N_17 
REMARK    5  A    between atoms: N_17  and  C_18 
ROOT
HETATM    1  N   UNL     1     -40.511 -49.640  10.913  1.00  0.00    -0.295 N 
HETATM    2  C   UNL     1     -40.912 -50.715  11.658  1.00  0.00     0.321 C 
HETATM    3  O   UNL     1     -40.126 -51.631  11.891  1.00  0.00    -0.247 OA
HETATM    4  N   UNL     1     -42.203 -50.708  12.083  1.00  0.00    -0.342 N 
HETATM    5  H   UNL     1     -39.558 -49.709  10.588  1.00  0.00     0.172 HD
HETATM    6  H   UNL     1     -42.690 -49.826  11.935  1.00  0.00     0.164 HD
ENDROOT
BRANCH   4   7
HETATM    7  C   UNL     1     -42.792 -51.663  12.989  1.00  0.00     0.133 C 
BRANCH   7   8
HETATM    8  C   UNL     1     -43.118 -52.981  12.312  1.00  0.00     0.122 C 
BRANCH   8   9
HETATM    9  C   UNL     1     -44.275 -53.644  13.019  1.00  0.00     0.219 C 
HETATM   10  O   UNL     1     -44.931 -54.562  12.534  1.00  0.00    -0.274 OA
HETATM   11  N   UNL     1     -44.487 -53.151  14.287  1.00  0.00    -0.356 N 
HETATM   12  H   UNL     1     -44.049 -52.266  14.513  1.00  0.00     0.162 HD
BRANCH  11  13
HETATM   13  C   UNL     1     -45.602 -53.596  15.113  1.00  0.00     0.084 C 
HETATM   14  C   UNL     1     -46.913 -52.921  14.690  1.00  0.00     0.025 C 
HETATM   15  C   UNL     1     -46.937 -51.427  15.020  1.00  0.00     0.002 C 
HETATM   16  C   UNL     1     -46.577 -51.146  16.478  1.00  0.00     0.000 C 
HETATM   17  C   UNL     1     -45.281 -51.829  16.904  1.00  0.00     0.002 C 
HETATM   18  C   UNL     1     -45.309 -53.325  16.591  1.00  0.00     0.025 C 
ENDBRANCH  11  13
ENDBRANCH   8   9
ENDBRANCH   7   8
ENDBRANCH   4   7
BRANCH   1  19
HETATM   19  C   UNL     1     -41.244 -48.490  10.602  1.00  0.00     0.109 A 
HETATM   20  N   UNL     1     -42.086 -48.525   9.548  1.00  0.00    -0.346 N 
HETATM   21  C   UNL     1     -42.802 -47.421   9.242  1.00  0.00     0.007 A 
ATOM     22  HN  UNL     1     -42.182 -49.373   8.990  1.00  0.00     0.167 HD
HETATM   23  C   UNL     1     -42.703 -46.251   9.979  1.00  0.00     0.031 A 
HETATM   24  C   UNL     1     -43.704 -47.539   8.054  1.00  0.00     0.068 C 
HETATM   25  C   UNL     1     -41.834 -46.213  11.073  1.00  0.00    -0.057 A 
HETATM   26  C   UNL     1     -41.700 -44.969  11.899  1.00  0.00     0.048 C 
HETATM   27  C   UNL     1     -41.092 -47.357  11.388  1.00  0.00     0.055 A 
ENDBRANCH   1  19
TORSDOF 5
ENDMDL
MODEL 6
REMARK VINA RESULT:      -6.3      2.380      3.541
REMARK  5 active torsions:
REMARK  status: ('A' for Active; 'I' for Inactive)
REMARK    1  A    between atoms: C_8  and  N_9 
REMARK       I    between atoms: N_9  and  C_10 
REMARK       I    between atoms: C_10  and  N_12 
REMARK    2  A    between atoms: N_12  and  C_13 
REMARK    3  A    between atoms: C_13  and  C_14 
REMARK    4  A    between atoms: C_14  and  C_15 
REMARK       I    between atoms: C_15  and  N_17 
REMARK    5  A    between atoms: N_17  and  C_18 
ROOT
HETATM    1  N   UNL     1     -42.791 -51.340  13.187  1.00  0.00    -0.295 N 
HETATM    2  C   UNL     1     -42.110 -50.405  12.456  1.00  0.00     0.321 C 
HETATM    3  O   UNL     1     -40.910 -50.551  12.236  1.00  0.00    -0.247 OA
HETATM    4  N   UNL     1     -42.826 -49.332  12.030  1.00  0.00    -0.342 N 
HETATM    5  H   UNL     1     -42.210 -52.097  13.513  1.00  0.00     0.172 HD
HETATM    6  H   UNL     1     -43.832 -49.415  12.166  1.00  0.00     0.164 HD
ENDROOT
BRANCH   4   7
HETATM    7  C   UNL     1     -42.347 -48.306  11.137  1.00  0.00     0.133 C 
BRANCH   7   8
HETATM    8  C   UNL     1     -43.475 -47.490  10.532  1.00  0.00     0.122 C 
BRANCH   8   9
HETATM    9  C   UNL     1     -42.979 -46.104  10.200  1.00  0.00     0.219 C 
HETATM   10  O   UNL     1     -42.797 -45.705   9.052  1.00  0.00    -0.274 OA
HETATM   11  N   UNL     1     -42.800 -45.313  11.312  1.00  0.00    -0.356 N 
HETATM   12  H   UNL     1     -42.764 -45.784  12.208  1.00  0.00     0.162 HD
BRANCH  11  13
HETATM   13  C   UNL     1     -42.252 -43.966  11.223  1.00  0.00     0.084 C 
HETATM   14  C   UNL     1     -40.724 -43.993  11.098  1.00  0.00     0.025 C 
HETATM   15  C   UNL     1     -40.039 -44.458  12.385  1.00  0.00     0.002 C 
HETATM   16  C   UNL     1     -40.514 -43.680  13.612  1.00  0.00     0.000 C 
HETATM   17  C   UNL     1     -42.034 -43.640  13.729  1.00  0.00     0.002 C 
HETATM   18  C   UNL     1     -42.679 -43.138  12.438  1.00  0.00     0.025 C 
ENDBRANCH  11  13
ENDBRANCH   8   9
ENDBRANCH   7   8
ENDBRANCH   4   7
BRANCH   1  19
HETATM   19  C   UNL     1     -44.159 -51.369  13.482  1.00  0.00     0.109 A 
HETATM   20  N   UNL     1     -45.033 -51.574  12.475  1.00  0.00    -0.346 N 
HETATM   21  C   UNL     1     -46.356 -51.607  12.750  1.00  0.00     0.007 A 
ATOM     22  HN  UNL     1     -44.701 -51.702  11.520  1.00  0.00     0.167 HD
HETATM   23  C   UNL     1     -46.845 -51.441  14.037  1.00  0.00     0.031 A 
HETATM   24  C   UNL     1     -47.258 -51.829  11.577  1.00  0.00     0.068 C 
HETATM   25  C   UNL     1     -45.941 -51.232  15.081  1.00  0.00    -0.057 A 
HETATM   26  C   UNL     1     -46.428 -51.051  16.488  1.00  0.00     0.048 C 
HETATM   27  C   UNL     1     -44.571 -51.196  14.795  1.00  0.00     0.055 A 
ENDBRANCH   1  19
TORSDOF 5
ENDMDL
MODEL 7
REMARK VINA RESULT:      -6.3      1.896      2.629
REMARK  5 active torsions:
REMARK  status: ('A' for Active; 'I' for Inactive)
REMARK    1  A    between atoms: C_8  and  N_9 
REMARK       I    between atoms: N_9  and  C_10 
REMARK       I    between atoms: C_10  and  N_12 
REMARK    2  A    between atoms: N_12  and  C_13 
REMARK    3  A    between atoms: C_13  and  C_14 
REMARK    4  A    between atoms: C_14  and  C_15 
REMARK       I    between atoms: C_15  and  N_17 
REMARK    5  A    between atoms: N_17  and  C_18 
ROOT
HETATM    1  N   UNL     1     -43.232 -53.162  12.865  1.00  0.00    -0.295 N 
HETATM    2  C   UNL     1     -42.102 -52.561  12.383  1.00  0.00     0.321 C 
HETATM    3  O   UNL     1     -41.094 -53.230  12.166  1.00  0.00    -0.247 OA
HETATM    4  N   UNL     1     -42.165 -51.217  12.195  1.00  0.00    -0.342 N 
HETATM    5  H   UNL     1     -43.125 -54.152  13.025  1.00  0.00     0.172 HD
HETATM    6  H   UNL     1     -43.100 -50.823  12.283  1.00  0.00     0.164 HD
ENDROOT
BRANCH   4   7
HETATM    7  C   UNL     1     -41.147 -50.409  11.570  1.00  0.00     0.133 C 
BRANCH   7   8
HETATM    8  C   UNL     1     -40.960 -49.072  12.264  1.00  0.00     0.122 C 
BRANCH   8   9
HETATM    9  C   UNL     1     -41.346 -47.954  11.327  1.00  0.00     0.219 C 
HETATM   10  O   UNL     1     -41.711 -48.135  10.168  1.00  0.00    -0.274 OA
HETATM   11  N   UNL     1     -41.297 -46.713  11.919  1.00  0.00    -0.356 N 
HETATM   12  H   UNL     1     -40.785 -46.640  12.790  1.00  0.00     0.162 HD
BRANCH  11  13
HETATM   13  C   UNL     1     -41.555 -45.489  11.171  1.00  0.00     0.084 C 
HETATM   14  C   UNL     1     -40.254 -44.876  10.638  1.00  0.00     0.025 C 
HETATM   15  C   UNL     1     -39.374 -44.308  11.754  1.00  0.00     0.002 C 
HETATM   16  C   UNL     1     -40.138 -43.354  12.671  1.00  0.00     0.000 C 
HETATM   17  C   UNL     1     -41.440 -43.957  13.189  1.00  0.00     0.002 C 
HETATM   18  C   UNL     1     -42.307 -44.481  12.045  1.00  0.00     0.025 C 
ENDBRANCH  11  13
ENDBRANCH   8   9
ENDBRANCH   7   8
ENDBRANCH   4   7
BRANCH   1  19
HETATM   19  C   UNL     1     -44.478 -52.574  13.111  1.00  0.00     0.109 A 
HETATM   20  N   UNL     1     -45.337 -52.424  12.082  1.00  0.00    -0.346 N 
HETATM   21  C   UNL     1     -46.544 -51.861  12.310  1.00  0.00     0.007 A 
ATOM     22  HN  UNL     1     -45.080 -52.731  11.144  1.00  0.00     0.167 HD
HETATM   23  C   UNL     1     -46.932 -51.435  13.571  1.00  0.00     0.031 A 
HETATM   24  C   UNL     1     -47.433 -51.721  11.115  1.00  0.00     0.068 C 
HETATM   25  C   UNL     1     -46.045 -51.593  14.640  1.00  0.00    -0.057 A 
HETATM   26  C   UNL     1     -46.426 -51.149  16.020  1.00  0.00     0.048 C 
HETATM   27  C   UNL     1     -44.794 -52.175  14.402  1.00  0.00     0.055 A 
ENDBRANCH   1  19
TORSDOF 5
ENDMDL
MODEL 8
REMARK VINA RESULT:      -6.2      3.074      4.214
REMARK  5 active torsions:
REMARK  status: ('A' for Active; 'I' for Inactive)
REMARK    1  A    between atoms: C_8  and  N_9 
REMARK       I    between atoms: N_9  and  C_10 
REMARK       I    between atoms: C_10  and  N_12 
REMARK    2  A    between atoms: N_12  and  C_13 
REMARK    3  A    between atoms: C_13  and  C_14 
REMARK    4  A    between atoms: C_14  and  C_15 
REMARK       I    between atoms: C_15  and  N_17 
REMARK    5  A    between atoms: N_17  and  C_18 
ROOT
HETATM    1  N   UNL     1     -44.656 -54.734  15.287  1.00  0.00    -0.295 N 
HETATM    2  C   UNL     1     -43.315 -54.960  15.141  1.00  0.00     0.321 C 
HETATM    3  O   UNL     1     -42.841 -56.057  15.427  1.00  0.00    -0.247 OA
HETATM    4  N   UNL     1     -42.571 -53.913  14.698  1.00  0.00    -0.342 N 
HETATM    5  H   UNL     1     -45.160 -55.527  15.655  1.00  0.00     0.172 HD
HETATM    6  H   UNL     1     -43.116 -53.117  14.371  1.00  0.00     0.164 HD
ENDROOT
BRANCH   4   7
HETATM    7  C   UNL     1     -41.174 -53.968  14.343  1.00  0.00     0.133 C 
BRANCH   7   8
HETATM    8  C   UNL     1     -40.950 -53.847  12.847  1.00  0.00     0.122 C 
BRANCH   8   9
HETATM    9  C   UNL     1     -41.215 -52.429  12.406  1.00  0.00     0.219 C 
HETATM   10  O   UNL     1     -42.336 -51.994  12.156  1.00  0.00    -0.274 OA
HETATM   11  N   UNL     1     -40.077 -51.656  12.361  1.00  0.00    -0.356 N 
HETATM   12  H   UNL     1     -39.190 -52.144  12.369  1.00  0.00     0.162 HD
BRANCH  11  13
HETATM   13  C   UNL     1     -40.097 -50.278  11.884  1.00  0.00     0.084 C 
HETATM   14  C   UNL     1     -38.736 -49.868  11.309  1.00  0.00     0.025 C 
HETATM   15  C   UNL     1     -37.656 -49.745  12.387  1.00  0.00     0.002 C 
HETATM   16  C   UNL     1     -38.092 -48.857  13.551  1.00  0.00     0.000 C 
HETATM   17  C   UNL     1     -39.453 -49.255  14.115  1.00  0.00     0.002 C 
HETATM   18  C   UNL     1     -40.511 -49.332  13.015  1.00  0.00     0.025 C 
ENDBRANCH  11  13
ENDBRANCH   8   9
ENDBRANCH   7   8
ENDBRANCH   4   7
BRANCH   1  19
HETATM   19  C   UNL     1     -45.373 -53.578  14.958  1.00  0.00     0.109 A 
HETATM   20  N   UNL     1     -45.726 -52.732  15.947  1.00  0.00    -0.346 N 
HETATM   21  C   UNL     1     -46.414 -51.611  15.639  1.00  0.00     0.007 A 
ATOM     22  HN  UNL     1     -45.476 -52.935  16.915  1.00  0.00     0.167 HD
HETATM   23  C   UNL     1     -46.768 -51.299  14.335  1.00  0.00     0.031 A 
HETATM   24  C   UNL     1     -46.776 -50.731  16.794  1.00  0.00     0.068 C 
HETATM   25  C   UNL     1     -46.401 -52.172  13.308  1.00  0.00    -0.057 A 
HETATM   26  C   UNL     1     -46.760 -51.870  11.884  1.00  0.00     0.048 C 
HETATM   27  C   UNL     1     -45.689 -53.334  13.629  1.00  0.00     0.055 A 
ENDBRANCH   1  19
TORSDOF 5
ENDMDL
MODEL 9
REMARK VINA RESULT:      -6.0      1.362      6.267
REMARK  5 active torsions:
REMARK  status: ('A' for Active; 'I' for Inactive)
REMARK    1  A    between atoms: C_8  and  N_9 
REMARK       I    between atoms: N_9  and  C_10 
REMARK       I    between atoms: C_10  and  N_12 
REMARK    2  A    between atoms: N_12  and  C_13 
REMARK    3  A    between atoms: C_13  and  C_14 
REMARK    4  A    between atoms: C_14  and  C_15 
REMARK       I    between atoms: C_15  and  N_17 
REMARK    5  A    between atoms: N_17  and  C_18 
ROOT
HETATM    1  N   UNL     1     -42.295 -48.394  13.413  1.00  0.00    -0.295 N 
HETATM    2  C   UNL     1     -41.697 -49.601  13.651  1.00  0.00     0.321 C 
HETATM    3  O   UNL     1     -41.787 -50.125  14.759  1.00  0.00    -0.247 OA
HETATM    4  N   UNL     1     -41.000 -50.145  12.619  1.00  0.00    -0.342 N 
HETATM    5  H   UNL     1     -42.766 -48.013  14.219  1.00  0.00     0.172 HD
HETATM    6  H   UNL     1     -41.130 -49.671  11.727  1.00  0.00     0.164 HD
ENDROOT
BRANCH   4   7
HETATM    7  C   UNL     1     -40.414 -51.463  12.606  1.00  0.00     0.133 C 
BRANCH   7   8
HETATM    8  C   UNL     1     -41.278 -52.476  11.877  1.00  0.00     0.122 C 
BRANCH   8   9
HETATM    9  C   UNL     1     -42.091 -53.263  12.874  1.00  0.00     0.219 C 
HETATM   10  O   UNL     1     -41.711 -54.315  13.382  1.00  0.00    -0.274 OA
HETATM   11  N   UNL     1     -43.284 -52.656  13.197  1.00  0.00    -0.356 N 
HETATM   12  H   UNL     1     -43.606 -51.921  12.578  1.00  0.00     0.162 HD
BRANCH  11  13
HETATM   13  C   UNL     1     -44.257 -53.285  14.081  1.00  0.00     0.084 C 
HETATM   14  C   UNL     1     -45.562 -53.599  13.340  1.00  0.00     0.025 C 
HETATM   15  C   UNL     1     -46.342 -52.337  12.965  1.00  0.00     0.002 C 
HETATM   16  C   UNL     1     -46.555 -51.407  14.158  1.00  0.00     0.000 C 
HETATM   17  C   UNL     1     -45.260 -51.106  14.905  1.00  0.00     0.002 C 
HETATM   18  C   UNL     1     -44.528 -52.390  15.294  1.00  0.00     0.025 C 
ENDBRANCH  11  13
ENDBRANCH   8   9
ENDBRANCH   7   8
ENDBRANCH   4   7
BRANCH   1  19
HETATM   19  C   UNL     1     -42.347 -47.686  12.207  1.00  0.00     0.109 A 
HETATM   20  N   UNL     1     -41.333 -46.850  11.904  1.00  0.00    -0.346 N 
HETATM   21  C   UNL     1     -41.372 -46.164  10.741  1.00  0.00     0.007 A 
ATOM     22  HN  UNL     1     -40.547 -46.736  12.544  1.00  0.00     0.167 HD
HETATM   23  C   UNL     1     -42.420 -46.295   9.843  1.00  0.00     0.031 A 
HETATM   24  C   UNL     1     -40.214 -45.251  10.485  1.00  0.00     0.068 C 
HETATM   25  C   UNL     1     -43.471 -47.163  10.153  1.00  0.00    -0.057 A 
HETATM   26  C   UNL     1     -44.622 -47.336   9.209  1.00  0.00     0.048 C 
HETATM   27  C   UNL     1     -43.430 -47.871  11.360  1.00  0.00     0.055 A 
ENDBRANCH   1  19
TORSDOF 5
ENDMDL
