MODEL 1
REMARK VINA RESULT:      -5.6      0.000      0.000
REMARK  6 active torsions:
REMARK  status: ('A' for Active; 'I' for Inactive)
REMARK    1  A    between atoms: C_2  and  C_3 
REMARK       I    between atoms: C_2  and  N_10 
REMARK    2  A    between atoms: C_3  and  C_4 
REMARK    3  A    between atoms: C_4  and  C_5 
REMARK    4  A    between atoms: N_10  and  C_11 
REMARK    5  A    between atoms: C_11  and  C_12 
REMARK    6  A    between atoms: C_12  and  C_13 
ROOT
HETATM    1  O   UNL     1     -42.587 -49.445  13.662  1.00  0.00    -0.274 OA
HETATM    2  C   UNL     1     -42.376 -49.698  12.480  1.00  0.00     0.217 C 
HETATM    3  N   UNL     1     -42.285 -50.984  11.991  1.00  0.00    -0.361 N 
HETATM    4  H   UNL     1     -42.267 -51.122  10.989  1.00  0.00     0.162 HD
ENDROOT
BRANCH   3   5
HETATM    5  C   UNL     1     -42.552 -52.133  12.844  1.00  0.00     0.128 C 
BRANCH   5   6
HETATM    6  C   UNL     1     -43.768 -52.920  12.360  1.00  0.00     0.076 C 
BRANCH   6   7
HETATM    7  C   UNL     1     -44.984 -52.765  13.237  1.00  0.00     0.010 A 
HETATM    8  C   UNL     1     -45.547 -51.513  13.476  1.00  0.00     0.025 A 
HETATM    9  C   UNL     1     -46.634 -51.415  14.341  1.00  0.00     0.003 A 
HETATM   10  C   UNL     1     -47.124 -52.562  14.951  1.00  0.00     0.017 A 
HETATM   11  C   UNL     1     -46.508 -53.767  14.662  1.00  0.00     0.088 A 
HETATM   12  N   UNL     1     -45.457 -53.894  13.820  1.00  0.00    -0.369 N 
ATOM     13  HN  UNL     1     -45.038 -54.804  13.631  1.00  0.00     0.165 HD
ENDBRANCH   6   7
ENDBRANCH   5   6
ENDBRANCH   3   5
BRANCH   2  14
HETATM   14  C   UNL     1     -42.161 -48.612  11.443  1.00  0.00     0.105 C 
BRANCH  14  15
HETATM   15  C   UNL     1     -43.267 -47.556  11.420  1.00  0.00     0.041 C 
BRANCH  15  16
HETATM   16  C   UNL     1     -43.686 -47.168  10.003  1.00  0.00     0.121 C 
HETATM   17  C   UNL     1     -45.137 -47.502   9.680  1.00  0.00     0.034 C 
HETATM   18  C   UNL     1     -45.111 -47.949   8.232  1.00  0.00     0.029 C 
HETATM   19  C   UNL     1     -43.660 -47.831   7.819  1.00  0.00     0.168 C 
HETATM   20  O   UNL     1     -42.915 -47.894   9.038  1.00  0.00    -0.386 OA
ENDBRANCH  15  16
ENDBRANCH  14  15
ENDBRANCH   2  14
TORSDOF 6
ENDMDL
MODEL 2
REMARK VINA RESULT:      -5.5      1.554      1.987
REMARK  6 active torsions:
REMARK  status: ('A' for Active; 'I' for Inactive)
REMARK    1  A    between atoms: C_2  and  C_3 
REMARK       I    between atoms: C_2  and  N_10 
REMARK    2  A    between atoms: C_3  and  C_4 
REMARK    3  A    between atoms: C_4  and  C_5 
REMARK    4  A    between atoms: N_10  and  C_11 
REMARK    5  A    between atoms: C_11  and  C_12 
REMARK    6  A    between atoms: C_12  and  C_13 
ROOT
HETATM    1  O   UNL     1     -41.010 -48.523  10.880  1.00  0.00    -0.274 OA
HETATM    2  C   UNL     1     -42.199 -48.473  11.174  1.00  0.00     0.217 C 
HETATM    3  N   UNL     1     -42.809 -49.395  11.998  1.00  0.00    -0.361 N 
HETATM    4  H   UNL     1     -43.748 -49.209  12.325  1.00  0.00     0.162 HD
ENDROOT
BRANCH   3   5
HETATM    5  C   UNL     1     -42.037 -50.433  12.667  1.00  0.00     0.128 C 
BRANCH   5   6
HETATM    6  C   UNL     1     -42.821 -51.739  12.767  1.00  0.00     0.076 C 
BRANCH   6   7
HETATM    7  C   UNL     1     -44.204 -51.577  13.342  1.00  0.00     0.010 A 
HETATM    8  C   UNL     1     -44.395 -51.248  14.683  1.00  0.00     0.025 A 
HETATM    9  C   UNL     1     -45.693 -51.168  15.181  1.00  0.00     0.003 A 
HETATM   10  C   UNL     1     -46.764 -51.426  14.335  1.00  0.00     0.017 A 
HETATM   11  C   UNL     1     -46.489 -51.748  13.017  1.00  0.00     0.088 A 
HETATM   12  N   UNL     1     -45.241 -51.824  12.504  1.00  0.00    -0.369 N 
ATOM     13  HN  UNL     1     -45.086 -52.059  11.524  1.00  0.00     0.165 HD
ENDBRANCH   6   7
ENDBRANCH   5   6
ENDBRANCH   3   5
BRANCH   2  14
HETATM   14  C   UNL     1     -43.127 -47.403  10.631  1.00  0.00     0.105 C 
BRANCH  14  15
HETATM   15  C   UNL     1     -43.141 -47.320   9.103  1.00  0.00     0.041 C 
BRANCH  15  16
HETATM   16  C   UNL     1     -44.553 -47.365   8.521  1.00  0.00     0.121 C 
HETATM   17  C   UNL     1     -45.641 -47.569   9.568  1.00  0.00     0.034 C 
HETATM   18  C   UNL     1     -46.657 -48.468   8.890  1.00  0.00     0.029 C 
HETATM   19  C   UNL     1     -46.094 -48.709   7.506  1.00  0.00     0.168 C 
HETATM   20  O   UNL     1     -44.688 -48.475   7.625  1.00  0.00    -0.386 OA
ENDBRANCH  15  16
ENDBRANCH  14  15
ENDBRANCH   2  14
TORSDOF 6
ENDMDL
MODEL 3
REMARK VINA RESULT:      -5.5      3.922      4.655
REMARK  6 active torsions:
REMARK  status: ('A' for Active; 'I' for Inactive)
REMARK    1  A    between atoms: C_2  and  C_3 
REMARK       I    between atoms: C_2  and  N_10 
REMARK    2  A    between atoms: C_3  and  C_4 
REMARK    3  A    between atoms: C_4  and  C_5 
REMARK    4  A    between atoms: N_10  and  C_11 
REMARK    5  A    between atoms: C_11  and  C_12 
REMARK    6  A    between atoms: C_12  and  C_13 
ROOT
HETATM    1  O   UNL     1     -42.412 -53.555  14.400  1.00  0.00    -0.274 OA
HETATM    2  C   UNL     1     -42.203 -53.439  13.197  1.00  0.00     0.217 C 
HETATM    3  N   UNL     1     -43.157 -53.706  12.239  1.00  0.00    -0.361 N 
HETATM    4  H   UNL     1     -42.971 -53.441  11.281  1.00  0.00     0.162 HD
ENDROOT
BRANCH   3   5
HETATM    5  C   UNL     1     -44.525 -54.039  12.612  1.00  0.00     0.128 C 
BRANCH   5   6
HETATM    6  C   UNL     1     -45.390 -52.788  12.744  1.00  0.00     0.076 C 
BRANCH   6   7
HETATM    7  C   UNL     1     -45.917 -52.556  14.137  1.00  0.00     0.010 A 
HETATM    8  C   UNL     1     -46.760 -51.484  14.421  1.00  0.00     0.025 A 
HETATM    9  C   UNL     1     -47.173 -51.277  15.735  1.00  0.00     0.003 A 
HETATM   10  C   UNL     1     -46.728 -52.136  16.731  1.00  0.00     0.017 A 
HETATM   11  C   UNL     1     -45.890 -53.176  16.367  1.00  0.00     0.088 A 
HETATM   12  N   UNL     1     -45.481 -53.406  15.100  1.00  0.00    -0.369 N 
ATOM     13  HN  UNL     1     -44.867 -54.190  14.876  1.00  0.00     0.165 HD
ENDBRANCH   6   7
ENDBRANCH   5   6
ENDBRANCH   3   5
BRANCH   2  14
HETATM   14  C   UNL     1     -40.855 -53.017  12.644  1.00  0.00     0.105 C 
BRANCH  14  15
HETATM   15  C   UNL     1     -40.817 -51.567  12.157  1.00  0.00     0.041 C 
BRANCH  15  16
HETATM   16  C   UNL     1     -39.550 -50.830  12.589  1.00  0.00     0.121 C 
HETATM   17  C   UNL     1     -39.050 -49.819  11.565  1.00  0.00     0.034 C 
HETATM   18  C   UNL     1     -37.539 -49.922  11.635  1.00  0.00     0.029 C 
HETATM   19  C   UNL     1     -37.274 -50.969  12.695  1.00  0.00     0.168 C 
HETATM   20  O   UNL     1     -38.468 -51.754  12.757  1.00  0.00    -0.386 OA
ENDBRANCH  15  16
ENDBRANCH  14  15
ENDBRANCH   2  14
TORSDOF 6
ENDMDL
MODEL 4
REMARK VINA RESULT:      -5.4      2.812      6.844
REMARK  6 active torsions:
REMARK  status: ('A' for Active; 'I' for Inactive)
REMARK    1  A    between atoms: C_2  and  C_3 
REMARK       I    between atoms: C_2  and  N_10 
REMARK    2  A    between atoms: C_3  and  C_4 
REMARK    3  A    between atoms: C_4  and  C_5 
REMARK    4  A    between atoms: N_10  and  C_11 
REMARK    5  A    between atoms: C_11  and  C_12 
REMARK    6  A    between atoms: C_12  and  C_13 
ROOT
HETATM    1  O   UNL     1     -39.838 -51.245  13.205  1.00  0.00    -0.274 OA
HETATM    2  C   UNL     1     -40.514 -51.703  12.290  1.00  0.00     0.217 C 
HETATM    3  N   UNL     1     -40.982 -50.937  11.244  1.00  0.00    -0.361 N 
HETATM    4  H   UNL     1     -41.395 -51.402  10.447  1.00  0.00     0.162 HD
ENDROOT
BRANCH   3   5
HETATM    5  C   UNL     1     -40.598 -49.539  11.106  1.00  0.00     0.128 C 
BRANCH   5   6
HETATM    6  C   UNL     1     -41.691 -48.604  11.617  1.00  0.00     0.076 C 
BRANCH   6   7
HETATM    7  C   UNL     1     -42.304 -47.739  10.546  1.00  0.00     0.010 A 
HETATM    8  C   UNL     1     -42.659 -46.416  10.801  1.00  0.00     0.025 A 
HETATM    9  C   UNL     1     -43.277 -45.676   9.796  1.00  0.00     0.003 A 
HETATM   10  C   UNL     1     -43.531 -46.274   8.569  1.00  0.00     0.017 A 
HETATM   11  C   UNL     1     -43.149 -47.593   8.396  1.00  0.00     0.088 A 
HETATM   12  N   UNL     1     -42.541 -48.333   9.350  1.00  0.00    -0.369 N 
ATOM     13  HN  UNL     1     -42.270 -49.301   9.176  1.00  0.00     0.165 HD
ENDBRANCH   6   7
ENDBRANCH   5   6
ENDBRANCH   3   5
BRANCH   2  14
HETATM   14  C   UNL     1     -40.929 -53.161  12.238  1.00  0.00     0.105 C 
BRANCH  14  15
HETATM   15  C   UNL     1     -41.342 -53.732  13.596  1.00  0.00     0.041 C 
BRANCH  15  16
HETATM   16  C   UNL     1     -42.838 -53.584  13.870  1.00  0.00     0.121 C 
HETATM   17  C   UNL     1     -43.442 -54.761  14.626  1.00  0.00     0.034 C 
HETATM   18  C   UNL     1     -44.820 -54.937  14.018  1.00  0.00     0.029 C 
HETATM   19  C   UNL     1     -44.919 -53.849  12.971  1.00  0.00     0.168 C 
HETATM   20  O   UNL     1     -43.567 -53.520  12.639  1.00  0.00    -0.386 OA
ENDBRANCH  15  16
ENDBRANCH  14  15
ENDBRANCH   2  14
TORSDOF 6
ENDMDL
MODEL 5
REMARK VINA RESULT:      -5.3      4.282      7.040
REMARK  6 active torsions:
REMARK  status: ('A' for Active; 'I' for Inactive)
REMARK    1  A    between atoms: C_2  and  C_3 
REMARK       I    between atoms: C_2  and  N_10 
REMARK    2  A    between atoms: C_3  and  C_4 
REMARK    3  A    between atoms: C_4  and  C_5 
REMARK    4  A    between atoms: N_10  and  C_11 
REMARK    5  A    between atoms: C_11  and  C_12 
REMARK    6  A    between atoms: C_12  and  C_13 
ROOT
HETATM    1  O   UNL     1     -41.894 -53.684  15.153  1.00  0.00    -0.274 OA
HETATM    2  C   UNL     1     -42.616 -54.139  14.273  1.00  0.00     0.217 C 
HETATM    3  N   UNL     1     -42.305 -54.066  12.932  1.00  0.00    -0.361 N 
HETATM    4  H   UNL     1     -42.862 -54.596  12.275  1.00  0.00     0.162 HD
ENDROOT
BRANCH   3   5
HETATM    5  C   UNL     1     -41.025 -53.536  12.486  1.00  0.00     0.128 C 
BRANCH   5   6
HETATM    6  C   UNL     1     -41.132 -52.063  12.098  1.00  0.00     0.076 C 
BRANCH   6   7
HETATM    7  C   UNL     1     -39.874 -51.272  12.353  1.00  0.00     0.010 A 
HETATM    8  C   UNL     1     -39.171 -51.399  13.550  1.00  0.00     0.025 A 
HETATM    9  C   UNL     1     -38.049 -50.603  13.762  1.00  0.00     0.003 A 
HETATM   10  C   UNL     1     -37.662 -49.697  12.783  1.00  0.00     0.017 A 
HETATM   11  C   UNL     1     -38.415 -49.630  11.624  1.00  0.00     0.088 A 
HETATM   12  N   UNL     1     -39.504 -50.396  11.387  1.00  0.00    -0.369 N 
ATOM     13  HN  UNL     1     -40.026 -50.317  10.514  1.00  0.00     0.165 HD
ENDBRANCH   6   7
ENDBRANCH   5   6
ENDBRANCH   3   5
BRANCH   2  14
HETATM   14  C   UNL     1     -43.947 -54.802  14.576  1.00  0.00     0.105 C 
BRANCH  14  15
HETATM   15  C   UNL     1     -44.990 -54.621  13.472  1.00  0.00     0.041 C 
BRANCH  15  16
HETATM   16  C   UNL     1     -46.155 -53.729  13.899  1.00  0.00     0.121 C 
HETATM   17  C   UNL     1     -46.124 -52.340  13.274  1.00  0.00     0.034 C 
HETATM   18  C   UNL     1     -46.622 -51.419  14.371  1.00  0.00     0.029 C 
HETATM   19  C   UNL     1     -46.914 -52.335  15.539  1.00  0.00     0.168 C 
HETATM   20  O   UNL     1     -46.117 -53.501  15.312  1.00  0.00    -0.386 OA
ENDBRANCH  15  16
ENDBRANCH  14  15
ENDBRANCH   2  14
TORSDOF 6
ENDMDL
MODEL 6
REMARK VINA RESULT:      -5.2      2.514      6.524
REMARK  6 active torsions:
REMARK  status: ('A' for Active; 'I' for Inactive)
REMARK    1  A    between atoms: C_2  and  C_3 
REMARK       I    between atoms: C_2  and  N_10 
REMARK    2  A    between atoms: C_3  and  C_4 
REMARK    3  A    between atoms: C_4  and  C_5 
REMARK    4  A    between atoms: N_10  and  C_11 
REMARK    5  A    between atoms: C_11  and  C_12 
REMARK    6  A    between atoms: C_12  and  C_13 
ROOT
HETATM    1  O   UNL     1     -42.967 -50.941  12.904  1.00  0.00    -0.274 OA
HETATM    2  C   UNL     1     -42.451 -52.027  13.145  1.00  0.00     0.217 C 
HETATM    3  N   UNL     1     -41.103 -52.183  13.386  1.00  0.00    -0.361 N 
HETATM    4  H   UNL     1     -40.770 -53.073  13.731  1.00  0.00     0.162 HD
ENDROOT
BRANCH   3   5
HETATM    5  C   UNL     1     -40.218 -51.030  13.481  1.00  0.00     0.128 C 
BRANCH   5   6
HETATM    6  C   UNL     1     -39.641 -50.652  12.120  1.00  0.00     0.076 C 
BRANCH   6   7
HETATM    7  C   UNL     1     -40.135 -49.329  11.593  1.00  0.00     0.010 A 
HETATM    8  C   UNL     1     -39.459 -48.143  11.872  1.00  0.00     0.025 A 
HETATM    9  C   UNL     1     -39.987 -46.939  11.413  1.00  0.00     0.003 A 
HETATM   10  C   UNL     1     -41.177 -46.947  10.697  1.00  0.00     0.017 A 
HETATM   11  C   UNL     1     -41.788 -48.167  10.464  1.00  0.00     0.088 A 
HETATM   12  N   UNL     1     -41.294 -49.351  10.890  1.00  0.00    -0.369 N 
ATOM     13  HN  UNL     1     -41.774 -50.228  10.689  1.00  0.00     0.165 HD
ENDBRANCH   6   7
ENDBRANCH   5   6
ENDBRANCH   3   5
BRANCH   2  14
HETATM   14  C   UNL     1     -43.248 -53.318  13.169  1.00  0.00     0.105 C 
BRANCH  14  15
HETATM   15  C   UNL     1     -44.574 -53.235  12.411  1.00  0.00     0.041 C 
BRANCH  15  16
HETATM   16  C   UNL     1     -45.778 -53.079  13.338  1.00  0.00     0.121 C 
HETATM   17  C   UNL     1     -46.396 -51.687  13.311  1.00  0.00     0.034 C 
HETATM   18  C   UNL     1     -46.808 -51.426  14.747  1.00  0.00     0.029 C 
HETATM   19  C   UNL     1     -46.414 -52.682  15.494  1.00  0.00     0.168 C 
HETATM   20  O   UNL     1     -45.389 -53.286  14.701  1.00  0.00    -0.386 OA
ENDBRANCH  15  16
ENDBRANCH  14  15
ENDBRANCH   2  14
TORSDOF 6
ENDMDL
MODEL 7
REMARK VINA RESULT:      -5.0      3.430      7.166
REMARK  6 active torsions:
REMARK  status: ('A' for Active; 'I' for Inactive)
REMARK    1  A    between atoms: C_2  and  C_3 
REMARK       I    between atoms: C_2  and  N_10 
REMARK    2  A    between atoms: C_3  and  C_4 
REMARK    3  A    between atoms: C_4  and  C_5 
REMARK    4  A    between atoms: N_10  and  C_11 
REMARK    5  A    between atoms: C_11  and  C_12 
REMARK    6  A    between atoms: C_12  and  C_13 
ROOT
HETATM    1  O   UNL     1     -39.722 -51.679  13.400  1.00  0.00    -0.274 OA
HETATM    2  C   UNL     1     -40.463 -52.145  12.541  1.00  0.00     0.217 C 
HETATM    3  N   UNL     1     -40.926 -51.412  11.469  1.00  0.00    -0.361 N 
HETATM    4  H   UNL     1     -41.401 -51.896  10.718  1.00  0.00     0.162 HD
ENDROOT
BRANCH   3   5
HETATM    5  C   UNL     1     -40.463 -50.052  11.233  1.00  0.00     0.128 C 
BRANCH   5   6
HETATM    6  C   UNL     1     -41.443 -49.022  11.787  1.00  0.00     0.076 C 
BRANCH   6   7
HETATM    7  C   UNL     1     -40.905 -47.614  11.802  1.00  0.00     0.010 A 
HETATM    8  C   UNL     1     -40.872 -46.865  12.977  1.00  0.00     0.025 A 
HETATM    9  C   UNL     1     -40.421 -45.549  12.928  1.00  0.00     0.003 A 
HETATM   10  C   UNL     1     -40.023 -45.011  11.711  1.00  0.00     0.017 A 
HETATM   11  C   UNL     1     -40.088 -45.820  10.590  1.00  0.00     0.088 A 
HETATM   12  N   UNL     1     -40.513 -47.102  10.609  1.00  0.00    -0.369 N 
ATOM     13  HN  UNL     1     -40.538 -47.664   9.758  1.00  0.00     0.165 HD
ENDBRANCH   6   7
ENDBRANCH   5   6
ENDBRANCH   3   5
BRANCH   2  14
HETATM   14  C   UNL     1     -40.969 -53.575  12.592  1.00  0.00     0.105 C 
BRANCH  14  15
HETATM   15  C   UNL     1     -41.613 -53.951  13.928  1.00  0.00     0.041 C 
BRANCH  15  16
HETATM   16  C   UNL     1     -43.099 -53.602  13.988  1.00  0.00     0.121 C 
HETATM   17  C   UNL     1     -43.986 -54.768  14.406  1.00  0.00     0.034 C 
HETATM   18  C   UNL     1     -45.240 -54.611  13.569  1.00  0.00     0.029 C 
HETATM   19  C   UNL     1     -44.997 -53.367  12.741  1.00  0.00     0.168 C 
HETATM   20  O   UNL     1     -43.575 -53.220  12.692  1.00  0.00    -0.386 OA
ENDBRANCH  15  16
ENDBRANCH  14  15
ENDBRANCH   2  14
TORSDOF 6
ENDMDL
MODEL 8
REMARK VINA RESULT:      -4.9      4.005      4.957
REMARK  6 active torsions:
REMARK  status: ('A' for Active; 'I' for Inactive)
REMARK    1  A    between atoms: C_2  and  C_3 
REMARK       I    between atoms: C_2  and  N_10 
REMARK    2  A    between atoms: C_3  and  C_4 
REMARK    3  A    between atoms: C_4  and  C_5 
REMARK    4  A    between atoms: N_10  and  C_11 
REMARK    5  A    between atoms: C_11  and  C_12 
REMARK    6  A    between atoms: C_12  and  C_13 
ROOT
HETATM    1  O   UNL     1     -41.721 -52.392  15.241  1.00  0.00    -0.274 OA
HETATM    2  C   UNL     1     -41.344 -53.167  14.368  1.00  0.00     0.217 C 
HETATM    3  N   UNL     1     -41.911 -54.408  14.168  1.00  0.00    -0.361 N 
HETATM    4  H   UNL     1     -41.661 -54.928  13.337  1.00  0.00     0.162 HD
ENDROOT
BRANCH   3   5
HETATM    5  C   UNL     1     -43.085 -54.827  14.920  1.00  0.00     0.128 C 
BRANCH   5   6
HETATM    6  C   UNL     1     -44.341 -54.816  14.052  1.00  0.00     0.076 C 
BRANCH   6   7
HETATM    7  C   UNL     1     -45.182 -53.576  14.213  1.00  0.00     0.010 A 
HETATM    8  C   UNL     1     -46.125 -53.470  15.233  1.00  0.00     0.025 A 
HETATM    9  C   UNL     1     -46.920 -52.329  15.304  1.00  0.00     0.003 A 
HETATM   10  C   UNL     1     -46.760 -51.329  14.354  1.00  0.00     0.017 A 
HETATM   11  C   UNL     1     -45.803 -51.511  13.371  1.00  0.00     0.088 A 
HETATM   12  N   UNL     1     -45.012 -52.604  13.283  1.00  0.00    -0.369 N 
ATOM     13  HN  UNL     1     -44.314 -52.693  12.545  1.00  0.00     0.165 HD
ENDBRANCH   6   7
ENDBRANCH   5   6
ENDBRANCH   3   5
BRANCH   2  14
HETATM   14  C   UNL     1     -40.187 -52.846  13.441  1.00  0.00     0.105 C 
BRANCH  14  15
HETATM   15  C   UNL     1     -38.923 -52.389  14.171  1.00  0.00     0.041 C 
BRANCH  15  16
HETATM   16  C   UNL     1     -38.263 -51.179  13.511  1.00  0.00     0.121 C 
HETATM   17  C   UNL     1     -39.255 -50.131  13.022  1.00  0.00     0.034 C 
HETATM   18  C   UNL     1     -38.658 -49.618  11.726  1.00  0.00     0.029 C 
HETATM   19  C   UNL     1     -37.367 -50.392  11.565  1.00  0.00     0.168 C 
HETATM   20  O   UNL     1     -37.540 -51.580  12.342  1.00  0.00    -0.386 OA
ENDBRANCH  15  16
ENDBRANCH  14  15
ENDBRANCH   2  14
TORSDOF 6
ENDMDL
MODEL 9
REMARK VINA RESULT:      -4.9      3.439      7.927
REMARK  6 active torsions:
REMARK  status: ('A' for Active; 'I' for Inactive)
REMARK    1  A    between atoms: C_2  and  C_3 
REMARK       I    between atoms: C_2  and  N_10 
REMARK    2  A    between atoms: C_3  and  C_4 
REMARK    3  A    between atoms: C_4  and  C_5 
REMARK    4  A    between atoms: N_10  and  C_11 
REMARK    5  A    between atoms: C_11  and  C_12 
REMARK    6  A    between atoms: C_12  and  C_13 
ROOT
HETATM    1  O   UNL     1     -42.461 -50.456  13.932  1.00  0.00    -0.274 OA
HETATM    2  C   UNL     1     -42.342 -50.873  12.785  1.00  0.00     0.217 C 
HETATM    3  N   UNL     1     -42.192 -50.044  11.695  1.00  0.00    -0.361 N 
HETATM    4  H   UNL     1     -41.942 -50.452  10.804  1.00  0.00     0.162 HD
ENDROOT
BRANCH   3   5
HETATM    5  C   UNL     1     -42.050 -48.604  11.860  1.00  0.00     0.128 C 
BRANCH   5   6
HETATM    6  C   UNL     1     -41.517 -47.944  10.590  1.00  0.00     0.076 C 
BRANCH   6   7
HETATM    7  C   UNL     1     -41.145 -46.494  10.767  1.00  0.00     0.010 A 
HETATM    8  C   UNL     1     -42.025 -45.589  11.355  1.00  0.00     0.025 A 
HETATM    9  C   UNL     1     -41.658 -44.248  11.442  1.00  0.00     0.003 A 
HETATM   10  C   UNL     1     -40.431 -43.844  10.934  1.00  0.00     0.017 A 
HETATM   11  C   UNL     1     -39.614 -44.805  10.364  1.00  0.00     0.088 A 
HETATM   12  N   UNL     1     -39.940 -46.114  10.273  1.00  0.00    -0.369 N 
ATOM     13  HN  UNL     1     -39.304 -46.789   9.850  1.00  0.00     0.165 HD
ENDBRANCH   6   7
ENDBRANCH   5   6
ENDBRANCH   3   5
BRANCH   2  14
HETATM   14  C   UNL     1     -42.381 -52.353  12.451  1.00  0.00     0.105 C 
BRANCH  14  15
HETATM   15  C   UNL     1     -41.010 -52.944  12.116  1.00  0.00     0.041 C 
BRANCH  15  16
HETATM   16  C   UNL     1     -40.623 -54.099  13.037  1.00  0.00     0.121 C 
HETATM   17  C   UNL     1     -41.478 -54.194  14.295  1.00  0.00     0.034 C 
HETATM   18  C   UNL     1     -40.510 -54.621  15.381  1.00  0.00     0.029 C 
HETATM   19  C   UNL     1     -39.176 -54.753  14.677  1.00  0.00     0.168 C 
HETATM   20  O   UNL     1     -39.282 -53.931  13.512  1.00  0.00    -0.386 OA
ENDBRANCH  15  16
ENDBRANCH  14  15
ENDBRANCH   2  14
TORSDOF 6
ENDMDL
