MODEL 1
REMARK VINA RESULT:      -7.4      0.000      0.000
REMARK  8 active torsions:
REMARK  status: ('A' for Active; 'I' for Inactive)
REMARK    1  A    between atoms: N_1  and  C_5 
REMARK    2  A    between atoms: N_3  and  C_18 
REMARK    3  A    between atoms: N_4  and  C_19 
REMARK    4  A    between atoms: C_13  and  C_19 
REMARK    5  A    between atoms: C_18  and  C_20 
REMARK    6  A    between atoms: C_20  and  C_27 
REMARK    7  A    between atoms: C_20  and  C_28 
REMARK    8  A    between atoms: C_28  and  O_30 
ROOT
HETATM    1  C   UNL     1     -41.826 -49.364  11.999  1.00  0.00     0.122 A 
HETATM    2  N   UNL     1     -42.270 -50.880  13.509  1.00  0.00    -0.327 N 
HETATM    3  C   UNL     1     -40.967 -48.571  11.195  1.00  0.00     0.137 A 
HETATM    4  C   UNL     1     -41.233 -50.305  12.827  1.00  0.00     0.140 A 
HETATM    5  N   UNL     1     -43.203 -49.392  12.145  1.00  0.00    -0.346 N 
ATOM      6  HN  UNL     1     -43.889 -48.803  11.673  1.00  0.00     0.167 HD
HETATM    7  C   UNL     1     -43.432 -50.342  13.026  1.00  0.00     0.185 A 
HETATM    8  N   UNL     1     -39.927 -50.583  12.945  1.00  0.00    -0.336 N 
ATOM      9  HN  UNL     1     -39.538 -51.284  13.575  1.00  0.00     0.168 HD
HETATM   10  N   UNL     1     -39.634 -48.853  11.272  1.00  0.00    -0.337 N 
ATOM     11  HN  UNL     1     -38.968 -48.341  10.693  1.00  0.00     0.168 HD
HETATM   12  C   UNL     1     -39.200 -49.812  12.118  1.00  0.00     0.183 A 
ENDROOT
BRANCH   3  13
HETATM   13  N   UNL     1     -41.407 -47.562  10.355  1.00  0.00    -0.340 N 
HETATM   14  C   UNL     1     -42.579 -47.802   9.536  1.00  0.00     0.254 C 
HETATM   15  N   UNL     1     -43.330 -46.583   9.656  1.00  0.00    -0.326 N 
HETATM   16  C   UNL     1     -42.632 -45.573  10.290  1.00  0.00     0.239 C 
HETATM   17  C   UNL     1     -41.344 -46.173  10.814  1.00  0.00     0.229 C 
HETATM   18  O   UNL     1     -43.004 -44.416  10.402  1.00  0.00    -0.271 OA
BRANCH  15  19
HETATM   19  C   UNL     1     -44.550 -46.338   8.894  1.00  0.00     0.245 C 
BRANCH  19  20
HETATM   20  C   UNL     1     -45.649 -47.397   9.034  1.00  0.00     0.403 C 
HETATM   21  F   UNL     1     -46.891 -46.870   8.984  1.00  0.00    -0.169 F 
HETATM   22  F   UNL     1     -45.558 -48.297   8.024  1.00  0.00    -0.169 F 
HETATM   23  F   UNL     1     -45.533 -48.083  10.192  1.00  0.00    -0.169 F 
ENDBRANCH  19  20
ENDBRANCH  15  19
ENDBRANCH   3  13
BRANCH   2  24
HETATM   24  C   UNL     1     -42.172 -51.932  14.498  1.00  0.00     0.138 C 
BRANCH  24  25
HETATM   25  C   UNL     1     -42.199 -53.381  13.948  1.00  0.00     0.034 C 
BRANCH  25  26
HETATM   26  C   UNL     1     -43.632 -53.977  13.908  1.00  0.00     0.019 C 
HETATM   27  C   UNL     1     -44.287 -53.971  12.522  1.00  0.00     0.172 C 
HETATM   28  O   UNL     1     -45.566 -53.338  12.663  1.00  0.00    -0.391 OA
HETATM   29  C   UNL     1     -45.950 -53.469  14.031  1.00  0.00     0.168 C 
HETATM   30  C   UNL     1     -44.661 -53.298  14.802  1.00  0.00     0.033 C 
ENDBRANCH  25  26
BRANCH  25  31
HETATM   31  C   UNL     1     -41.482 -53.408  12.582  1.00  0.00     0.170 C 
BRANCH  31  32
HETATM   32  O   UNL     1     -40.097 -53.692  12.741  1.00  0.00    -0.400 OA
HETATM   33  H   UNL     1     -39.588 -53.259  12.037  1.00  0.00     0.209 HD
ENDBRANCH  31  32
ENDBRANCH  25  31
ENDBRANCH  24  25
ENDBRANCH   2  24
TORSDOF 8
ENDMDL
MODEL 2
REMARK VINA RESULT:      -7.4      2.956      3.538
REMARK  8 active torsions:
REMARK  status: ('A' for Active; 'I' for Inactive)
REMARK    1  A    between atoms: N_1  and  C_5 
REMARK    2  A    between atoms: N_3  and  C_18 
REMARK    3  A    between atoms: N_4  and  C_19 
REMARK    4  A    between atoms: C_13  and  C_19 
REMARK    5  A    between atoms: C_18  and  C_20 
REMARK    6  A    between atoms: C_20  and  C_27 
REMARK    7  A    between atoms: C_20  and  C_28 
REMARK    8  A    between atoms: C_28  and  O_30 
ROOT
HETATM    1  C   UNL     1     -41.905 -50.368  12.130  1.00  0.00     0.122 A 
HETATM    2  N   UNL     1     -41.769 -52.417  12.877  1.00  0.00    -0.327 N 
HETATM    3  C   UNL     1     -41.378 -49.155  11.617  1.00  0.00     0.137 A 
HETATM    4  C   UNL     1     -41.014 -51.408  12.344  1.00  0.00     0.140 A 
HETATM    5  N   UNL     1     -43.187 -50.748  12.490  1.00  0.00    -0.346 N 
ATOM      6  HN  UNL     1     -44.036 -50.184  12.452  1.00  0.00     0.167 HD
HETATM    7  C   UNL     1     -43.071 -51.996  12.891  1.00  0.00     0.185 A 
HETATM    8  N   UNL     1     -39.697 -51.420  12.096  1.00  0.00    -0.336 N 
ATOM      9  HN  UNL     1     -39.080 -52.212  12.277  1.00  0.00     0.168 HD
HETATM   10  N   UNL     1     -40.045 -49.148  11.327  1.00  0.00    -0.337 N 
ATOM     11  HN  UNL     1     -39.612 -48.316  10.923  1.00  0.00     0.168 HD
HETATM   12  C   UNL     1     -39.299 -50.246  11.577  1.00  0.00     0.183 A 
ENDROOT
BRANCH   3  13
HETATM   13  N   UNL     1     -42.134 -48.016  11.396  1.00  0.00    -0.340 N 
HETATM   14  C   UNL     1     -41.741 -46.783  12.051  1.00  0.00     0.254 C 
HETATM   15  N   UNL     1     -41.879 -45.793  11.019  1.00  0.00    -0.326 N 
HETATM   16  C   UNL     1     -42.505 -46.272   9.885  1.00  0.00     0.239 C 
HETATM   17  C   UNL     1     -42.675 -47.767  10.058  1.00  0.00     0.229 C 
HETATM   18  O   UNL     1     -42.848 -45.600   8.925  1.00  0.00    -0.271 OA
BRANCH  15  19
HETATM   19  C   UNL     1     -41.691 -44.369  11.272  1.00  0.00     0.245 C 
BRANCH  19  20
HETATM   20  C   UNL     1     -40.253 -43.853  11.145  1.00  0.00     0.403 C 
HETATM   21  F   UNL     1     -39.717 -44.094   9.929  1.00  0.00    -0.169 F 
HETATM   22  F   UNL     1     -40.223 -42.510  11.333  1.00  0.00    -0.169 F 
HETATM   23  F   UNL     1     -39.443 -44.404  12.074  1.00  0.00    -0.169 F 
ENDBRANCH  19  20
ENDBRANCH  15  19
ENDBRANCH   3  13
BRANCH   2  24
HETATM   24  C   UNL     1     -41.299 -53.728  13.271  1.00  0.00     0.138 C 
BRANCH  24  25
HETATM   25  C   UNL     1     -40.666 -53.822  14.683  1.00  0.00     0.034 C 
BRANCH  25  26
HETATM   26  C   UNL     1     -41.642 -54.415  15.735  1.00  0.00     0.019 C 
HETATM   27  C   UNL     1     -42.750 -55.299  15.150  1.00  0.00     0.172 C 
HETATM   28  O   UNL     1     -43.997 -54.801  15.653  1.00  0.00    -0.391 OA
HETATM   29  C   UNL     1     -43.710 -54.097  16.861  1.00  0.00     0.168 C 
HETATM   30  C   UNL     1     -42.394 -53.405  16.590  1.00  0.00     0.033 C 
ENDBRANCH  25  26
BRANCH  25  31
HETATM   31  C   UNL     1     -39.331 -54.590  14.580  1.00  0.00     0.170 C 
BRANCH  31  32
HETATM   32  O   UNL     1     -38.664 -54.284  13.360  1.00  0.00    -0.400 OA
HETATM   33  H   UNL     1     -39.069 -53.504  12.948  1.00  0.00     0.209 HD
ENDBRANCH  31  32
ENDBRANCH  25  31
ENDBRANCH  24  25
ENDBRANCH   2  24
TORSDOF 8
ENDMDL
MODEL 3
REMARK VINA RESULT:      -7.3      1.097      2.437
REMARK  8 active torsions:
REMARK  status: ('A' for Active; 'I' for Inactive)
REMARK    1  A    between atoms: N_1  and  C_5 
REMARK    2  A    between atoms: N_3  and  C_18 
REMARK    3  A    between atoms: N_4  and  C_19 
REMARK    4  A    between atoms: C_13  and  C_19 
REMARK    5  A    between atoms: C_18  and  C_20 
REMARK    6  A    between atoms: C_20  and  C_27 
REMARK    7  A    between atoms: C_20  and  C_28 
REMARK    8  A    between atoms: C_28  and  O_30 
ROOT
HETATM    1  C   UNL     1     -41.983 -49.424  12.026  1.00  0.00     0.122 A 
HETATM    2  N   UNL     1     -42.497 -50.839  13.610  1.00  0.00    -0.327 N 
HETATM    3  C   UNL     1     -41.095 -48.762  11.140  1.00  0.00     0.137 A 
HETATM    4  C   UNL     1     -41.450 -50.414  12.838  1.00  0.00     0.140 A 
HETATM    5  N   UNL     1     -43.338 -49.275  12.271  1.00  0.00    -0.346 N 
ATOM      6  HN  UNL     1     -43.980 -48.615  11.832  1.00  0.00     0.167 HD
HETATM    7  C   UNL     1     -43.617 -50.171  13.195  1.00  0.00     0.185 A 
HETATM    8  N   UNL     1     -40.184 -50.850  12.871  1.00  0.00    -0.336 N 
ATOM      9  HN  UNL     1     -39.838 -51.580  13.493  1.00  0.00     0.168 HD
HETATM   10  N   UNL     1     -39.805 -49.206  11.130  1.00  0.00    -0.337 N 
ATOM     11  HN  UNL     1     -39.126 -48.794  10.490  1.00  0.00     0.168 HD
HETATM   12  C   UNL     1     -39.430 -50.194  11.972  1.00  0.00     0.183 A 
ENDROOT
BRANCH   3  13
HETATM   13  N   UNL     1     -41.469 -47.723  10.303  1.00  0.00    -0.340 N 
HETATM   14  C   UNL     1     -42.644 -47.891   9.470  1.00  0.00     0.254 C 
HETATM   15  N   UNL     1     -43.327 -46.632   9.592  1.00  0.00    -0.326 N 
HETATM   16  C   UNL     1     -42.580 -45.668  10.241  1.00  0.00     0.239 C 
HETATM   17  C   UNL     1     -41.333 -46.343  10.774  1.00  0.00     0.229 C 
HETATM   18  O   UNL     1     -42.886 -44.492  10.358  1.00  0.00    -0.271 OA
BRANCH  15  19
HETATM   19  C   UNL     1     -44.522 -46.313   8.820  1.00  0.00     0.245 C 
BRANCH  19  20
HETATM   20  C   UNL     1     -45.692 -47.293   8.966  1.00  0.00     0.403 C 
HETATM   21  F   UNL     1     -46.895 -46.682   8.904  1.00  0.00    -0.169 F 
HETATM   22  F   UNL     1     -45.659 -48.208   7.966  1.00  0.00    -0.169 F 
HETATM   23  F   UNL     1     -45.629 -47.972  10.132  1.00  0.00    -0.169 F 
ENDBRANCH  19  20
ENDBRANCH  15  19
ENDBRANCH   3  13
BRANCH   2  24
HETATM   24  C   UNL     1     -42.455 -51.874  14.621  1.00  0.00     0.138 C 
BRANCH  24  25
HETATM   25  C   UNL     1     -42.844 -53.298  14.146  1.00  0.00     0.034 C 
BRANCH  25  26
HETATM   26  C   UNL     1     -41.675 -54.311  14.282  1.00  0.00     0.019 C 
HETATM   27  C   UNL     1     -40.904 -54.222  15.604  1.00  0.00     0.172 C 
HETATM   28  O   UNL     1     -39.514 -54.094  15.274  1.00  0.00    -0.391 OA
HETATM   29  C   UNL     1     -39.343 -54.638  13.966  1.00  0.00     0.168 C 
HETATM   30  C   UNL     1     -40.589 -54.221  13.218  1.00  0.00     0.033 C 
ENDBRANCH  25  26
BRANCH  25  31
HETATM   31  C   UNL     1     -44.127 -53.735  14.885  1.00  0.00     0.170 C 
BRANCH  31  32
HETATM   32  O   UNL     1     -44.292 -55.148  14.822  1.00  0.00    -0.400 OA
HETATM   33  H   UNL     1     -44.557 -55.488  15.691  1.00  0.00     0.209 HD
ENDBRANCH  31  32
ENDBRANCH  25  31
ENDBRANCH  24  25
ENDBRANCH   2  24
TORSDOF 8
ENDMDL
MODEL 4
REMARK VINA RESULT:      -7.1      3.295      7.094
REMARK  8 active torsions:
REMARK  status: ('A' for Active; 'I' for Inactive)
REMARK    1  A    between atoms: N_1  and  C_5 
REMARK    2  A    between atoms: N_3  and  C_18 
REMARK    3  A    between atoms: N_4  and  C_19 
REMARK    4  A    between atoms: C_13  and  C_19 
REMARK    5  A    between atoms: C_18  and  C_20 
REMARK    6  A    between atoms: C_20  and  C_27 
REMARK    7  A    between atoms: C_20  and  C_28 
REMARK    8  A    between atoms: C_28  and  O_30 
ROOT
HETATM    1  C   UNL     1     -42.672 -51.873  13.225  1.00  0.00     0.122 A 
HETATM    2  N   UNL     1     -41.845 -50.141  12.180  1.00  0.00    -0.327 N 
HETATM    3  C   UNL     1     -42.743 -53.247  13.567  1.00  0.00     0.137 A 
HETATM    4  C   UNL     1     -41.648 -51.480  12.377  1.00  0.00     0.140 A 
HETATM    5  N   UNL     1     -43.456 -50.785  13.571  1.00  0.00    -0.346 N 
ATOM      6  HN  UNL     1     -44.283 -50.780  14.168  1.00  0.00     0.167 HD
HETATM    7  C   UNL     1     -42.902 -49.759  12.960  1.00  0.00     0.185 A 
HETATM    8  N   UNL     1     -40.683 -52.248  11.852  1.00  0.00    -0.336 N 
ATOM      9  HN  UNL     1     -39.952 -51.912  11.225  1.00  0.00     0.168 HD
HETATM   10  N   UNL     1     -41.755 -54.047  13.071  1.00  0.00    -0.337 N 
ATOM     11  HN  UNL     1     -41.731 -55.039  13.309  1.00  0.00     0.168 HD
HETATM   12  C   UNL     1     -40.809 -53.521  12.263  1.00  0.00     0.183 A 
ENDROOT
BRANCH   3  13
HETATM   13  N   UNL     1     -43.734 -53.796  14.365  1.00  0.00    -0.340 N 
HETATM   14  C   UNL     1     -44.157 -53.068  15.545  1.00  0.00     0.254 C 
HETATM   15  N   UNL     1     -45.589 -53.184  15.517  1.00  0.00    -0.326 N 
HETATM   16  C   UNL     1     -46.045 -54.074  14.564  1.00  0.00     0.239 C 
HETATM   17  C   UNL     1     -44.852 -54.497  13.732  1.00  0.00     0.229 C 
HETATM   18  O   UNL     1     -47.203 -54.437  14.428  1.00  0.00    -0.271 OA
BRANCH  15  19
HETATM   19  C   UNL     1     -46.435 -52.685  16.596  1.00  0.00     0.245 C 
BRANCH  19  20
HETATM   20  C   UNL     1     -47.110 -51.333  16.344  1.00  0.00     0.403 C 
HETATM   21  F   UNL     1     -46.445 -50.303  16.910  1.00  0.00    -0.169 F 
HETATM   22  F   UNL     1     -47.168 -51.084  15.012  1.00  0.00    -0.169 F 
HETATM   23  F   UNL     1     -48.379 -51.316  16.809  1.00  0.00    -0.169 F 
ENDBRANCH  19  20
ENDBRANCH  15  19
ENDBRANCH   3  13
BRANCH   2  24
HETATM   24  C   UNL     1     -41.030 -49.262  11.369  1.00  0.00     0.138 C 
BRANCH  24  25
HETATM   25  C   UNL     1     -40.107 -48.287  12.145  1.00  0.00     0.034 C 
BRANCH  25  26
HETATM   26  C   UNL     1     -38.722 -48.909  12.468  1.00  0.00     0.019 C 
HETATM   27  C   UNL     1     -38.176 -49.850  11.387  1.00  0.00     0.172 C 
HETATM   28  O   UNL     1     -37.835 -51.083  12.034  1.00  0.00    -0.391 OA
HETATM   29  C   UNL     1     -37.608 -50.785  13.411  1.00  0.00     0.168 C 
HETATM   30  C   UNL     1     -38.644 -49.736  13.745  1.00  0.00     0.033 C 
ENDBRANCH  25  26
BRANCH  25  31
HETATM   31  C   UNL     1     -40.019 -46.959  11.366  1.00  0.00     0.170 C 
BRANCH  31  32
HETATM   32  O   UNL     1     -40.887 -46.974  10.238  1.00  0.00    -0.400 OA
HETATM   33  H   UNL     1     -40.568 -47.617   9.584  1.00  0.00     0.209 HD
ENDBRANCH  31  32
ENDBRANCH  25  31
ENDBRANCH  24  25
ENDBRANCH   2  24
TORSDOF 8
ENDMDL
MODEL 5
REMARK VINA RESULT:      -6.9      2.520      7.395
REMARK  8 active torsions:
REMARK  status: ('A' for Active; 'I' for Inactive)
REMARK    1  A    between atoms: N_1  and  C_5 
REMARK    2  A    between atoms: N_3  and  C_18 
REMARK    3  A    between atoms: N_4  and  C_19 
REMARK    4  A    between atoms: C_13  and  C_19 
REMARK    5  A    between atoms: C_18  and  C_20 
REMARK    6  A    between atoms: C_20  and  C_27 
REMARK    7  A    between atoms: C_20  and  C_28 
REMARK    8  A    between atoms: C_28  and  O_30 
ROOT
HETATM    1  C   UNL     1     -41.989 -49.881  12.093  1.00  0.00     0.122 A 
HETATM    2  N   UNL     1     -41.965 -47.902  11.166  1.00  0.00    -0.327 N 
HETATM    3  C   UNL     1     -41.410 -51.107  12.508  1.00  0.00     0.137 A 
HETATM    4  C   UNL     1     -41.149 -48.946  11.506  1.00  0.00     0.140 A 
HETATM    5  N   UNL     1     -43.286 -49.398  12.145  1.00  0.00    -0.346 N 
ATOM      6  HN  UNL     1     -44.112 -49.874  12.511  1.00  0.00     0.167 HD
HETATM    7  C   UNL     1     -43.223 -48.193  11.620  1.00  0.00     0.185 A 
HETATM    8  N   UNL     1     -39.829 -49.049  11.303  1.00  0.00    -0.336 N 
ATOM      9  HN  UNL     1     -39.254 -48.333  10.860  1.00  0.00     0.168 HD
HETATM   10  N   UNL     1     -40.061 -51.227  12.341  1.00  0.00    -0.337 N 
ATOM     11  HN  UNL     1     -39.579 -52.071  12.651  1.00  0.00     0.168 HD
HETATM   12  C   UNL     1     -39.366 -50.224  11.763  1.00  0.00     0.183 A 
ENDROOT
BRANCH   3  13
HETATM   13  N   UNL     1     -42.128 -52.151  13.067  1.00  0.00    -0.340 N 
HETATM   14  C   UNL     1     -42.878 -51.907  14.283  1.00  0.00     0.254 C 
HETATM   15  N   UNL     1     -44.130 -52.571  14.046  1.00  0.00    -0.326 N 
HETATM   16  C   UNL     1     -44.125 -53.354  12.908  1.00  0.00     0.239 C 
HETATM   17  C   UNL     1     -42.820 -53.093  12.184  1.00  0.00     0.229 C 
HETATM   18  O   UNL     1     -45.020 -54.109  12.562  1.00  0.00    -0.271 OA
BRANCH  15  19
HETATM   19  C   UNL     1     -45.164 -52.678  15.070  1.00  0.00     0.245 C 
BRANCH  19  20
HETATM   20  C   UNL     1     -46.316 -51.673  14.962  1.00  0.00     0.403 C 
HETATM   21  F   UNL     1     -46.420 -51.127  13.730  1.00  0.00    -0.169 F 
HETATM   22  F   UNL     1     -47.496 -52.289  15.224  1.00  0.00    -0.169 F 
HETATM   23  F   UNL     1     -46.184 -50.666  15.853  1.00  0.00    -0.169 F 
ENDBRANCH  19  20
ENDBRANCH  15  19
ENDBRANCH   3  13
BRANCH   2  24
HETATM   24  C   UNL     1     -41.561 -46.669  10.524  1.00  0.00     0.138 C 
BRANCH  24  25
HETATM   25  C   UNL     1     -42.510 -45.460  10.727  1.00  0.00     0.034 C 
BRANCH  25  26
HETATM   26  C   UNL     1     -41.746 -44.157  11.088  1.00  0.00     0.019 C 
HETATM   27  C   UNL     1     -40.222 -44.252  10.950  1.00  0.00     0.172 C 
HETATM   28  O   UNL     1     -39.659 -43.814  12.194  1.00  0.00    -0.391 OA
HETATM   29  C   UNL     1     -40.630 -42.979  12.823  1.00  0.00     0.168 C 
HETATM   30  C   UNL     1     -41.954 -43.633  12.503  1.00  0.00     0.033 C 
ENDBRANCH  25  26
BRANCH  25  31
HETATM   31  C   UNL     1     -43.411 -45.321   9.482  1.00  0.00     0.170 C 
BRANCH  31  32
HETATM   32  O   UNL     1     -44.112 -44.082   9.498  1.00  0.00    -0.400 OA
HETATM   33  H   UNL     1     -44.750 -44.053   8.767  1.00  0.00     0.209 HD
ENDBRANCH  31  32
ENDBRANCH  25  31
ENDBRANCH  24  25
ENDBRANCH   2  24
TORSDOF 8
ENDMDL
MODEL 6
REMARK VINA RESULT:      -6.8      1.908      2.369
REMARK  8 active torsions:
REMARK  status: ('A' for Active; 'I' for Inactive)
REMARK    1  A    between atoms: N_1  and  C_5 
REMARK    2  A    between atoms: N_3  and  C_18 
REMARK    3  A    between atoms: N_4  and  C_19 
REMARK    4  A    between atoms: C_13  and  C_19 
REMARK    5  A    between atoms: C_18  and  C_20 
REMARK    6  A    between atoms: C_20  and  C_27 
REMARK    7  A    between atoms: C_20  and  C_28 
REMARK    8  A    between atoms: C_28  and  O_30 
ROOT
HETATM    1  C   UNL     1     -40.835 -49.641  12.020  1.00  0.00     0.122 A 
HETATM    2  N   UNL     1     -41.227 -51.721  12.562  1.00  0.00    -0.327 N 
HETATM    3  C   UNL     1     -40.008 -48.541  11.678  1.00  0.00     0.137 A 
HETATM    4  C   UNL     1     -40.219 -50.870  12.199  1.00  0.00     0.140 A 
HETATM    5  N   UNL     1     -42.200 -49.749  12.232  1.00  0.00    -0.346 N 
ATOM      6  HN  UNL     1     -42.897 -49.006  12.183  1.00  0.00     0.167 HD
HETATM    7  C   UNL     1     -42.401 -51.019  12.512  1.00  0.00     0.185 A 
HETATM    8  N   UNL     1     -38.918 -51.159  12.060  1.00  0.00    -0.336 N 
ATOM      9  HN  UNL     1     -38.511 -52.082  12.209  1.00  0.00     0.168 HD
HETATM   10  N   UNL     1     -38.682 -48.813  11.500  1.00  0.00    -0.337 N 
ATOM     11  HN  UNL     1     -38.040 -48.071  11.220  1.00  0.00     0.168 HD
HETATM   12  C   UNL     1     -38.223 -50.068  11.698  1.00  0.00     0.183 A 
ENDROOT
BRANCH   3  13
HETATM   13  N   UNL     1     -40.470 -47.246  11.512  1.00  0.00    -0.340 N 
HETATM   14  C   UNL     1     -41.244 -46.931  10.327  1.00  0.00     0.254 C 
HETATM   15  N   UNL     1     -42.320 -46.124  10.832  1.00  0.00    -0.326 N 
HETATM   16  C   UNL     1     -42.152 -45.757  12.153  1.00  0.00     0.239 C 
HETATM   17  C   UNL     1     -40.945 -46.503  12.681  1.00  0.00     0.229 C 
HETATM   18  O   UNL     1     -42.861 -44.975  12.768  1.00  0.00    -0.271 OA
BRANCH  15  19
HETATM   19  C   UNL     1     -43.295 -45.484   9.955  1.00  0.00     0.245 C 
BRANCH  19  20
HETATM   20  C   UNL     1     -44.158 -46.431   9.114  1.00  0.00     0.403 C 
HETATM   21  F   UNL     1     -43.542 -46.831   7.981  1.00  0.00    -0.169 F 
HETATM   22  F   UNL     1     -44.450 -47.548   9.825  1.00  0.00    -0.169 F 
HETATM   23  F   UNL     1     -45.333 -45.859   8.770  1.00  0.00    -0.169 F 
ENDBRANCH  19  20
ENDBRANCH  15  19
ENDBRANCH   3  13
BRANCH   2  24
HETATM   24  C   UNL     1     -41.096 -53.132  12.859  1.00  0.00     0.138 C 
BRANCH  24  25
HETATM   25  C   UNL     1     -40.754 -53.485  14.329  1.00  0.00     0.034 C 
BRANCH  25  26
HETATM   26  C   UNL     1     -41.435 -54.798  14.800  1.00  0.00     0.019 C 
HETATM   27  C   UNL     1     -42.968 -54.771  14.764  1.00  0.00     0.172 C 
HETATM   28  O   UNL     1     -43.427 -55.171  16.062  1.00  0.00    -0.391 OA
HETATM   29  C   UNL     1     -42.381 -55.935  16.660  1.00  0.00     0.168 C 
HETATM   30  C   UNL     1     -41.111 -55.244  16.220  1.00  0.00     0.033 C 
ENDBRANCH  25  26
BRANCH  25  31
HETATM   31  C   UNL     1     -39.220 -53.493  14.495  1.00  0.00     0.170 C 
BRANCH  31  32
HETATM   32  O   UNL     1     -38.594 -54.133  13.389  1.00  0.00    -0.400 OA
HETATM   33  H   UNL     1     -39.252 -54.633  12.880  1.00  0.00     0.209 HD
ENDBRANCH  31  32
ENDBRANCH  25  31
ENDBRANCH  24  25
ENDBRANCH   2  24
TORSDOF 8
ENDMDL
MODEL 7
REMARK VINA RESULT:      -6.8      3.128      7.454
REMARK  8 active torsions:
REMARK  status: ('A' for Active; 'I' for Inactive)
REMARK    1  A    between atoms: N_1  and  C_5 
REMARK    2  A    between atoms: N_3  and  C_18 
REMARK    3  A    between atoms: N_4  and  C_19 
REMARK    4  A    between atoms: C_13  and  C_19 
REMARK    5  A    between atoms: C_18  and  C_20 
REMARK    6  A    between atoms: C_20  and  C_27 
REMARK    7  A    between atoms: C_20  and  C_28 
REMARK    8  A    between atoms: C_28  and  O_30 
ROOT
HETATM    1  C   UNL     1     -42.730 -51.418  13.163  1.00  0.00     0.122 A 
HETATM    2  N   UNL     1     -42.223 -49.649  11.984  1.00  0.00    -0.327 N 
HETATM    3  C   UNL     1     -42.610 -52.778  13.546  1.00  0.00     0.137 A 
HETATM    4  C   UNL     1     -41.859 -50.952  12.189  1.00  0.00     0.140 A 
HETATM    5  N   UNL     1     -43.584 -50.407  13.571  1.00  0.00    -0.346 N 
ATOM      6  HN  UNL     1     -44.332 -50.467  14.261  1.00  0.00     0.167 HD
HETATM    7  C   UNL     1     -43.220 -49.352  12.873  1.00  0.00     0.185 A 
HETATM    8  N   UNL     1     -40.882 -51.632  11.574  1.00  0.00    -0.336 N 
ATOM      9  HN  UNL     1     -40.269 -51.244  10.857  1.00  0.00     0.168 HD
HETATM   10  N   UNL     1     -41.604 -53.488  12.957  1.00  0.00    -0.337 N 
ATOM     11  HN  UNL     1     -41.443 -54.462  13.215  1.00  0.00     0.168 HD
HETATM   12  C   UNL     1     -40.821 -52.895  12.029  1.00  0.00     0.183 A 
ENDROOT
BRANCH   3  13
HETATM   13  N   UNL     1     -43.436 -53.398  14.468  1.00  0.00    -0.340 N 
HETATM   14  C   UNL     1     -44.081 -52.584  15.480  1.00  0.00     0.254 C 
HETATM   15  N   UNL     1     -45.424 -53.093  15.518  1.00  0.00    -0.326 N 
HETATM   16  C   UNL     1     -45.587 -54.254  14.786  1.00  0.00     0.239 C 
HETATM   17  C   UNL     1     -44.299 -54.497  14.029  1.00  0.00     0.229 C 
HETATM   18  O   UNL     1     -46.596 -54.942  14.762  1.00  0.00    -0.271 OA
BRANCH  15  19
HETATM   19  C   UNL     1     -46.408 -52.631  16.491  1.00  0.00     0.245 C 
BRANCH  19  20
HETATM   20  C   UNL     1     -47.063 -51.280  16.187  1.00  0.00     0.403 C 
HETATM   21  F   UNL     1     -46.385 -50.240  16.720  1.00  0.00    -0.169 F 
HETATM   22  F   UNL     1     -47.112 -51.077  14.847  1.00  0.00    -0.169 F 
HETATM   23  F   UNL     1     -48.333 -51.228  16.645  1.00  0.00    -0.169 F 
ENDBRANCH  19  20
ENDBRANCH  15  19
ENDBRANCH   3  13
BRANCH   2  24
HETATM   24  C   UNL     1     -41.609 -48.720  11.059  1.00  0.00     0.138 C 
BRANCH  24  25
HETATM   25  C   UNL     1     -42.400 -47.415  10.787  1.00  0.00     0.034 C 
BRANCH  25  26
HETATM   26  C   UNL     1     -41.474 -46.181  10.617  1.00  0.00     0.019 C 
HETATM   27  C   UNL     1     -40.040 -46.385  11.120  1.00  0.00     0.172 C 
HETATM   28  O   UNL     1     -39.749 -45.305  12.017  1.00  0.00    -0.391 OA
HETATM   29  C   UNL     1     -40.624 -44.231  11.676  1.00  0.00     0.168 C 
HETATM   30  C   UNL     1     -41.927 -44.906  11.316  1.00  0.00     0.033 C 
ENDBRANCH  25  26
BRANCH  25  31
HETATM   31  C   UNL     1     -43.344 -47.646   9.588  1.00  0.00     0.170 C 
BRANCH  31  32
HETATM   32  O   UNL     1     -44.661 -47.955  10.032  1.00  0.00    -0.400 OA
HETATM   33  H   UNL     1     -44.984 -47.254  10.620  1.00  0.00     0.209 HD
ENDBRANCH  31  32
ENDBRANCH  25  31
ENDBRANCH  24  25
ENDBRANCH   2  24
TORSDOF 8
ENDMDL
MODEL 8
REMARK VINA RESULT:      -6.5      4.163      7.379
REMARK  8 active torsions:
REMARK  status: ('A' for Active; 'I' for Inactive)
REMARK    1  A    between atoms: N_1  and  C_5 
REMARK    2  A    between atoms: N_3  and  C_18 
REMARK    3  A    between atoms: N_4  and  C_19 
REMARK    4  A    between atoms: C_13  and  C_19 
REMARK    5  A    between atoms: C_18  and  C_20 
REMARK    6  A    between atoms: C_20  and  C_27 
REMARK    7  A    between atoms: C_20  and  C_28 
REMARK    8  A    between atoms: C_28  and  O_30 
ROOT
HETATM    1  C   UNL     1     -41.203 -52.472  14.209  1.00  0.00     0.122 A 
HETATM    2  N   UNL     1     -39.583 -51.011  14.086  1.00  0.00    -0.327 N 
HETATM    3  C   UNL     1     -41.761 -53.744  14.498  1.00  0.00     0.137 A 
HETATM    4  C   UNL     1     -39.861 -52.284  14.504  1.00  0.00     0.140 A 
HETATM    5  N   UNL     1     -41.742 -51.322  13.657  1.00  0.00    -0.346 N 
ATOM      6  HN  UNL     1     -42.699 -51.178  13.334  1.00  0.00     0.167 HD
HETATM    7  C   UNL     1     -40.751 -50.456  13.641  1.00  0.00     0.185 A 
HETATM    8  N   UNL     1     -39.017 -53.161  15.063  1.00  0.00    -0.336 N 
ATOM      9  HN  UNL     1     -38.033 -52.976  15.255  1.00  0.00     0.168 HD
HETATM   10  N   UNL     1     -40.931 -54.648  15.096  1.00  0.00    -0.337 N 
ATOM     11  HN  UNL     1     -41.282 -55.568  15.360  1.00  0.00     0.168 HD
HETATM   12  C   UNL     1     -39.643 -54.318  15.336  1.00  0.00     0.183 A 
ENDROOT
BRANCH   3  13
HETATM   13  N   UNL     1     -43.070 -54.096  14.218  1.00  0.00    -0.340 N 
HETATM   14  C   UNL     1     -44.095 -53.800  15.200  1.00  0.00     0.254 C 
HETATM   15  N   UNL     1     -45.180 -53.284  14.411  1.00  0.00    -0.326 N 
HETATM   16  C   UNL     1     -44.985 -53.435  13.052  1.00  0.00     0.239 C 
HETATM   17  C   UNL     1     -43.573 -53.945  12.850  1.00  0.00     0.229 C 
HETATM   18  O   UNL     1     -45.810 -53.191  12.185  1.00  0.00    -0.271 OA
BRANCH  15  19
HETATM   19  C   UNL     1     -46.479 -52.956  14.988  1.00  0.00     0.245 C 
BRANCH  19  20
HETATM   20  C   UNL     1     -46.787 -51.462  15.133  1.00  0.00     0.403 C 
HETATM   21  F   UNL     1     -45.708 -50.740  15.505  1.00  0.00    -0.169 F 
HETATM   22  F   UNL     1     -47.213 -50.959  13.948  1.00  0.00    -0.169 F 
HETATM   23  F   UNL     1     -47.768 -51.242  16.036  1.00  0.00    -0.169 F 
ENDBRANCH  19  20
ENDBRANCH  15  19
ENDBRANCH   3  13
BRANCH   2  24
HETATM   24  C   UNL     1     -38.306 -50.335  14.180  1.00  0.00     0.138 C 
BRANCH  24  25
HETATM   25  C   UNL     1     -38.298 -49.016  14.996  1.00  0.00     0.034 C 
BRANCH  25  26
HETATM   26  C   UNL     1     -37.358 -49.085  16.229  1.00  0.00     0.019 C 
HETATM   27  C   UNL     1     -36.105 -48.206  16.126  1.00  0.00     0.172 C 
HETATM   28  O   UNL     1     -34.976 -49.049  16.394  1.00  0.00    -0.391 OA
HETATM   29  C   UNL     1     -35.451 -50.155  17.159  1.00  0.00     0.168 C 
HETATM   30  C   UNL     1     -36.810 -50.463  16.573  1.00  0.00     0.033 C 
ENDBRANCH  25  26
BRANCH  25  31
HETATM   31  C   UNL     1     -37.981 -47.844  14.043  1.00  0.00     0.170 C 
BRANCH  31  32
HETATM   32  O   UNL     1     -39.141 -47.053  13.810  1.00  0.00    -0.400 OA
HETATM   33  H   UNL     1     -39.805 -47.573  13.331  1.00  0.00     0.209 HD
ENDBRANCH  31  32
ENDBRANCH  25  31
ENDBRANCH  24  25
ENDBRANCH   2  24
TORSDOF 8
ENDMDL
MODEL 9
REMARK VINA RESULT:      -6.5      3.011      7.726
REMARK  8 active torsions:
REMARK  status: ('A' for Active; 'I' for Inactive)
REMARK    1  A    between atoms: N_1  and  C_5 
REMARK    2  A    between atoms: N_3  and  C_18 
REMARK    3  A    between atoms: N_4  and  C_19 
REMARK    4  A    between atoms: C_13  and  C_19 
REMARK    5  A    between atoms: C_18  and  C_20 
REMARK    6  A    between atoms: C_20  and  C_27 
REMARK    7  A    between atoms: C_20  and  C_28 
REMARK    8  A    between atoms: C_28  and  O_30 
ROOT
HETATM    1  C   UNL     1     -42.172 -50.334  12.844  1.00  0.00     0.122 A 
HETATM    2  N   UNL     1     -42.456 -48.708  11.413  1.00  0.00    -0.327 N 
HETATM    3  C   UNL     1     -41.510 -51.470  13.376  1.00  0.00     0.137 A 
HETATM    4  C   UNL     1     -41.600 -49.724  11.738  1.00  0.00     0.140 A 
HETATM    5  N   UNL     1     -43.336 -49.678  13.210  1.00  0.00    -0.346 N 
ATOM      6  HN  UNL     1     -43.968 -49.915  13.974  1.00  0.00     0.167 HD
HETATM    7  C   UNL     1     -43.448 -48.684  12.355  1.00  0.00     0.185 A 
HETATM    8  N   UNL     1     -40.463 -50.063  11.115  1.00  0.00    -0.336 N 
ATOM      9  HN  UNL     1     -40.085 -49.583  10.299  1.00  0.00     0.168 HD
HETATM   10  N   UNL     1     -40.333 -51.820  12.780  1.00  0.00    -0.337 N 
ATOM     11  HN  UNL     1     -39.791 -52.607  13.138  1.00  0.00     0.168 HD
HETATM   12  C   UNL     1     -39.889 -51.121  11.713  1.00  0.00     0.183 A 
ENDROOT
BRANCH   3  13
HETATM   13  N   UNL     1     -41.983 -52.211  14.446  1.00  0.00    -0.340 N 
HETATM   14  C   UNL     1     -43.413 -52.259  14.679  1.00  0.00     0.254 C 
HETATM   15  N   UNL     1     -43.661 -53.643  14.976  1.00  0.00    -0.326 N 
HETATM   16  C   UNL     1     -42.504 -54.379  15.145  1.00  0.00     0.239 C 
HETATM   17  C   UNL     1     -41.340 -53.486  14.771  1.00  0.00     0.229 C 
HETATM   18  O   UNL     1     -42.450 -55.539  15.522  1.00  0.00    -0.271 OA
BRANCH  15  19
HETATM   19  C   UNL     1     -44.972 -54.131  15.389  1.00  0.00     0.245 C 
BRANCH  19  20
HETATM   20  C   UNL     1     -45.935 -54.498  14.255  1.00  0.00     0.403 C 
HETATM   21  F   UNL     1     -46.368 -53.420  13.567  1.00  0.00    -0.169 F 
HETATM   22  F   UNL     1     -45.316 -55.314  13.365  1.00  0.00    -0.169 F 
HETATM   23  F   UNL     1     -47.018 -55.161  14.717  1.00  0.00    -0.169 F 
ENDBRANCH  19  20
ENDBRANCH  15  19
ENDBRANCH   3  13
BRANCH   2  24
HETATM   24  C   UNL     1     -42.299 -47.766  10.325  1.00  0.00     0.138 C 
BRANCH  24  25
HETATM   25  C   UNL     1     -42.926 -46.365  10.548  1.00  0.00     0.034 C 
BRANCH  25  26
HETATM   26  C   UNL     1     -41.936 -45.368  11.208  1.00  0.00     0.019 C 
HETATM   27  C   UNL     1     -42.362 -43.897  11.127  1.00  0.00     0.172 C 
HETATM   28  O   UNL     1     -41.260 -43.168  10.569  1.00  0.00    -0.391 OA
HETATM   29  C   UNL     1     -40.082 -43.931  10.824  1.00  0.00     0.168 C 
HETATM   30  C   UNL     1     -40.519 -45.368  10.650  1.00  0.00     0.033 C 
ENDBRANCH  25  26
BRANCH  25  31
HETATM   31  C   UNL     1     -43.507 -45.862   9.210  1.00  0.00     0.170 C 
BRANCH  31  32
HETATM   32  O   UNL     1     -42.689 -46.267   8.118  1.00  0.00    -0.400 OA
HETATM   33  H   UNL     1     -41.973 -46.840   8.436  1.00  0.00     0.209 HD
ENDBRANCH  31  32
ENDBRANCH  25  31
ENDBRANCH  24  25
ENDBRANCH   2  24
TORSDOF 8
ENDMDL
