MODEL 1
REMARK VINA RESULT:      -6.5      0.000      0.000
REMARK  7 active torsions:
REMARK  status: ('A' for Active; 'I' for Inactive)
REMARK    1  A    between atoms: O_2  and  C_3 
REMARK    2  A    between atoms: C_3  and  C_4 
REMARK    3  A    between atoms: C_4  and  N_5 
REMARK    4  A    between atoms: C_6  and  S_7 
REMARK    5  A    between atoms: S_7  and  C_8 
REMARK    6  A    between atoms: C_8  and  C_9 
REMARK    7  A    between atoms: C_14  and  N_15 
ROOT
HETATM    1  N   UNL     1     -41.110 -51.747  13.095  1.00  0.00    -0.324 N 
HETATM    2  C   UNL     1     -41.821 -50.736  12.486  1.00  0.00     0.148 A 
HETATM    3  N   UNL     1     -43.105 -50.995  12.441  1.00  0.00    -0.335 N 
ATOM      4  HN  UNL     1     -43.846 -50.394  12.080  1.00  0.00     0.168 HD
HETATM    5  C   UNL     1     -43.240 -52.251  12.984  1.00  0.00     0.062 A 
HETATM    6  C   UNL     1     -44.391 -53.047  13.102  1.00  0.00     0.055 A 
HETATM    7  C   UNL     1     -44.268 -54.308  13.692  1.00  0.00     0.036 A 
HETATM    8 CL   UNL     1     -45.656 -55.322  13.814  1.00  0.00    -0.084 Cl
HETATM    9  C   UNL     1     -43.043 -54.766  14.177  1.00  0.00     0.026 A 
HETATM   10  C   UNL     1     -41.886 -53.985  14.064  1.00  0.00     0.034 A 
HETATM   11  C   UNL     1     -42.016 -52.733  13.447  1.00  0.00     0.063 A 
ENDROOT
BRANCH   2  12
HETATM   12  S   UNL     1     -41.074 -49.341  11.779  1.00  0.00    -0.086 SA
BRANCH  12  13
HETATM   13  C   UNL     1     -42.343 -48.060  12.054  1.00  0.00     0.158 C 
BRANCH  13  14
HETATM   14  C   UNL     1     -42.775 -47.432  10.748  1.00  0.00     0.091 A 
HETATM   15  N   UNL     1     -42.869 -48.228   9.659  1.00  0.00    -0.355 N 
HETATM   16  C   UNL     1     -43.321 -47.645   8.533  1.00  0.00     0.092 A 
ATOM     17  HN  UNL     1     -42.611 -49.215   9.690  1.00  0.00     0.166 HD
HETATM   18  C   UNL     1     -43.669 -46.319   8.452  1.00  0.00     0.059 A 
HETATM   19  C   UNL     1     -43.519 -45.584   9.604  1.00  0.00     0.080 A 
HETATM   20  N   UNL     1     -43.082 -46.115  10.752  1.00  0.00    -0.336 N 
ATOM     21  HN  UNL     1     -42.986 -45.549  11.596  1.00  0.00     0.168 HD
BRANCH  19  22
HETATM   22  N   UNL     1     -43.883 -44.239   9.636  1.00  0.00    -0.289 NA
HETATM   23  H   UNL     1     -43.090 -43.621   9.514  1.00  0.00     0.125 HD
HETATM   24  H   UNL     1     -44.365 -44.076  10.516  1.00  0.00     0.125 HD
ENDBRANCH  19  22
ENDBRANCH  13  14
ENDBRANCH  12  13
ENDBRANCH   2  12
BRANCH   1  25
HETATM   25  C   UNL     1     -39.670 -51.862  13.222  1.00  0.00     0.157 C 
BRANCH  25  26
HETATM   26  C   UNL     1     -39.093 -51.302  14.518  1.00  0.00     0.187 C 
BRANCH  26  27
HETATM   27  O   UNL     1     -37.888 -50.595  14.209  1.00  0.00    -0.394 OA
HETATM   28  C   UNL     1     -37.391 -50.954  12.924  1.00  0.00     0.201 C 
ENDBRANCH  26  27
ENDBRANCH  25  26
ENDBRANCH   1  25
TORSDOF 7
ENDMDL
MODEL 2
REMARK VINA RESULT:      -6.4      0.916      1.616
REMARK  7 active torsions:
REMARK  status: ('A' for Active; 'I' for Inactive)
REMARK    1  A    between atoms: O_2  and  C_3 
REMARK    2  A    between atoms: C_3  and  C_4 
REMARK    3  A    between atoms: C_4  and  N_5 
REMARK    4  A    between atoms: C_6  and  S_7 
REMARK    5  A    between atoms: S_7  and  C_8 
REMARK    6  A    between atoms: C_8  and  C_9 
REMARK    7  A    between atoms: C_14  and  N_15 
ROOT
HETATM    1  N   UNL     1     -41.748 -52.010  12.941  1.00  0.00    -0.324 N 
HETATM    2  C   UNL     1     -42.367 -50.821  12.619  1.00  0.00     0.148 A 
HETATM    3  N   UNL     1     -43.644 -50.835  12.916  1.00  0.00    -0.335 N 
ATOM      4  HN  UNL     1     -44.311 -50.071  12.813  1.00  0.00     0.168 HD
HETATM    5  C   UNL     1     -43.891 -52.100  13.394  1.00  0.00     0.062 A 
HETATM    6  C   UNL     1     -45.111 -52.681  13.776  1.00  0.00     0.055 A 
HETATM    7  C   UNL     1     -45.104 -54.004  14.227  1.00  0.00     0.036 A 
HETATM    8 CL   UNL     1     -46.591 -54.756  14.664  1.00  0.00    -0.084 Cl
HETATM    9  C   UNL     1     -43.917 -54.731  14.323  1.00  0.00     0.026 A 
HETATM   10  C   UNL     1     -42.694 -54.167  13.943  1.00  0.00     0.034 A 
HETATM   11  C   UNL     1     -42.716 -52.848  13.467  1.00  0.00     0.063 A 
ENDROOT
BRANCH   2  12
HETATM   12  S   UNL     1     -41.557 -49.513  11.822  1.00  0.00    -0.086 SA
BRANCH  12  13
HETATM   13  C   UNL     1     -42.742 -48.146  12.055  1.00  0.00     0.158 C 
BRANCH  13  14
HETATM   14  C   UNL     1     -43.068 -47.478  10.738  1.00  0.00     0.091 A 
HETATM   15  N   UNL     1     -43.431 -46.175  10.758  1.00  0.00    -0.355 N 
HETATM   16  C   UNL     1     -43.647 -45.600   9.559  1.00  0.00     0.092 A 
ATOM     17  HN  UNL     1     -43.535 -45.658  11.631  1.00  0.00     0.166 HD
HETATM   18  C   UNL     1     -43.524 -46.266   8.365  1.00  0.00     0.059 A 
HETATM   19  C   UNL     1     -43.173 -47.593   8.446  1.00  0.00     0.080 A 
HETATM   20  N   UNL     1     -42.939 -48.211   9.609  1.00  0.00    -0.336 N 
ATOM     21  HN  UNL     1     -42.673 -49.195   9.643  1.00  0.00     0.168 HD
BRANCH  19  22
HETATM   22  N   UNL     1     -42.984 -48.345   7.289  1.00  0.00    -0.289 NA
HETATM   23  H   UNL     1     -42.416 -49.167   7.450  1.00  0.00     0.125 HD
HETATM   24  H   UNL     1     -42.578 -47.729   6.589  1.00  0.00     0.125 HD
ENDBRANCH  19  22
ENDBRANCH  13  14
ENDBRANCH  12  13
ENDBRANCH   2  12
BRANCH   1  25
HETATM   25  C   UNL     1     -40.381 -52.399  12.656  1.00  0.00     0.157 C 
BRANCH  25  26
HETATM   26  C   UNL     1     -39.398 -52.179  13.802  1.00  0.00     0.187 C 
BRANCH  26  27
HETATM   27  O   UNL     1     -38.093 -51.985  13.248  1.00  0.00    -0.394 OA
HETATM   28  C   UNL     1     -38.007 -50.752  12.542  1.00  0.00     0.201 C 
ENDBRANCH  26  27
ENDBRANCH  25  26
ENDBRANCH   1  25
TORSDOF 7
ENDMDL
MODEL 3
REMARK VINA RESULT:      -6.3      3.331      6.694
REMARK  7 active torsions:
REMARK  status: ('A' for Active; 'I' for Inactive)
REMARK    1  A    between atoms: O_2  and  C_3 
REMARK    2  A    between atoms: C_3  and  C_4 
REMARK    3  A    between atoms: C_4  and  N_5 
REMARK    4  A    between atoms: C_6  and  S_7 
REMARK    5  A    between atoms: S_7  and  C_8 
REMARK    6  A    between atoms: C_8  and  C_9 
REMARK    7  A    between atoms: C_14  and  N_15 
ROOT
HETATM    1  N   UNL     1     -40.064 -48.803  12.146  1.00  0.00    -0.324 N 
HETATM    2  C   UNL     1     -40.861 -49.927  12.173  1.00  0.00     0.148 A 
HETATM    3  N   UNL     1     -41.963 -49.765  11.481  1.00  0.00    -0.335 N 
ATOM      4  HN  UNL     1     -42.694 -50.456  11.313  1.00  0.00     0.168 HD
HETATM    5  C   UNL     1     -41.922 -48.467  11.033  1.00  0.00     0.062 A 
HETATM    6  C   UNL     1     -42.891 -47.745  10.317  1.00  0.00     0.055 A 
HETATM    7  C   UNL     1     -42.614 -46.418   9.980  1.00  0.00     0.036 A 
HETATM    8 CL   UNL     1     -43.800 -45.495   9.136  1.00  0.00    -0.084 Cl
HETATM    9  C   UNL     1     -41.400 -45.820  10.319  1.00  0.00     0.026 A 
HETATM   10  C   UNL     1     -40.426 -46.525  11.036  1.00  0.00     0.034 A 
HETATM   11  C   UNL     1     -40.724 -47.848  11.392  1.00  0.00     0.063 A 
ENDROOT
BRANCH   2  12
HETATM   12  S   UNL     1     -40.481 -51.340  13.101  1.00  0.00    -0.086 SA
BRANCH  12  13
HETATM   13  C   UNL     1     -41.143 -52.669  12.042  1.00  0.00     0.158 C 
BRANCH  13  14
HETATM   14  C   UNL     1     -42.427 -53.230  12.611  1.00  0.00     0.091 A 
HETATM   15  N   UNL     1     -42.345 -54.037  13.693  1.00  0.00    -0.355 N 
HETATM   16  C   UNL     1     -43.514 -54.460  14.210  1.00  0.00     0.092 A 
ATOM     17  HN  UNL     1     -41.447 -54.309  14.095  1.00  0.00     0.166 HD
HETATM   18  C   UNL     1     -44.739 -54.121  13.692  1.00  0.00     0.059 A 
HETATM   19  C   UNL     1     -44.722 -53.315  12.578  1.00  0.00     0.080 A 
HETATM   20  N   UNL     1     -43.590 -52.860  12.029  1.00  0.00    -0.336 N 
ATOM     21  HN  UNL     1     -43.605 -52.257  11.206  1.00  0.00     0.168 HD
BRANCH  19  22
HETATM   22  N   UNL     1     -45.915 -52.883  12.002  1.00  0.00    -0.289 NA
HETATM   23  H   UNL     1     -45.985 -53.135  11.023  1.00  0.00     0.125 HD
HETATM   24  H   UNL     1     -45.974 -51.878  12.144  1.00  0.00     0.125 HD
ENDBRANCH  19  22
ENDBRANCH  13  14
ENDBRANCH  12  13
ENDBRANCH   2  12
BRANCH   1  25
HETATM   25  C   UNL     1     -38.837 -48.573  12.882  1.00  0.00     0.157 C 
BRANCH  25  26
HETATM   26  C   UNL     1     -39.011 -47.844  14.211  1.00  0.00     0.187 C 
BRANCH  26  27
HETATM   27  O   UNL     1     -38.346 -46.579  14.124  1.00  0.00    -0.394 OA
HETATM   28  C   UNL     1     -39.227 -45.508  14.443  1.00  0.00     0.201 C 
ENDBRANCH  26  27
ENDBRANCH  25  26
ENDBRANCH   1  25
TORSDOF 7
ENDMDL
MODEL 4
REMARK VINA RESULT:      -6.3      3.248      6.565
REMARK  7 active torsions:
REMARK  status: ('A' for Active; 'I' for Inactive)
REMARK    1  A    between atoms: O_2  and  C_3 
REMARK    2  A    between atoms: C_3  and  C_4 
REMARK    3  A    between atoms: C_4  and  N_5 
REMARK    4  A    between atoms: C_6  and  S_7 
REMARK    5  A    between atoms: S_7  and  C_8 
REMARK    6  A    between atoms: C_8  and  C_9 
REMARK    7  A    between atoms: C_14  and  N_15 
ROOT
HETATM    1  N   UNL     1     -40.084 -49.074  11.751  1.00  0.00    -0.324 N 
HETATM    2  C   UNL     1     -41.086 -50.018  11.798  1.00  0.00     0.148 A 
HETATM    3  N   UNL     1     -42.224 -49.551  11.344  1.00  0.00    -0.335 N 
ATOM      4  HN  UNL     1     -43.102 -50.058  11.237  1.00  0.00     0.168 HD
HETATM    5  C   UNL     1     -41.980 -48.232  11.043  1.00  0.00     0.062 A 
HETATM    6  C   UNL     1     -42.874 -47.243  10.602  1.00  0.00     0.055 A 
HETATM    7  C   UNL     1     -42.378 -45.957  10.370  1.00  0.00     0.036 A 
HETATM    8 CL   UNL     1     -43.460 -44.713   9.867  1.00  0.00    -0.084 Cl
HETATM    9  C   UNL     1     -41.027 -45.657  10.545  1.00  0.00     0.026 A 
HETATM   10  C   UNL     1     -40.124 -46.631  10.987  1.00  0.00     0.034 A 
HETATM   11  C   UNL     1     -40.637 -47.911  11.242  1.00  0.00     0.063 A 
ENDROOT
BRANCH   2  12
HETATM   12  S   UNL     1     -40.873 -51.598  12.477  1.00  0.00    -0.086 SA
BRANCH  12  13
HETATM   13  C   UNL     1     -42.055 -51.568  13.866  1.00  0.00     0.158 C 
BRANCH  13  14
HETATM   14  C   UNL     1     -43.181 -52.552  13.644  1.00  0.00     0.091 A 
HETATM   15  N   UNL     1     -43.152 -53.718  14.329  1.00  0.00    -0.355 N 
HETATM   16  C   UNL     1     -44.206 -54.537  14.155  1.00  0.00     0.092 A 
ATOM     17  HN  UNL     1     -42.374 -53.963  14.942  1.00  0.00     0.166 HD
HETATM   18  C   UNL     1     -45.266 -54.245  13.332  1.00  0.00     0.059 A 
HETATM   19  C   UNL     1     -45.197 -53.047  12.661  1.00  0.00     0.080 A 
HETATM   20  N   UNL     1     -44.177 -52.193  12.803  1.00  0.00    -0.336 N 
ATOM     21  HN  UNL     1     -44.153 -51.307  12.298  1.00  0.00     0.168 HD
BRANCH  19  22
HETATM   22  N   UNL     1     -46.242 -52.641  11.833  1.00  0.00    -0.289 NA
HETATM   23  H   UNL     1     -46.898 -53.389  11.643  1.00  0.00     0.125 HD
HETATM   24  H   UNL     1     -45.828 -52.269  10.981  1.00  0.00     0.125 HD
ENDBRANCH  19  22
ENDBRANCH  13  14
ENDBRANCH  12  13
ENDBRANCH   2  12
BRANCH   1  25
HETATM   25  C   UNL     1     -38.735 -49.191  12.269  1.00  0.00     0.157 C 
BRANCH  25  26
HETATM   26  C   UNL     1     -37.732 -49.828  11.312  1.00  0.00     0.187 C 
BRANCH  26  27
HETATM   27  O   UNL     1     -37.259 -51.047  11.896  1.00  0.00    -0.394 OA
HETATM   28  C   UNL     1     -37.293 -50.987  13.317  1.00  0.00     0.201 C 
ENDBRANCH  26  27
ENDBRANCH  25  26
ENDBRANCH   1  25
TORSDOF 7
ENDMDL
MODEL 5
REMARK VINA RESULT:      -6.2      2.056      2.503
REMARK  7 active torsions:
REMARK  status: ('A' for Active; 'I' for Inactive)
REMARK    1  A    between atoms: O_2  and  C_3 
REMARK    2  A    between atoms: C_3  and  C_4 
REMARK    3  A    between atoms: C_4  and  N_5 
REMARK    4  A    between atoms: C_6  and  S_7 
REMARK    5  A    between atoms: S_7  and  C_8 
REMARK    6  A    between atoms: C_8  and  C_9 
REMARK    7  A    between atoms: C_14  and  N_15 
ROOT
HETATM    1  N   UNL     1     -40.579 -51.879  13.161  1.00  0.00    -0.324 N 
HETATM    2  C   UNL     1     -41.111 -51.013  12.231  1.00  0.00     0.148 A 
HETATM    3  N   UNL     1     -42.373 -51.270  11.984  1.00  0.00    -0.335 N 
ATOM      4  HN  UNL     1     -43.001 -50.753  11.369  1.00  0.00     0.168 HD
HETATM    5  C   UNL     1     -42.669 -52.385  12.732  1.00  0.00     0.062 A 
HETATM    6  C   UNL     1     -43.856 -53.133  12.777  1.00  0.00     0.055 A 
HETATM    7  C   UNL     1     -43.907 -54.245  13.622  1.00  0.00     0.036 A 
HETATM    8 CL   UNL     1     -45.337 -55.206  13.667  1.00  0.00    -0.084 Cl
HETATM    9  C   UNL     1     -42.822 -54.598  14.424  1.00  0.00     0.026 A 
HETATM   10  C   UNL     1     -41.631 -53.864  14.388  1.00  0.00     0.034 A 
HETATM   11  C   UNL     1     -41.581 -52.766  13.518  1.00  0.00     0.063 A 
ENDROOT
BRANCH   2  12
HETATM   12  S   UNL     1     -40.178 -49.798  11.419  1.00  0.00    -0.086 SA
BRANCH  12  13
HETATM   13  C   UNL     1     -41.419 -48.486  11.163  1.00  0.00     0.158 C 
BRANCH  13  14
HETATM   14  C   UNL     1     -40.805 -47.115  11.338  1.00  0.00     0.091 A 
HETATM   15  N   UNL     1     -40.627 -46.654  12.597  1.00  0.00    -0.355 N 
HETATM   16  C   UNL     1     -40.016 -45.459  12.712  1.00  0.00     0.092 A 
ATOM     17  HN  UNL     1     -40.939 -47.181  13.413  1.00  0.00     0.166 HD
HETATM   18  C   UNL     1     -39.590 -44.719  11.637  1.00  0.00     0.059 A 
HETATM   19  C   UNL     1     -39.834 -45.259  10.397  1.00  0.00     0.080 A 
HETATM   20  N   UNL     1     -40.430 -46.444  10.226  1.00  0.00    -0.336 N 
ATOM     21  HN  UNL     1     -40.594 -46.827   9.294  1.00  0.00     0.168 HD
BRANCH  19  22
HETATM   22  N   UNL     1     -39.405 -44.603   9.245  1.00  0.00    -0.289 NA
HETATM   23  H   UNL     1     -40.008 -43.829   8.993  1.00  0.00     0.125 HD
HETATM   24  H   UNL     1     -39.344 -45.298   8.505  1.00  0.00     0.125 HD
ENDBRANCH  19  22
ENDBRANCH  13  14
ENDBRANCH  12  13
ENDBRANCH   2  12
BRANCH   1  25
HETATM   25  C   UNL     1     -39.198 -51.972  13.593  1.00  0.00     0.157 C 
BRANCH  25  26
HETATM   26  C   UNL     1     -38.870 -51.198  14.866  1.00  0.00     0.187 C 
BRANCH  26  27
HETATM   27  O   UNL     1     -38.281 -49.947  14.496  1.00  0.00    -0.394 OA
HETATM   28  C   UNL     1     -39.022 -48.850  15.019  1.00  0.00     0.201 C 
ENDBRANCH  26  27
ENDBRANCH  25  26
ENDBRANCH   1  25
TORSDOF 7
ENDMDL
MODEL 6
REMARK VINA RESULT:      -6.2      3.435      7.054
REMARK  7 active torsions:
REMARK  status: ('A' for Active; 'I' for Inactive)
REMARK    1  A    between atoms: O_2  and  C_3 
REMARK    2  A    between atoms: C_3  and  C_4 
REMARK    3  A    between atoms: C_4  and  N_5 
REMARK    4  A    between atoms: C_6  and  S_7 
REMARK    5  A    between atoms: S_7  and  C_8 
REMARK    6  A    between atoms: C_8  and  C_9 
REMARK    7  A    between atoms: C_14  and  N_15 
ROOT
HETATM    1  N   UNL     1     -41.636 -46.210  11.049  1.00  0.00    -0.324 N 
HETATM    2  C   UNL     1     -41.539 -47.287  11.902  1.00  0.00     0.148 A 
HETATM    3  N   UNL     1     -42.546 -48.117  11.763  1.00  0.00    -0.335 N 
ATOM      4  HN  UNL     1     -42.688 -49.004  12.246  1.00  0.00     0.168 HD
HETATM    5  C   UNL     1     -43.368 -47.535  10.827  1.00  0.00     0.062 A 
HETATM    6  C   UNL     1     -44.626 -47.957  10.368  1.00  0.00     0.055 A 
HETATM    7  C   UNL     1     -45.276 -47.179   9.406  1.00  0.00     0.036 A 
HETATM    8 CL   UNL     1     -46.838 -47.650   8.852  1.00  0.00    -0.084 Cl
HETATM    9  C   UNL     1     -44.689 -46.023   8.890  1.00  0.00     0.026 A 
HETATM   10  C   UNL     1     -43.437 -45.588   9.340  1.00  0.00     0.034 A 
HETATM   11  C   UNL     1     -42.806 -46.362  10.325  1.00  0.00     0.063 A 
ENDROOT
BRANCH   2  12
HETATM   12  S   UNL     1     -40.284 -47.456  13.084  1.00  0.00    -0.086 SA
BRANCH  12  13
HETATM   13  C   UNL     1     -39.151 -48.624  12.260  1.00  0.00     0.158 C 
BRANCH  13  14
HETATM   14  C   UNL     1     -39.497 -50.054  12.608  1.00  0.00     0.091 A 
HETATM   15  N   UNL     1     -39.074 -50.540  13.798  1.00  0.00    -0.355 N 
HETATM   16  C   UNL     1     -39.460 -51.794  14.100  1.00  0.00     0.092 A 
ATOM     17  HN  UNL     1     -38.496 -49.986  14.430  1.00  0.00     0.166 HD
HETATM   18  C   UNL     1     -40.231 -52.571  13.270  1.00  0.00     0.059 A 
HETATM   19  C   UNL     1     -40.594 -52.001  12.073  1.00  0.00     0.080 A 
HETATM   20  N   UNL     1     -40.245 -50.756  11.727  1.00  0.00    -0.336 N 
ATOM     21  HN  UNL     1     -40.533 -50.353  10.835  1.00  0.00     0.168 HD
BRANCH  19  22
HETATM   22  N   UNL     1     -41.409 -52.693  11.180  1.00  0.00    -0.289 NA
HETATM   23  H   UNL     1     -41.796 -52.091  10.463  1.00  0.00     0.125 HD
HETATM   24  H   UNL     1     -42.134 -53.153  11.725  1.00  0.00     0.125 HD
ENDBRANCH  19  22
ENDBRANCH  13  14
ENDBRANCH  12  13
ENDBRANCH   2  12
BRANCH   1  25
HETATM   25  C   UNL     1     -40.776 -45.043  10.999  1.00  0.00     0.157 C 
BRANCH  25  26
HETATM   26  C   UNL     1     -39.488 -45.228  10.204  1.00  0.00     0.187 C 
BRANCH  26  27
HETATM   27  O   UNL     1     -39.458 -44.252   9.158  1.00  0.00    -0.394 OA
HETATM   28  C   UNL     1     -38.335 -44.442   8.304  1.00  0.00     0.201 C 
ENDBRANCH  26  27
ENDBRANCH  25  26
ENDBRANCH   1  25
TORSDOF 7
ENDMDL
MODEL 7
REMARK VINA RESULT:      -5.9      1.417      1.911
REMARK  7 active torsions:
REMARK  status: ('A' for Active; 'I' for Inactive)
REMARK    1  A    between atoms: O_2  and  C_3 
REMARK    2  A    between atoms: C_3  and  C_4 
REMARK    3  A    between atoms: C_4  and  N_5 
REMARK    4  A    between atoms: C_6  and  S_7 
REMARK    5  A    between atoms: S_7  and  C_8 
REMARK    6  A    between atoms: C_8  and  C_9 
REMARK    7  A    between atoms: C_14  and  N_15 
ROOT
HETATM    1  N   UNL     1     -40.340 -50.932  12.364  1.00  0.00    -0.324 N 
HETATM    2  C   UNL     1     -41.334 -50.140  11.834  1.00  0.00     0.148 A 
HETATM    3  N   UNL     1     -42.530 -50.618  12.084  1.00  0.00    -0.335 N 
ATOM      4  HN  UNL     1     -43.427 -50.202  11.837  1.00  0.00     0.168 HD
HETATM    5  C   UNL     1     -42.314 -51.801  12.750  1.00  0.00     0.062 A 
HETATM    6  C   UNL     1     -43.247 -52.761  13.177  1.00  0.00     0.055 A 
HETATM    7  C   UNL     1     -42.773 -53.899  13.834  1.00  0.00     0.036 A 
HETATM    8 CL   UNL     1     -43.890 -55.113  14.334  1.00  0.00    -0.084 Cl
HETATM    9  C   UNL     1     -41.413 -54.078  14.088  1.00  0.00     0.026 A 
HETATM   10  C   UNL     1     -40.471 -53.132  13.666  1.00  0.00     0.034 A 
HETATM   11  C   UNL     1     -40.954 -52.006  12.984  1.00  0.00     0.063 A 
ENDROOT
BRANCH   2  12
HETATM   12  S   UNL     1     -41.020 -48.737  10.867  1.00  0.00    -0.086 SA
BRANCH  12  13
HETATM   13  C   UNL     1     -42.142 -47.510  11.616  1.00  0.00     0.158 C 
BRANCH  13  14
HETATM   14  C   UNL     1     -43.210 -47.080  10.635  1.00  0.00     0.091 A 
HETATM   15  N   UNL     1     -43.056 -45.892  10.007  1.00  0.00    -0.355 N 
HETATM   16  C   UNL     1     -43.992 -45.576   9.091  1.00  0.00     0.092 A 
ATOM     17  HN  UNL     1     -42.274 -45.270  10.215  1.00  0.00     0.166 HD
HETATM   18  C   UNL     1     -45.061 -46.384   8.791  1.00  0.00     0.059 A 
HETATM   19  C   UNL     1     -45.146 -47.561   9.496  1.00  0.00     0.080 A 
HETATM   20  N   UNL     1     -44.240 -47.927  10.409  1.00  0.00    -0.336 N 
ATOM     21  HN  UNL     1     -44.322 -48.809  10.914  1.00  0.00     0.168 HD
BRANCH  19  22
HETATM   22  N   UNL     1     -46.172 -48.467   9.235  1.00  0.00    -0.289 NA
HETATM   23  H   UNL     1     -46.902 -48.437   9.937  1.00  0.00     0.125 HD
HETATM   24  H   UNL     1     -45.751 -49.389   9.159  1.00  0.00     0.125 HD
ENDBRANCH  19  22
ENDBRANCH  13  14
ENDBRANCH  12  13
ENDBRANCH   2  12
BRANCH   1  25
HETATM   25  C   UNL     1     -38.907 -50.784  12.194  1.00  0.00     0.157 C 
BRANCH  25  26
HETATM   26  C   UNL     1     -38.216 -49.950  13.268  1.00  0.00     0.187 C 
BRANCH  26  27
HETATM   27  O   UNL     1     -37.994 -50.780  14.413  1.00  0.00    -0.394 OA
HETATM   28  C   UNL     1     -37.653 -50.005  15.557  1.00  0.00     0.201 C 
ENDBRANCH  26  27
ENDBRANCH  25  26
ENDBRANCH   1  25
TORSDOF 7
ENDMDL
MODEL 8
REMARK VINA RESULT:      -5.8      3.155      4.666
REMARK  7 active torsions:
REMARK  status: ('A' for Active; 'I' for Inactive)
REMARK    1  A    between atoms: O_2  and  C_3 
REMARK    2  A    between atoms: C_3  and  C_4 
REMARK    3  A    between atoms: C_4  and  N_5 
REMARK    4  A    between atoms: C_6  and  S_7 
REMARK    5  A    between atoms: S_7  and  C_8 
REMARK    6  A    between atoms: C_8  and  C_9 
REMARK    7  A    between atoms: C_14  and  N_15 
ROOT
HETATM    1  N   UNL     1     -42.055 -53.608  13.901  1.00  0.00    -0.324 N 
HETATM    2  C   UNL     1     -40.953 -53.095  13.253  1.00  0.00     0.148 A 
HETATM    3  N   UNL     1     -39.835 -53.621  13.692  1.00  0.00    -0.335 N 
ATOM      4  HN  UNL     1     -38.891 -53.442  13.352  1.00  0.00     0.168 HD
HETATM    5  C   UNL     1     -40.208 -54.467  14.709  1.00  0.00     0.062 A 
HETATM    6  C   UNL     1     -39.401 -55.219  15.579  1.00  0.00     0.055 A 
HETATM    7  C   UNL     1     -40.026 -56.006  16.550  1.00  0.00     0.036 A 
HETATM    8 CL   UNL     1     -39.060 -56.908  17.656  1.00  0.00    -0.084 Cl
HETATM    9  C   UNL     1     -41.416 -56.071  16.647  1.00  0.00     0.026 A 
HETATM   10  C   UNL     1     -42.234 -55.325  15.790  1.00  0.00     0.034 A 
HETATM   11  C   UNL     1     -41.597 -54.519  14.837  1.00  0.00     0.063 A 
ENDROOT
BRANCH   2  12
HETATM   12  S   UNL     1     -41.046 -51.830  12.072  1.00  0.00    -0.086 SA
BRANCH  12  13
HETATM   13  C   UNL     1     -40.998 -50.339  13.121  1.00  0.00     0.158 C 
BRANCH  13  14
HETATM   14  C   UNL     1     -41.793 -49.212  12.500  1.00  0.00     0.091 A 
HETATM   15  N   UNL     1     -42.342 -48.291  13.325  1.00  0.00    -0.355 N 
HETATM   16  C   UNL     1     -42.984 -47.267  12.730  1.00  0.00     0.092 A 
ATOM     17  HN  UNL     1     -42.273 -48.368  14.340  1.00  0.00     0.166 HD
HETATM   18  C   UNL     1     -43.104 -47.135  11.369  1.00  0.00     0.059 A 
HETATM   19  C   UNL     1     -42.534 -48.132  10.612  1.00  0.00     0.080 A 
HETATM   20  N   UNL     1     -41.877 -49.166  11.151  1.00  0.00    -0.336 N 
ATOM     21  HN  UNL     1     -41.457 -49.889  10.568  1.00  0.00     0.168 HD
BRANCH  19  22
HETATM   22  N   UNL     1     -42.566 -48.068   9.221  1.00  0.00    -0.289 NA
HETATM   23  H   UNL     1     -43.435 -47.682   8.872  1.00  0.00     0.125 HD
HETATM   24  H   UNL     1     -42.396 -49.007   8.870  1.00  0.00     0.125 HD
ENDBRANCH  19  22
ENDBRANCH  13  14
ENDBRANCH  12  13
ENDBRANCH   2  12
BRANCH   1  25
HETATM   25  C   UNL     1     -43.436 -53.186  13.763  1.00  0.00     0.157 C 
BRANCH  25  26
HETATM   26  C   UNL     1     -44.157 -53.737  12.536  1.00  0.00     0.187 C 
BRANCH  26  27
HETATM   27  O   UNL     1     -45.492 -54.085  12.914  1.00  0.00    -0.394 OA
HETATM   28  C   UNL     1     -45.504 -55.166  13.840  1.00  0.00     0.201 C 
ENDBRANCH  26  27
ENDBRANCH  25  26
ENDBRANCH   1  25
TORSDOF 7
ENDMDL
MODEL 9
REMARK VINA RESULT:      -5.7      4.397      5.872
REMARK  7 active torsions:
REMARK  status: ('A' for Active; 'I' for Inactive)
REMARK    1  A    between atoms: O_2  and  C_3 
REMARK    2  A    between atoms: C_3  and  C_4 
REMARK    3  A    between atoms: C_4  and  N_5 
REMARK    4  A    between atoms: C_6  and  S_7 
REMARK    5  A    between atoms: S_7  and  C_8 
REMARK    6  A    between atoms: C_8  and  C_9 
REMARK    7  A    between atoms: C_14  and  N_15 
ROOT
HETATM    1  N   UNL     1     -42.300 -53.925  14.102  1.00  0.00    -0.324 N 
HETATM    2  C   UNL     1     -41.379 -53.371  13.240  1.00  0.00     0.148 A 
HETATM    3  N   UNL     1     -40.156 -53.760  13.509  1.00  0.00    -0.335 N 
ATOM      4  HN  UNL     1     -39.306 -53.526  12.998  1.00  0.00     0.168 HD
HETATM    5  C   UNL     1     -40.266 -54.551  14.628  1.00  0.00     0.062 A 
HETATM    6  C   UNL     1     -39.253 -55.156  15.389  1.00  0.00     0.055 A 
HETATM    7  C   UNL     1     -39.623 -55.915  16.503  1.00  0.00     0.036 A 
HETATM    8 CL   UNL     1     -38.399 -56.636  17.478  1.00  0.00    -0.084 Cl
HETATM    9  C   UNL     1     -40.963 -56.094  16.846  1.00  0.00     0.026 A 
HETATM   10  C   UNL     1     -41.984 -55.494  16.100  1.00  0.00     0.034 A 
HETATM   11  C   UNL     1     -41.601 -54.714  15.000  1.00  0.00     0.063 A 
ENDROOT
BRANCH   2  12
HETATM   12  S   UNL     1     -41.796 -52.219  12.015  1.00  0.00    -0.086 SA
BRANCH  12  13
HETATM   13  C   UNL     1     -41.604 -50.640  12.908  1.00  0.00     0.158 C 
BRANCH  13  14
HETATM   14  C   UNL     1     -40.183 -50.133  12.817  1.00  0.00     0.091 A 
HETATM   15  N   UNL     1     -39.649 -49.535  13.906  1.00  0.00    -0.355 N 
HETATM   16  C   UNL     1     -38.360 -49.158  13.807  1.00  0.00     0.092 A 
ATOM     17  HN  UNL     1     -40.193 -49.378  14.755  1.00  0.00     0.166 HD
HETATM   18  C   UNL     1     -37.600 -49.346  12.678  1.00  0.00     0.059 A 
HETATM   19  C   UNL     1     -38.234 -49.942  11.614  1.00  0.00     0.080 A 
HETATM   20  N   UNL     1     -39.510 -50.343  11.662  1.00  0.00    -0.336 N 
ATOM     21  HN  UNL     1     -39.957 -50.789  10.861  1.00  0.00     0.168 HD
BRANCH  19  22
HETATM   22  N   UNL     1     -37.538 -50.212  10.438  1.00  0.00    -0.289 NA
HETATM   23  H   UNL     1     -36.567 -50.443  10.608  1.00  0.00     0.125 HD
HETATM   24  H   UNL     1     -37.639 -49.402   9.832  1.00  0.00     0.125 HD
ENDBRANCH  19  22
ENDBRANCH  13  14
ENDBRANCH  12  13
ENDBRANCH   2  12
BRANCH   1  25
HETATM   25  C   UNL     1     -43.719 -53.639  14.182  1.00  0.00     0.157 C 
BRANCH  25  26
HETATM   26  C   UNL     1     -44.601 -54.512  13.295  1.00  0.00     0.187 C 
BRANCH  26  27
HETATM   27  O   UNL     1     -45.441 -55.309  14.136  1.00  0.00    -0.394 OA
HETATM   28  C   UNL     1     -46.385 -54.507  14.836  1.00  0.00     0.201 C 
ENDBRANCH  26  27
ENDBRANCH  25  26
ENDBRANCH   1  25
TORSDOF 7
ENDMDL
