MODEL 1
REMARK VINA RESULT:      -6.9      0.000      0.000
REMARK  5 active torsions:
REMARK  status: ('A' for Active; 'I' for Inactive)
REMARK    1  A    between atoms: N_4  and  C_9 
REMARK    2  A    between atoms: C_12  and  N_13 
REMARK       I    between atoms: N_13  and  C_14 
REMARK       I    between atoms: C_14  and  N_16 
REMARK    3  A    between atoms: N_16  and  C_17 
REMARK    4  A    between atoms: C_17  and  C_18 
REMARK    5  A    between atoms: C_18  and  O_19 
ROOT
HETATM    1  C   UNL     1     -40.343 -53.148  13.690  1.00  0.00     0.103 A 
HETATM    2  C   UNL     1     -39.447 -52.086  13.706  1.00  0.00     0.051 A 
HETATM    3  C   UNL     1     -39.537 -51.058  12.771  1.00  0.00     0.035 A 
HETATM    4  C   UNL     1     -40.509 -51.086  11.785  1.00  0.00     0.051 A 
HETATM    5  C   UNL     1     -41.359 -52.183  11.814  1.00  0.00     0.119 A 
HETATM    6  N   UNL     1     -41.292 -53.196  12.727  1.00  0.00    -0.350 N 
ATOM      7  HN  UNL     1     -41.946 -53.977  12.684  1.00  0.00     0.166 HD
ENDROOT
BRANCH   4   8
HETATM    8  N   UNL     1     -40.653 -50.066  10.812  1.00  0.00    -0.308 N 
HETATM    9  C   UNL     1     -41.451 -48.956  10.966  1.00  0.00     0.320 C 
HETATM   10  O   UNL     1     -42.061 -48.641  11.984  1.00  0.00    -0.247 OA
HETATM   11  N   UNL     1     -41.563 -48.187   9.830  1.00  0.00    -0.340 N 
HETATM   12  H   UNL     1     -40.781 -48.147   9.187  1.00  0.00     0.164 HD
HETATM   13  H   UNL     1     -40.101 -50.132   9.968  1.00  0.00     0.170 HD
BRANCH  11  14
HETATM   14  C   UNL     1     -42.382 -46.994   9.952  1.00  0.00     0.162 C 
BRANCH  14  15
HETATM   15  C   UNL     1     -43.579 -47.097   9.020  1.00  0.00     0.074 C 
HETATM   16  C   UNL     1     -44.319 -45.735   8.877  1.00  0.00     0.040 C 
HETATM   17  C   UNL     1     -45.645 -46.508   8.935  1.00  0.00     0.006 C 
HETATM   18  C   UNL     1     -44.890 -47.648   9.647  1.00  0.00     0.040 C 
BRANCH  15  19
HETATM   19  O   UNL     1     -43.187 -47.730   7.774  1.00  0.00    -0.388 OA
HETATM   20  H   UNL     1     -42.564 -48.432   8.037  1.00  0.00     0.210 HD
ENDBRANCH  15  19
ENDBRANCH  14  15
ENDBRANCH  11  14
ENDBRANCH   4   8
BRANCH   1  21
HETATM   21  N   UNL     1     -40.242 -54.176  14.598  1.00  0.00    -0.362 N 
HETATM   22  C   UNL     1     -38.980 -54.905  14.766  1.00  0.00     0.156 C 
HETATM   23  C   UNL     1     -38.767 -55.203  16.271  1.00  0.00     0.136 C 
HETATM   24  C   UNL     1     -38.355 -53.951  17.045  1.00  0.00     0.041 C 
HETATM   25  O   UNL     1     -39.915 -55.839  16.881  1.00  0.00    -0.378 OA
HETATM   26  C   UNL     1     -41.139 -55.111  16.664  1.00  0.00     0.136 C 
HETATM   27  C   UNL     1     -41.391 -54.893  15.160  1.00  0.00     0.156 C 
HETATM   28  C   UNL     1     -42.282 -55.898  17.292  1.00  0.00     0.041 C 
ENDBRANCH   1  21
TORSDOF 5
ENDMDL
MODEL 2
REMARK VINA RESULT:      -6.5      0.812      1.781
REMARK  5 active torsions:
REMARK  status: ('A' for Active; 'I' for Inactive)
REMARK    1  A    between atoms: N_4  and  C_9 
REMARK    2  A    between atoms: C_12  and  N_13 
REMARK       I    between atoms: N_13  and  C_14 
REMARK       I    between atoms: C_14  and  N_16 
REMARK    3  A    between atoms: N_16  and  C_17 
REMARK    4  A    between atoms: C_17  and  C_18 
REMARK    5  A    between atoms: C_18  and  O_19 
ROOT
HETATM    1  C   UNL     1     -40.369 -52.693  14.544  1.00  0.00     0.103 A 
HETATM    2  C   UNL     1     -39.270 -52.041  13.999  1.00  0.00     0.051 A 
HETATM    3  C   UNL     1     -39.400 -51.237  12.870  1.00  0.00     0.035 A 
HETATM    4  C   UNL     1     -40.629 -51.091  12.247  1.00  0.00     0.051 A 
HETATM    5  C   UNL     1     -41.681 -51.783  12.831  1.00  0.00     0.119 A 
HETATM    6  N   UNL     1     -41.575 -52.569  13.942  1.00  0.00    -0.350 N 
ATOM      7  HN  UNL     1     -42.391 -53.054  14.313  1.00  0.00     0.166 HD
ENDROOT
BRANCH   4   8
HETATM    8  N   UNL     1     -40.823 -50.282  11.100  1.00  0.00    -0.308 N 
HETATM    9  C   UNL     1     -41.392 -49.029  11.123  1.00  0.00     0.320 C 
HETATM   10  O   UNL     1     -41.713 -48.401  12.127  1.00  0.00    -0.247 OA
HETATM   11  N   UNL     1     -41.628 -48.500   9.874  1.00  0.00    -0.340 N 
HETATM   12  H   UNL     1     -41.006 -48.746   9.113  1.00  0.00     0.164 HD
HETATM   13  H   UNL     1     -40.483 -50.625  10.213  1.00  0.00     0.170 HD
BRANCH  11  14
HETATM   14  C   UNL     1     -42.212 -47.171   9.851  1.00  0.00     0.162 C 
BRANCH  14  15
HETATM   15  C   UNL     1     -43.452 -47.172   8.972  1.00  0.00     0.074 C 
HETATM   16  C   UNL     1     -44.083 -45.752   8.862  1.00  0.00     0.040 C 
HETATM   17  C   UNL     1     -45.465 -46.413   8.978  1.00  0.00     0.006 C 
HETATM   18  C   UNL     1     -44.775 -47.614   9.656  1.00  0.00     0.040 C 
BRANCH  15  19
HETATM   19  O   UNL     1     -43.169 -47.830   7.711  1.00  0.00    -0.388 OA
HETATM   20  H   UNL     1     -42.492 -48.497   7.924  1.00  0.00     0.210 HD
ENDBRANCH  15  19
ENDBRANCH  14  15
ENDBRANCH  11  14
ENDBRANCH   4   8
BRANCH   1  21
HETATM   21  N   UNL     1     -40.239 -53.505  15.647  1.00  0.00    -0.362 N 
HETATM   22  C   UNL     1     -41.280 -53.537  16.679  1.00  0.00     0.156 C 
HETATM   23  C   UNL     1     -41.464 -54.996  17.163  1.00  0.00     0.136 C 
HETATM   24  C   UNL     1     -42.208 -55.847  16.133  1.00  0.00     0.041 C 
HETATM   25  O   UNL     1     -40.215 -55.618  17.548  1.00  0.00    -0.378 OA
HETATM   26  C   UNL     1     -39.208 -55.535  16.520  1.00  0.00     0.136 C 
HETATM   27  C   UNL     1     -38.966 -54.071  16.104  1.00  0.00     0.156 C 
HETATM   28  C   UNL     1     -37.927 -56.162  17.054  1.00  0.00     0.041 C 
ENDBRANCH   1  21
TORSDOF 5
ENDMDL
MODEL 3
REMARK VINA RESULT:      -6.3      3.309      4.208
REMARK  5 active torsions:
REMARK  status: ('A' for Active; 'I' for Inactive)
REMARK    1  A    between atoms: N_4  and  C_9 
REMARK    2  A    between atoms: C_12  and  N_13 
REMARK       I    between atoms: N_13  and  C_14 
REMARK       I    between atoms: C_14  and  N_16 
REMARK    3  A    between atoms: N_16  and  C_17 
REMARK    4  A    between atoms: C_17  and  C_18 
REMARK    5  A    between atoms: C_18  and  O_19 
ROOT
HETATM    1  C   UNL     1     -41.837 -51.310  12.174  1.00  0.00     0.103 A 
HETATM    2  C   UNL     1     -42.628 -50.216  12.501  1.00  0.00     0.051 A 
HETATM    3  C   UNL     1     -42.340 -48.949  12.002  1.00  0.00     0.035 A 
HETATM    4  C   UNL     1     -41.239 -48.746  11.186  1.00  0.00     0.051 A 
HETATM    5  C   UNL     1     -40.481 -49.876  10.914  1.00  0.00     0.119 A 
HETATM    6  N   UNL     1     -40.751 -51.128  11.387  1.00  0.00    -0.350 N 
ATOM      7  HN  UNL     1     -40.145 -51.913  11.151  1.00  0.00     0.166 HD
ENDROOT
BRANCH   4   8
HETATM    8  N   UNL     1     -40.902 -47.481  10.644  1.00  0.00    -0.308 N 
HETATM    9  C   UNL     1     -40.318 -46.461  11.361  1.00  0.00     0.320 C 
HETATM   10  O   UNL     1     -39.919 -46.531  12.519  1.00  0.00    -0.247 OA
HETATM   11  N   UNL     1     -40.233 -45.273  10.672  1.00  0.00    -0.340 N 
HETATM   12  H   UNL     1     -40.119 -45.297   9.666  1.00  0.00     0.164 HD
HETATM   13  H   UNL     1     -41.058 -47.330   9.657  1.00  0.00     0.170 HD
BRANCH  11  14
HETATM   14  C   UNL     1     -39.608 -44.173  11.384  1.00  0.00     0.162 C 
BRANCH  14  15
HETATM   15  C   UNL     1     -40.619 -43.058  11.597  1.00  0.00     0.074 C 
HETATM   16  C   UNL     1     -40.076 -41.961  12.559  1.00  0.00     0.040 C 
HETATM   17  C   UNL     1     -41.472 -41.903  13.198  1.00  0.00     0.006 C 
HETATM   18  C   UNL     1     -41.720 -43.327  12.661  1.00  0.00     0.040 C 
BRANCH  15  19
HETATM   19  O   UNL     1     -41.112 -42.582  10.318  1.00  0.00    -0.388 OA
HETATM   20  H   UNL     1     -40.704 -43.172   9.659  1.00  0.00     0.210 HD
ENDBRANCH  15  19
ENDBRANCH  14  15
ENDBRANCH  11  14
ENDBRANCH   4   8
BRANCH   1  21
HETATM   21  N   UNL     1     -42.106 -52.560  12.684  1.00  0.00    -0.362 N 
HETATM   22  C   UNL     1     -41.015 -53.472  13.042  1.00  0.00     0.156 C 
HETATM   23  C   UNL     1     -41.388 -54.216  14.348  1.00  0.00     0.136 C 
HETATM   24  C   UNL     1     -41.271 -53.307  15.572  1.00  0.00     0.041 C 
HETATM   25  O   UNL     1     -42.694 -54.835  14.282  1.00  0.00    -0.378 OA
HETATM   26  C   UNL     1     -43.733 -53.914  13.895  1.00  0.00     0.136 C 
HETATM   27  C   UNL     1     -43.397 -53.242  12.549  1.00  0.00     0.156 C 
HETATM   28  C   UNL     1     -45.043 -54.684  13.799  1.00  0.00     0.041 C 
ENDBRANCH   1  21
TORSDOF 5
ENDMDL
MODEL 4
REMARK VINA RESULT:      -6.3      4.279      9.876
REMARK  5 active torsions:
REMARK  status: ('A' for Active; 'I' for Inactive)
REMARK    1  A    between atoms: N_4  and  C_9 
REMARK    2  A    between atoms: C_12  and  N_13 
REMARK       I    between atoms: N_13  and  C_14 
REMARK       I    between atoms: C_14  and  N_16 
REMARK    3  A    between atoms: N_16  and  C_17 
REMARK    4  A    between atoms: C_17  and  C_18 
REMARK    5  A    between atoms: C_18  and  O_19 
ROOT
HETATM    1  C   UNL     1     -41.623 -44.196  11.458  1.00  0.00     0.103 A 
HETATM    2  C   UNL     1     -40.398 -44.696  11.035  1.00  0.00     0.051 A 
HETATM    3  C   UNL     1     -40.212 -46.060  10.833  1.00  0.00     0.035 A 
HETATM    4  C   UNL     1     -41.240 -46.955  11.075  1.00  0.00     0.051 A 
HETATM    5  C   UNL     1     -42.431 -46.393  11.513  1.00  0.00     0.119 A 
HETATM    6  N   UNL     1     -42.635 -45.058  11.710  1.00  0.00    -0.350 N 
ATOM      7  HN  UNL     1     -43.537 -44.714  12.040  1.00  0.00     0.166 HD
ENDROOT
BRANCH   4   8
HETATM    8  N   UNL     1     -41.110 -48.353  10.881  1.00  0.00    -0.308 N 
HETATM    9  C   UNL     1     -40.721 -49.239  11.859  1.00  0.00     0.320 C 
HETATM   10  O   UNL     1     -40.534 -48.970  13.042  1.00  0.00    -0.247 OA
HETATM   11  N   UNL     1     -40.507 -50.519  11.400  1.00  0.00    -0.340 N 
HETATM   12  H   UNL     1     -41.055 -50.857  10.618  1.00  0.00     0.164 HD
HETATM   13  H   UNL     1     -41.361 -48.733   9.978  1.00  0.00     0.170 HD
BRANCH  11  14
HETATM   14  C   UNL     1     -40.111 -51.492  12.403  1.00  0.00     0.162 C 
BRANCH  14  15
HETATM   15  C   UNL     1     -40.974 -52.737  12.277  1.00  0.00     0.074 C 
HETATM   16  C   UNL     1     -42.492 -52.393  12.304  1.00  0.00     0.040 C 
HETATM   17  C   UNL     1     -42.704 -53.631  13.189  1.00  0.00     0.006 C 
HETATM   18  C   UNL     1     -41.218 -53.536  13.587  1.00  0.00     0.040 C 
BRANCH  15  19
HETATM   19  O   UNL     1     -40.533 -53.536  11.149  1.00  0.00    -0.388 OA
HETATM   20  H   UNL     1     -40.462 -54.443  11.498  1.00  0.00     0.210 HD
ENDBRANCH  15  19
ENDBRANCH  14  15
ENDBRANCH  11  14
ENDBRANCH   4   8
BRANCH   1  21
HETATM   21  N   UNL     1     -41.803 -42.850  11.680  1.00  0.00    -0.362 N 
HETATM   22  C   UNL     1     -43.136 -42.247  11.572  1.00  0.00     0.156 C 
HETATM   23  C   UNL     1     -43.304 -41.194  12.696  1.00  0.00     0.136 C 
HETATM   24  C   UNL     1     -43.515 -41.851  14.061  1.00  0.00     0.041 C 
HETATM   25  O   UNL     1     -42.214 -40.244  12.738  1.00  0.00    -0.378 OA
HETATM   26  C   UNL     1     -40.921 -40.877  12.809  1.00  0.00     0.136 C 
HETATM   27  C   UNL     1     -40.724 -41.859  11.638  1.00  0.00     0.156 C 
HETATM   28  C   UNL     1     -39.854 -39.790  12.785  1.00  0.00     0.041 C 
ENDBRANCH   1  21
TORSDOF 5
ENDMDL
MODEL 5
REMARK VINA RESULT:      -6.0      2.226      2.347
REMARK  5 active torsions:
REMARK  status: ('A' for Active; 'I' for Inactive)
REMARK    1  A    between atoms: N_4  and  C_9 
REMARK    2  A    between atoms: C_12  and  N_13 
REMARK       I    between atoms: N_13  and  C_14 
REMARK       I    between atoms: C_14  and  N_16 
REMARK    3  A    between atoms: N_16  and  C_17 
REMARK    4  A    between atoms: C_17  and  C_18 
REMARK    5  A    between atoms: C_18  and  O_19 
ROOT
HETATM    1  C   UNL     1     -40.054 -52.576  13.469  1.00  0.00     0.103 A 
HETATM    2  C   UNL     1     -38.850 -51.884  13.447  1.00  0.00     0.051 A 
HETATM    3  C   UNL     1     -38.703 -50.725  12.691  1.00  0.00     0.035 A 
HETATM    4  C   UNL     1     -39.752 -50.250  11.920  1.00  0.00     0.051 A 
HETATM    5  C   UNL     1     -40.920 -50.997  11.973  1.00  0.00     0.119 A 
HETATM    6  N   UNL     1     -41.085 -52.132  12.714  1.00  0.00    -0.350 N 
ATOM      7  HN  UNL     1     -41.971 -52.636  12.700  1.00  0.00     0.166 HD
ENDROOT
BRANCH   4   8
HETATM    8  N   UNL     1     -39.663 -49.072  11.136  1.00  0.00    -0.308 N 
HETATM    9  C   UNL     1     -39.733 -47.795  11.645  1.00  0.00     0.320 C 
HETATM   10  O   UNL     1     -39.777 -47.495  12.834  1.00  0.00    -0.247 OA
HETATM   11  N   UNL     1     -39.788 -46.814  10.682  1.00  0.00    -0.340 N 
HETATM   12  H   UNL     1     -39.318 -46.967   9.798  1.00  0.00     0.164 HD
HETATM   13  H   UNL     1     -39.493 -49.173  10.145  1.00  0.00     0.170 HD
BRANCH  11  14
HETATM   14  C   UNL     1     -39.845 -45.449  11.174  1.00  0.00     0.162 C 
BRANCH  14  15
HETATM   15  C   UNL     1     -41.216 -44.856  10.886  1.00  0.00     0.074 C 
HETATM   16  C   UNL     1     -41.236 -43.315  11.106  1.00  0.00     0.040 C 
HETATM   17  C   UNL     1     -42.620 -43.479  11.754  1.00  0.00     0.006 C 
HETATM   18  C   UNL     1     -42.257 -44.950  12.036  1.00  0.00     0.040 C 
BRANCH  15  19
HETATM   19  O   UNL     1     -41.692 -45.311   9.593  1.00  0.00    -0.388 OA
HETATM   20  H   UNL     1     -42.555 -44.873   9.478  1.00  0.00     0.210 HD
ENDBRANCH  15  19
ENDBRANCH  14  15
ENDBRANCH  11  14
ENDBRANCH   4   8
BRANCH   1  21
HETATM   21  N   UNL     1     -40.194 -53.735  14.199  1.00  0.00    -0.362 N 
HETATM   22  C   UNL     1     -39.075 -54.673  14.334  1.00  0.00     0.156 C 
HETATM   23  C   UNL     1     -39.057 -55.229  15.779  1.00  0.00     0.136 C 
HETATM   24  C   UNL     1     -38.544 -54.193  16.780  1.00  0.00     0.041 C 
HETATM   25  O   UNL     1     -40.339 -55.759  16.189  1.00  0.00    -0.378 OA
HETATM   26  C   UNL     1     -41.417 -54.820  16.008  1.00  0.00     0.136 C 
HETATM   27  C   UNL     1     -41.486 -54.335  14.547  1.00  0.00     0.156 C 
HETATM   28  C   UNL     1     -42.719 -55.501  16.411  1.00  0.00     0.041 C 
ENDBRANCH   1  21
TORSDOF 5
ENDMDL
MODEL 6
REMARK VINA RESULT:      -5.9      3.747      5.253
REMARK  5 active torsions:
REMARK  status: ('A' for Active; 'I' for Inactive)
REMARK    1  A    between atoms: N_4  and  C_9 
REMARK    2  A    between atoms: C_12  and  N_13 
REMARK       I    between atoms: N_13  and  C_14 
REMARK       I    between atoms: C_14  and  N_16 
REMARK    3  A    between atoms: N_16  and  C_17 
REMARK    4  A    between atoms: C_17  and  C_18 
REMARK    5  A    between atoms: C_18  and  O_19 
ROOT
HETATM    1  C   UNL     1     -41.047 -49.421  11.898  1.00  0.00     0.103 A 
HETATM    2  C   UNL     1     -41.561 -48.629  12.917  1.00  0.00     0.051 A 
HETATM    3  C   UNL     1     -42.202 -47.426  12.635  1.00  0.00     0.035 A 
HETATM    4  C   UNL     1     -42.318 -46.979  11.329  1.00  0.00     0.051 A 
HETATM    5  C   UNL     1     -41.768 -47.808  10.362  1.00  0.00     0.119 A 
HETATM    6  N   UNL     1     -41.143 -48.994  10.618  1.00  0.00    -0.350 N 
ATOM      7  HN  UNL     1     -40.754 -49.550   9.856  1.00  0.00     0.166 HD
ENDROOT
BRANCH   4   8
HETATM    8  N   UNL     1     -42.966 -45.767  10.982  1.00  0.00    -0.308 N 
HETATM    9  C   UNL     1     -42.403 -44.519  11.123  1.00  0.00     0.320 C 
HETATM   10  O   UNL     1     -41.248 -44.284  11.464  1.00  0.00    -0.247 OA
HETATM   11  N   UNL     1     -43.274 -43.483  10.877  1.00  0.00    -0.340 N 
HETATM   12  H   UNL     1     -44.016 -43.616  10.200  1.00  0.00     0.164 HD
HETATM   13  H   UNL     1     -43.884 -45.822  10.564  1.00  0.00     0.170 HD
BRANCH  11  14
HETATM   14  C   UNL     1     -42.717 -42.147  10.997  1.00  0.00     0.162 C 
BRANCH  14  15
HETATM   15  C   UNL     1     -43.438 -41.388  12.100  1.00  0.00     0.074 C 
HETATM   16  C   UNL     1     -44.739 -40.710  11.580  1.00  0.00     0.040 C 
HETATM   17  C   UNL     1     -44.379 -39.484  12.433  1.00  0.00     0.006 C 
HETATM   18  C   UNL     1     -42.913 -39.957  12.401  1.00  0.00     0.040 C 
BRANCH  15  19
HETATM   19  O   UNL     1     -43.597 -42.237  13.266  1.00  0.00    -0.388 OA
HETATM   20  H   UNL     1     -43.264 -43.109  12.987  1.00  0.00     0.210 HD
ENDBRANCH  15  19
ENDBRANCH  14  15
ENDBRANCH  11  14
ENDBRANCH   4   8
BRANCH   1  21
HETATM   21  N   UNL     1     -40.393 -50.600  12.176  1.00  0.00    -0.362 N 
HETATM   22  C   UNL     1     -38.932 -50.631  12.305  1.00  0.00     0.156 C 
HETATM   23  C   UNL     1     -38.550 -51.585  13.463  1.00  0.00     0.136 C 
HETATM   24  C   UNL     1     -38.837 -50.962  14.830  1.00  0.00     0.041 C 
HETATM   25  O   UNL     1     -39.172 -52.886  13.343  1.00  0.00    -0.378 OA
HETATM   26  C   UNL     1     -40.602 -52.811  13.183  1.00  0.00     0.136 C 
HETATM   27  C   UNL     1     -40.975 -51.930  11.975  1.00  0.00     0.156 C 
HETATM   28  C   UNL     1     -41.139 -54.225  13.005  1.00  0.00     0.041 C 
ENDBRANCH   1  21
TORSDOF 5
ENDMDL
MODEL 7
REMARK VINA RESULT:      -5.8      4.947     10.062
REMARK  5 active torsions:
REMARK  status: ('A' for Active; 'I' for Inactive)
REMARK    1  A    between atoms: N_4  and  C_9 
REMARK    2  A    between atoms: C_12  and  N_13 
REMARK       I    between atoms: N_13  and  C_14 
REMARK       I    between atoms: C_14  and  N_16 
REMARK    3  A    between atoms: N_16  and  C_17 
REMARK    4  A    between atoms: C_17  and  C_18 
REMARK    5  A    between atoms: C_18  and  O_19 
ROOT
HETATM    1  C   UNL     1     -41.744 -54.175  14.829  1.00  0.00     0.103 A 
HETATM    2  C   UNL     1     -40.543 -54.054  14.140  1.00  0.00     0.051 A 
HETATM    3  C   UNL     1     -39.381 -54.656  14.615  1.00  0.00     0.035 A 
HETATM    4  C   UNL     1     -39.391 -55.369  15.802  1.00  0.00     0.051 A 
HETATM    5  C   UNL     1     -40.618 -55.436  16.450  1.00  0.00     0.119 A 
HETATM    6  N   UNL     1     -41.769 -54.859  15.996  1.00  0.00    -0.350 N 
ATOM      7  HN  UNL     1     -42.635 -54.943  16.528  1.00  0.00     0.166 HD
ENDROOT
BRANCH   4   8
HETATM    8  N   UNL     1     -38.242 -56.008  16.330  1.00  0.00    -0.308 N 
HETATM    9  C   UNL     1     -37.293 -55.381  17.105  1.00  0.00     0.320 C 
HETATM   10  O   UNL     1     -37.355 -54.231  17.530  1.00  0.00    -0.247 OA
HETATM   11  N   UNL     1     -36.185 -56.154  17.366  1.00  0.00    -0.340 N 
HETATM   12  H   UNL     1     -36.294 -57.158  17.437  1.00  0.00     0.164 HD
HETATM   13  H   UNL     1     -38.131 -56.999  16.165  1.00  0.00     0.170 HD
BRANCH  11  14
HETATM   14  C   UNL     1     -35.166 -55.537  18.196  1.00  0.00     0.162 C 
BRANCH  14  15
HETATM   15  C   UNL     1     -33.787 -55.951  17.707  1.00  0.00     0.074 C 
HETATM   16  C   UNL     1     -32.835 -56.298  18.889  1.00  0.00     0.040 C 
HETATM   17  C   UNL     1     -31.714 -55.567  18.133  1.00  0.00     0.006 C 
HETATM   18  C   UNL     1     -32.806 -54.795  17.367  1.00  0.00     0.040 C 
BRANCH  15  19
HETATM   19  O   UNL     1     -33.908 -56.970  16.681  1.00  0.00    -0.388 OA
HETATM   20  H   UNL     1     -33.953 -57.812  17.169  1.00  0.00     0.210 HD
ENDBRANCH  15  19
ENDBRANCH  14  15
ENDBRANCH  11  14
ENDBRANCH   4   8
BRANCH   1  21
HETATM   21  N   UNL     1     -42.889 -53.563  14.374  1.00  0.00    -0.362 N 
HETATM   22  C   UNL     1     -43.420 -53.867  13.041  1.00  0.00     0.156 C 
HETATM   23  C   UNL     1     -44.965 -53.930  13.117  1.00  0.00     0.136 C 
HETATM   24  C   UNL     1     -45.448 -55.211  13.798  1.00  0.00     0.041 C 
HETATM   25  O   UNL     1     -45.541 -52.759  13.742  1.00  0.00    -0.378 OA
HETATM   26  C   UNL     1     -44.969 -52.475  15.034  1.00  0.00     0.136 C 
HETATM   27  C   UNL     1     -43.438 -52.325  14.937  1.00  0.00     0.156 C 
HETATM   28  C   UNL     1     -45.602 -51.196  15.566  1.00  0.00     0.041 C 
ENDBRANCH   1  21
TORSDOF 5
ENDMDL
MODEL 8
REMARK VINA RESULT:      -5.7      3.823      9.504
REMARK  5 active torsions:
REMARK  status: ('A' for Active; 'I' for Inactive)
REMARK    1  A    between atoms: N_4  and  C_9 
REMARK    2  A    between atoms: C_12  and  N_13 
REMARK       I    between atoms: N_13  and  C_14 
REMARK       I    between atoms: C_14  and  N_16 
REMARK    3  A    between atoms: N_16  and  C_17 
REMARK    4  A    between atoms: C_17  and  C_18 
REMARK    5  A    between atoms: C_18  and  O_19 
ROOT
HETATM    1  C   UNL     1     -41.188 -45.386  11.986  1.00  0.00     0.103 A 
HETATM    2  C   UNL     1     -42.399 -45.849  11.487  1.00  0.00     0.051 A 
HETATM    3  C   UNL     1     -42.605 -47.205  11.252  1.00  0.00     0.035 A 
HETATM    4  C   UNL     1     -41.594 -48.123  11.485  1.00  0.00     0.051 A 
HETATM    5  C   UNL     1     -40.405 -47.592  11.965  1.00  0.00     0.119 A 
HETATM    6  N   UNL     1     -40.186 -46.267  12.210  1.00  0.00    -0.350 N 
ATOM      7  HN  UNL     1     -39.282 -45.946  12.556  1.00  0.00     0.166 HD
ENDROOT
BRANCH   4   8
HETATM    8  N   UNL     1     -41.749 -49.515  11.271  1.00  0.00    -0.308 N 
HETATM    9  C   UNL     1     -42.063 -50.421  12.258  1.00  0.00     0.320 C 
HETATM   10  O   UNL     1     -42.350 -50.150  13.420  1.00  0.00    -0.247 OA
HETATM   11  N   UNL     1     -42.000 -51.734  11.851  1.00  0.00    -0.340 N 
HETATM   12  H   UNL     1     -42.217 -51.959  10.887  1.00  0.00     0.164 HD
HETATM   13  H   UNL     1     -41.668 -49.862  10.325  1.00  0.00     0.170 HD
BRANCH  11  14
HETATM   14  C   UNL     1     -42.341 -52.724  12.856  1.00  0.00     0.162 C 
BRANCH  14  15
HETATM   15  C   UNL     1     -41.130 -53.596  13.149  1.00  0.00     0.074 C 
HETATM   16  C   UNL     1     -41.381 -54.547  14.356  1.00  0.00     0.040 C 
HETATM   17  C   UNL     1     -39.947 -54.249  14.821  1.00  0.00     0.006 C 
HETATM   18  C   UNL     1     -40.008 -52.944  14.003  1.00  0.00     0.040 C 
BRANCH  15  19
HETATM   19  O   UNL     1     -40.674 -54.239  11.930  1.00  0.00    -0.388 OA
HETATM   20  H   UNL     1     -41.230 -53.860  11.225  1.00  0.00     0.210 HD
ENDBRANCH  15  19
ENDBRANCH  14  15
ENDBRANCH  11  14
ENDBRANCH   4   8
BRANCH   1  21
HETATM   21  N   UNL     1     -40.973 -44.043  12.198  1.00  0.00    -0.362 N 
HETATM   22  C   UNL     1     -40.864 -43.116  11.067  1.00  0.00     0.156 C 
HETATM   23  C   UNL     1     -41.586 -41.794  11.428  1.00  0.00     0.136 C 
HETATM   24  C   UNL     1     -43.107 -41.949  11.385  1.00  0.00     0.041 C 
HETATM   25  O   UNL     1     -41.153 -41.251  12.697  1.00  0.00    -0.378 OA
HETATM   26  C   UNL     1     -41.244 -42.203  13.775  1.00  0.00     0.136 C 
HETATM   27  C   UNL     1     -40.450 -43.482  13.448  1.00  0.00     0.156 C 
HETATM   28  C   UNL     1     -40.708 -41.546  15.040  1.00  0.00     0.041 C 
ENDBRANCH   1  21
TORSDOF 5
ENDMDL
MODEL 9
REMARK VINA RESULT:      -5.6      4.085      8.966
REMARK  5 active torsions:
REMARK  status: ('A' for Active; 'I' for Inactive)
REMARK    1  A    between atoms: N_4  and  C_9 
REMARK    2  A    between atoms: C_12  and  N_13 
REMARK       I    between atoms: N_13  and  C_14 
REMARK       I    between atoms: C_14  and  N_16 
REMARK    3  A    between atoms: N_16  and  C_17 
REMARK    4  A    between atoms: C_17  and  C_18 
REMARK    5  A    between atoms: C_18  and  O_19 
ROOT
HETATM    1  C   UNL     1     -41.240 -46.017  12.190  1.00  0.00     0.103 A 
HETATM    2  C   UNL     1     -40.311 -47.026  12.415  1.00  0.00     0.051 A 
HETATM    3  C   UNL     1     -40.657 -48.365  12.257  1.00  0.00     0.035 A 
HETATM    4  C   UNL     1     -41.946 -48.723  11.898  1.00  0.00     0.051 A 
HETATM    5  C   UNL     1     -42.828 -47.668  11.706  1.00  0.00     0.119 A 
HETATM    6  N   UNL     1     -42.506 -46.349  11.848  1.00  0.00    -0.350 N 
ATOM      7  HN  UNL     1     -43.208 -45.625  11.697  1.00  0.00     0.166 HD
ENDROOT
BRANCH   4   8
HETATM    8  N   UNL     1     -42.353 -50.069  11.716  1.00  0.00    -0.308 N 
HETATM    9  C   UNL     1     -42.666 -50.928  12.744  1.00  0.00     0.320 C 
HETATM   10  O   UNL     1     -42.739 -50.634  13.933  1.00  0.00    -0.247 OA
HETATM   11  N   UNL     1     -42.874 -52.228  12.341  1.00  0.00    -0.340 N 
HETATM   12  H   UNL     1     -43.258 -52.399  11.419  1.00  0.00     0.164 HD
HETATM   13  H   UNL     1     -42.462 -50.409  10.771  1.00  0.00     0.170 HD
BRANCH  11  14
HETATM   14  C   UNL     1     -43.226 -53.166  13.391  1.00  0.00     0.162 C 
BRANCH  14  15
HETATM   15  C   UNL     1     -44.708 -53.497  13.308  1.00  0.00     0.074 C 
HETATM   16  C   UNL     1     -45.476 -53.030  14.579  1.00  0.00     0.040 C 
HETATM   17  C   UNL     1     -46.267 -54.345  14.521  1.00  0.00     0.006 C 
HETATM   18  C   UNL     1     -45.109 -54.946  13.701  1.00  0.00     0.040 C 
BRANCH  15  19
HETATM   19  O   UNL     1     -45.250 -53.037  12.043  1.00  0.00    -0.388 OA
HETATM   20  H   UNL     1     -45.102 -53.775  11.425  1.00  0.00     0.210 HD
ENDBRANCH  15  19
ENDBRANCH  14  15
ENDBRANCH  11  14
ENDBRANCH   4   8
BRANCH   1  21
HETATM   21  N   UNL     1     -40.907 -44.693  12.366  1.00  0.00    -0.362 N 
HETATM   22  C   UNL     1     -40.529 -43.859  11.221  1.00  0.00     0.156 C 
HETATM   23  C   UNL     1     -41.141 -42.447  11.404  1.00  0.00     0.136 C 
HETATM   24  C   UNL     1     -42.647 -42.443  11.140  1.00  0.00     0.041 C 
HETATM   25  O   UNL     1     -40.837 -41.871  12.695  1.00  0.00    -0.378 OA
HETATM   26  C   UNL     1     -41.191 -42.736  13.792  1.00  0.00     0.136 C 
HETATM   27  C   UNL     1     -40.509 -44.111  13.651  1.00  0.00     0.156 C 
HETATM   28  C   UNL     1     -40.773 -42.058  15.091  1.00  0.00     0.041 C 
ENDBRANCH   1  21
TORSDOF 5
ENDMDL
