MODEL 1
REMARK VINA RESULT:      -5.8      0.000      0.000
REMARK  7 active torsions:
REMARK  status: ('A' for Active; 'I' for Inactive)
REMARK    1  A    between atoms: C_2  and  C_3 
REMARK    2  A    between atoms: C_3  and  N_5 
REMARK       I    between atoms: N_5  and  C_6 
REMARK    3  A    between atoms: C_6  and  C_8 
REMARK    4  A    between atoms: C_8  and  N_9 
REMARK    5  A    between atoms: C_12  and  C_13 
REMARK    6  A    between atoms: C_13  and  N_14 
REMARK    7  A    between atoms: N_18  and  C_19 
ROOT
HETATM    1  N   UNL     1     -41.714 -49.136  12.646  1.00  0.00    -0.256 N 
HETATM    2  C   UNL     1     -42.313 -50.373  12.827  1.00  0.00     0.273 C 
HETATM    3  O   UNL     1     -43.532 -50.535  12.814  1.00  0.00    -0.266 OA
HETATM    4  C   UNL     1     -41.401 -51.522  13.051  1.00  0.00     0.110 C 
HETATM    5  C   UNL     1     -40.083 -51.318  12.955  1.00  0.00     0.123 C 
HETATM    6  N   UNL     1     -39.550 -50.067  12.731  1.00  0.00    -0.303 N 
HETATM    7  C   UNL     1     -40.342 -48.912  12.682  1.00  0.00     0.332 C 
HETATM    8  O   UNL     1     -39.854 -47.782  12.701  1.00  0.00    -0.246 OA
ENDROOT
BRANCH   1   9
HETATM    9  C   UNL     1     -42.572 -47.977  12.431  1.00  0.00     0.239 C 
BRANCH   9  10
HETATM   10  C   UNL     1     -42.879 -47.833  10.938  1.00  0.00     0.236 C 
HETATM   11  N   UNL     1     -44.146 -47.360  10.663  1.00  0.00    -0.355 N 
HETATM   12  H   UNL     1     -44.780 -47.177  11.431  1.00  0.00     0.162 HD
HETATM   13  O   UNL     1     -42.092 -48.180  10.062  1.00  0.00    -0.272 OA
BRANCH  11  14
HETATM   14  C   UNL     1     -44.613 -47.088   9.308  1.00  0.00     0.080 C 
HETATM   15  C   UNL     1     -44.217 -45.667   8.904  1.00  0.00     0.032 C 
BRANCH  14  16
HETATM   16  C   UNL     1     -46.134 -47.264   9.204  1.00  0.00     0.020 C 
HETATM   17  C   UNL     1     -46.531 -48.557   8.504  1.00  0.00     0.007 C 
ENDBRANCH  14  16
ENDBRANCH  11  14
ENDBRANCH   9  10
ENDBRANCH   1   9
BRANCH   4  18
HETATM   18  C   UNL     1     -41.962 -52.900  13.365  1.00  0.00    -0.030 C 
BRANCH  18  19
HETATM   19  N   UNL     1     -42.426 -54.044  13.623  1.00  0.00    -0.365 N 
ATOM     20  HN2 UNL     1     -42.083 -53.121  13.357  1.00  0.00     0.165 HD
ATOM     21  HN1 UNL     1     -42.801 -54.968  13.834  1.00  0.00     0.165 HD
ENDBRANCH  18  19
ENDBRANCH   4  18
BRANCH   6  22
HETATM   22  C   UNL     1     -38.114 -49.908  12.653  1.00  0.00     0.094 A 
HETATM   23  C   UNL     1     -37.461 -50.000  11.289  1.00  0.00     0.028 A 
HETATM   24  C   UNL     1     -37.131 -51.008  12.343  1.00  0.00     0.028 A 
ENDBRANCH   6  22
TORSDOF 7
ENDMDL
MODEL 2
REMARK VINA RESULT:      -5.7      4.646      6.702
REMARK  7 active torsions:
REMARK  status: ('A' for Active; 'I' for Inactive)
REMARK    1  A    between atoms: C_2  and  C_3 
REMARK    2  A    between atoms: C_3  and  N_5 
REMARK       I    between atoms: N_5  and  C_6 
REMARK    3  A    between atoms: C_6  and  C_8 
REMARK    4  A    between atoms: C_8  and  N_9 
REMARK    5  A    between atoms: C_12  and  C_13 
REMARK    6  A    between atoms: C_13  and  N_14 
REMARK    7  A    between atoms: N_18  and  C_19 
ROOT
HETATM    1  N   UNL     1     -43.570 -54.388  14.217  1.00  0.00    -0.256 N 
HETATM    2  C   UNL     1     -43.226 -53.433  13.273  1.00  0.00     0.273 C 
HETATM    3  O   UNL     1     -44.054 -52.860  12.569  1.00  0.00    -0.266 OA
HETATM    4  C   UNL     1     -41.780 -53.127  13.139  1.00  0.00     0.110 C 
HETATM    5  C   UNL     1     -40.926 -53.698  13.996  1.00  0.00     0.123 C 
HETATM    6  N   UNL     1     -41.338 -54.612  14.941  1.00  0.00    -0.303 N 
HETATM    7  C   UNL     1     -42.658 -55.076  15.011  1.00  0.00     0.332 C 
HETATM    8  O   UNL     1     -42.977 -56.043  15.703  1.00  0.00    -0.246 OA
ENDROOT
BRANCH   1   9
HETATM    9  C   UNL     1     -44.979 -54.727  14.377  1.00  0.00     0.239 C 
BRANCH   9  10
HETATM   10  C   UNL     1     -45.551 -53.989  15.590  1.00  0.00     0.236 C 
HETATM   11  N   UNL     1     -45.517 -52.613  15.485  1.00  0.00    -0.355 N 
HETATM   12  H   UNL     1     -45.102 -52.193  14.663  1.00  0.00     0.162 HD
HETATM   13  O   UNL     1     -45.937 -54.572  16.600  1.00  0.00    -0.272 OA
BRANCH  11  14
HETATM   14  C   UNL     1     -46.073 -51.728  16.502  1.00  0.00     0.080 C 
HETATM   15  C   UNL     1     -47.533 -51.415  16.168  1.00  0.00     0.032 C 
BRANCH  14  16
HETATM   16  C   UNL     1     -45.263 -50.429  16.604  1.00  0.00     0.020 C 
HETATM   17  C   UNL     1     -44.125 -50.362  15.595  1.00  0.00     0.007 C 
ENDBRANCH  14  16
ENDBRANCH  11  14
ENDBRANCH   9  10
ENDBRANCH   1   9
BRANCH   4  18
HETATM   18  C   UNL     1     -41.292 -52.172  12.062  1.00  0.00    -0.030 C 
BRANCH  18  19
HETATM   19  N   UNL     1     -40.888 -51.381  11.167  1.00  0.00    -0.365 N 
ATOM     20  HN2 UNL     1     -41.164 -52.061  11.876  1.00  0.00     0.165 HD
ATOM     21  HN1 UNL     1     -40.562 -50.740  10.444  1.00  0.00     0.165 HD
ENDBRANCH  18  19
ENDBRANCH   4  18
BRANCH   6  22
HETATM   22  C   UNL     1     -40.363 -55.206  15.830  1.00  0.00     0.094 A 
HETATM   23  C   UNL     1     -39.832 -54.364  16.972  1.00  0.00     0.028 A 
HETATM   24  C   UNL     1     -38.903 -54.832  15.898  1.00  0.00     0.028 A 
ENDBRANCH   6  22
TORSDOF 7
ENDMDL
MODEL 3
REMARK VINA RESULT:      -5.6      2.233      4.391
REMARK  7 active torsions:
REMARK  status: ('A' for Active; 'I' for Inactive)
REMARK    1  A    between atoms: C_2  and  C_3 
REMARK    2  A    between atoms: C_3  and  N_5 
REMARK       I    between atoms: N_5  and  C_6 
REMARK    3  A    between atoms: C_6  and  C_8 
REMARK    4  A    between atoms: C_8  and  N_9 
REMARK    5  A    between atoms: C_12  and  C_13 
REMARK    6  A    between atoms: C_13  and  N_14 
REMARK    7  A    between atoms: N_18  and  C_19 
ROOT
HETATM    1  N   UNL     1     -42.283 -51.157  13.455  1.00  0.00    -0.256 N 
HETATM    2  C   UNL     1     -41.113 -51.885  13.597  1.00  0.00     0.273 C 
HETATM    3  O   UNL     1     -40.010 -51.361  13.732  1.00  0.00    -0.266 OA
HETATM    4  C   UNL     1     -41.248 -53.364  13.573  1.00  0.00     0.110 C 
HETATM    5  C   UNL     1     -42.477 -53.890  13.529  1.00  0.00     0.123 C 
HETATM    6  N   UNL     1     -43.606 -53.107  13.429  1.00  0.00    -0.303 N 
HETATM    7  C   UNL     1     -43.544 -51.717  13.273  1.00  0.00     0.332 C 
HETATM    8  O   UNL     1     -44.530 -51.046  12.968  1.00  0.00    -0.246 OA
ENDROOT
BRANCH   1   9
HETATM    9  C   UNL     1     -42.197 -49.702  13.464  1.00  0.00     0.239 C 
BRANCH   9  10
HETATM   10  C   UNL     1     -42.106 -49.182  12.027  1.00  0.00     0.236 C 
HETATM   11  N   UNL     1     -43.188 -48.423  11.630  1.00  0.00    -0.355 N 
HETATM   12  H   UNL     1     -43.958 -48.290  12.272  1.00  0.00     0.162 HD
HETATM   13  O   UNL     1     -41.185 -49.478  11.272  1.00  0.00    -0.272 OA
BRANCH  11  14
HETATM   14  C   UNL     1     -43.266 -47.780  10.323  1.00  0.00     0.080 C 
HETATM   15  C   UNL     1     -42.484 -46.465  10.350  1.00  0.00     0.032 C 
BRANCH  14  16
HETATM   16  C   UNL     1     -44.724 -47.521   9.922  1.00  0.00     0.020 C 
HETATM   17  C   UNL     1     -44.989 -47.794   8.448  1.00  0.00     0.007 C 
ENDBRANCH  14  16
ENDBRANCH  11  14
ENDBRANCH   9  10
ENDBRANCH   1   9
BRANCH   4  18
HETATM   18  C   UNL     1     -40.014 -54.250  13.617  1.00  0.00    -0.030 C 
BRANCH  18  19
HETATM   19  N   UNL     1     -38.990 -54.985  13.651  1.00  0.00    -0.365 N 
ATOM     20  HN2 UNL     1     -39.790 -54.358  13.573  1.00  0.00     0.165 HD
ATOM     21  HN1 UNL     1     -38.163 -55.580  13.679  1.00  0.00     0.165 HD
ENDBRANCH  18  19
ENDBRANCH   4  18
BRANCH   6  22
HETATM   22  C   UNL     1     -44.907 -53.738  13.370  1.00  0.00     0.094 A 
HETATM   23  C   UNL     1     -45.639 -53.987  14.673  1.00  0.00     0.028 A 
HETATM   24  C   UNL     1     -45.216 -55.143  13.823  1.00  0.00     0.028 A 
ENDBRANCH   6  22
TORSDOF 7
ENDMDL
MODEL 4
REMARK VINA RESULT:      -5.6      2.695      5.377
REMARK  7 active torsions:
REMARK  status: ('A' for Active; 'I' for Inactive)
REMARK    1  A    between atoms: C_2  and  C_3 
REMARK    2  A    between atoms: C_3  and  N_5 
REMARK       I    between atoms: N_5  and  C_6 
REMARK    3  A    between atoms: C_6  and  C_8 
REMARK    4  A    between atoms: C_8  and  N_9 
REMARK    5  A    between atoms: C_12  and  C_13 
REMARK    6  A    between atoms: C_13  and  N_14 
REMARK    7  A    between atoms: N_18  and  C_19 
ROOT
HETATM    1  N   UNL     1     -41.656 -50.770  13.127  1.00  0.00    -0.256 N 
HETATM    2  C   UNL     1     -40.415 -50.967  12.543  1.00  0.00     0.273 C 
HETATM    3  O   UNL     1     -39.758 -51.995  12.696  1.00  0.00    -0.266 OA
HETATM    4  C   UNL     1     -39.894 -49.856  11.708  1.00  0.00     0.110 C 
HETATM    5  C   UNL     1     -40.685 -48.802  11.484  1.00  0.00     0.123 C 
HETATM    6  N   UNL     1     -41.930 -48.684  12.065  1.00  0.00    -0.303 N 
HETATM    7  C   UNL     1     -42.413 -49.610  12.997  1.00  0.00     0.332 C 
HETATM    8  O   UNL     1     -43.420 -49.396  13.673  1.00  0.00    -0.246 OA
ENDROOT
BRANCH   1   9
HETATM    9  C   UNL     1     -42.203 -51.832  13.963  1.00  0.00     0.239 C 
BRANCH   9  10
HETATM   10  C   UNL     1     -43.450 -52.421  13.297  1.00  0.00     0.236 C 
HETATM   11  N   UNL     1     -44.616 -52.236  14.012  1.00  0.00    -0.355 N 
HETATM   12  H   UNL     1     -44.573 -51.771  14.910  1.00  0.00     0.162 HD
HETATM   13  O   UNL     1     -43.402 -53.069  12.255  1.00  0.00    -0.272 OA
BRANCH  11  14
HETATM   14  C   UNL     1     -45.921 -52.662  13.521  1.00  0.00     0.080 C 
HETATM   15  C   UNL     1     -46.501 -51.587  12.600  1.00  0.00     0.032 C 
BRANCH  14  16
HETATM   16  C   UNL     1     -46.884 -52.938  14.685  1.00  0.00     0.020 C 
HETATM   17  C   UNL     1     -47.147 -51.704  15.537  1.00  0.00     0.007 C 
ENDBRANCH  14  16
ENDBRANCH  11  14
ENDBRANCH   9  10
ENDBRANCH   1   9
BRANCH   4  18
HETATM   18  C   UNL     1     -38.498 -49.932  11.110  1.00  0.00    -0.030 C 
BRANCH  18  19
HETATM   19  N   UNL     1     -37.341 -49.993  10.613  1.00  0.00    -0.365 N 
ATOM     20  HN2 UNL     1     -38.289 -50.002  10.987  1.00  0.00     0.165 HD
ATOM     21  HN1 UNL     1     -36.404 -50.041  10.213  1.00  0.00     0.165 HD
ENDBRANCH  18  19
ENDBRANCH   4  18
BRANCH   6  22
HETATM   22  C   UNL     1     -42.733 -47.511  11.796  1.00  0.00     0.094 A 
HETATM   23  C   UNL     1     -43.668 -47.545  10.604  1.00  0.00     0.028 A 
HETATM   24  C   UNL     1     -42.537 -46.567  10.636  1.00  0.00     0.028 A 
ENDBRANCH   6  22
TORSDOF 7
ENDMDL
MODEL 5
REMARK VINA RESULT:      -5.6      4.665      8.183
REMARK  7 active torsions:
REMARK  status: ('A' for Active; 'I' for Inactive)
REMARK    1  A    between atoms: C_2  and  C_3 
REMARK    2  A    between atoms: C_3  and  N_5 
REMARK       I    between atoms: N_5  and  C_6 
REMARK    3  A    between atoms: C_6  and  C_8 
REMARK    4  A    between atoms: C_8  and  N_9 
REMARK    5  A    between atoms: C_12  and  C_13 
REMARK    6  A    between atoms: C_13  and  N_14 
REMARK    7  A    between atoms: N_18  and  C_19 
ROOT
HETATM    1  N   UNL     1     -45.030 -53.539  14.861  1.00  0.00    -0.256 N 
HETATM    2  C   UNL     1     -45.486 -53.269  13.580  1.00  0.00     0.273 C 
HETATM    3  O   UNL     1     -45.169 -53.941  12.601  1.00  0.00    -0.266 OA
HETATM    4  C   UNL     1     -46.391 -52.102  13.433  1.00  0.00     0.110 C 
HETATM    5  C   UNL     1     -46.791 -51.463  14.538  1.00  0.00     0.123 C 
HETATM    6  N   UNL     1     -46.330 -51.807  15.790  1.00  0.00    -0.303 N 
HETATM    7  C   UNL     1     -45.346 -52.784  15.985  1.00  0.00     0.332 C 
HETATM    8  O   UNL     1     -44.781 -52.938  17.069  1.00  0.00    -0.246 OA
ENDROOT
BRANCH   1   9
HETATM    9  C   UNL     1     -44.133 -54.672  15.051  1.00  0.00     0.239 C 
BRANCH   9  10
HETATM   10  C   UNL     1     -42.682 -54.184  15.062  1.00  0.00     0.236 C 
HETATM   11  N   UNL     1     -42.173 -53.890  13.812  1.00  0.00    -0.355 N 
HETATM   12  H   UNL     1     -42.754 -54.040  12.997  1.00  0.00     0.162 HD
HETATM   13  O   UNL     1     -42.007 -54.132  16.086  1.00  0.00    -0.272 OA
BRANCH  11  14
HETATM   14  C   UNL     1     -40.834 -53.348  13.611  1.00  0.00     0.080 C 
HETATM   15  C   UNL     1     -40.792 -52.554  12.304  1.00  0.00     0.032 C 
BRANCH  14  16
HETATM   16  C   UNL     1     -39.785 -54.468  13.583  1.00  0.00     0.020 C 
HETATM   17  C   UNL     1     -38.871 -54.451  14.801  1.00  0.00     0.007 C 
ENDBRANCH  14  16
ENDBRANCH  11  14
ENDBRANCH   9  10
ENDBRANCH   1   9
BRANCH   4  18
HETATM   18  C   UNL     1     -46.861 -51.660  12.056  1.00  0.00    -0.030 C 
BRANCH  18  19
HETATM   19  N   UNL     1     -47.250 -51.294  10.914  1.00  0.00    -0.365 N 
ATOM     20  HN2 UNL     1     -46.988 -51.559  11.863  1.00  0.00     0.165 HD
ATOM     21  HN1 UNL     1     -47.563 -50.998   9.990  1.00  0.00     0.165 HD
ENDBRANCH  18  19
ENDBRANCH   4  18
BRANCH   6  22
HETATM   22  C   UNL     1     -46.789 -51.067  16.946  1.00  0.00     0.094 A 
HETATM   23  C   UNL     1     -47.695 -51.775  17.933  1.00  0.00     0.028 A 
HETATM   24  C   UNL     1     -48.202 -50.592  17.172  1.00  0.00     0.028 A 
ENDBRANCH   6  22
TORSDOF 7
ENDMDL
MODEL 6
REMARK VINA RESULT:      -5.6      5.240      8.846
REMARK  7 active torsions:
REMARK  status: ('A' for Active; 'I' for Inactive)
REMARK    1  A    between atoms: C_2  and  C_3 
REMARK    2  A    between atoms: C_3  and  N_5 
REMARK       I    between atoms: N_5  and  C_6 
REMARK    3  A    between atoms: C_6  and  C_8 
REMARK    4  A    between atoms: C_8  and  N_9 
REMARK    5  A    between atoms: C_12  and  C_13 
REMARK    6  A    between atoms: C_13  and  N_14 
REMARK    7  A    between atoms: N_18  and  C_19 
ROOT
HETATM    1  N   UNL     1     -44.119 -52.799  14.351  1.00  0.00    -0.256 N 
HETATM    2  C   UNL     1     -44.813 -52.731  13.153  1.00  0.00     0.273 C 
HETATM    3  O   UNL     1     -44.412 -53.256  12.117  1.00  0.00    -0.266 OA
HETATM    4  C   UNL     1     -46.088 -51.972  13.171  1.00  0.00     0.110 C 
HETATM    5  C   UNL     1     -46.536 -51.506  14.342  1.00  0.00     0.123 C 
HETATM    6  N   UNL     1     -45.815 -51.643  15.508  1.00  0.00    -0.303 N 
HETATM    7  C   UNL     1     -44.528 -52.194  15.535  1.00  0.00     0.332 C 
HETATM    8  O   UNL     1     -43.803 -52.119  16.527  1.00  0.00    -0.246 OA
ENDROOT
BRANCH   1   9
HETATM    9  C   UNL     1     -42.856 -53.527  14.378  1.00  0.00     0.239 C 
BRANCH   9  10
HETATM   10  C   UNL     1     -43.032 -54.836  15.153  1.00  0.00     0.236 C 
HETATM   11  N   UNL     1     -42.130 -55.010  16.184  1.00  0.00    -0.355 N 
HETATM   12  H   UNL     1     -41.417 -54.308  16.337  1.00  0.00     0.162 HD
HETATM   13  O   UNL     1     -43.855 -55.690  14.835  1.00  0.00    -0.272 OA
BRANCH  11  14
HETATM   14  C   UNL     1     -42.169 -56.156  17.084  1.00  0.00     0.080 C 
HETATM   15  C   UNL     1     -42.490 -55.685  18.503  1.00  0.00     0.032 C 
BRANCH  14  16
HETATM   16  C   UNL     1     -40.835 -56.915  17.067  1.00  0.00     0.020 C 
HETATM   17  C   UNL     1     -39.672 -56.054  16.593  1.00  0.00     0.007 C 
ENDBRANCH  14  16
ENDBRANCH  11  14
ENDBRANCH   9  10
ENDBRANCH   1   9
BRANCH   4  18
HETATM   18  C   UNL     1     -46.870 -51.751  11.886  1.00  0.00    -0.030 C 
BRANCH  18  19
HETATM   19  N   UNL     1     -47.520 -51.567  10.821  1.00  0.00    -0.365 N 
ATOM     20  HN2 UNL     1     -47.011 -51.654  11.701  1.00  0.00     0.165 HD
ATOM     21  HN1 UNL     1     -48.046 -51.420   9.960  1.00  0.00     0.165 HD
ENDBRANCH  18  19
ENDBRANCH   4  18
BRANCH   6  22
HETATM   22  C   UNL     1     -46.347 -51.103  16.742  1.00  0.00     0.094 A 
HETATM   23  C   UNL     1     -47.105 -52.039  17.661  1.00  0.00     0.028 A 
HETATM   24  C   UNL     1     -47.808 -50.876  17.035  1.00  0.00     0.028 A 
ENDBRANCH   6  22
TORSDOF 7
ENDMDL
MODEL 7
REMARK VINA RESULT:      -5.5      2.970      5.836
REMARK  7 active torsions:
REMARK  status: ('A' for Active; 'I' for Inactive)
REMARK    1  A    between atoms: C_2  and  C_3 
REMARK    2  A    between atoms: C_3  and  N_5 
REMARK       I    between atoms: N_5  and  C_6 
REMARK    3  A    between atoms: C_6  and  C_8 
REMARK    4  A    between atoms: C_8  and  N_9 
REMARK    5  A    between atoms: C_12  and  C_13 
REMARK    6  A    between atoms: C_13  and  N_14 
REMARK    7  A    between atoms: N_18  and  C_19 
ROOT
HETATM    1  N   UNL     1     -42.093 -53.625  13.176  1.00  0.00    -0.256 N 
HETATM    2  C   UNL     1     -41.568 -54.328  14.249  1.00  0.00     0.273 C 
HETATM    3  O   UNL     1     -40.361 -54.470  14.431  1.00  0.00    -0.266 OA
HETATM    4  C   UNL     1     -42.549 -54.925  15.190  1.00  0.00     0.110 C 
HETATM    5  C   UNL     1     -43.847 -54.659  15.011  1.00  0.00     0.123 C 
HETATM    6  N   UNL     1     -44.302 -53.917  13.943  1.00  0.00    -0.303 N 
HETATM    7  C   UNL     1     -43.452 -53.469  12.924  1.00  0.00     0.332 C 
HETATM    8  O   UNL     1     -43.882 -53.000  11.870  1.00  0.00    -0.246 OA
ENDROOT
BRANCH   1   9
HETATM    9  C   UNL     1     -41.167 -53.029  12.221  1.00  0.00     0.239 C 
BRANCH   9  10
HETATM   10  C   UNL     1     -40.983 -51.543  12.540  1.00  0.00     0.236 C 
HETATM   11  N   UNL     1     -41.741 -50.697  11.755  1.00  0.00    -0.355 N 
HETATM   12  H   UNL     1     -42.322 -51.091  11.026  1.00  0.00     0.162 HD
HETATM   13  O   UNL     1     -40.174 -51.137  13.370  1.00  0.00    -0.272 OA
BRANCH  11  14
HETATM   14  C   UNL     1     -41.762 -49.251  11.942  1.00  0.00     0.080 C 
HETATM   15  C   UNL     1     -43.158 -48.810  12.385  1.00  0.00     0.032 C 
BRANCH  14  16
HETATM   16  C   UNL     1     -41.360 -48.523  10.652  1.00  0.00     0.020 C 
HETATM   17  C   UNL     1     -42.533 -47.819   9.983  1.00  0.00     0.007 C 
ENDBRANCH  14  16
ENDBRANCH  11  14
ENDBRANCH   9  10
ENDBRANCH   1   9
BRANCH   4  18
HETATM   18  C   UNL     1     -42.078 -55.802  16.339  1.00  0.00    -0.030 C 
BRANCH  18  19
HETATM   19  N   UNL     1     -41.688 -56.528  17.293  1.00  0.00    -0.365 N 
ATOM     20  HN2 UNL     1     -42.062 -55.972  16.525  1.00  0.00     0.165 HD
ATOM     21  HN1 UNL     1     -41.372 -57.115  18.065  1.00  0.00     0.165 HD
ENDBRANCH  18  19
ENDBRANCH   4  18
BRANCH   6  22
HETATM   22  C   UNL     1     -45.722 -53.677  13.795  1.00  0.00     0.094 A 
HETATM   23  C   UNL     1     -46.296 -52.409  14.395  1.00  0.00     0.028 A 
HETATM   24  C   UNL     1     -46.737 -53.743  14.908  1.00  0.00     0.028 A 
ENDBRANCH   6  22
TORSDOF 7
ENDMDL
MODEL 8
REMARK VINA RESULT:      -5.4      3.020      5.073
REMARK  7 active torsions:
REMARK  status: ('A' for Active; 'I' for Inactive)
REMARK    1  A    between atoms: C_2  and  C_3 
REMARK    2  A    between atoms: C_3  and  N_5 
REMARK       I    between atoms: N_5  and  C_6 
REMARK    3  A    between atoms: C_6  and  C_8 
REMARK    4  A    between atoms: C_8  and  N_9 
REMARK    5  A    between atoms: C_12  and  C_13 
REMARK    6  A    between atoms: C_13  and  N_14 
REMARK    7  A    between atoms: N_18  and  C_19 
ROOT
HETATM    1  N   UNL     1     -40.348 -50.808  12.440  1.00  0.00    -0.256 N 
HETATM    2  C   UNL     1     -39.209 -51.012  13.203  1.00  0.00     0.273 C 
HETATM    3  O   UNL     1     -38.748 -52.128  13.434  1.00  0.00    -0.266 OA
HETATM    4  C   UNL     1     -38.554 -49.797  13.751  1.00  0.00     0.110 C 
HETATM    5  C   UNL     1     -39.029 -48.600  13.390  1.00  0.00     0.123 C 
HETATM    6  N   UNL     1     -40.145 -48.465  12.593  1.00  0.00    -0.303 N 
HETATM    7  C   UNL     1     -40.912 -49.563  12.183  1.00  0.00     0.332 C 
HETATM    8  O   UNL     1     -42.019 -49.431  11.660  1.00  0.00    -0.246 OA
ENDROOT
BRANCH   1   9
HETATM    9  C   UNL     1     -41.028 -51.973  11.889  1.00  0.00     0.239 C 
BRANCH   9  10
HETATM   10  C   UNL     1     -42.106 -52.451  12.866  1.00  0.00     0.236 C 
HETATM   11  N   UNL     1     -43.386 -52.056  12.535  1.00  0.00    -0.355 N 
HETATM   12  H   UNL     1     -43.526 -51.473  11.720  1.00  0.00     0.162 HD
HETATM   13  O   UNL     1     -41.842 -53.066  13.895  1.00  0.00    -0.272 OA
BRANCH  11  14
HETATM   14  C   UNL     1     -44.561 -52.462  13.298  1.00  0.00     0.080 C 
HETATM   15  C   UNL     1     -44.993 -53.866  12.869  1.00  0.00     0.032 C 
BRANCH  14  16
HETATM   16  C   UNL     1     -45.716 -51.470  13.100  1.00  0.00     0.020 C 
HETATM   17  C   UNL     1     -46.681 -51.446  14.278  1.00  0.00     0.007 C 
ENDBRANCH  14  16
ENDBRANCH  11  14
ENDBRANCH   9  10
ENDBRANCH   1   9
BRANCH   4  18
HETATM   18  C   UNL     1     -37.361 -49.920  14.686  1.00  0.00    -0.030 C 
BRANCH  18  19
HETATM   19  N   UNL     1     -36.372 -50.021  15.460  1.00  0.00    -0.365 N 
ATOM     20  HN2 UNL     1     -37.152 -49.995  14.804  1.00  0.00     0.165 HD
ATOM     21  HN1 UNL     1     -35.572 -50.101  16.088  1.00  0.00     0.165 HD
ENDBRANCH  18  19
ENDBRANCH   4  18
BRANCH   6  22
HETATM   22  C   UNL     1     -40.619 -47.141  12.249  1.00  0.00     0.094 A 
HETATM   23  C   UNL     1     -40.025 -46.466  11.029  1.00  0.00     0.028 A 
HETATM   24  C   UNL     1     -39.822 -45.868  12.385  1.00  0.00     0.028 A 
ENDBRANCH   6  22
TORSDOF 7
ENDMDL
MODEL 9
REMARK VINA RESULT:      -5.4      3.454      5.633
REMARK  7 active torsions:
REMARK  status: ('A' for Active; 'I' for Inactive)
REMARK    1  A    between atoms: C_2  and  C_3 
REMARK    2  A    between atoms: C_3  and  N_5 
REMARK       I    between atoms: N_5  and  C_6 
REMARK    3  A    between atoms: C_6  and  C_8 
REMARK    4  A    between atoms: C_8  and  N_9 
REMARK    5  A    between atoms: C_12  and  C_13 
REMARK    6  A    between atoms: C_13  and  N_14 
REMARK    7  A    between atoms: N_18  and  C_19 
ROOT
HETATM    1  N   UNL     1     -40.489 -52.847  13.404  1.00  0.00    -0.256 N 
HETATM    2  C   UNL     1     -40.971 -51.987  12.430  1.00  0.00     0.273 C 
HETATM    3  O   UNL     1     -41.904 -52.277  11.683  1.00  0.00    -0.266 OA
HETATM    4  C   UNL     1     -40.294 -50.671  12.316  1.00  0.00     0.110 C 
HETATM    5  C   UNL     1     -39.354 -50.358  13.214  1.00  0.00     0.123 C 
HETATM    6  N   UNL     1     -38.947 -51.245  14.187  1.00  0.00    -0.303 N 
HETATM    7  C   UNL     1     -39.419 -52.563  14.246  1.00  0.00     0.332 C 
HETATM    8  O   UNL     1     -38.900 -53.413  14.971  1.00  0.00    -0.246 OA
ENDROOT
BRANCH   1   9
HETATM    9  C   UNL     1     -41.119 -54.154  13.546  1.00  0.00     0.239 C 
BRANCH   9  10
HETATM   10  C   UNL     1     -42.455 -54.005  14.278  1.00  0.00     0.236 C 
HETATM   11  N   UNL     1     -43.559 -54.018  13.449  1.00  0.00    -0.355 N 
HETATM   12  H   UNL     1     -43.422 -54.089  12.449  1.00  0.00     0.162 HD
HETATM   13  O   UNL     1     -42.531 -53.815  15.488  1.00  0.00    -0.272 OA
BRANCH  11  14
HETATM   14  C   UNL     1     -44.927 -53.957  13.953  1.00  0.00     0.080 C 
HETATM   15  C   UNL     1     -45.586 -55.331  13.818  1.00  0.00     0.032 C 
BRANCH  14  16
HETATM   16  C   UNL     1     -45.745 -52.901  13.197  1.00  0.00     0.020 C 
HETATM   17  C   UNL     1     -45.278 -51.479  13.481  1.00  0.00     0.007 C 
ENDBRANCH  14  16
ENDBRANCH  11  14
ENDBRANCH   9  10
ENDBRANCH   1   9
BRANCH   4  18
HETATM   18  C   UNL     1     -40.679 -49.700  11.211  1.00  0.00    -0.030 C 
BRANCH  18  19
HETATM   19  N   UNL     1     -40.999 -48.894  10.296  1.00  0.00    -0.365 N 
ATOM     20  HN2 UNL     1     -40.710 -49.583  10.990  1.00  0.00     0.165 HD
ATOM     21  HN1 UNL     1     -41.257 -48.241   9.556  1.00  0.00     0.165 HD
ENDBRANCH  18  19
ENDBRANCH   4  18
BRANCH   6  22
HETATM   22  C   UNL     1     -37.914 -50.853  15.121  1.00  0.00     0.094 A 
HETATM   23  C   UNL     1     -38.324 -50.060  16.345  1.00  0.00     0.028 A 
HETATM   24  C   UNL     1     -37.415 -49.445  15.329  1.00  0.00     0.028 A 
ENDBRANCH   6  22
TORSDOF 7
ENDMDL
