MODEL 1
REMARK VINA RESULT:      -5.7      0.000      0.000
REMARK  7 active torsions:
REMARK  status: ('A' for Active; 'I' for Inactive)
REMARK    1  A    between atoms: O_2  and  C_3 
REMARK    2  A    between atoms: C_3  and  C_4 
REMARK    3  A    between atoms: C_4  and  O_5 
REMARK    4  A    between atoms: O_5  and  C_6 
REMARK    5  A    between atoms: C_9  and  C_10 
REMARK    6  A    between atoms: C_10  and  N_11 
REMARK    7  A    between atoms: N_11  and  C_12 
ROOT
HETATM    1  C   UNL     1     -42.029 -45.997  10.244  1.00  0.00     0.141 A 
HETATM    2  C   UNL     1     -42.607 -46.271  11.473  1.00  0.00     0.057 A 
HETATM    3  C   UNL     1     -41.777 -46.684  12.512  1.00  0.00     0.014 A 
HETATM    4  C   UNL     1     -40.399 -46.791  12.298  1.00  0.00    -0.015 A 
HETATM    5  C   UNL     1     -39.926 -46.485  11.026  1.00  0.00     0.099 A 
HETATM    6  N   UNL     1     -40.708 -46.097   9.993  1.00  0.00    -0.346 N 
ATOM      7  HN  UNL     1     -40.319 -45.890   9.073  1.00  0.00     0.167 HD
ENDROOT
BRANCH   4   8
HETATM    8  C   UNL     1     -39.457 -47.140  13.420  1.00  0.00     0.310 C 
BRANCH   8   9
HETATM    9  N   UNL     1     -39.806 -48.417  14.034  1.00  0.00     0.095 N 
HETATM   10  H   UNL     1     -40.729 -48.334  14.462  1.00  0.00     0.316 HD
BRANCH   9  11
HETATM   11  C   UNL     1     -39.802 -49.555  13.106  1.00  0.00     0.257 C 
HETATM   12  C   UNL     1     -40.680 -50.670  13.675  1.00  0.00     0.076 C 
HETATM   13  C   UNL     1     -40.127 -51.962  13.064  1.00  0.00     0.057 C 
HETATM   14  C   UNL     1     -39.848 -53.025  14.131  1.00  0.00     0.045 C 
HETATM   15  C   UNL     1     -41.065 -52.551  12.010  1.00  0.00     0.045 C 
HETATM   16  O   UNL     1     -38.886 -51.632  12.419  1.00  0.00    -0.368 OA
HETATM   17  C   UNL     1     -38.478 -50.298  12.802  1.00  0.00     0.085 C 
HETATM   18  C   UNL     1     -37.713 -49.712  11.612  1.00  0.00     0.048 C 
HETATM   19  C   UNL     1     -37.539 -50.426  14.009  1.00  0.00     0.048 C 
ENDBRANCH   9  11
ENDBRANCH   8   9
ENDBRANCH   4   8
BRANCH   1  20
HETATM   20  O   UNL     1     -42.883 -45.533   9.267  1.00  0.00    -0.334 OA
BRANCH  20  21
HETATM   21  C   UNL     1     -44.056 -46.335   9.123  1.00  0.00     0.203 C 
BRANCH  21  22
HETATM   22  C   UNL     1     -43.719 -47.493   8.190  1.00  0.00     0.193 C 
BRANCH  22  23
HETATM   23  O   UNL     1     -44.896 -48.247   7.905  1.00  0.00    -0.394 OA
HETATM   24  C   UNL     1     -45.957 -47.904   8.786  1.00  0.00     0.201 C 
ENDBRANCH  22  23
ENDBRANCH  21  22
ENDBRANCH  20  21
ENDBRANCH   1  20
TORSDOF 7
ENDMDL
MODEL 2
REMARK VINA RESULT:      -5.7      3.124      4.143
REMARK  7 active torsions:
REMARK  status: ('A' for Active; 'I' for Inactive)
REMARK    1  A    between atoms: O_2  and  C_3 
REMARK    2  A    between atoms: C_3  and  C_4 
REMARK    3  A    between atoms: C_4  and  O_5 
REMARK    4  A    between atoms: O_5  and  C_6 
REMARK    5  A    between atoms: C_9  and  C_10 
REMARK    6  A    between atoms: C_10  and  N_11 
REMARK    7  A    between atoms: N_11  and  C_12 
ROOT
HETATM    1  C   UNL     1     -42.595 -47.032  10.590  1.00  0.00     0.141 A 
HETATM    2  C   UNL     1     -43.415 -47.517  11.596  1.00  0.00     0.057 A 
HETATM    3  C   UNL     1     -43.068 -48.721  12.203  1.00  0.00     0.014 A 
HETATM    4  C   UNL     1     -41.907 -49.391  11.803  1.00  0.00    -0.015 A 
HETATM    5  C   UNL     1     -41.154 -48.809  10.788  1.00  0.00     0.099 A 
HETATM    6  N   UNL     1     -41.472 -47.650  10.169  1.00  0.00    -0.346 N 
ATOM      7  HN  UNL     1     -40.894 -47.263   9.423  1.00  0.00     0.167 HD
ENDROOT
BRANCH   4   8
HETATM    8  C   UNL     1     -41.447 -50.644  12.500  1.00  0.00     0.310 C 
BRANCH   8   9
HETATM    9  N   UNL     1     -42.393 -51.738  12.314  1.00  0.00     0.095 N 
HETATM   10  H   UNL     1     -41.988 -52.415  11.665  1.00  0.00     0.316 HD
BRANCH   9  11
HETATM   11  C   UNL     1     -42.776 -52.424  13.555  1.00  0.00     0.257 C 
HETATM   12  C   UNL     1     -43.024 -53.902  13.255  1.00  0.00     0.076 C 
HETATM   13  C   UNL     1     -44.001 -54.370  14.339  1.00  0.00     0.057 C 
HETATM   14  C   UNL     1     -45.214 -55.091  13.743  1.00  0.00     0.045 C 
HETATM   15  C   UNL     1     -43.333 -55.286  15.365  1.00  0.00     0.045 C 
HETATM   16  O   UNL     1     -44.467 -53.197  15.028  1.00  0.00    -0.368 OA
HETATM   17  C   UNL     1     -44.071 -52.014  14.295  1.00  0.00     0.085 C 
HETATM   18  C   UNL     1     -43.854 -50.906  15.330  1.00  0.00     0.048 C 
HETATM   19  C   UNL     1     -45.231 -51.633  13.365  1.00  0.00     0.048 C 
ENDBRANCH   9  11
ENDBRANCH   8   9
ENDBRANCH   4   8
BRANCH   1  20
HETATM   20  O   UNL     1     -42.946 -45.807  10.064  1.00  0.00    -0.334 OA
BRANCH  20  21
HETATM   21  C   UNL     1     -43.501 -45.902   8.752  1.00  0.00     0.203 C 
BRANCH  21  22
HETATM   22  C   UNL     1     -45.007 -46.100   8.895  1.00  0.00     0.193 C 
BRANCH  22  23
HETATM   23  O   UNL     1     -45.365 -47.420   8.489  1.00  0.00    -0.394 OA
HETATM   24  C   UNL     1     -46.605 -47.819   9.059  1.00  0.00     0.201 C 
ENDBRANCH  22  23
ENDBRANCH  21  22
ENDBRANCH  20  21
ENDBRANCH   1  20
TORSDOF 7
ENDMDL
MODEL 3
REMARK VINA RESULT:      -5.6      3.236      4.042
REMARK  7 active torsions:
REMARK  status: ('A' for Active; 'I' for Inactive)
REMARK    1  A    between atoms: O_2  and  C_3 
REMARK    2  A    between atoms: C_3  and  C_4 
REMARK    3  A    between atoms: C_4  and  O_5 
REMARK    4  A    between atoms: O_5  and  C_6 
REMARK    5  A    between atoms: C_9  and  C_10 
REMARK    6  A    between atoms: C_10  and  N_11 
REMARK    7  A    between atoms: N_11  and  C_12 
ROOT
HETATM    1  C   UNL     1     -42.629 -47.457  10.184  1.00  0.00     0.141 A 
HETATM    2  C   UNL     1     -43.248 -47.289  11.412  1.00  0.00     0.057 A 
HETATM    3  C   UNL     1     -42.880 -48.136  12.455  1.00  0.00     0.014 A 
HETATM    4  C   UNL     1     -41.894 -49.106  12.246  1.00  0.00    -0.015 A 
HETATM    5  C   UNL     1     -41.334 -49.181  10.974  1.00  0.00     0.099 A 
HETATM    6  N   UNL     1     -41.682 -48.385   9.937  1.00  0.00    -0.346 N 
ATOM      7  HN  UNL     1     -41.250 -48.481   9.018  1.00  0.00     0.167 HD
ENDROOT
BRANCH   4   8
HETATM    8  C   UNL     1     -41.400 -49.974  13.372  1.00  0.00     0.310 C 
BRANCH   8   9
HETATM    9  N   UNL     1     -42.501 -50.468  14.191  1.00  0.00     0.095 N 
HETATM   10  H   UNL     1     -43.024 -49.669  14.553  1.00  0.00     0.316 HD
BRANCH   9  11
HETATM   11  C   UNL     1     -43.421 -51.371  13.487  1.00  0.00     0.257 C 
HETATM   12  C   UNL     1     -44.856 -50.892  13.701  1.00  0.00     0.076 C 
HETATM   13  C   UNL     1     -45.722 -52.147  13.544  1.00  0.00     0.057 C 
HETATM   14  C   UNL     1     -46.684 -52.330  14.721  1.00  0.00     0.045 C 
HETATM   15  C   UNL     1     -46.525 -52.137  12.243  1.00  0.00     0.045 C 
HETATM   16  O   UNL     1     -44.833 -53.277  13.508  1.00  0.00    -0.368 OA
HETATM   17  C   UNL     1     -43.503 -52.861  13.898  1.00  0.00     0.085 C 
HETATM   18  C   UNL     1     -42.521 -53.756  13.137  1.00  0.00     0.048 C 
HETATM   19  C   UNL     1     -43.363 -53.105  15.406  1.00  0.00     0.048 C 
ENDBRANCH   9  11
ENDBRANCH   8   9
ENDBRANCH   4   8
BRANCH   1  20
HETATM   20  O   UNL     1     -42.983 -46.556   9.202  1.00  0.00    -0.334 OA
BRANCH  20  21
HETATM   21  C   UNL     1     -44.386 -46.545   8.934  1.00  0.00     0.203 C 
BRANCH  21  22
HETATM   22  C   UNL     1     -44.740 -47.857   8.242  1.00  0.00     0.193 C 
BRANCH  22  23
HETATM   23  O   UNL     1     -46.157 -47.997   8.160  1.00  0.00    -0.394 OA
HETATM   24  C   UNL     1     -46.813 -47.210   9.146  1.00  0.00     0.201 C 
ENDBRANCH  22  23
ENDBRANCH  21  22
ENDBRANCH  20  21
ENDBRANCH   1  20
TORSDOF 7
ENDMDL
MODEL 4
REMARK VINA RESULT:      -5.6      4.321      7.008
REMARK  7 active torsions:
REMARK  status: ('A' for Active; 'I' for Inactive)
REMARK    1  A    between atoms: O_2  and  C_3 
REMARK    2  A    between atoms: C_3  and  C_4 
REMARK    3  A    between atoms: C_4  and  O_5 
REMARK    4  A    between atoms: O_5  and  C_6 
REMARK    5  A    between atoms: C_9  and  C_10 
REMARK    6  A    between atoms: C_10  and  N_11 
REMARK    7  A    between atoms: N_11  and  C_12 
ROOT
HETATM    1  C   UNL     1     -44.299 -54.596  14.002  1.00  0.00     0.141 A 
HETATM    2  C   UNL     1     -44.472 -53.773  12.900  1.00  0.00     0.057 A 
HETATM    3  C   UNL     1     -43.347 -53.163  12.353  1.00  0.00     0.014 A 
HETATM    4  C   UNL     1     -42.086 -53.408  12.906  1.00  0.00    -0.015 A 
HETATM    5  C   UNL     1     -42.028 -54.256  14.007  1.00  0.00     0.099 A 
HETATM    6  N   UNL     1     -43.103 -54.851  14.572  1.00  0.00    -0.346 N 
ATOM      7  HN  UNL     1     -43.015 -55.461  15.385  1.00  0.00     0.167 HD
ENDROOT
BRANCH   4   8
HETATM    8  C   UNL     1     -40.836 -52.845  12.284  1.00  0.00     0.310 C 
BRANCH   8   9
HETATM    9  N   UNL     1     -41.141 -51.771  11.346  1.00  0.00     0.095 N 
HETATM   10  H   UNL     1     -42.152 -51.628  11.328  1.00  0.00     0.316 HD
BRANCH   9  11
HETATM   11  C   UNL     1     -40.476 -50.497  11.647  1.00  0.00     0.257 C 
HETATM   12  C   UNL     1     -39.686 -50.638  12.948  1.00  0.00     0.076 C 
HETATM   13  C   UNL     1     -39.597 -49.218  13.516  1.00  0.00     0.057 C 
HETATM   14  C   UNL     1     -40.041 -49.158  14.981  1.00  0.00     0.045 C 
HETATM   15  C   UNL     1     -38.188 -48.634  13.400  1.00  0.00     0.045 C 
HETATM   16  O   UNL     1     -40.484 -48.392  12.742  1.00  0.00    -0.368 OA
HETATM   17  C   UNL     1     -41.322 -49.228  11.910  1.00  0.00     0.085 C 
HETATM   18  C   UNL     1     -41.623 -48.425  10.641  1.00  0.00     0.048 C 
HETATM   19  C   UNL     1     -42.626 -49.490  12.676  1.00  0.00     0.048 C 
ENDBRANCH   9  11
ENDBRANCH   8   9
ENDBRANCH   4   8
BRANCH   1  20
HETATM   20  O   UNL     1     -45.433 -55.225  14.469  1.00  0.00    -0.334 OA
BRANCH  20  21
HETATM   21  C   UNL     1     -46.463 -54.311  14.845  1.00  0.00     0.203 C 
BRANCH  21  22
HETATM   22  C   UNL     1     -46.077 -53.697  16.187  1.00  0.00     0.193 C 
BRANCH  22  23
HETATM   23  O   UNL     1     -45.980 -52.279  16.063  1.00  0.00    -0.394 OA
HETATM   24  C   UNL     1     -46.871 -51.783  15.073  1.00  0.00     0.201 C 
ENDBRANCH  22  23
ENDBRANCH  21  22
ENDBRANCH  20  21
ENDBRANCH   1  20
TORSDOF 7
ENDMDL
MODEL 5
REMARK VINA RESULT:      -5.6      3.838      6.563
REMARK  7 active torsions:
REMARK  status: ('A' for Active; 'I' for Inactive)
REMARK    1  A    between atoms: O_2  and  C_3 
REMARK    2  A    between atoms: C_3  and  C_4 
REMARK    3  A    between atoms: C_4  and  O_5 
REMARK    4  A    between atoms: O_5  and  C_6 
REMARK    5  A    between atoms: C_9  and  C_10 
REMARK    6  A    between atoms: C_10  and  N_11 
REMARK    7  A    between atoms: N_11  and  C_12 
ROOT
HETATM    1  C   UNL     1     -44.165 -54.063  12.969  1.00  0.00     0.141 A 
HETATM    2  C   UNL     1     -43.317 -54.598  13.925  1.00  0.00     0.057 A 
HETATM    3  C   UNL     1     -42.000 -54.150  13.959  1.00  0.00     0.014 A 
HETATM    4  C   UNL     1     -41.575 -53.171  13.056  1.00  0.00    -0.015 A 
HETATM    5  C   UNL     1     -42.513 -52.698  12.142  1.00  0.00     0.099 A 
HETATM    6  N   UNL     1     -43.795 -53.124  12.073  1.00  0.00    -0.346 N 
ATOM      7  HN  UNL     1     -44.446 -52.755  11.381  1.00  0.00     0.167 HD
ENDROOT
BRANCH   4   8
HETATM    8  C   UNL     1     -40.188 -52.591  13.124  1.00  0.00     0.310 C 
BRANCH   8   9
HETATM    9  N   UNL     1     -40.039 -51.450  12.227  1.00  0.00     0.095 N 
HETATM   10  H   UNL     1     -40.861 -51.397  11.624  1.00  0.00     0.316 HD
BRANCH   9  11
HETATM   11  C   UNL     1     -39.854 -50.164  12.910  1.00  0.00     0.257 C 
HETATM   12  C   UNL     1     -40.765 -49.118  12.267  1.00  0.00     0.076 C 
HETATM   13  C   UNL     1     -40.080 -47.774  12.535  1.00  0.00     0.057 C 
HETATM   14  C   UNL     1     -39.924 -46.946  11.257  1.00  0.00     0.045 C 
HETATM   15  C   UNL     1     -40.827 -46.942  13.578  1.00  0.00     0.045 C 
HETATM   16  O   UNL     1     -38.769 -48.059  13.051  1.00  0.00    -0.368 OA
HETATM   17  C   UNL     1     -38.473 -49.465  12.877  1.00  0.00     0.085 C 
HETATM   18  C   UNL     1     -37.560 -49.870  14.038  1.00  0.00     0.048 C 
HETATM   19  C   UNL     1     -37.721 -49.622  11.549  1.00  0.00     0.048 C 
ENDBRANCH   9  11
ENDBRANCH   8   9
ENDBRANCH   4   8
BRANCH   1  20
HETATM   20  O   UNL     1     -45.474 -54.492  13.015  1.00  0.00    -0.334 OA
BRANCH  20  21
HETATM   21  C   UNL     1     -45.981 -54.592  14.346  1.00  0.00     0.203 C 
BRANCH  21  22
HETATM   22  C   UNL     1     -46.765 -53.318  14.645  1.00  0.00     0.193 C 
BRANCH  22  23
HETATM   23  O   UNL     1     -46.044 -52.510  15.573  1.00  0.00    -0.394 OA
HETATM   24  C   UNL     1     -45.608 -51.296  14.975  1.00  0.00     0.201 C 
ENDBRANCH  22  23
ENDBRANCH  21  22
ENDBRANCH  20  21
ENDBRANCH   1  20
TORSDOF 7
ENDMDL
MODEL 6
REMARK VINA RESULT:      -5.6      3.991      6.447
REMARK  7 active torsions:
REMARK  status: ('A' for Active; 'I' for Inactive)
REMARK    1  A    between atoms: O_2  and  C_3 
REMARK    2  A    between atoms: C_3  and  C_4 
REMARK    3  A    between atoms: C_4  and  O_5 
REMARK    4  A    between atoms: O_5  and  C_6 
REMARK    5  A    between atoms: C_9  and  C_10 
REMARK    6  A    between atoms: C_10  and  N_11 
REMARK    7  A    between atoms: N_11  and  C_12 
ROOT
HETATM    1  C   UNL     1     -43.945 -53.937  12.867  1.00  0.00     0.141 A 
HETATM    2  C   UNL     1     -43.154 -54.481  13.865  1.00  0.00     0.057 A 
HETATM    3  C   UNL     1     -41.856 -53.999  14.011  1.00  0.00     0.014 A 
HETATM    4  C   UNL     1     -41.396 -52.979  13.172  1.00  0.00    -0.015 A 
HETATM    5  C   UNL     1     -42.278 -52.502  12.208  1.00  0.00     0.099 A 
HETATM    6  N   UNL     1     -43.538 -52.960  12.031  1.00  0.00    -0.346 N 
ATOM      7  HN  UNL     1     -44.148 -52.585  11.304  1.00  0.00     0.167 HD
ENDROOT
BRANCH   4   8
HETATM    8  C   UNL     1     -40.034 -52.365  13.361  1.00  0.00     0.310 C 
BRANCH   8   9
HETATM    9  N   UNL     1     -40.128 -50.992  13.843  1.00  0.00     0.095 N 
HETATM   10  H   UNL     1     -40.584 -50.995  14.757  1.00  0.00     0.316 HD
BRANCH   9  11
HETATM   11  C   UNL     1     -38.839 -50.296  13.946  1.00  0.00     0.257 C 
HETATM   12  C   UNL     1     -38.892 -49.310  15.112  1.00  0.00     0.076 C 
HETATM   13  C   UNL     1     -37.867 -48.226  14.764  1.00  0.00     0.057 C 
HETATM   14  C   UNL     1     -38.463 -46.819  14.872  1.00  0.00     0.045 C 
HETATM   15  C   UNL     1     -36.618 -48.305  15.642  1.00  0.00     0.045 C 
HETATM   16  O   UNL     1     -37.465 -48.442  13.400  1.00  0.00    -0.368 OA
HETATM   17  C   UNL     1     -38.349 -49.405  12.780  1.00  0.00     0.085 C 
HETATM   18  C   UNL     1     -37.515 -50.164  11.744  1.00  0.00     0.048 C 
HETATM   19  C   UNL     1     -39.465 -48.625  12.073  1.00  0.00     0.048 C 
ENDBRANCH   9  11
ENDBRANCH   8   9
ENDBRANCH   4   8
BRANCH   1  20
HETATM   20  O   UNL     1     -45.241 -54.403  12.803  1.00  0.00    -0.334 OA
BRANCH  20  21
HETATM   21  C   UNL     1     -45.733 -54.857  14.064  1.00  0.00     0.203 C 
BRANCH  21  22
HETATM   22  C   UNL     1     -46.614 -53.756  14.646  1.00  0.00     0.193 C 
BRANCH  22  23
HETATM   23  O   UNL     1     -46.748 -52.692  13.704  1.00  0.00    -0.394 OA
HETATM   24  C   UNL     1     -46.687 -51.424  14.343  1.00  0.00     0.201 C 
ENDBRANCH  22  23
ENDBRANCH  21  22
ENDBRANCH  20  21
ENDBRANCH   1  20
TORSDOF 7
ENDMDL
MODEL 7
REMARK VINA RESULT:      -5.5      3.574      5.070
REMARK  7 active torsions:
REMARK  status: ('A' for Active; 'I' for Inactive)
REMARK    1  A    between atoms: O_2  and  C_3 
REMARK    2  A    between atoms: C_3  and  C_4 
REMARK    3  A    between atoms: C_4  and  O_5 
REMARK    4  A    between atoms: O_5  and  C_6 
REMARK    5  A    between atoms: C_9  and  C_10 
REMARK    6  A    between atoms: C_10  and  N_11 
REMARK    7  A    between atoms: N_11  and  C_12 
ROOT
HETATM    1  C   UNL     1     -41.700 -46.639  10.566  1.00  0.00     0.141 A 
HETATM    2  C   UNL     1     -42.912 -47.001  11.130  1.00  0.00     0.057 A 
HETATM    3  C   UNL     1     -43.024 -48.272  11.688  1.00  0.00     0.014 A 
HETATM    4  C   UNL     1     -41.920 -49.130  11.685  1.00  0.00    -0.015 A 
HETATM    5  C   UNL     1     -40.749 -48.661  11.099  1.00  0.00     0.099 A 
HETATM    6  N   UNL     1     -40.614 -47.439  10.534  1.00  0.00    -0.346 N 
ATOM      7  HN  UNL     1     -39.738 -47.139  10.108  1.00  0.00     0.167 HD
ENDROOT
BRANCH   4   8
HETATM    8  C   UNL     1     -41.972 -50.473  12.364  1.00  0.00     0.310 C 
BRANCH   8   9
HETATM    9  N   UNL     1     -43.346 -50.919  12.565  1.00  0.00     0.095 N 
HETATM   10  H   UNL     1     -43.663 -51.397  11.720  1.00  0.00     0.316 HD
BRANCH   9  11
HETATM   11  C   UNL     1     -43.532 -51.805  13.722  1.00  0.00     0.257 C 
HETATM   12  C   UNL     1     -43.479 -53.259  13.255  1.00  0.00     0.076 C 
HETATM   13  C   UNL     1     -44.297 -54.040  14.289  1.00  0.00     0.057 C 
HETATM   14  C   UNL     1     -45.354 -54.929  13.629  1.00  0.00     0.045 C 
HETATM   15  C   UNL     1     -43.415 -54.903  15.192  1.00  0.00     0.045 C 
HETATM   16  O   UNL     1     -44.970 -53.076  15.116  1.00  0.00    -0.368 OA
HETATM   17  C   UNL     1     -44.857 -51.762  14.521  1.00  0.00     0.085 C 
HETATM   18  C   UNL     1     -44.836 -50.756  15.675  1.00  0.00     0.048 C 
HETATM   19  C   UNL     1     -46.104 -51.532  13.657  1.00  0.00     0.048 C 
ENDBRANCH   9  11
ENDBRANCH   8   9
ENDBRANCH   4   8
BRANCH   1  20
HETATM   20  O   UNL     1     -41.620 -45.350  10.083  1.00  0.00    -0.334 OA
BRANCH  20  21
HETATM   21  C   UNL     1     -40.455 -44.657  10.533  1.00  0.00     0.203 C 
BRANCH  21  22
HETATM   22  C   UNL     1     -40.914 -43.410  11.282  1.00  0.00     0.193 C 
BRANCH  22  23
HETATM   23  O   UNL     1     -41.312 -43.758  12.608  1.00  0.00    -0.394 OA
HETATM   24  C   UNL     1     -42.676 -43.434  12.841  1.00  0.00     0.201 C 
ENDBRANCH  22  23
ENDBRANCH  21  22
ENDBRANCH  20  21
ENDBRANCH   1  20
TORSDOF 7
ENDMDL
MODEL 8
REMARK VINA RESULT:      -5.4      5.213      7.882
REMARK  7 active torsions:
REMARK  status: ('A' for Active; 'I' for Inactive)
REMARK    1  A    between atoms: O_2  and  C_3 
REMARK    2  A    between atoms: C_3  and  C_4 
REMARK    3  A    between atoms: C_4  and  O_5 
REMARK    4  A    between atoms: O_5  and  C_6 
REMARK    5  A    between atoms: C_9  and  C_10 
REMARK    6  A    between atoms: C_10  and  N_11 
REMARK    7  A    between atoms: N_11  and  C_12 
ROOT
HETATM    1  C   UNL     1     -41.657 -53.076  12.579  1.00  0.00     0.141 A 
HETATM    2  C   UNL     1     -41.561 -53.965  13.637  1.00  0.00     0.057 A 
HETATM    3  C   UNL     1     -42.730 -54.563  14.101  1.00  0.00     0.014 A 
HETATM    4  C   UNL     1     -43.950 -54.273  13.483  1.00  0.00    -0.015 A 
HETATM    5  C   UNL     1     -43.930 -53.371  12.424  1.00  0.00     0.099 A 
HETATM    6  N   UNL     1     -42.814 -52.762  11.961  1.00  0.00    -0.346 N 
ATOM      7  HN  UNL     1     -42.847 -52.100  11.185  1.00  0.00     0.167 HD
ENDROOT
BRANCH   4   8
HETATM    8  C   UNL     1     -45.220 -54.973  13.891  1.00  0.00     0.310 C 
BRANCH   8   9
HETATM    9  N   UNL     1     -46.113 -54.079  14.621  1.00  0.00     0.095 N 
HETATM   10  H   UNL     1     -46.891 -54.625  14.994  1.00  0.00     0.316 HD
BRANCH   9  11
HETATM   11  C   UNL     1     -45.469 -53.341  15.715  1.00  0.00     0.257 C 
HETATM   12  C   UNL     1     -45.933 -53.919  17.052  1.00  0.00     0.076 C 
HETATM   13  C   UNL     1     -45.786 -52.770  18.055  1.00  0.00     0.057 C 
HETATM   14  C   UNL     1     -47.069 -52.548  18.862  1.00  0.00     0.045 C 
HETATM   15  C   UNL     1     -44.623 -52.991  19.022  1.00  0.00     0.045 C 
HETATM   16  O   UNL     1     -45.516 -51.577  17.299  1.00  0.00    -0.368 OA
HETATM   17  C   UNL     1     -45.745 -51.829  15.894  1.00  0.00     0.085 C 
HETATM   18  C   UNL     1     -44.769 -50.938  15.121  1.00  0.00     0.048 C 
HETATM   19  C   UNL     1     -47.188 -51.413  15.575  1.00  0.00     0.048 C 
ENDBRANCH   9  11
ENDBRANCH   8   9
ENDBRANCH   4   8
BRANCH   1  20
HETATM   20  O   UNL     1     -40.466 -52.558  12.116  1.00  0.00    -0.334 OA
BRANCH  20  21
HETATM   21  C   UNL     1     -39.807 -51.733  13.077  1.00  0.00     0.203 C 
BRANCH  21  22
HETATM   22  C   UNL     1     -40.234 -50.290  12.825  1.00  0.00     0.193 C 
BRANCH  22  23
HETATM   23  O   UNL     1     -40.156 -49.996  11.431  1.00  0.00    -0.394 OA
HETATM   24  C   UNL     1     -41.089 -48.990  11.061  1.00  0.00     0.201 C 
ENDBRANCH  22  23
ENDBRANCH  21  22
ENDBRANCH  20  21
ENDBRANCH   1  20
TORSDOF 7
ENDMDL
MODEL 9
REMARK VINA RESULT:      -5.4      3.447      6.788
REMARK  7 active torsions:
REMARK  status: ('A' for Active; 'I' for Inactive)
REMARK    1  A    between atoms: O_2  and  C_3 
REMARK    2  A    between atoms: C_3  and  C_4 
REMARK    3  A    between atoms: C_4  and  O_5 
REMARK    4  A    between atoms: O_5  and  C_6 
REMARK    5  A    between atoms: C_9  and  C_10 
REMARK    6  A    between atoms: C_10  and  N_11 
REMARK    7  A    between atoms: N_11  and  C_12 
ROOT
HETATM    1  C   UNL     1     -43.538 -52.288  12.538  1.00  0.00     0.141 A 
HETATM    2  C   UNL     1     -43.576 -51.096  13.241  1.00  0.00     0.057 A 
HETATM    3  C   UNL     1     -42.442 -50.287  13.225  1.00  0.00     0.014 A 
HETATM    4  C   UNL     1     -41.318 -50.683  12.494  1.00  0.00    -0.015 A 
HETATM    5  C   UNL     1     -41.392 -51.897  11.819  1.00  0.00     0.099 A 
HETATM    6  N   UNL     1     -42.472 -52.712  11.828  1.00  0.00    -0.346 N 
ATOM      7  HN  UNL     1     -42.480 -53.599  11.324  1.00  0.00     0.167 HD
ENDROOT
BRANCH   4   8
HETATM    8  C   UNL     1     -40.110 -49.792  12.373  1.00  0.00     0.310 C 
BRANCH   8   9
HETATM    9  N   UNL     1     -40.437 -48.403  12.671  1.00  0.00     0.095 N 
HETATM   10  H   UNL     1     -39.767 -48.046  13.353  1.00  0.00     0.316 HD
BRANCH   9  11
HETATM   11  C   UNL     1     -40.452 -47.519  11.498  1.00  0.00     0.257 C 
HETATM   12  C   UNL     1     -39.719 -46.221  11.838  1.00  0.00     0.076 C 
HETATM   13  C   UNL     1     -40.318 -45.168  10.899  1.00  0.00     0.057 C 
HETATM   14  C   UNL     1     -40.775 -43.919  11.658  1.00  0.00     0.045 C 
HETATM   15  C   UNL     1     -39.342 -44.752   9.798  1.00  0.00     0.045 C 
HETATM   16  O   UNL     1     -41.468 -45.761  10.272  1.00  0.00    -0.368 OA
HETATM   17  C   UNL     1     -41.799 -47.003  10.937  1.00  0.00     0.085 C 
HETATM   18  C   UNL     1     -42.407 -47.923   9.876  1.00  0.00     0.048 C 
HETATM   19  C   UNL     1     -42.848 -46.690  12.013  1.00  0.00     0.048 C 
ENDBRANCH   9  11
ENDBRANCH   8   9
ENDBRANCH   4   8
BRANCH   1  20
HETATM   20  O   UNL     1     -44.705 -53.023  12.533  1.00  0.00    -0.334 OA
BRANCH  20  21
HETATM   21  C   UNL     1     -44.545 -54.327  13.095  1.00  0.00     0.203 C 
BRANCH  21  22
HETATM   22  C   UNL     1     -45.683 -54.552  14.085  1.00  0.00     0.193 C 
BRANCH  22  23
HETATM   23  O   UNL     1     -45.156 -54.718  15.401  1.00  0.00    -0.394 OA
HETATM   24  C   UNL     1     -45.864 -53.928  16.346  1.00  0.00     0.201 C 
ENDBRANCH  22  23
ENDBRANCH  21  22
ENDBRANCH  20  21
ENDBRANCH   1  20
TORSDOF 7
ENDMDL
