MODEL 1
REMARK VINA RESULT:      -5.8      0.000      0.000
REMARK  6 active torsions:
REMARK  status: ('A' for Active; 'I' for Inactive)
REMARK    1  A    between atoms: C_2  and  C_4 
REMARK    2  A    between atoms: C_4  and  O_5 
REMARK    3  A    between atoms: C_4  and  C_12 
REMARK    4  A    between atoms: O_5  and  C_6 
REMARK    5  A    between atoms: C_6  and  C_7 
REMARK       I    between atoms: C_12  and  N_14 
REMARK    6  A    between atoms: N_14  and  C_15 
ROOT
HETATM    1  C   UNL     1     -42.130 -52.276  12.406  1.00  0.00     0.216 C 
ENDROOT
BRANCH   1   2
HETATM    2  C   UNL     1     -40.766 -52.745  13.001  1.00  0.00     0.016 C 
HETATM    3  C   UNL     1     -40.463 -52.146  14.376  1.00  0.00     0.012 C 
HETATM    4  C   UNL     1     -40.700 -54.279  13.105  1.00  0.00     0.012 C 
ENDBRANCH   1   2
BRANCH   1   5
HETATM    5  O   UNL     1     -43.218 -52.785  13.206  1.00  0.00    -0.374 OA
BRANCH   5   6
HETATM    6  C   UNL     1     -44.295 -53.306  12.420  1.00  0.00     0.200 C 
BRANCH   6   7
HETATM    7  C   UNL     1     -45.683 -52.977  12.961  1.00  0.00     0.145 C 
HETATM    8  C   UNL     1     -45.982 -51.500  13.137  1.00  0.00     0.036 C 
HETATM    9  C   UNL     1     -46.790 -51.428  14.421  1.00  0.00     0.029 C 
HETATM   10  C   UNL     1     -46.883 -52.856  14.914  1.00  0.00     0.168 C 
HETATM   11  O   UNL     1     -45.813 -53.553  14.276  1.00  0.00    -0.384 OA
ENDBRANCH   6   7
ENDBRANCH   5   6
ENDBRANCH   1   5
BRANCH   1  12
HETATM   12  C   UNL     1     -42.102 -50.719  12.321  1.00  0.00     0.252 C 
HETATM   13  O   UNL     1     -42.855 -50.017  12.992  1.00  0.00    -0.270 OA
HETATM   14  N   UNL     1     -41.182 -50.220  11.413  1.00  0.00    -0.311 N 
HETATM   15  H   UNL     1     -40.963 -50.794  10.613  1.00  0.00     0.170 HD
BRANCH  14  16
HETATM   16  C   UNL     1     -41.191 -48.862  11.085  1.00  0.00     0.107 A 
HETATM   17  C   UNL     1     -40.176 -48.017  11.509  1.00  0.00     0.048 A 
HETATM   18  C   UNL     1     -40.258 -46.670  11.180  1.00  0.00     0.005 A 
HETATM   19  C   UNL     1     -41.369 -46.212  10.483  1.00  0.00     0.017 A 
HETATM   20  C   UNL     1     -42.330 -47.135  10.099  1.00  0.00     0.089 A 
HETATM   21  N   UNL     1     -42.239 -48.461  10.341  1.00  0.00    -0.352 N 
ATOM     22  HN  UNL     1     -42.927 -49.122   9.980  1.00  0.00     0.166 HD
ENDBRANCH  14  16
ENDBRANCH   1  12
TORSDOF 6
ENDMDL
MODEL 2
REMARK VINA RESULT:      -5.8      2.060      3.518
REMARK  6 active torsions:
REMARK  status: ('A' for Active; 'I' for Inactive)
REMARK    1  A    between atoms: C_2  and  C_4 
REMARK    2  A    between atoms: C_4  and  O_5 
REMARK    3  A    between atoms: C_4  and  C_12 
REMARK    4  A    between atoms: O_5  and  C_6 
REMARK    5  A    between atoms: C_6  and  C_7 
REMARK       I    between atoms: C_12  and  N_14 
REMARK    6  A    between atoms: N_14  and  C_15 
ROOT
HETATM    1  C   UNL     1     -40.017 -50.100  11.720  1.00  0.00     0.216 C 
ENDROOT
BRANCH   1   2
HETATM    2  C   UNL     1     -38.746 -49.197  11.754  1.00  0.00     0.016 C 
HETATM    3  C   UNL     1     -38.458 -48.602  13.134  1.00  0.00     0.012 C 
HETATM    4  C   UNL     1     -37.501 -49.967  11.279  1.00  0.00     0.012 C 
ENDBRANCH   1   2
BRANCH   1   5
HETATM    5  O   UNL     1     -40.151 -50.812  12.968  1.00  0.00    -0.374 OA
BRANCH   5   6
HETATM    6  C   UNL     1     -40.525 -52.182  12.794  1.00  0.00     0.200 C 
BRANCH   6   7
HETATM    7  C   UNL     1     -41.928 -52.518  13.287  1.00  0.00     0.145 C 
HETATM    8  C   UNL     1     -42.064 -53.837  14.023  1.00  0.00     0.036 C 
HETATM    9  C   UNL     1     -43.403 -54.390  13.566  1.00  0.00     0.029 C 
HETATM   10  C   UNL     1     -43.939 -53.373  12.581  1.00  0.00     0.168 C 
HETATM   11  O   UNL     1     -42.803 -52.625  12.146  1.00  0.00    -0.384 OA
ENDBRANCH   6   7
ENDBRANCH   5   6
ENDBRANCH   1   5
BRANCH   1  12
HETATM   12  C   UNL     1     -41.241 -49.188  11.395  1.00  0.00     0.252 C 
HETATM   13  O   UNL     1     -42.333 -49.348  11.934  1.00  0.00    -0.270 OA
HETATM   14  N   UNL     1     -40.983 -48.218  10.439  1.00  0.00    -0.311 N 
HETATM   15  H   UNL     1     -40.284 -48.428   9.743  1.00  0.00     0.170 HD
BRANCH  14  16
HETATM   16  C   UNL     1     -42.033 -47.468   9.906  1.00  0.00     0.107 A 
HETATM   17  C   UNL     1     -42.257 -46.160  10.311  1.00  0.00     0.048 A 
HETATM   18  C   UNL     1     -43.338 -45.478   9.768  1.00  0.00     0.005 A 
HETATM   19  C   UNL     1     -44.177 -46.139   8.881  1.00  0.00     0.017 A 
HETATM   20  C   UNL     1     -43.868 -47.445   8.533  1.00  0.00     0.089 A 
HETATM   21  N   UNL     1     -42.783 -48.108   8.988  1.00  0.00    -0.352 N 
ATOM     22  HN  UNL     1     -42.544 -49.042   8.655  1.00  0.00     0.166 HD
ENDBRANCH  14  16
ENDBRANCH   1  12
TORSDOF 6
ENDMDL
MODEL 3
REMARK VINA RESULT:      -5.7      1.347      3.847
REMARK  6 active torsions:
REMARK  status: ('A' for Active; 'I' for Inactive)
REMARK    1  A    between atoms: C_2  and  C_4 
REMARK    2  A    between atoms: C_4  and  O_5 
REMARK    3  A    between atoms: C_4  and  C_12 
REMARK    4  A    between atoms: O_5  and  C_6 
REMARK    5  A    between atoms: C_6  and  C_7 
REMARK       I    between atoms: C_12  and  N_14 
REMARK    6  A    between atoms: N_14  and  C_15 
ROOT
HETATM    1  C   UNL     1     -44.494 -51.819  13.534  1.00  0.00     0.216 C 
ENDROOT
BRANCH   1   2
HETATM    2  C   UNL     1     -45.949 -51.303  13.310  1.00  0.00     0.016 C 
HETATM    3  C   UNL     1     -46.665 -51.987  12.144  1.00  0.00     0.012 C 
HETATM    4  C   UNL     1     -46.802 -51.470  14.580  1.00  0.00     0.012 C 
ENDBRANCH   1   2
BRANCH   1   5
HETATM    5  O   UNL     1     -44.218 -52.920  12.644  1.00  0.00    -0.374 OA
BRANCH   5   6
HETATM    6  C   UNL     1     -43.914 -54.137  13.335  1.00  0.00     0.200 C 
BRANCH   6   7
HETATM    7  C   UNL     1     -42.439 -54.313  13.678  1.00  0.00     0.145 C 
HETATM    8  C   UNL     1     -42.010 -53.761  15.024  1.00  0.00     0.036 C 
HETATM    9  C   UNL     1     -40.634 -53.169  14.771  1.00  0.00     0.029 C 
HETATM   10  C   UNL     1     -40.369 -53.394  13.298  1.00  0.00     0.168 C 
HETATM   11  O   UNL     1     -41.651 -53.599  12.704  1.00  0.00    -0.384 OA
ENDBRANCH   6   7
ENDBRANCH   5   6
ENDBRANCH   1   5
BRANCH   1  12
HETATM   12  C   UNL     1     -43.526 -50.611  13.341  1.00  0.00     0.252 C 
HETATM   13  O   UNL     1     -43.629 -49.581  14.004  1.00  0.00    -0.270 OA
HETATM   14  N   UNL     1     -42.576 -50.802  12.350  1.00  0.00    -0.311 N 
HETATM   15  H   UNL     1     -42.825 -51.405  11.580  1.00  0.00     0.170 HD
BRANCH  14  16
HETATM   16  C   UNL     1     -41.780 -49.734  11.931  1.00  0.00     0.107 A 
HETATM   17  C   UNL     1     -40.467 -49.609  12.360  1.00  0.00     0.048 A 
HETATM   18  C   UNL     1     -39.737 -48.506  11.935  1.00  0.00     0.005 A 
HETATM   19  C   UNL     1     -40.357 -47.552  11.140  1.00  0.00     0.017 A 
HETATM   20  C   UNL     1     -41.672 -47.768  10.759  1.00  0.00     0.089 A 
HETATM   21  N   UNL     1     -42.382 -48.866  11.096  1.00  0.00    -0.352 N 
ATOM     22  HN  UNL     1     -43.323 -49.030  10.738  1.00  0.00     0.166 HD
ENDBRANCH  14  16
ENDBRANCH   1  12
TORSDOF 6
ENDMDL
MODEL 4
REMARK VINA RESULT:      -5.7      1.720      3.682
REMARK  6 active torsions:
REMARK  status: ('A' for Active; 'I' for Inactive)
REMARK    1  A    between atoms: C_2  and  C_4 
REMARK    2  A    between atoms: C_4  and  O_5 
REMARK    3  A    between atoms: C_4  and  C_12 
REMARK    4  A    between atoms: O_5  and  C_6 
REMARK    5  A    between atoms: C_6  and  C_7 
REMARK       I    between atoms: C_12  and  N_14 
REMARK    6  A    between atoms: N_14  and  C_15 
ROOT
HETATM    1  C   UNL     1     -44.559 -51.925  13.421  1.00  0.00     0.216 C 
ENDROOT
BRANCH   1   2
HETATM    2  C   UNL     1     -46.005 -51.346  13.334  1.00  0.00     0.016 C 
HETATM    3  C   UNL     1     -46.795 -51.856  12.127  1.00  0.00     0.012 C 
HETATM    4  C   UNL     1     -46.805 -51.651  14.613  1.00  0.00     0.012 C 
ENDBRANCH   1   2
BRANCH   1   5
HETATM    5  O   UNL     1     -44.375 -52.947  12.419  1.00  0.00    -0.374 OA
BRANCH   5   6
HETATM    6  C   UNL     1     -44.068 -54.229  12.975  1.00  0.00     0.200 C 
BRANCH   6   7
HETATM    7  C   UNL     1     -43.338 -54.175  14.313  1.00  0.00     0.145 C 
HETATM    8  C   UNL     1     -41.828 -54.067  14.231  1.00  0.00     0.036 C 
HETATM    9  C   UNL     1     -41.323 -54.942  15.365  1.00  0.00     0.029 C 
HETATM   10  C   UNL     1     -42.566 -55.515  16.010  1.00  0.00     0.168 C 
HETATM   11  O   UNL     1     -43.596 -55.401  15.028  1.00  0.00    -0.384 OA
ENDBRANCH   6   7
ENDBRANCH   5   6
ENDBRANCH   1   5
BRANCH   1  12
HETATM   12  C   UNL     1     -43.560 -50.735  13.279  1.00  0.00     0.252 C 
HETATM   13  O   UNL     1     -43.690 -49.696  13.922  1.00  0.00    -0.270 OA
HETATM   14  N   UNL     1     -42.550 -50.953  12.355  1.00  0.00    -0.311 N 
HETATM   15  H   UNL     1     -42.758 -51.561  11.578  1.00  0.00     0.170 HD
BRANCH  14  16
HETATM   16  C   UNL     1     -41.711 -49.903  11.979  1.00  0.00     0.107 A 
HETATM   17  C   UNL     1     -40.407 -49.825  12.446  1.00  0.00     0.048 A 
HETATM   18  C   UNL     1     -39.632 -48.738  12.063  1.00  0.00     0.005 A 
HETATM   19  C   UNL     1     -40.200 -47.751  11.269  1.00  0.00     0.017 A 
HETATM   20  C   UNL     1     -41.510 -47.919  10.848  1.00  0.00     0.089 A 
HETATM   21  N   UNL     1     -42.263 -49.001  11.145  1.00  0.00    -0.352 N 
ATOM     22  HN  UNL     1     -43.198 -49.129  10.758  1.00  0.00     0.166 HD
ENDBRANCH  14  16
ENDBRANCH   1  12
TORSDOF 6
ENDMDL
MODEL 5
REMARK VINA RESULT:      -5.6      3.345      6.652
REMARK  6 active torsions:
REMARK  status: ('A' for Active; 'I' for Inactive)
REMARK    1  A    between atoms: C_2  and  C_4 
REMARK    2  A    between atoms: C_4  and  O_5 
REMARK    3  A    between atoms: C_4  and  C_12 
REMARK    4  A    between atoms: O_5  and  C_6 
REMARK    5  A    between atoms: C_6  and  C_7 
REMARK       I    between atoms: C_12  and  N_14 
REMARK    6  A    between atoms: N_14  and  C_15 
ROOT
HETATM    1  C   UNL     1     -42.449 -47.105   9.782  1.00  0.00     0.216 C 
ENDROOT
BRANCH   1   2
HETATM    2  C   UNL     1     -43.776 -47.369   9.005  1.00  0.00     0.016 C 
HETATM    3  C   UNL     1     -44.667 -46.131   8.882  1.00  0.00     0.012 C 
HETATM    4  C   UNL     1     -43.496 -47.917   7.594  1.00  0.00     0.012 C 
ENDBRANCH   1   2
BRANCH   1   5
HETATM    5  O   UNL     1     -42.510 -45.822  10.440  1.00  0.00    -0.374 OA
BRANCH   5   6
HETATM    6  C   UNL     1     -41.219 -45.253  10.678  1.00  0.00     0.200 C 
BRANCH   6   7
HETATM    7  C   UNL     1     -40.797 -45.242  12.144  1.00  0.00     0.145 C 
HETATM    8  C   UNL     1     -39.761 -46.279  12.534  1.00  0.00     0.036 C 
HETATM    9  C   UNL     1     -40.190 -46.743  13.915  1.00  0.00     0.029 C 
HETATM   10  C   UNL     1     -41.453 -45.967  14.221  1.00  0.00     0.168 C 
HETATM   11  O   UNL     1     -41.952 -45.532  12.957  1.00  0.00    -0.384 OA
ENDBRANCH   6   7
ENDBRANCH   5   6
ENDBRANCH   1   5
BRANCH   1  12
HETATM   12  C   UNL     1     -42.230 -48.295  10.766  1.00  0.00     0.252 C 
HETATM   13  O   UNL     1     -42.970 -48.489  11.727  1.00  0.00    -0.270 OA
HETATM   14  N   UNL     1     -41.125 -49.077  10.469  1.00  0.00    -0.311 N 
HETATM   15  H   UNL     1     -40.349 -48.625  10.008  1.00  0.00     0.170 HD
BRANCH  14  16
HETATM   16  C   UNL     1     -40.692 -50.046  11.375  1.00  0.00     0.107 A 
HETATM   17  C   UNL     1     -39.452 -49.949  11.991  1.00  0.00     0.048 A 
HETATM   18  C   UNL     1     -39.065 -50.963  12.857  1.00  0.00     0.005 A 
HETATM   19  C   UNL     1     -39.905 -52.053  13.039  1.00  0.00     0.017 A 
HETATM   20  C   UNL     1     -41.126 -52.058  12.383  1.00  0.00     0.089 A 
HETATM   21  N   UNL     1     -41.560 -51.052  11.594  1.00  0.00    -0.352 N 
ATOM     22  HN  UNL     1     -42.495 -51.053  11.185  1.00  0.00     0.166 HD
ENDBRANCH  14  16
ENDBRANCH   1  12
TORSDOF 6
ENDMDL
MODEL 6
REMARK VINA RESULT:      -5.5      3.535      4.672
REMARK  6 active torsions:
REMARK  status: ('A' for Active; 'I' for Inactive)
REMARK    1  A    between atoms: C_2  and  C_4 
REMARK    2  A    between atoms: C_4  and  O_5 
REMARK    3  A    between atoms: C_4  and  C_12 
REMARK    4  A    between atoms: O_5  and  C_6 
REMARK    5  A    between atoms: C_6  and  C_7 
REMARK       I    between atoms: C_12  and  N_14 
REMARK    6  A    between atoms: N_14  and  C_15 
ROOT
HETATM    1  C   UNL     1     -39.922 -50.205  11.930  1.00  0.00     0.216 C 
ENDROOT
BRANCH   1   2
HETATM    2  C   UNL     1     -38.656 -49.295  11.893  1.00  0.00     0.016 C 
HETATM    3  C   UNL     1     -38.239 -48.774  13.270  1.00  0.00     0.012 C 
HETATM    4  C   UNL     1     -37.460 -50.029  11.261  1.00  0.00     0.012 C 
ENDBRANCH   1   2
BRANCH   1   5
HETATM    5  O   UNL     1     -40.046 -50.827  13.226  1.00  0.00    -0.374 OA
BRANCH   5   6
HETATM    6  C   UNL     1     -40.131 -52.254  13.157  1.00  0.00     0.200 C 
BRANCH   6   7
HETATM    7  C   UNL     1     -39.169 -52.987  14.086  1.00  0.00     0.145 C 
HETATM    8  C   UNL     1     -39.270 -54.500  14.071  1.00  0.00     0.036 C 
HETATM    9  C   UNL     1     -39.069 -54.908  15.520  1.00  0.00     0.029 C 
HETATM   10  C   UNL     1     -38.892 -53.611  16.278  1.00  0.00     0.168 C 
HETATM   11  O   UNL     1     -39.456 -52.599  15.445  1.00  0.00    -0.384 OA
ENDBRANCH   6   7
ENDBRANCH   5   6
ENDBRANCH   1   5
BRANCH   1  12
HETATM   12  C   UNL     1     -41.152 -49.324  11.548  1.00  0.00     0.252 C 
HETATM   13  O   UNL     1     -42.284 -49.575  11.956  1.00  0.00    -0.270 OA
HETATM   14  N   UNL     1     -40.850 -48.270  10.700  1.00  0.00    -0.311 N 
HETATM   15  H   UNL     1     -40.074 -48.394  10.067  1.00  0.00     0.170 HD
BRANCH  14  16
HETATM   16  C   UNL     1     -41.877 -47.527  10.117  1.00  0.00     0.107 A 
HETATM   17  C   UNL     1     -42.131 -46.222  10.513  1.00  0.00     0.048 A 
HETATM   18  C   UNL     1     -43.189 -45.546   9.919  1.00  0.00     0.005 A 
HETATM   19  C   UNL     1     -43.979 -46.211   8.991  1.00  0.00     0.017 A 
HETATM   20  C   UNL     1     -43.643 -47.514   8.656  1.00  0.00     0.089 A 
HETATM   21  N   UNL     1     -42.577 -48.170   9.163  1.00  0.00    -0.352 N 
ATOM     22  HN  UNL     1     -42.315 -49.102   8.840  1.00  0.00     0.166 HD
ENDBRANCH  14  16
ENDBRANCH   1  12
TORSDOF 6
ENDMDL
MODEL 7
REMARK VINA RESULT:      -5.4      2.177      5.992
REMARK  6 active torsions:
REMARK  status: ('A' for Active; 'I' for Inactive)
REMARK    1  A    between atoms: C_2  and  C_4 
REMARK    2  A    between atoms: C_4  and  O_5 
REMARK    3  A    between atoms: C_4  and  C_12 
REMARK    4  A    between atoms: O_5  and  C_6 
REMARK    5  A    between atoms: C_6  and  C_7 
REMARK       I    between atoms: C_12  and  N_14 
REMARK    6  A    between atoms: N_14  and  C_15 
ROOT
HETATM    1  C   UNL     1     -41.383 -48.930  12.183  1.00  0.00     0.216 C 
ENDROOT
BRANCH   1   2
HETATM    2  C   UNL     1     -39.979 -49.365  12.704  1.00  0.00     0.016 C 
HETATM    3  C   UNL     1     -39.009 -49.757  11.588  1.00  0.00     0.012 C 
HETATM    4  C   UNL     1     -39.331 -48.256  13.553  1.00  0.00     0.012 C 
ENDBRANCH   1   2
BRANCH   1   5
HETATM    5  O   UNL     1     -41.358 -48.801  10.746  1.00  0.00    -0.374 OA
BRANCH   5   6
HETATM    6  C   UNL     1     -41.798 -47.517  10.290  1.00  0.00     0.200 C 
BRANCH   6   7
HETATM    7  C   UNL     1     -43.067 -47.552   9.445  1.00  0.00     0.145 C 
HETATM    8  C   UNL     1     -43.428 -46.251   8.754  1.00  0.00     0.036 C 
HETATM    9  C   UNL     1     -44.942 -46.179   8.848  1.00  0.00     0.029 C 
HETATM   10  C   UNL     1     -45.354 -47.423   9.605  1.00  0.00     0.168 C 
HETATM   11  O   UNL     1     -44.185 -47.851  10.304  1.00  0.00    -0.384 OA
ENDBRANCH   6   7
ENDBRANCH   5   6
ENDBRANCH   1   5
BRANCH   1  12
HETATM   12  C   UNL     1     -42.424 -49.976  12.691  1.00  0.00     0.252 C 
HETATM   13  O   UNL     1     -43.273 -49.693  13.532  1.00  0.00    -0.270 OA
HETATM   14  N   UNL     1     -42.279 -51.234  12.129  1.00  0.00    -0.311 N 
HETATM   15  H   UNL     1     -41.351 -51.511  11.845  1.00  0.00     0.170 HD
BRANCH  14  16
HETATM   16  C   UNL     1     -43.005 -52.313  12.638  1.00  0.00     0.107 A 
HETATM   17  C   UNL     1     -42.385 -53.304  13.385  1.00  0.00     0.048 A 
HETATM   18  C   UNL     1     -43.155 -54.370  13.834  1.00  0.00     0.005 A 
HETATM   19  C   UNL     1     -44.497 -54.428  13.484  1.00  0.00     0.017 A 
HETATM   20  C   UNL     1     -45.027 -53.387  12.738  1.00  0.00     0.089 A 
HETATM   21  N   UNL     1     -44.320 -52.303  12.350  1.00  0.00    -0.352 N 
ATOM     22  HN  UNL     1     -44.759 -51.520  11.865  1.00  0.00     0.166 HD
ENDBRANCH  14  16
ENDBRANCH   1  12
TORSDOF 6
ENDMDL
MODEL 8
REMARK VINA RESULT:      -5.4      1.134      1.367
REMARK  6 active torsions:
REMARK  status: ('A' for Active; 'I' for Inactive)
REMARK    1  A    between atoms: C_2  and  C_4 
REMARK    2  A    between atoms: C_4  and  O_5 
REMARK    3  A    between atoms: C_4  and  C_12 
REMARK    4  A    between atoms: O_5  and  C_6 
REMARK    5  A    between atoms: C_6  and  C_7 
REMARK       I    between atoms: C_12  and  N_14 
REMARK    6  A    between atoms: N_14  and  C_15 
ROOT
HETATM    1  C   UNL     1     -41.563 -53.378  13.120  1.00  0.00     0.216 C 
ENDROOT
BRANCH   1   2
HETATM    2  C   UNL     1     -40.729 -53.866  14.345  1.00  0.00     0.016 C 
HETATM    3  C   UNL     1     -41.507 -54.793  15.282  1.00  0.00     0.012 C 
HETATM    4  C   UNL     1     -39.445 -54.585  13.894  1.00  0.00     0.012 C 
ENDBRANCH   1   2
BRANCH   1   5
HETATM    5  O   UNL     1     -42.928 -53.831  13.240  1.00  0.00    -0.374 OA
BRANCH   5   6
HETATM    6  C   UNL     1     -43.835 -53.105  12.404  1.00  0.00     0.200 C 
BRANCH   6   7
HETATM    7  C   UNL     1     -45.248 -52.986  12.966  1.00  0.00     0.145 C 
HETATM    8  C   UNL     1     -45.866 -51.603  12.895  1.00  0.00     0.036 C 
HETATM    9  C   UNL     1     -46.639 -51.466  14.195  1.00  0.00     0.029 C 
HETATM   10  C   UNL     1     -46.399 -52.761  14.939  1.00  0.00     0.168 C 
HETATM   11  O   UNL     1     -45.216 -53.319  14.368  1.00  0.00    -0.384 OA
ENDBRANCH   6   7
ENDBRANCH   5   6
ENDBRANCH   1   5
BRANCH   1  12
HETATM   12  C   UNL     1     -41.432 -51.825  13.044  1.00  0.00     0.252 C 
HETATM   13  O   UNL     1     -41.953 -51.086  13.876  1.00  0.00    -0.270 OA
HETATM   14  N   UNL     1     -40.707 -51.373  11.953  1.00  0.00    -0.311 N 
HETATM   15  H   UNL     1     -40.722 -51.941  11.120  1.00  0.00     0.170 HD
BRANCH  14  16
HETATM   16  C   UNL     1     -40.682 -50.011  11.648  1.00  0.00     0.107 A 
HETATM   17  C   UNL     1     -39.572 -49.231  11.941  1.00  0.00     0.048 A 
HETATM   18  C   UNL     1     -39.621 -47.875  11.644  1.00  0.00     0.005 A 
HETATM   19  C   UNL     1     -40.788 -47.343  11.111  1.00  0.00     0.017 A 
HETATM   20  C   UNL     1     -41.843 -48.203  10.849  1.00  0.00     0.089 A 
HETATM   21  N   UNL     1     -41.796 -49.537  11.059  1.00  0.00    -0.352 N 
ATOM     22  HN  UNL     1     -42.563 -50.152  10.786  1.00  0.00     0.166 HD
ENDBRANCH  14  16
ENDBRANCH   1  12
TORSDOF 6
ENDMDL
MODEL 9
REMARK VINA RESULT:      -5.3      2.378      3.248
REMARK  6 active torsions:
REMARK  status: ('A' for Active; 'I' for Inactive)
REMARK    1  A    between atoms: C_2  and  C_4 
REMARK    2  A    between atoms: C_4  and  O_5 
REMARK    3  A    between atoms: C_4  and  C_12 
REMARK    4  A    between atoms: O_5  and  C_6 
REMARK    5  A    between atoms: C_6  and  C_7 
REMARK       I    between atoms: C_12  and  N_14 
REMARK    6  A    between atoms: N_14  and  C_15 
ROOT
HETATM    1  C   UNL     1     -41.525 -54.270  14.379  1.00  0.00     0.216 C 
ENDROOT
BRANCH   1   2
HETATM    2  C   UNL     1     -40.579 -54.446  15.607  1.00  0.00     0.016 C 
HETATM    3  C   UNL     1     -41.190 -55.281  16.734  1.00  0.00     0.012 C 
HETATM    4  C   UNL     1     -39.240 -55.083  15.192  1.00  0.00     0.012 C 
ENDBRANCH   1   2
BRANCH   1   5
HETATM    5  O   UNL     1     -42.799 -53.745  14.810  1.00  0.00    -0.374 OA
BRANCH   5   6
HETATM    6  C   UNL     1     -43.865 -54.047  13.904  1.00  0.00     0.200 C 
BRANCH   6   7
HETATM    7  C   UNL     1     -44.555 -52.821  13.314  1.00  0.00     0.145 C 
HETATM    8  C   UNL     1     -45.281 -51.938  14.310  1.00  0.00     0.036 C 
HETATM    9  C   UNL     1     -46.538 -51.497  13.579  1.00  0.00     0.029 C 
HETATM   10  C   UNL     1     -46.468 -52.170  12.226  1.00  0.00     0.168 C 
HETATM   11  O   UNL     1     -45.566 -53.264  12.387  1.00  0.00    -0.384 OA
ENDBRANCH   6   7
ENDBRANCH   5   6
ENDBRANCH   1   5
BRANCH   1  12
HETATM   12  C   UNL     1     -40.798 -53.355  13.345  1.00  0.00     0.252 C 
HETATM   13  O   UNL     1     -40.604 -53.712  12.186  1.00  0.00    -0.270 OA
HETATM   14  N   UNL     1     -40.380 -52.140  13.863  1.00  0.00    -0.311 N 
HETATM   15  H   UNL     1     -40.151 -52.109  14.845  1.00  0.00     0.170 HD
BRANCH  14  16
HETATM   16  C   UNL     1     -39.543 -51.313  13.112  1.00  0.00     0.107 A 
HETATM   17  C   UNL     1     -38.176 -51.275  13.347  1.00  0.00     0.048 A 
HETATM   18  C   UNL     1     -37.400 -50.406  12.590  1.00  0.00     0.005 A 
HETATM   19  C   UNL     1     -38.022 -49.580  11.663  1.00  0.00     0.017 A 
HETATM   20  C   UNL     1     -39.393 -49.694  11.497  1.00  0.00     0.089 A 
HETATM   21  N   UNL     1     -40.161 -50.580  12.166  1.00  0.00    -0.352 N 
ATOM     22  HN  UNL     1     -41.156 -50.689  11.967  1.00  0.00     0.166 HD
ENDBRANCH  14  16
ENDBRANCH   1  12
TORSDOF 6
ENDMDL
