MODEL 1
REMARK VINA RESULT:      -6.0      0.000      0.000
REMARK  6 active torsions:
REMARK  status: ('A' for Active; 'I' for Inactive)
REMARK    1  A    between atoms: C_4  and  O_5 
REMARK    2  A    between atoms: N_9  and  C_10 
REMARK    3  A    between atoms: C_10  and  C_11 
REMARK       I    between atoms: C_11  and  N_13 
REMARK    4  A    between atoms: N_13  and  C_14 
REMARK    5  A    between atoms: C_14  and  C_15 
REMARK    6  A    between atoms: C_14  and  C_20 
ROOT
HETATM    1  C   UNL     1     -41.159 -50.019  12.015  1.00  0.00     0.236 C 
HETATM    2  O   UNL     1     -40.258 -50.386  11.260  1.00  0.00    -0.272 OA
HETATM    3  N   UNL     1     -41.895 -48.877  11.769  1.00  0.00    -0.346 N 
HETATM    4  H   UNL     1     -42.619 -48.617  12.437  1.00  0.00     0.163 HD
ENDROOT
BRANCH   1   5
HETATM    5  C   UNL     1     -41.531 -50.813  13.274  1.00  0.00     0.234 C 
BRANCH   5   6
HETATM    6  N   UNL     1     -42.610 -51.788  13.104  1.00  0.00    -0.310 N 
HETATM    7  C   UNL     1     -42.362 -53.152  12.884  1.00  0.00     0.014 A 
HETATM    8  C   UNL     1     -40.958 -53.649  12.669  1.00  0.00     0.068 C 
HETATM    9  C   UNL     1     -43.386 -54.025  12.860  1.00  0.00     0.061 A 
HETATM   10  C   UNL     1     -44.736 -53.582  13.084  1.00  0.00     0.072 A 
HETATM   11  C   UNL     1     -45.011 -52.291  13.266  1.00  0.00     0.111 A 
HETATM   12  C   UNL     1     -43.913 -51.293  13.248  1.00  0.00     0.250 A 
HETATM   13  O   UNL     1     -44.175 -50.097  13.379  1.00  0.00    -0.268 OA
BRANCH  10  14
HETATM   14  O   UNL     1     -45.729 -54.535  13.114  1.00  0.00    -0.360 OA
HETATM   15  H   UNL     1     -45.613 -55.149  12.369  1.00  0.00     0.217 HD
ENDBRANCH  10  14
ENDBRANCH   5   6
ENDBRANCH   1   5
BRANCH   3  16
HETATM   16  C   UNL     1     -41.492 -47.931  10.696  1.00  0.00     0.196 C 
BRANCH  16  17
HETATM   17  C   UNL     1     -42.703 -47.272   9.999  1.00  0.00     0.017 C 
HETATM   18  C   UNL     1     -44.038 -47.370  10.754  1.00  0.00     0.007 C 
HETATM   19  C   UNL     1     -45.111 -47.656   9.707  1.00  0.00     0.000 C 
HETATM   20  C   UNL     1     -44.440 -47.488   8.353  1.00  0.00     0.000 C 
HETATM   21  C   UNL     1     -42.985 -47.840   8.606  1.00  0.00     0.007 C 
ENDBRANCH  16  17
BRANCH  16  22
HETATM   22  C   UNL     1     -40.425 -46.880  11.120  1.00  0.00     0.407 C 
HETATM   23  F   UNL     1     -40.333 -45.858  10.235  1.00  0.00    -0.169 F 
HETATM   24  F   UNL     1     -40.719 -46.343  12.328  1.00  0.00    -0.169 F 
HETATM   25  F   UNL     1     -39.184 -47.414  11.226  1.00  0.00    -0.169 F 
ENDBRANCH  16  22
ENDBRANCH   3  16
TORSDOF 6
ENDMDL
MODEL 2
REMARK VINA RESULT:      -5.9      5.442      6.925
REMARK  6 active torsions:
REMARK  status: ('A' for Active; 'I' for Inactive)
REMARK    1  A    between atoms: C_4  and  O_5 
REMARK    2  A    between atoms: N_9  and  C_10 
REMARK    3  A    between atoms: C_10  and  C_11 
REMARK       I    between atoms: C_11  and  N_13 
REMARK    4  A    between atoms: N_13  and  C_14 
REMARK    5  A    between atoms: C_14  and  C_15 
REMARK    6  A    between atoms: C_14  and  C_20 
ROOT
HETATM    1  C   UNL     1     -44.609 -54.043  15.669  1.00  0.00     0.236 C 
HETATM    2  O   UNL     1     -45.083 -54.374  16.756  1.00  0.00    -0.272 OA
HETATM    3  N   UNL     1     -44.734 -52.757  15.181  1.00  0.00    -0.346 N 
HETATM    4  H   UNL     1     -44.331 -52.546  14.269  1.00  0.00     0.163 HD
ENDROOT
BRANCH   1   5
HETATM    5  C   UNL     1     -43.837 -55.035  14.788  1.00  0.00     0.234 C 
BRANCH   5   6
HETATM    6  N   UNL     1     -42.440 -54.684  14.525  1.00  0.00    -0.310 N 
HETATM    7  C   UNL     1     -41.397 -55.055  15.388  1.00  0.00     0.014 A 
HETATM    8  C   UNL     1     -41.695 -55.713  16.708  1.00  0.00     0.068 C 
HETATM    9  C   UNL     1     -40.120 -54.818  15.038  1.00  0.00     0.061 A 
HETATM   10  C   UNL     1     -39.804 -54.210  13.773  1.00  0.00     0.072 A 
HETATM   11  C   UNL     1     -40.770 -53.818  12.943  1.00  0.00     0.111 A 
HETATM   12  C   UNL     1     -42.192 -54.016  13.318  1.00  0.00     0.250 A 
HETATM   13  O   UNL     1     -43.082 -53.619  12.565  1.00  0.00    -0.268 OA
BRANCH  10  14
HETATM   14  O   UNL     1     -38.476 -54.057  13.446  1.00  0.00    -0.360 OA
HETATM   15  H   UNL     1     -38.116 -54.908  13.144  1.00  0.00     0.217 HD
ENDBRANCH  10  14
ENDBRANCH   5   6
ENDBRANCH   1   5
BRANCH   3  16
HETATM   16  C   UNL     1     -45.625 -51.774  15.851  1.00  0.00     0.196 C 
BRANCH  16  17
HETATM   17  C   UNL     1     -45.001 -50.364  15.932  1.00  0.00     0.017 C 
HETATM   18  C   UNL     1     -43.507 -50.278  15.579  1.00  0.00     0.007 C 
HETATM   19  C   UNL     1     -42.879 -49.307  16.575  1.00  0.00     0.000 C 
HETATM   20  C   UNL     1     -44.032 -48.669  17.332  1.00  0.00     0.000 C 
HETATM   21  C   UNL     1     -45.125 -49.722  17.316  1.00  0.00     0.007 C 
ENDBRANCH  16  17
BRANCH  16  22
HETATM   22  C   UNL     1     -47.081 -51.734  15.301  1.00  0.00     0.407 C 
HETATM   23  F   UNL     1     -47.953 -51.220  16.201  1.00  0.00    -0.169 F 
HETATM   24  F   UNL     1     -47.160 -50.976  14.182  1.00  0.00    -0.169 F 
HETATM   25  F   UNL     1     -47.545 -52.963  14.971  1.00  0.00    -0.169 F 
ENDBRANCH  16  22
ENDBRANCH   3  16
TORSDOF 6
ENDMDL
MODEL 3
REMARK VINA RESULT:      -5.8      2.489      4.004
REMARK  6 active torsions:
REMARK  status: ('A' for Active; 'I' for Inactive)
REMARK    1  A    between atoms: C_4  and  O_5 
REMARK    2  A    between atoms: N_9  and  C_10 
REMARK    3  A    between atoms: C_10  and  C_11 
REMARK       I    between atoms: C_11  and  N_13 
REMARK    4  A    between atoms: N_13  and  C_14 
REMARK    5  A    between atoms: C_14  and  C_15 
REMARK    6  A    between atoms: C_14  and  C_20 
ROOT
HETATM    1  C   UNL     1     -42.665 -47.473  13.125  1.00  0.00     0.236 C 
HETATM    2  O   UNL     1     -43.285 -46.522  13.602  1.00  0.00    -0.272 OA
HETATM    3  N   UNL     1     -42.316 -47.520  11.790  1.00  0.00    -0.346 N 
HETATM    4  H   UNL     1     -41.814 -48.339  11.450  1.00  0.00     0.163 HD
ENDROOT
BRANCH   1   5
HETATM    5  C   UNL     1     -42.228 -48.666  13.986  1.00  0.00     0.234 C 
BRANCH   5   6
HETATM    6  N   UNL     1     -41.779 -49.845  13.242  1.00  0.00    -0.310 N 
HETATM    7  C   UNL     1     -40.427 -50.071  12.937  1.00  0.00     0.014 A 
HETATM    8  C   UNL     1     -39.390 -49.025  13.243  1.00  0.00     0.068 C 
HETATM    9  C   UNL     1     -40.053 -51.229  12.364  1.00  0.00     0.061 A 
HETATM   10  C   UNL     1     -41.020 -52.255  12.081  1.00  0.00     0.072 A 
HETATM   11  C   UNL     1     -42.315 -52.063  12.329  1.00  0.00     0.111 A 
HETATM   12  C   UNL     1     -42.771 -50.778  12.914  1.00  0.00     0.250 A 
HETATM   13  O   UNL     1     -43.973 -50.589  13.108  1.00  0.00    -0.268 OA
BRANCH  10  14
HETATM   14  O   UNL     1     -40.563 -53.443  11.556  1.00  0.00    -0.360 OA
HETATM   15  H   UNL     1     -39.626 -53.562  11.788  1.00  0.00     0.217 HD
ENDBRANCH  10  14
ENDBRANCH   5   6
ENDBRANCH   1   5
BRANCH   3  16
HETATM   16  C   UNL     1     -42.857 -46.522  10.829  1.00  0.00     0.196 C 
BRANCH  16  17
HETATM   17  C   UNL     1     -41.825 -45.434  10.459  1.00  0.00     0.017 C 
HETATM   18  C   UNL     1     -40.351 -45.820  10.661  1.00  0.00     0.007 C 
HETATM   19  C   UNL     1     -39.654 -44.592  11.239  1.00  0.00     0.000 C 
HETATM   20  C   UNL     1     -40.655 -43.452  11.148  1.00  0.00     0.000 C 
HETATM   21  C   UNL     1     -42.010 -44.130  11.238  1.00  0.00     0.007 C 
ENDBRANCH  16  17
BRANCH  16  22
HETATM   22  C   UNL     1     -43.535 -47.133   9.568  1.00  0.00     0.407 C 
HETATM   23  F   UNL     1     -43.815 -46.193   8.633  1.00  0.00    -0.169 F 
HETATM   24  F   UNL     1     -42.738 -48.059   8.984  1.00  0.00    -0.169 F 
HETATM   25  F   UNL     1     -44.704 -47.754   9.857  1.00  0.00    -0.169 F 
ENDBRANCH  16  22
ENDBRANCH   3  16
TORSDOF 6
ENDMDL
MODEL 4
REMARK VINA RESULT:      -5.8      5.144      7.794
REMARK  6 active torsions:
REMARK  status: ('A' for Active; 'I' for Inactive)
REMARK    1  A    between atoms: C_4  and  O_5 
REMARK    2  A    between atoms: N_9  and  C_10 
REMARK    3  A    between atoms: C_10  and  C_11 
REMARK       I    between atoms: C_11  and  N_13 
REMARK    4  A    between atoms: N_13  and  C_14 
REMARK    5  A    between atoms: C_14  and  C_15 
REMARK    6  A    between atoms: C_14  and  C_20 
ROOT
HETATM    1  C   UNL     1     -42.131 -53.222  16.198  1.00  0.00     0.236 C 
HETATM    2  O   UNL     1     -41.525 -52.149  16.205  1.00  0.00    -0.272 OA
HETATM    3  N   UNL     1     -41.485 -54.422  15.973  1.00  0.00    -0.346 N 
HETATM    4  H   UNL     1     -42.042 -55.275  15.966  1.00  0.00     0.163 HD
ENDROOT
BRANCH   1   5
HETATM    5  C   UNL     1     -43.643 -53.298  16.451  1.00  0.00     0.234 C 
BRANCH   5   6
HETATM    6  N   UNL     1     -44.486 -53.108  15.268  1.00  0.00    -0.310 N 
HETATM    7  C   UNL     1     -45.039 -51.863  14.932  1.00  0.00     0.014 A 
HETATM    8  C   UNL     1     -44.904 -50.690  15.865  1.00  0.00     0.068 C 
HETATM    9  C   UNL     1     -45.700 -51.714  13.770  1.00  0.00     0.061 A 
HETATM   10  C   UNL     1     -45.826 -52.812  12.849  1.00  0.00     0.072 A 
HETATM   11  C   UNL     1     -45.340 -54.016  13.149  1.00  0.00     0.111 A 
HETATM   12  C   UNL     1     -44.649 -54.230  14.445  1.00  0.00     0.250 A 
HETATM   13  O   UNL     1     -44.233 -55.353  14.735  1.00  0.00    -0.268 OA
BRANCH  10  14
HETATM   14  O   UNL     1     -46.455 -52.576  11.648  1.00  0.00    -0.360 OA
HETATM   15  H   UNL     1     -45.972 -51.889  11.158  1.00  0.00     0.217 HD
ENDBRANCH  10  14
ENDBRANCH   5   6
ENDBRANCH   1   5
BRANCH   3  16
HETATM   16  C   UNL     1     -40.069 -54.449  15.522  1.00  0.00     0.196 C 
BRANCH  16  17
HETATM   17  C   UNL     1     -39.295 -55.669  16.066  1.00  0.00     0.017 C 
HETATM   18  C   UNL     1     -40.117 -56.651  16.918  1.00  0.00     0.007 C 
HETATM   19  C   UNL     1     -39.222 -57.074  18.080  1.00  0.00     0.000 C 
HETATM   20  C   UNL     1     -37.836 -56.532  17.769  1.00  0.00     0.000 C 
HETATM   21  C   UNL     1     -38.094 -55.290  16.935  1.00  0.00     0.007 C 
ENDBRANCH  16  17
BRANCH  16  22
HETATM   22  C   UNL     1     -39.869 -54.271  13.989  1.00  0.00     0.407 C 
HETATM   23  F   UNL     1     -39.424 -53.031  13.672  1.00  0.00    -0.169 F 
HETATM   24  F   UNL     1     -38.969 -55.160  13.506  1.00  0.00    -0.169 F 
HETATM   25  F   UNL     1     -41.015 -54.462  13.291  1.00  0.00    -0.169 F 
ENDBRANCH  16  22
ENDBRANCH   3  16
TORSDOF 6
ENDMDL
MODEL 5
REMARK VINA RESULT:      -5.8      3.425      6.596
REMARK  6 active torsions:
REMARK  status: ('A' for Active; 'I' for Inactive)
REMARK    1  A    between atoms: C_4  and  O_5 
REMARK    2  A    between atoms: N_9  and  C_10 
REMARK    3  A    between atoms: C_10  and  C_11 
REMARK       I    between atoms: C_11  and  N_13 
REMARK    4  A    between atoms: N_13  and  C_14 
REMARK    5  A    between atoms: C_14  and  C_15 
REMARK    6  A    between atoms: C_14  and  C_20 
ROOT
HETATM    1  C   UNL     1     -42.003 -50.150  12.442  1.00  0.00     0.236 C 
HETATM    2  O   UNL     1     -41.948 -49.530  13.505  1.00  0.00    -0.272 OA
HETATM    3  N   UNL     1     -42.546 -51.417  12.365  1.00  0.00    -0.346 N 
HETATM    4  H   UNL     1     -42.553 -51.885  11.460  1.00  0.00     0.163 HD
ENDROOT
BRANCH   1   5
HETATM    5  C   UNL     1     -41.483 -49.549  11.128  1.00  0.00     0.234 C 
BRANCH   5   6
HETATM    6  N   UNL     1     -41.337 -48.092  11.120  1.00  0.00    -0.310 N 
HETATM    7  C   UNL     1     -40.139 -47.455  11.480  1.00  0.00     0.014 A 
HETATM    8  C   UNL     1     -38.987 -48.250  12.034  1.00  0.00     0.068 C 
HETATM    9  C   UNL     1     -40.017 -46.123  11.335  1.00  0.00     0.061 A 
HETATM   10  C   UNL     1     -41.094 -45.341  10.788  1.00  0.00     0.072 A 
HETATM   11  C   UNL     1     -42.255 -45.908  10.464  1.00  0.00     0.111 A 
HETATM   12  C   UNL     1     -42.444 -47.367  10.659  1.00  0.00     0.250 A 
HETATM   13  O   UNL     1     -43.531 -47.882  10.393  1.00  0.00    -0.268 OA
BRANCH  10  14
HETATM   14  O   UNL     1     -40.881 -43.994  10.602  1.00  0.00    -0.360 OA
HETATM   15  H   UNL     1     -40.540 -43.840   9.705  1.00  0.00     0.217 HD
ENDBRANCH  10  14
ENDBRANCH   5   6
ENDBRANCH   1   5
BRANCH   3  16
HETATM   16  C   UNL     1     -42.895 -52.169  13.599  1.00  0.00     0.196 C 
BRANCH  16  17
HETATM   17  C   UNL     1     -44.416 -52.393  13.748  1.00  0.00     0.017 C 
HETATM   18  C   UNL     1     -45.168 -52.729  12.450  1.00  0.00     0.007 C 
HETATM   19  C   UNL     1     -46.487 -51.962  12.500  1.00  0.00     0.000 C 
HETATM   20  C   UNL     1     -46.592 -51.387  13.903  1.00  0.00     0.000 C 
HETATM   21  C   UNL     1     -45.152 -51.189  14.341  1.00  0.00     0.007 C 
ENDBRANCH  16  17
BRANCH  16  22
HETATM   22  C   UNL     1     -42.091 -53.485  13.809  1.00  0.00     0.407 C 
HETATM   23  F   UNL     1     -41.235 -53.400  14.855  1.00  0.00    -0.169 F 
HETATM   24  F   UNL     1     -42.918 -54.531  14.047  1.00  0.00    -0.169 F 
HETATM   25  F   UNL     1     -41.348 -53.818  12.726  1.00  0.00    -0.169 F 
ENDBRANCH  16  22
ENDBRANCH   3  16
TORSDOF 6
ENDMDL
MODEL 6
REMARK VINA RESULT:      -5.7      2.323      3.781
REMARK  6 active torsions:
REMARK  status: ('A' for Active; 'I' for Inactive)
REMARK    1  A    between atoms: C_4  and  O_5 
REMARK    2  A    between atoms: N_9  and  C_10 
REMARK    3  A    between atoms: C_10  and  C_11 
REMARK       I    between atoms: C_11  and  N_13 
REMARK    4  A    between atoms: N_13  and  C_14 
REMARK    5  A    between atoms: C_14  and  C_15 
REMARK    6  A    between atoms: C_14  and  C_20 
ROOT
HETATM    1  C   UNL     1     -42.163 -51.018  12.500  1.00  0.00     0.236 C 
HETATM    2  O   UNL     1     -42.487 -50.698  13.645  1.00  0.00    -0.272 OA
HETATM    3  N   UNL     1     -41.771 -50.082  11.565  1.00  0.00    -0.346 N 
HETATM    4  H   UNL     1     -41.526 -50.406  10.630  1.00  0.00     0.163 HD
ENDROOT
BRANCH   1   5
HETATM    5  C   UNL     1     -42.164 -52.483  12.041  1.00  0.00     0.234 C 
BRANCH   5   6
HETATM    6  N   UNL     1     -42.359 -53.473  13.103  1.00  0.00    -0.310 N 
HETATM    7  C   UNL     1     -41.336 -53.828  13.996  1.00  0.00     0.014 A 
HETATM    8  C   UNL     1     -39.938 -53.305  13.804  1.00  0.00     0.068 C 
HETATM    9  C   UNL     1     -41.602 -54.646  15.030  1.00  0.00     0.061 A 
HETATM   10  C   UNL     1     -42.934 -55.143  15.251  1.00  0.00     0.072 A 
HETATM   11  C   UNL     1     -43.922 -54.851  14.407  1.00  0.00     0.111 A 
HETATM   12  C   UNL     1     -43.655 -53.993  13.226  1.00  0.00     0.250 A 
HETATM   13  O   UNL     1     -44.562 -53.754  12.428  1.00  0.00    -0.268 OA
BRANCH  10  14
HETATM   14  O   UNL     1     -43.154 -55.921  16.366  1.00  0.00    -0.360 OA
HETATM   15  H   UNL     1     -43.905 -55.563  16.869  1.00  0.00     0.217 HD
ENDBRANCH  10  14
ENDBRANCH   5   6
ENDBRANCH   1   5
BRANCH   3  16
HETATM   16  C   UNL     1     -41.922 -48.628  11.836  1.00  0.00     0.196 C 
BRANCH  16  17
HETATM   17  C   UNL     1     -40.600 -47.966  12.282  1.00  0.00     0.017 C 
HETATM   18  C   UNL     1     -39.319 -48.739  11.931  1.00  0.00     0.007 C 
HETATM   19  C   UNL     1     -38.393 -48.618  13.139  1.00  0.00     0.000 C 
HETATM   20  C   UNL     1     -39.034 -47.599  14.067  1.00  0.00     0.000 C 
HETATM   21  C   UNL     1     -40.522 -47.719  13.790  1.00  0.00     0.007 C 
ENDBRANCH  16  17
BRANCH  16  22
HETATM   22  C   UNL     1     -42.622 -47.823  10.703  1.00  0.00     0.407 C 
HETATM   23  F   UNL     1     -42.204 -48.206   9.471  1.00  0.00    -0.169 F 
HETATM   24  F   UNL     1     -43.965 -47.988  10.743  1.00  0.00    -0.169 F 
HETATM   25  F   UNL     1     -42.392 -46.491  10.794  1.00  0.00    -0.169 F 
ENDBRANCH  16  22
ENDBRANCH   3  16
TORSDOF 6
ENDMDL
MODEL 7
REMARK VINA RESULT:      -5.7      2.667      3.700
REMARK  6 active torsions:
REMARK  status: ('A' for Active; 'I' for Inactive)
REMARK    1  A    between atoms: C_4  and  O_5 
REMARK    2  A    between atoms: N_9  and  C_10 
REMARK    3  A    between atoms: C_10  and  C_11 
REMARK       I    between atoms: C_11  and  N_13 
REMARK    4  A    between atoms: N_13  and  C_14 
REMARK    5  A    between atoms: C_14  and  C_15 
REMARK    6  A    between atoms: C_14  and  C_20 
ROOT
HETATM    1  C   UNL     1     -40.546 -51.904  13.339  1.00  0.00     0.236 C 
HETATM    2  O   UNL     1     -40.348 -52.747  12.462  1.00  0.00    -0.272 OA
HETATM    3  N   UNL     1     -40.123 -50.597  13.201  1.00  0.00    -0.346 N 
HETATM    4  H   UNL     1     -40.304 -49.948  13.966  1.00  0.00     0.163 HD
ENDROOT
BRANCH   1   5
HETATM    5  C   UNL     1     -41.287 -52.249  14.638  1.00  0.00     0.234 C 
BRANCH   5   6
HETATM    6  N   UNL     1     -42.543 -52.982  14.467  1.00  0.00    -0.310 N 
HETATM    7  C   UNL     1     -43.702 -52.377  13.956  1.00  0.00     0.014 A 
HETATM    8  C   UNL     1     -43.739 -50.896  13.695  1.00  0.00     0.068 C 
HETATM    9  C   UNL     1     -44.791 -53.124  13.701  1.00  0.00     0.061 A 
HETATM   10  C   UNL     1     -44.777 -54.546  13.920  1.00  0.00     0.072 A 
HETATM   11  C   UNL     1     -43.704 -55.148  14.433  1.00  0.00     0.111 A 
HETATM   12  C   UNL     1     -42.502 -54.348  14.774  1.00  0.00     0.250 A 
HETATM   13  O   UNL     1     -41.526 -54.902  15.282  1.00  0.00    -0.268 OA
BRANCH  10  14
HETATM   14  O   UNL     1     -45.901 -55.262  13.575  1.00  0.00    -0.360 OA
HETATM   15  H   UNL     1     -46.662 -54.661  13.511  1.00  0.00     0.217 HD
ENDBRANCH  10  14
ENDBRANCH   5   6
ENDBRANCH   1   5
BRANCH   3  16
HETATM   16  C   UNL     1     -39.228 -50.202  12.082  1.00  0.00     0.196 C 
BRANCH  16  17
HETATM   17  C   UNL     1     -39.666 -48.885  11.406  1.00  0.00     0.017 C 
HETATM   18  C   UNL     1     -39.565 -47.624  12.281  1.00  0.00     0.007 C 
HETATM   19  C   UNL     1     -40.809 -46.790  11.990  1.00  0.00     0.000 C 
HETATM   20  C   UNL     1     -41.491 -47.444  10.799  1.00  0.00     0.000 C 
HETATM   21  C   UNL     1     -41.112 -48.910  10.904  1.00  0.00     0.007 C 
ENDBRANCH  16  17
BRANCH  16  22
HETATM   22  C   UNL     1     -37.711 -50.199  12.431  1.00  0.00     0.407 C 
HETATM   23  F   UNL     1     -37.216 -51.453  12.570  1.00  0.00    -0.169 F 
HETATM   24  F   UNL     1     -36.988 -49.584  11.465  1.00  0.00    -0.169 F 
HETATM   25  F   UNL     1     -37.446 -49.546  13.588  1.00  0.00    -0.169 F 
ENDBRANCH  16  22
ENDBRANCH   3  16
TORSDOF 6
ENDMDL
MODEL 8
REMARK VINA RESULT:      -5.7      4.008      6.518
REMARK  6 active torsions:
REMARK  status: ('A' for Active; 'I' for Inactive)
REMARK    1  A    between atoms: C_4  and  O_5 
REMARK    2  A    between atoms: N_9  and  C_10 
REMARK    3  A    between atoms: C_10  and  C_11 
REMARK       I    between atoms: C_11  and  N_13 
REMARK    4  A    between atoms: N_13  and  C_14 
REMARK    5  A    between atoms: C_14  and  C_15 
REMARK    6  A    between atoms: C_14  and  C_20 
ROOT
HETATM    1  C   UNL     1     -41.595 -51.662  14.974  1.00  0.00     0.236 C 
HETATM    2  O   UNL     1     -41.045 -52.655  15.452  1.00  0.00    -0.272 OA
HETATM    3  N   UNL     1     -42.873 -51.716  14.454  1.00  0.00    -0.346 N 
HETATM    4  H   UNL     1     -43.270 -50.864  14.062  1.00  0.00     0.163 HD
ENDROOT
BRANCH   1   5
HETATM    5  C   UNL     1     -40.900 -50.294  14.937  1.00  0.00     0.234 C 
BRANCH   5   6
HETATM    6  N   UNL     1     -39.973 -50.092  13.821  1.00  0.00    -0.310 N 
HETATM    7  C   UNL     1     -38.591 -50.307  13.944  1.00  0.00     0.014 A 
HETATM    8  C   UNL     1     -37.983 -50.617  15.285  1.00  0.00     0.068 C 
HETATM    9  C   UNL     1     -37.801 -50.231  12.858  1.00  0.00     0.061 A 
HETATM   10  C   UNL     1     -38.358 -49.957  11.561  1.00  0.00     0.072 A 
HETATM   11  C   UNL     1     -39.660 -49.719  11.412  1.00  0.00     0.111 A 
HETATM   12  C   UNL     1     -40.555 -49.744  12.595  1.00  0.00     0.250 A 
HETATM   13  O   UNL     1     -41.752 -49.488  12.459  1.00  0.00    -0.268 OA
BRANCH  10  14
HETATM   14  O   UNL     1     -37.504 -49.960  10.481  1.00  0.00    -0.360 OA
HETATM   15  H   UNL     1     -36.631 -50.286  10.757  1.00  0.00     0.217 HD
ENDBRANCH  10  14
ENDBRANCH   5   6
ENDBRANCH   1   5
BRANCH   3  16
HETATM   16  C   UNL     1     -43.558 -53.021  14.259  1.00  0.00     0.196 C 
BRANCH  16  17
HETATM   17  C   UNL     1     -45.072 -52.947  14.553  1.00  0.00     0.017 C 
HETATM   18  C   UNL     1     -45.856 -51.904  13.740  1.00  0.00     0.007 C 
HETATM   19  C   UNL     1     -46.854 -51.264  14.701  1.00  0.00     0.000 C 
HETATM   20  C   UNL     1     -46.806 -52.089  15.977  1.00  0.00     0.000 C 
HETATM   21  C   UNL     1     -45.393 -52.641  16.017  1.00  0.00     0.007 C 
ENDBRANCH  16  17
BRANCH  16  22
HETATM   22  C   UNL     1     -43.264 -53.713  12.896  1.00  0.00     0.407 C 
HETATM   23  F   UNL     1     -44.267 -54.542  12.517  1.00  0.00    -0.169 F 
HETATM   24  F   UNL     1     -43.100 -52.800  11.909  1.00  0.00    -0.169 F 
HETATM   25  F   UNL     1     -42.134 -54.459  12.926  1.00  0.00    -0.169 F 
ENDBRANCH  16  22
ENDBRANCH   3  16
TORSDOF 6
ENDMDL
MODEL 9
REMARK VINA RESULT:      -5.7      2.991      4.430
REMARK  6 active torsions:
REMARK  status: ('A' for Active; 'I' for Inactive)
REMARK    1  A    between atoms: C_4  and  O_5 
REMARK    2  A    between atoms: N_9  and  C_10 
REMARK    3  A    between atoms: C_10  and  C_11 
REMARK       I    between atoms: C_11  and  N_13 
REMARK    4  A    between atoms: N_13  and  C_14 
REMARK    5  A    between atoms: C_14  and  C_15 
REMARK    6  A    between atoms: C_14  and  C_20 
ROOT
HETATM    1  C   UNL     1     -41.105 -48.946  11.295  1.00  0.00     0.236 C 
HETATM    2  O   UNL     1     -41.778 -48.872  12.323  1.00  0.00    -0.272 OA
HETATM    3  N   UNL     1     -41.211 -48.011  10.285  1.00  0.00    -0.346 N 
HETATM    4  H   UNL     1     -40.637 -48.133   9.452  1.00  0.00     0.163 HD
ENDROOT
BRANCH   1   5
HETATM    5  C   UNL     1     -40.093 -50.079  11.073  1.00  0.00     0.234 C 
BRANCH   5   6
HETATM    6  N   UNL     1     -39.739 -50.847  12.269  1.00  0.00    -0.310 N 
HETATM    7  C   UNL     1     -38.745 -50.424  13.166  1.00  0.00     0.014 A 
HETATM    8  C   UNL     1     -37.894 -49.224  12.852  1.00  0.00     0.068 C 
HETATM    9  C   UNL     1     -38.546 -51.098  14.313  1.00  0.00     0.061 A 
HETATM   10  C   UNL     1     -39.360 -52.236  14.648  1.00  0.00     0.072 A 
HETATM   11  C   UNL     1     -40.292 -52.682  13.807  1.00  0.00     0.111 A 
HETATM   12  C   UNL     1     -40.505 -51.995  12.509  1.00  0.00     0.250 A 
HETATM   13  O   UNL     1     -41.342 -52.432  11.718  1.00  0.00    -0.268 OA
BRANCH  10  14
HETATM   14  O   UNL     1     -39.151 -52.839  15.868  1.00  0.00    -0.360 OA
HETATM   15  H   UNL     1     -38.279 -52.583  16.212  1.00  0.00     0.217 HD
ENDBRANCH  10  14
ENDBRANCH   5   6
ENDBRANCH   1   5
BRANCH   3  16
HETATM   16  C   UNL     1     -42.293 -46.992  10.305  1.00  0.00     0.196 C 
BRANCH  16  17
HETATM   17  C   UNL     1     -41.750 -45.550  10.399  1.00  0.00     0.017 C 
HETATM   18  C   UNL     1     -40.219 -45.419  10.451  1.00  0.00     0.007 C 
HETATM   19  C   UNL     1     -39.909 -44.326  11.470  1.00  0.00     0.000 C 
HETATM   20  C   UNL     1     -41.240 -43.680  11.819  1.00  0.00     0.000 C 
HETATM   21  C   UNL     1     -42.261 -44.786  11.623  1.00  0.00     0.007 C 
ENDBRANCH  16  17
BRANCH  16  22
HETATM   22  C   UNL     1     -43.350 -47.141   9.171  1.00  0.00     0.407 C 
HETATM   23  F   UNL     1     -43.009 -48.102   8.278  1.00  0.00    -0.169 F 
HETATM   24  F   UNL     1     -44.564 -47.469   9.674  1.00  0.00    -0.169 F 
HETATM   25  F   UNL     1     -43.518 -45.998   8.465  1.00  0.00    -0.169 F 
ENDBRANCH  16  22
ENDBRANCH   3  16
TORSDOF 6
ENDMDL
