MODEL 1
REMARK VINA RESULT:      -6.0      0.000      0.000
REMARK  5 active torsions:
REMARK  status: ('A' for Active; 'I' for Inactive)
REMARK    1  A    between atoms: N_7  and  C_8 
REMARK    2  A    between atoms: C_8  and  C_9 
REMARK    3  A    between atoms: C_9  and  N_10 
REMARK       I    between atoms: N_10  and  C_11 
REMARK    4  A    between atoms: C_11  and  C_13 
REMARK    5  A    between atoms: C_13  and  N_14 
ROOT
HETATM    1  N   UNL     1     -42.605 -54.068  13.010  1.00  0.00    -0.358 N 
HETATM    2  C   UNL     1     -43.209 -54.677  14.090  1.00  0.00     0.235 C 
HETATM    3  O   UNL     1     -42.586 -55.059  15.081  1.00  0.00    -0.272 OA
HETATM    4  H   UNL     1     -43.170 -53.442  12.435  1.00  0.00     0.162 HD
ENDROOT
BRANCH   1   5
HETATM    5  C   UNL     1     -41.168 -53.862  13.012  1.00  0.00     0.152 C 
BRANCH   5   6
HETATM    6  C   UNL     1     -40.731 -52.528  13.648  1.00  0.00     0.292 C 
BRANCH   6   7
HETATM    7  N   UNL     1     -39.698 -51.788  12.893  1.00  0.00     0.094 N 
HETATM    8  C   UNL     1     -38.431 -51.659  13.652  1.00  0.00     0.219 C 
HETATM    9  C   UNL     1     -38.547 -50.964  15.020  1.00  0.00     0.043 C 
HETATM   10  C   UNL     1     -37.361 -50.965  12.786  1.00  0.00     0.035 C 
HETATM   11  C   UNL     1     -37.831 -49.619  12.247  1.00  0.00     0.004 C 
HETATM   12  C   UNL     1     -39.160 -49.783  11.527  1.00  0.00     0.030 C 
HETATM   13  C   UNL     1     -40.193 -50.494  12.399  1.00  0.00     0.273 C 
ENDBRANCH   6   7
ENDBRANCH   5   6
ENDBRANCH   1   5
BRANCH   2  14
HETATM   14  C   UNL     1     -44.724 -54.830  13.988  1.00  0.00     0.234 C 
BRANCH  14  15
HETATM   15  N   UNL     1     -45.435 -53.598  14.315  1.00  0.00    -0.316 N 
HETATM   16  C   UNL     1     -45.712 -53.293  15.635  1.00  0.00     0.095 A 
HETATM   17  C   UNL     1     -46.430 -52.209  15.957  1.00  0.00     0.017 A 
HETATM   18  C   UNL     1     -46.934 -51.346  14.919  1.00  0.00     0.007 A 
HETATM   19  C   UNL     1     -46.650 -51.590  13.634  1.00  0.00     0.074 A 
HETATM   20  C   UNL     1     -45.821 -52.772  13.264  1.00  0.00     0.247 A 
HETATM   21  O   UNL     1     -45.536 -52.974  12.084  1.00  0.00    -0.268 OA
ENDBRANCH  14  15
ENDBRANCH   2  14
TORSDOF 5
ENDMDL
MODEL 2
REMARK VINA RESULT:      -5.9      2.173      6.935
REMARK  5 active torsions:
REMARK  status: ('A' for Active; 'I' for Inactive)
REMARK    1  A    between atoms: N_7  and  C_8 
REMARK    2  A    between atoms: C_8  and  C_9 
REMARK    3  A    between atoms: C_9  and  N_10 
REMARK       I    between atoms: N_10  and  C_11 
REMARK    4  A    between atoms: C_11  and  C_13 
REMARK    5  A    between atoms: C_13  and  N_14 
ROOT
HETATM    1  N   UNL     1     -41.086 -53.610  14.544  1.00  0.00    -0.358 N 
HETATM    2  C   UNL     1     -40.203 -53.233  13.553  1.00  0.00     0.235 C 
HETATM    3  O   UNL     1     -40.409 -53.438  12.357  1.00  0.00    -0.272 OA
HETATM    4  H   UNL     1     -41.070 -53.092  15.422  1.00  0.00     0.162 HD
ENDROOT
BRANCH   1   5
HETATM    5  C   UNL     1     -42.319 -54.288  14.187  1.00  0.00     0.152 C 
BRANCH   5   6
HETATM    6  C   UNL     1     -43.447 -54.114  15.223  1.00  0.00     0.292 C 
BRANCH   6   7
HETATM    7  N   UNL     1     -44.362 -52.982  14.961  1.00  0.00     0.094 N 
HETATM    8  C   UNL     1     -45.755 -53.279  15.370  1.00  0.00     0.219 C 
HETATM    9  C   UNL     1     -46.392 -54.512  14.704  1.00  0.00     0.043 C 
HETATM   10  C   UNL     1     -46.646 -52.037  15.164  1.00  0.00     0.035 C 
HETATM   11  C   UNL     1     -46.582 -51.505  13.737  1.00  0.00     0.004 C 
HETATM   12  C   UNL     1     -45.135 -51.268  13.336  1.00  0.00     0.030 C 
HETATM   13  C   UNL     1     -44.271 -52.506  13.572  1.00  0.00     0.273 C 
ENDBRANCH   6   7
ENDBRANCH   5   6
ENDBRANCH   1   5
BRANCH   2  14
HETATM   14  C   UNL     1     -38.948 -52.515  14.039  1.00  0.00     0.234 C 
BRANCH  14  15
HETATM   15  N   UNL     1     -38.810 -51.178  13.470  1.00  0.00    -0.316 N 
HETATM   16  C   UNL     1     -39.718 -50.191  13.806  1.00  0.00     0.095 A 
HETATM   17  C   UNL     1     -39.660 -48.979  13.240  1.00  0.00     0.017 A 
HETATM   18  C   UNL     1     -38.645 -48.691  12.257  1.00  0.00     0.007 A 
HETATM   19  C   UNL     1     -37.726 -49.612  11.941  1.00  0.00     0.074 A 
HETATM   20  C   UNL     1     -37.757 -50.952  12.590  1.00  0.00     0.247 A 
HETATM   21  O   UNL     1     -36.891 -51.784  12.318  1.00  0.00    -0.268 OA
ENDBRANCH  14  15
ENDBRANCH   2  14
TORSDOF 5
ENDMDL
MODEL 3
REMARK VINA RESULT:      -5.9      1.265      1.985
REMARK  5 active torsions:
REMARK  status: ('A' for Active; 'I' for Inactive)
REMARK    1  A    between atoms: N_7  and  C_8 
REMARK    2  A    between atoms: C_8  and  C_9 
REMARK    3  A    between atoms: C_9  and  N_10 
REMARK       I    between atoms: N_10  and  C_11 
REMARK    4  A    between atoms: C_11  and  C_13 
REMARK    5  A    between atoms: C_13  and  N_14 
ROOT
HETATM    1  N   UNL     1     -42.444 -52.660  11.899  1.00  0.00    -0.358 N 
HETATM    2  C   UNL     1     -42.741 -53.694  12.763  1.00  0.00     0.235 C 
HETATM    3  O   UNL     1     -41.885 -54.282  13.424  1.00  0.00    -0.272 OA
HETATM    4  H   UNL     1     -43.177 -51.980  11.697  1.00  0.00     0.162 HD
ENDROOT
BRANCH   1   5
HETATM    5  C   UNL     1     -41.067 -52.231  11.738  1.00  0.00     0.152 C 
BRANCH   5   6
HETATM    6  C   UNL     1     -40.855 -50.721  11.966  1.00  0.00     0.292 C 
BRANCH   6   7
HETATM    7  N   UNL     1     -39.914 -50.383  13.056  1.00  0.00     0.094 N 
HETATM    8  C   UNL     1     -38.867 -49.430  12.620  1.00  0.00     0.219 C 
HETATM    9  C   UNL     1     -38.004 -49.891  11.432  1.00  0.00     0.043 C 
HETATM   10  C   UNL     1     -37.973 -49.038  13.813  1.00  0.00     0.035 C 
HETATM   11  C   UNL     1     -37.370 -50.252  14.510  1.00  0.00     0.004 C 
HETATM   12  C   UNL     1     -38.468 -51.232  14.890  1.00  0.00     0.030 C 
HETATM   13  C   UNL     1     -39.353 -51.583  13.695  1.00  0.00     0.273 C 
ENDBRANCH   6   7
ENDBRANCH   5   6
ENDBRANCH   1   5
BRANCH   2  14
HETATM   14  C   UNL     1     -44.220 -54.053  12.865  1.00  0.00     0.234 C 
BRANCH  14  15
HETATM   15  N   UNL     1     -44.986 -53.066  13.619  1.00  0.00    -0.316 N 
HETATM   16  C   UNL     1     -44.667 -52.811  14.941  1.00  0.00     0.095 A 
HETATM   17  C   UNL     1     -45.402 -51.968  15.677  1.00  0.00     0.017 A 
HETATM   18  C   UNL     1     -46.550 -51.318  15.096  1.00  0.00     0.007 A 
HETATM   19  C   UNL     1     -46.861 -51.512  13.808  1.00  0.00     0.074 A 
HETATM   20  C   UNL     1     -46.031 -52.419  12.968  1.00  0.00     0.247 A 
HETATM   21  O   UNL     1     -46.303 -52.569  11.777  1.00  0.00    -0.268 OA
ENDBRANCH  14  15
ENDBRANCH   2  14
TORSDOF 5
ENDMDL
MODEL 4
REMARK VINA RESULT:      -5.8      2.525      3.555
REMARK  5 active torsions:
REMARK  status: ('A' for Active; 'I' for Inactive)
REMARK    1  A    between atoms: N_7  and  C_8 
REMARK    2  A    between atoms: C_8  and  C_9 
REMARK    3  A    between atoms: C_9  and  N_10 
REMARK       I    between atoms: N_10  and  C_11 
REMARK    4  A    between atoms: C_11  and  C_13 
REMARK    5  A    between atoms: C_13  and  N_14 
ROOT
HETATM    1  N   UNL     1     -42.200 -52.305  11.720  1.00  0.00    -0.358 N 
HETATM    2  C   UNL     1     -42.795 -53.034  12.729  1.00  0.00     0.235 C 
HETATM    3  O   UNL     1     -42.278 -53.197  13.834  1.00  0.00    -0.272 OA
HETATM    4  H   UNL     1     -42.803 -51.881  11.015  1.00  0.00     0.162 HD
ENDROOT
BRANCH   1   5
HETATM    5  C   UNL     1     -40.901 -51.697  11.944  1.00  0.00     0.152 C 
BRANCH   5   6
HETATM    6  C   UNL     1     -40.803 -50.239  11.455  1.00  0.00     0.292 C 
BRANCH   6   7
HETATM    7  N   UNL     1     -41.850 -49.336  11.978  1.00  0.00     0.094 N 
HETATM    8  C   UNL     1     -41.908 -48.053  11.238  1.00  0.00     0.219 C 
HETATM    9  C   UNL     1     -40.603 -47.238  11.223  1.00  0.00     0.043 C 
HETATM   10  C   UNL     1     -43.075 -47.190  11.760  1.00  0.00     0.035 C 
HETATM   11  C   UNL     1     -43.004 -46.966  13.266  1.00  0.00     0.004 C 
HETATM   12  C   UNL     1     -42.887 -48.300  13.985  1.00  0.00     0.030 C 
HETATM   13  C   UNL     1     -41.740 -49.144  13.432  1.00  0.00     0.273 C 
ENDBRANCH   6   7
ENDBRANCH   5   6
ENDBRANCH   1   5
BRANCH   2  14
HETATM   14  C   UNL     1     -44.165 -53.615  12.390  1.00  0.00     0.234 C 
BRANCH  14  15
HETATM   15  N   UNL     1     -45.208 -53.162  13.305  1.00  0.00    -0.316 N 
HETATM   16  C   UNL     1     -45.621 -51.843  13.278  1.00  0.00     0.095 A 
HETATM   17  C   UNL     1     -46.521 -51.384  14.157  1.00  0.00     0.017 A 
HETATM   18  C   UNL     1     -47.066 -52.268  15.157  1.00  0.00     0.007 A 
HETATM   19  C   UNL     1     -46.717 -53.560  15.184  1.00  0.00     0.074 A 
HETATM   20  C   UNL     1     -45.745 -54.093  14.188  1.00  0.00     0.247 A 
HETATM   21  O   UNL     1     -45.453 -55.288  14.198  1.00  0.00    -0.268 OA
ENDBRANCH  14  15
ENDBRANCH   2  14
TORSDOF 5
ENDMDL
MODEL 5
REMARK VINA RESULT:      -5.6      1.577      2.582
REMARK  5 active torsions:
REMARK  status: ('A' for Active; 'I' for Inactive)
REMARK    1  A    between atoms: N_7  and  C_8 
REMARK    2  A    between atoms: C_8  and  C_9 
REMARK    3  A    between atoms: C_9  and  N_10 
REMARK       I    between atoms: N_10  and  C_11 
REMARK    4  A    between atoms: C_11  and  C_13 
REMARK    5  A    between atoms: C_13  and  N_14 
ROOT
HETATM    1  N   UNL     1     -42.288 -54.107  13.257  1.00  0.00    -0.358 N 
HETATM    2  C   UNL     1     -42.890 -54.489  14.439  1.00  0.00     0.235 C 
HETATM    3  O   UNL     1     -42.276 -54.592  15.501  1.00  0.00    -0.272 OA
HETATM    4  H   UNL     1     -42.871 -53.669  12.544  1.00  0.00     0.162 HD
ENDROOT
BRANCH   1   5
HETATM    5  C   UNL     1     -40.867 -53.813  13.236  1.00  0.00     0.152 C 
BRANCH   5   6
HETATM    6  C   UNL     1     -40.544 -52.315  13.067  1.00  0.00     0.292 C 
BRANCH   6   7
HETATM    7  N   UNL     1     -41.691 -51.405  13.272  1.00  0.00     0.094 N 
HETATM    8  C   UNL     1     -41.645 -50.231  12.369  1.00  0.00     0.219 C 
HETATM    9  C   UNL     1     -40.379 -49.362  12.476  1.00  0.00     0.043 C 
HETATM   10  C   UNL     1     -42.908 -49.366  12.556  1.00  0.00     0.035 C 
HETATM   11  C   UNL     1     -43.117 -48.949  14.007  1.00  0.00     0.004 C 
HETATM   12  C   UNL     1     -43.100 -50.173  14.907  1.00  0.00     0.030 C 
HETATM   13  C   UNL     1     -41.851 -51.024  14.684  1.00  0.00     0.273 C 
ENDBRANCH   6   7
ENDBRANCH   5   6
ENDBRANCH   1   5
BRANCH   2  14
HETATM   14  C   UNL     1     -44.388 -54.760  14.348  1.00  0.00     0.234 C 
BRANCH  14  15
HETATM   15  N   UNL     1     -45.186 -53.542  14.456  1.00  0.00    -0.316 N 
HETATM   16  C   UNL     1     -45.594 -53.095  15.699  1.00  0.00     0.095 A 
HETATM   17  C   UNL     1     -46.390 -52.024  15.819  1.00  0.00     0.017 A 
HETATM   18  C   UNL     1     -46.842 -51.327  14.641  1.00  0.00     0.007 A 
HETATM   19  C   UNL     1     -46.432 -51.711  13.426  1.00  0.00     0.074 A 
HETATM   20  C   UNL     1     -45.517 -52.877  13.279  1.00  0.00     0.247 A 
HETATM   21  O   UNL     1     -45.118 -53.206  12.162  1.00  0.00    -0.268 OA
ENDBRANCH  14  15
ENDBRANCH   2  14
TORSDOF 5
ENDMDL
MODEL 6
REMARK VINA RESULT:      -5.5      4.135      6.114
REMARK  5 active torsions:
REMARK  status: ('A' for Active; 'I' for Inactive)
REMARK    1  A    between atoms: N_7  and  C_8 
REMARK    2  A    between atoms: C_8  and  C_9 
REMARK    3  A    between atoms: C_9  and  N_10 
REMARK       I    between atoms: N_10  and  C_11 
REMARK    4  A    between atoms: C_11  and  C_13 
REMARK    5  A    between atoms: C_13  and  N_14 
ROOT
HETATM    1  N   UNL     1     -42.135 -50.535  11.820  1.00  0.00    -0.358 N 
HETATM    2  C   UNL     1     -40.994 -51.202  12.216  1.00  0.00     0.235 C 
HETATM    3  O   UNL     1     -40.052 -50.644  12.778  1.00  0.00    -0.272 OA
HETATM    4  H   UNL     1     -42.998 -51.072  11.736  1.00  0.00     0.162 HD
ENDROOT
BRANCH   1   5
HETATM    5  C   UNL     1     -42.253 -49.109  12.059  1.00  0.00     0.152 C 
BRANCH   5   6
HETATM    6  C   UNL     1     -41.740 -48.238  10.896  1.00  0.00     0.292 C 
BRANCH   6   7
HETATM    7  N   UNL     1     -42.790 -47.738   9.983  1.00  0.00     0.094 N 
HETATM    8  C   UNL     1     -42.532 -46.349   9.536  1.00  0.00     0.219 C 
HETATM    9  C   UNL     1     -42.403 -45.304  10.660  1.00  0.00     0.043 C 
HETATM   10  C   UNL     1     -43.602 -45.910   8.516  1.00  0.00     0.035 C 
HETATM   11  C   UNL     1     -45.018 -46.072   9.053  1.00  0.00     0.004 C 
HETATM   12  C   UNL     1     -45.225 -47.492   9.555  1.00  0.00     0.030 C 
HETATM   13  C   UNL     1     -44.139 -47.908  10.545  1.00  0.00     0.273 C 
ENDBRANCH   6   7
ENDBRANCH   5   6
ENDBRANCH   1   5
BRANCH   2  14
HETATM   14  C   UNL     1     -40.983 -52.701  11.928  1.00  0.00     0.234 C 
BRANCH  14  15
HETATM   15  N   UNL     1     -41.302 -53.500  13.106  1.00  0.00    -0.316 N 
HETATM   16  C   UNL     1     -42.623 -53.764  13.421  1.00  0.00     0.095 A 
HETATM   17  C   UNL     1     -42.946 -54.429  14.538  1.00  0.00     0.017 A 
HETATM   18  C   UNL     1     -41.910 -54.873  15.437  1.00  0.00     0.007 A 
HETATM   19  C   UNL     1     -40.620 -54.670  15.140  1.00  0.00     0.074 A 
HETATM   20  C   UNL     1     -40.245 -53.964  13.883  1.00  0.00     0.247 A 
HETATM   21  O   UNL     1     -39.058 -53.808  13.600  1.00  0.00    -0.268 OA
ENDBRANCH  14  15
ENDBRANCH   2  14
TORSDOF 5
ENDMDL
MODEL 7
REMARK VINA RESULT:      -5.4      3.822      5.751
REMARK  5 active torsions:
REMARK  status: ('A' for Active; 'I' for Inactive)
REMARK    1  A    between atoms: N_7  and  C_8 
REMARK    2  A    between atoms: C_8  and  C_9 
REMARK    3  A    between atoms: C_9  and  N_10 
REMARK       I    between atoms: N_10  and  C_11 
REMARK    4  A    between atoms: C_11  and  C_13 
REMARK    5  A    between atoms: C_13  and  N_14 
ROOT
HETATM    1  N   UNL     1     -41.906 -49.385  11.132  1.00  0.00    -0.358 N 
HETATM    2  C   UNL     1     -41.394 -50.150  12.159  1.00  0.00     0.235 C 
HETATM    3  O   UNL     1     -41.314 -49.748  13.320  1.00  0.00    -0.272 OA
HETATM    4  H   UNL     1     -42.305 -49.869  10.327  1.00  0.00     0.162 HD
ENDROOT
BRANCH   1   5
HETATM    5  C   UNL     1     -42.374 -48.038  11.403  1.00  0.00     0.152 C 
BRANCH   5   6
HETATM    6  C   UNL     1     -41.509 -46.936  10.760  1.00  0.00     0.292 C 
BRANCH   6   7
HETATM    7  N   UNL     1     -40.927 -45.968  11.713  1.00  0.00     0.094 N 
HETATM    8  C   UNL     1     -40.495 -44.715  11.049  1.00  0.00     0.219 C 
HETATM    9  C   UNL     1     -39.462 -44.886   9.921  1.00  0.00     0.043 C 
HETATM   10  C   UNL     1     -39.984 -43.706  12.097  1.00  0.00     0.035 C 
HETATM   11  C   UNL     1     -38.880 -44.285  12.972  1.00  0.00     0.004 C 
HETATM   12  C   UNL     1     -39.339 -45.597  13.588  1.00  0.00     0.030 C 
HETATM   13  C   UNL     1     -39.861 -46.567  12.532  1.00  0.00     0.273 C 
ENDBRANCH   6   7
ENDBRANCH   5   6
ENDBRANCH   1   5
BRANCH   2  14
HETATM   14  C   UNL     1     -40.945 -51.554  11.764  1.00  0.00     0.234 C 
BRANCH  14  15
HETATM   15  N   UNL     1     -41.581 -52.593  12.567  1.00  0.00    -0.316 N 
HETATM   16  C   UNL     1     -42.953 -52.762  12.513  1.00  0.00     0.095 A 
HETATM   17  C   UNL     1     -43.569 -53.655  13.297  1.00  0.00     0.017 A 
HETATM   18  C   UNL     1     -42.801 -54.452  14.222  1.00  0.00     0.007 A 
HETATM   19  C   UNL     1     -41.468 -54.341  14.270  1.00  0.00     0.074 A 
HETATM   20  C   UNL     1     -40.766 -53.377  13.377  1.00  0.00     0.247 A 
HETATM   21  O   UNL     1     -39.538 -53.302  13.404  1.00  0.00    -0.268 OA
ENDBRANCH  14  15
ENDBRANCH   2  14
TORSDOF 5
ENDMDL
MODEL 8
REMARK VINA RESULT:      -5.4      1.934      3.498
REMARK  5 active torsions:
REMARK  status: ('A' for Active; 'I' for Inactive)
REMARK    1  A    between atoms: N_7  and  C_8 
REMARK    2  A    between atoms: C_8  and  C_9 
REMARK    3  A    between atoms: C_9  and  N_10 
REMARK       I    between atoms: N_10  and  C_11 
REMARK    4  A    between atoms: C_11  and  C_13 
REMARK    5  A    between atoms: C_13  and  N_14 
ROOT
HETATM    1  N   UNL     1     -43.243 -50.381  12.461  1.00  0.00    -0.358 N 
HETATM    2  C   UNL     1     -43.815 -50.183  13.701  1.00  0.00     0.235 C 
HETATM    3  O   UNL     1     -43.366 -49.390  14.528  1.00  0.00    -0.272 OA
HETATM    4  H   UNL     1     -43.840 -50.718  11.706  1.00  0.00     0.162 HD
ENDROOT
BRANCH   1   5
HETATM    5  C   UNL     1     -42.052 -49.637  12.092  1.00  0.00     0.152 C 
BRANCH   5   6
HETATM    6  C   UNL     1     -40.749 -50.452  12.208  1.00  0.00     0.292 C 
BRANCH   6   7
HETATM    7  N   UNL     1     -40.865 -51.703  12.988  1.00  0.00     0.094 N 
HETATM    8  C   UNL     1     -39.913 -51.748  14.123  1.00  0.00     0.219 C 
HETATM    9  C   UNL     1     -38.427 -51.609  13.748  1.00  0.00     0.043 C 
HETATM   10  C   UNL     1     -40.139 -53.026  14.956  1.00  0.00     0.035 C 
HETATM   11  C   UNL     1     -40.065 -54.292  14.111  1.00  0.00     0.004 C 
HETATM   12  C   UNL     1     -41.011 -54.183  12.926  1.00  0.00     0.030 C 
HETATM   13  C   UNL     1     -40.781 -52.898  12.134  1.00  0.00     0.273 C 
ENDBRANCH   6   7
ENDBRANCH   5   6
ENDBRANCH   1   5
BRANCH   2  14
HETATM   14  C   UNL     1     -45.071 -51.005  13.977  1.00  0.00     0.234 C 
BRANCH  14  15
HETATM   15  N   UNL     1     -44.776 -52.415  14.213  1.00  0.00    -0.316 N 
HETATM   16  C   UNL     1     -44.092 -52.793  15.354  1.00  0.00     0.095 A 
HETATM   17  C   UNL     1     -43.743 -54.070  15.558  1.00  0.00     0.017 A 
HETATM   18  C   UNL     1     -44.071 -55.071  14.574  1.00  0.00     0.007 A 
HETATM   19  C   UNL     1     -44.768 -54.745  13.479  1.00  0.00     0.074 A 
HETATM   20  C   UNL     1     -45.195 -53.335  13.258  1.00  0.00     0.247 A 
HETATM   21  O   UNL     1     -45.862 -53.047  12.264  1.00  0.00    -0.268 OA
ENDBRANCH  14  15
ENDBRANCH   2  14
TORSDOF 5
ENDMDL
MODEL 9
REMARK VINA RESULT:      -5.3      3.038      4.430
REMARK  5 active torsions:
REMARK  status: ('A' for Active; 'I' for Inactive)
REMARK    1  A    between atoms: N_7  and  C_8 
REMARK    2  A    between atoms: C_8  and  C_9 
REMARK    3  A    between atoms: C_9  and  N_10 
REMARK       I    between atoms: N_10  and  C_11 
REMARK    4  A    between atoms: C_11  and  C_13 
REMARK    5  A    between atoms: C_13  and  N_14 
ROOT
HETATM    1  N   UNL     1     -40.793 -51.476  11.415  1.00  0.00    -0.358 N 
HETATM    2  C   UNL     1     -40.491 -52.205  12.546  1.00  0.00     0.235 C 
HETATM    3  O   UNL     1     -39.916 -51.722  13.522  1.00  0.00    -0.272 OA
HETATM    4  H   UNL     1     -41.577 -51.786  10.841  1.00  0.00     0.162 HD
ENDROOT
BRANCH   1   5
HETATM    5  C   UNL     1     -40.422 -50.074  11.343  1.00  0.00     0.152 C 
BRANCH   5   6
HETATM    6  C   UNL     1     -41.604 -49.106  11.545  1.00  0.00     0.292 C 
BRANCH   6   7
HETATM    7  N   UNL     1     -41.420 -47.767  10.947  1.00  0.00     0.094 N 
HETATM    8  C   UNL     1     -40.177 -47.108  11.414  1.00  0.00     0.219 C 
HETATM    9  C   UNL     1     -40.058 -46.922  12.938  1.00  0.00     0.043 C 
HETATM   10  C   UNL     1     -39.985 -45.760  10.692  1.00  0.00     0.035 C 
HETATM   11  C   UNL     1     -41.194 -44.844  10.839  1.00  0.00     0.004 C 
HETATM   12  C   UNL     1     -42.455 -45.573  10.406  1.00  0.00     0.030 C 
HETATM   13  C   UNL     1     -42.607 -46.915  11.119  1.00  0.00     0.273 C 
ENDBRANCH   6   7
ENDBRANCH   5   6
ENDBRANCH   1   5
BRANCH   2  14
HETATM   14  C   UNL     1     -40.939 -53.663  12.520  1.00  0.00     0.234 C 
BRANCH  14  15
HETATM   15  N   UNL     1     -42.025 -53.933  13.457  1.00  0.00    -0.316 N 
HETATM   16  C   UNL     1     -41.749 -54.515  14.680  1.00  0.00     0.095 A 
HETATM   17  C   UNL     1     -42.735 -54.844  15.526  1.00  0.00     0.017 A 
HETATM   18  C   UNL     1     -44.108 -54.600  15.160  1.00  0.00     0.007 A 
HETATM   19  C   UNL     1     -44.406 -54.002  14.000  1.00  0.00     0.074 A 
HETATM   20  C   UNL     1     -43.318 -53.597  13.067  1.00  0.00     0.247 A 
HETATM   21  O   UNL     1     -43.596 -53.019  12.017  1.00  0.00    -0.268 OA
ENDBRANCH  14  15
ENDBRANCH   2  14
TORSDOF 5
ENDMDL
