MODEL 1
REMARK VINA RESULT:      -5.6      0.000      0.000
REMARK  7 active torsions:
REMARK  status: ('A' for Active; 'I' for Inactive)
REMARK    1  A    between atoms: C_2  and  C_3 
REMARK       I    between atoms: C_2  and  N_11 
REMARK    2  A    between atoms: C_3  and  C_4 
REMARK    3  A    between atoms: C_4  and  C_5 
REMARK    4  A    between atoms: C_4  and  C_8 
REMARK    5  A    between atoms: N_11  and  C_12 
REMARK    6  A    between atoms: C_12  and  C_13 
REMARK    7  A    between atoms: C_13  and  C_14 
ROOT
HETATM    1  O   UNL     1     -42.526 -51.050  14.132  1.00  0.00    -0.274 OA
HETATM    2  C   UNL     1     -42.645 -51.353  12.951  1.00  0.00     0.217 C 
HETATM    3  N   UNL     1     -42.360 -50.493  11.915  1.00  0.00    -0.361 N 
HETATM    4  H   UNL     1     -42.303 -50.864  10.969  1.00  0.00     0.162 HD
ENDROOT
BRANCH   2   5
HETATM    5  C   UNL     1     -43.110 -52.714  12.470  1.00  0.00     0.108 C 
BRANCH   5   6
HETATM    6  C   UNL     1     -44.594 -52.993  12.758  1.00  0.00     0.002 C 
BRANCH   6   7
HETATM    7  C   UNL     1     -44.876 -53.847  13.981  1.00  0.00    -0.010 A 
HETATM    8  C   UNL     1     -43.975 -54.990  14.388  1.00  0.00     0.005 A 
HETATM    9  C   UNL     1     -45.388 -55.270  13.965  1.00  0.00     0.005 A 
ENDBRANCH   6   7
BRANCH   6  10
HETATM   10  C   UNL     1     -45.335 -51.666  12.871  1.00  0.00    -0.010 A 
HETATM   11  C   UNL     1     -46.531 -51.500  13.779  1.00  0.00     0.005 A 
HETATM   12  C   UNL     1     -46.723 -51.520  12.291  1.00  0.00     0.005 A 
ENDBRANCH   6  10
ENDBRANCH   5   6
ENDBRANCH   2   5
BRANCH   3  13
HETATM   13  C   UNL     1     -41.938 -49.116  12.089  1.00  0.00     0.129 C 
BRANCH  13  14
HETATM   14  C   UNL     1     -43.124 -48.152  12.169  1.00  0.00     0.084 C 
BRANCH  14  15
HETATM   15  C   UNL     1     -43.450 -47.572  10.821  1.00  0.00     0.052 A 
HETATM   16  N   UNL     1     -44.479 -47.954  10.085  1.00  0.00    -0.363 N 
HETATM   17  C   UNL     1     -44.501 -47.236   8.907  1.00  0.00     0.095 A 
ATOM     18  HN  UNL     1     -45.156 -48.670  10.348  1.00  0.00     0.165 HD
HETATM   19  C   UNL     1     -43.505 -46.296   8.766  1.00  0.00     0.068 A 
HETATM   20  S   UNL     1     -42.489 -46.317  10.146  1.00  0.00    -0.087 SA
ENDBRANCH  14  15
ENDBRANCH  13  14
ENDBRANCH   3  13
TORSDOF 7
ENDMDL
MODEL 2
REMARK VINA RESULT:      -5.4      2.360      3.638
REMARK  7 active torsions:
REMARK  status: ('A' for Active; 'I' for Inactive)
REMARK    1  A    between atoms: C_2  and  C_3 
REMARK       I    between atoms: C_2  and  N_11 
REMARK    2  A    between atoms: C_3  and  C_4 
REMARK    3  A    between atoms: C_4  and  C_5 
REMARK    4  A    between atoms: C_4  and  C_8 
REMARK    5  A    between atoms: N_11  and  C_12 
REMARK    6  A    between atoms: C_12  and  C_13 
REMARK    7  A    between atoms: C_13  and  C_14 
ROOT
HETATM    1  O   UNL     1     -42.411 -51.279  14.093  1.00  0.00    -0.274 OA
HETATM    2  C   UNL     1     -42.627 -51.484  12.905  1.00  0.00     0.217 C 
HETATM    3  N   UNL     1     -42.397 -50.551  11.919  1.00  0.00    -0.361 N 
HETATM    4  H   UNL     1     -42.422 -50.847  10.946  1.00  0.00     0.162 HD
ENDROOT
BRANCH   2   5
HETATM    5  C   UNL     1     -43.164 -52.793  12.357  1.00  0.00     0.108 C 
BRANCH   5   6
HETATM    6  C   UNL     1     -44.640 -53.046  12.705  1.00  0.00     0.002 C 
BRANCH   6   7
HETATM    7  C   UNL     1     -44.887 -53.879  13.950  1.00  0.00    -0.010 A 
HETATM    8  C   UNL     1     -43.969 -55.009  14.356  1.00  0.00     0.005 A 
HETATM    9  C   UNL     1     -45.390 -55.306  13.972  1.00  0.00     0.005 A 
ENDBRANCH   6   7
BRANCH   6  10
HETATM   10  C   UNL     1     -45.356 -51.706  12.829  1.00  0.00    -0.010 A 
HETATM   11  C   UNL     1     -46.542 -51.522  13.746  1.00  0.00     0.005 A 
HETATM   12  C   UNL     1     -46.744 -51.533  12.259  1.00  0.00     0.005 A 
ENDBRANCH   6  10
ENDBRANCH   5   6
ENDBRANCH   2   5
BRANCH   3  13
HETATM   13  C   UNL     1     -41.927 -49.201  12.166  1.00  0.00     0.129 C 
BRANCH  13  14
HETATM   14  C   UNL     1     -40.730 -48.834  11.286  1.00  0.00     0.084 C 
BRANCH  14  15
HETATM   15  C   UNL     1     -39.472 -49.500  11.769  1.00  0.00     0.052 A 
HETATM   16  N   UNL     1     -38.542 -49.986  10.966  1.00  0.00    -0.363 N 
HETATM   17  C   UNL     1     -37.519 -50.533  11.714  1.00  0.00     0.095 A 
ATOM     18  HN  UNL     1     -38.574 -49.962   9.947  1.00  0.00     0.165 HD
HETATM   19  C   UNL     1     -37.665 -50.435  13.080  1.00  0.00     0.068 A 
HETATM   20  S   UNL     1     -39.142 -49.647  13.450  1.00  0.00    -0.087 SA
ENDBRANCH  14  15
ENDBRANCH  13  14
ENDBRANCH   3  13
TORSDOF 7
ENDMDL
MODEL 3
REMARK VINA RESULT:      -5.3      1.317      2.454
REMARK  7 active torsions:
REMARK  status: ('A' for Active; 'I' for Inactive)
REMARK    1  A    between atoms: C_2  and  C_3 
REMARK       I    between atoms: C_2  and  N_11 
REMARK    2  A    between atoms: C_3  and  C_4 
REMARK    3  A    between atoms: C_4  and  C_5 
REMARK    4  A    between atoms: C_4  and  C_8 
REMARK    5  A    between atoms: N_11  and  C_12 
REMARK    6  A    between atoms: C_12  and  C_13 
REMARK    7  A    between atoms: C_13  and  C_14 
ROOT
HETATM    1  O   UNL     1     -42.946 -50.345  14.429  1.00  0.00    -0.274 OA
HETATM    2  C   UNL     1     -43.609 -50.262  13.403  1.00  0.00     0.217 C 
HETATM    3  N   UNL     1     -43.220 -49.531  12.304  1.00  0.00    -0.361 N 
HETATM    4  H   UNL     1     -43.722 -49.654  11.428  1.00  0.00     0.162 HD
ENDROOT
BRANCH   2   5
HETATM    5  C   UNL     1     -44.939 -50.962  13.197  1.00  0.00     0.108 C 
BRANCH   5   6
HETATM    6  C   UNL     1     -45.106 -52.229  14.053  1.00  0.00     0.002 C 
BRANCH   6   7
HETATM    7  C   UNL     1     -46.458 -52.398  14.720  1.00  0.00    -0.010 A 
HETATM    8  C   UNL     1     -47.146 -51.261  15.441  1.00  0.00     0.005 A 
HETATM    9  C   UNL     1     -46.705 -52.473  16.210  1.00  0.00     0.005 A 
ENDBRANCH   6   7
BRANCH   6  10
HETATM   10  C   UNL     1     -44.796 -53.450  13.194  1.00  0.00    -0.010 A 
HETATM   11  C   UNL     1     -45.106 -54.851  13.666  1.00  0.00     0.005 A 
HETATM   12  C   UNL     1     -43.680 -54.390  13.586  1.00  0.00     0.005 A 
ENDBRANCH   6  10
ENDBRANCH   5   6
ENDBRANCH   2   5
BRANCH   3  13
HETATM   13  C   UNL     1     -42.013 -48.728  12.243  1.00  0.00     0.129 C 
BRANCH  13  14
HETATM   14  C   UNL     1     -41.455 -48.627  10.822  1.00  0.00     0.084 C 
BRANCH  14  15
HETATM   15  C   UNL     1     -42.325 -47.765   9.952  1.00  0.00     0.052 A 
HETATM   16  N   UNL     1     -42.821 -48.155   8.791  1.00  0.00    -0.363 N 
HETATM   17  C   UNL     1     -43.573 -47.138   8.239  1.00  0.00     0.095 A 
ATOM     18  HN  UNL     1     -42.671 -49.070   8.365  1.00  0.00     0.165 HD
HETATM   19  C   UNL     1     -43.666 -45.991   8.996  1.00  0.00     0.068 A 
HETATM   20  S   UNL     1     -42.768 -46.178  10.444  1.00  0.00    -0.087 SA
ENDBRANCH  14  15
ENDBRANCH  13  14
ENDBRANCH   3  13
TORSDOF 7
ENDMDL
MODEL 4
REMARK VINA RESULT:      -5.2      2.033      2.277
REMARK  7 active torsions:
REMARK  status: ('A' for Active; 'I' for Inactive)
REMARK    1  A    between atoms: C_2  and  C_3 
REMARK       I    between atoms: C_2  and  N_11 
REMARK    2  A    between atoms: C_3  and  C_4 
REMARK    3  A    between atoms: C_4  and  C_5 
REMARK    4  A    between atoms: C_4  and  C_8 
REMARK    5  A    between atoms: N_11  and  C_12 
REMARK    6  A    between atoms: C_12  and  C_13 
REMARK    7  A    between atoms: C_13  and  C_14 
ROOT
HETATM    1  O   UNL     1     -42.690 -51.006  14.131  1.00  0.00    -0.274 OA
HETATM    2  C   UNL     1     -42.706 -51.334  12.950  1.00  0.00     0.217 C 
HETATM    3  N   UNL     1     -42.305 -50.505  11.927  1.00  0.00    -0.361 N 
HETATM    4  H   UNL     1     -42.169 -50.899  10.999  1.00  0.00     0.162 HD
ENDROOT
BRANCH   2   5
HETATM    5  C   UNL     1     -43.155 -52.696  12.456  1.00  0.00     0.108 C 
BRANCH   5   6
HETATM    6  C   UNL     1     -44.637 -52.993  12.736  1.00  0.00     0.002 C 
BRANCH   6   7
HETATM    7  C   UNL     1     -44.916 -53.852  13.956  1.00  0.00    -0.010 A 
HETATM    8  C   UNL     1     -44.011 -54.993  14.358  1.00  0.00     0.005 A 
HETATM    9  C   UNL     1     -45.423 -55.277  13.935  1.00  0.00     0.005 A 
ENDBRANCH   6   7
BRANCH   6  10
HETATM   10  C   UNL     1     -45.394 -51.674  12.848  1.00  0.00    -0.010 A 
HETATM   11  C   UNL     1     -46.609 -51.529  13.734  1.00  0.00     0.005 A 
HETATM   12  C   UNL     1     -46.770 -51.535  12.241  1.00  0.00     0.005 A 
ENDBRANCH   6  10
ENDBRANCH   5   6
ENDBRANCH   2   5
BRANCH   3  13
HETATM   13  C   UNL     1     -41.870 -49.133  12.110  1.00  0.00     0.129 C 
BRANCH  13  14
HETATM   14  C   UNL     1     -41.473 -48.469  10.790  1.00  0.00     0.084 C 
BRANCH  14  15
HETATM   15  C   UNL     1     -40.827 -47.132  11.023  1.00  0.00     0.052 A 
HETATM   16  N   UNL     1     -40.663 -46.220  10.081  1.00  0.00    -0.363 N 
HETATM   17  C   UNL     1     -40.039 -45.109  10.611  1.00  0.00     0.095 A 
ATOM     18  HN  UNL     1     -40.954 -46.321   9.108  1.00  0.00     0.165 HD
HETATM   19  C   UNL     1     -39.756 -45.173  11.957  1.00  0.00     0.068 A 
HETATM   20  S   UNL     1     -40.271 -46.681  12.586  1.00  0.00    -0.087 SA
ENDBRANCH  14  15
ENDBRANCH  13  14
ENDBRANCH   3  13
TORSDOF 7
ENDMDL
MODEL 5
REMARK VINA RESULT:      -5.2      2.286      3.510
REMARK  7 active torsions:
REMARK  status: ('A' for Active; 'I' for Inactive)
REMARK    1  A    between atoms: C_2  and  C_3 
REMARK       I    between atoms: C_2  and  N_11 
REMARK    2  A    between atoms: C_3  and  C_4 
REMARK    3  A    between atoms: C_4  and  C_5 
REMARK    4  A    between atoms: C_4  and  C_8 
REMARK    5  A    between atoms: N_11  and  C_12 
REMARK    6  A    between atoms: C_12  and  C_13 
REMARK    7  A    between atoms: C_13  and  C_14 
ROOT
HETATM    1  O   UNL     1     -40.265 -50.727  13.307  1.00  0.00    -0.274 OA
HETATM    2  C   UNL     1     -40.652 -51.265  12.277  1.00  0.00     0.217 C 
HETATM    3  N   UNL     1     -40.865 -50.585  11.099  1.00  0.00    -0.361 N 
HETATM    4  H   UNL     1     -41.006 -51.116  10.243  1.00  0.00     0.162 HD
ENDROOT
BRANCH   2   5
HETATM    5  C   UNL     1     -40.937 -52.750  12.154  1.00  0.00     0.108 C 
BRANCH   5   6
HETATM    6  C   UNL     1     -41.184 -53.442  13.504  1.00  0.00     0.002 C 
BRANCH   6   7
HETATM    7  C   UNL     1     -42.363 -54.398  13.546  1.00  0.00    -0.010 A 
HETATM    8  C   UNL     1     -43.748 -53.983  13.107  1.00  0.00     0.005 A 
HETATM    9  C   UNL     1     -43.501 -54.352  14.542  1.00  0.00     0.005 A 
ENDBRANCH   6   7
BRANCH   6  10
HETATM   10  C   UNL     1     -39.913 -54.170  13.928  1.00  0.00    -0.010 A 
HETATM   11  C   UNL     1     -39.828 -54.923  15.235  1.00  0.00     0.005 A 
HETATM   12  C   UNL     1     -39.076 -53.634  15.067  1.00  0.00     0.005 A 
ENDBRANCH   6  10
ENDBRANCH   5   6
ENDBRANCH   2   5
BRANCH   3  13
HETATM   13  C   UNL     1     -40.713 -49.151  10.946  1.00  0.00     0.129 C 
BRANCH  13  14
HETATM   14  C   UNL     1     -41.967 -48.385  11.373  1.00  0.00     0.084 C 
BRANCH  14  15
HETATM   15  C   UNL     1     -42.583 -47.655  10.213  1.00  0.00     0.052 A 
HETATM   16  N   UNL     1     -43.016 -48.248   9.115  1.00  0.00    -0.363 N 
HETATM   17  C   UNL     1     -43.521 -47.306   8.243  1.00  0.00     0.095 A 
ATOM     18  HN  UNL     1     -42.982 -49.253   8.938  1.00  0.00     0.165 HD
HETATM   19  C   UNL     1     -43.494 -46.005   8.694  1.00  0.00     0.068 A 
HETATM   20  S   UNL     1     -42.796 -45.949  10.258  1.00  0.00    -0.087 SA
ENDBRANCH  14  15
ENDBRANCH  13  14
ENDBRANCH   3  13
TORSDOF 7
ENDMDL
MODEL 6
REMARK VINA RESULT:      -5.2      1.564      2.842
REMARK  7 active torsions:
REMARK  status: ('A' for Active; 'I' for Inactive)
REMARK    1  A    between atoms: C_2  and  C_3 
REMARK       I    between atoms: C_2  and  N_11 
REMARK    2  A    between atoms: C_3  and  C_4 
REMARK    3  A    between atoms: C_4  and  C_5 
REMARK    4  A    between atoms: C_4  and  C_8 
REMARK    5  A    between atoms: N_11  and  C_12 
REMARK    6  A    between atoms: C_12  and  C_13 
REMARK    7  A    between atoms: C_13  and  C_14 
ROOT
HETATM    1  O   UNL     1     -41.256 -53.163  12.409  1.00  0.00    -0.274 OA
HETATM    2  C   UNL     1     -42.240 -52.443  12.292  1.00  0.00     0.217 C 
HETATM    3  N   UNL     1     -42.170 -51.072  12.192  1.00  0.00    -0.361 N 
HETATM    4  H   UNL     1     -43.001 -50.556  11.912  1.00  0.00     0.162 HD
ENDROOT
BRANCH   2   5
HETATM    5  C   UNL     1     -43.664 -52.961  12.228  1.00  0.00     0.108 C 
BRANCH   5   6
HETATM    6  C   UNL     1     -44.401 -52.901  13.575  1.00  0.00     0.002 C 
BRANCH   6   7
HETATM    7  C   UNL     1     -45.896 -52.651  13.496  1.00  0.00    -0.010 A 
HETATM    8  C   UNL     1     -46.489 -51.616  12.567  1.00  0.00     0.005 A 
HETATM    9  C   UNL     1     -46.621 -51.446  14.054  1.00  0.00     0.005 A 
ENDBRANCH   6   7
BRANCH   6  10
HETATM   10  C   UNL     1     -44.133 -54.189  14.344  1.00  0.00    -0.010 A 
HETATM   11  C   UNL     1     -44.559 -54.358  15.784  1.00  0.00     0.005 A 
HETATM   12  C   UNL     1     -43.103 -54.212  15.450  1.00  0.00     0.005 A 
ENDBRANCH   6  10
ENDBRANCH   5   6
ENDBRANCH   2   5
BRANCH   3  13
HETATM   13  C   UNL     1     -40.938 -50.309  12.268  1.00  0.00     0.129 C 
BRANCH  13  14
HETATM   14  C   UNL     1     -40.589 -49.636  10.939  1.00  0.00     0.084 C 
BRANCH  14  15
HETATM   15  C   UNL     1     -41.457 -48.435  10.690  1.00  0.00     0.052 A 
HETATM   16  N   UNL     1     -42.064 -48.190   9.542  1.00  0.00    -0.363 N 
HETATM   17  C   UNL     1     -42.779 -47.013   9.634  1.00  0.00     0.095 A 
ATOM     18  HN  UNL     1     -42.013 -48.782   8.713  1.00  0.00     0.165 HD
HETATM   19  C   UNL     1     -42.732 -46.385  10.858  1.00  0.00     0.068 A 
HETATM   20  S   UNL     1     -41.746 -47.283  11.934  1.00  0.00    -0.087 SA
ENDBRANCH  14  15
ENDBRANCH  13  14
ENDBRANCH   3  13
TORSDOF 7
ENDMDL
MODEL 7
REMARK VINA RESULT:      -5.1      3.263      4.456
REMARK  7 active torsions:
REMARK  status: ('A' for Active; 'I' for Inactive)
REMARK    1  A    between atoms: C_2  and  C_3 
REMARK       I    between atoms: C_2  and  N_11 
REMARK    2  A    between atoms: C_3  and  C_4 
REMARK    3  A    between atoms: C_4  and  C_5 
REMARK    4  A    between atoms: C_4  and  C_8 
REMARK    5  A    between atoms: N_11  and  C_12 
REMARK    6  A    between atoms: C_12  and  C_13 
REMARK    7  A    between atoms: C_13  and  C_14 
ROOT
HETATM    1  O   UNL     1     -41.879 -53.965  13.994  1.00  0.00    -0.274 OA
HETATM    2  C   UNL     1     -42.767 -53.652  13.210  1.00  0.00     0.217 C 
HETATM    3  N   UNL     1     -42.555 -52.872  12.095  1.00  0.00    -0.361 N 
HETATM    4  H   UNL     1     -43.288 -52.805  11.394  1.00  0.00     0.162 HD
ENDROOT
BRANCH   2   5
HETATM    5  C   UNL     1     -44.213 -54.088  13.350  1.00  0.00     0.108 C 
BRANCH   5   6
HETATM    6  C   UNL     1     -44.978 -53.334  14.450  1.00  0.00     0.002 C 
BRANCH   6   7
HETATM    7  C   UNL     1     -46.315 -52.749  14.035  1.00  0.00    -0.010 A 
HETATM    8  C   UNL     1     -46.443 -51.766  12.894  1.00  0.00     0.005 A 
HETATM    9  C   UNL     1     -46.776 -51.330  14.292  1.00  0.00     0.005 A 
ENDBRANCH   6   7
BRANCH   6  10
HETATM   10  C   UNL     1     -45.167 -54.261  15.645  1.00  0.00    -0.010 A 
HETATM   11  C   UNL     1     -45.871 -53.803  16.901  1.00  0.00     0.005 A 
HETATM   12  C   UNL     1     -44.387 -54.026  16.918  1.00  0.00     0.005 A 
ENDBRANCH   6  10
ENDBRANCH   5   6
ENDBRANCH   2   5
BRANCH   3  13
HETATM   13  C   UNL     1     -41.277 -52.282  11.743  1.00  0.00     0.129 C 
BRANCH  13  14
HETATM   14  C   UNL     1     -41.268 -50.764  11.928  1.00  0.00     0.084 C 
BRANCH  14  15
HETATM   15  C   UNL     1     -39.867 -50.238  12.070  1.00  0.00     0.052 A 
HETATM   16  N   UNL     1     -39.030 -50.091  11.058  1.00  0.00    -0.363 N 
HETATM   17  C   UNL     1     -37.827 -49.593  11.517  1.00  0.00     0.095 A 
ATOM     18  HN  UNL     1     -39.240 -50.312  10.085  1.00  0.00     0.165 HD
HETATM   19  C   UNL     1     -37.767 -49.340  12.869  1.00  0.00     0.068 A 
HETATM   20  S   UNL     1     -39.258 -49.754  13.604  1.00  0.00    -0.087 SA
ENDBRANCH  14  15
ENDBRANCH  13  14
ENDBRANCH   3  13
TORSDOF 7
ENDMDL
MODEL 8
REMARK VINA RESULT:      -5.1      2.449      4.339
REMARK  7 active torsions:
REMARK  status: ('A' for Active; 'I' for Inactive)
REMARK    1  A    between atoms: C_2  and  C_3 
REMARK       I    between atoms: C_2  and  N_11 
REMARK    2  A    between atoms: C_3  and  C_4 
REMARK    3  A    between atoms: C_4  and  C_5 
REMARK    4  A    between atoms: C_4  and  C_8 
REMARK    5  A    between atoms: N_11  and  C_12 
REMARK    6  A    between atoms: C_12  and  C_13 
REMARK    7  A    between atoms: C_13  and  C_14 
ROOT
HETATM    1  O   UNL     1     -42.788 -50.618  14.166  1.00  0.00    -0.274 OA
HETATM    2  C   UNL     1     -42.889 -50.916  12.982  1.00  0.00     0.217 C 
HETATM    3  N   UNL     1     -42.398 -50.137  11.958  1.00  0.00    -0.361 N 
HETATM    4  H   UNL     1     -42.351 -50.529  11.021  1.00  0.00     0.162 HD
ENDROOT
BRANCH   2   5
HETATM    5  C   UNL     1     -43.553 -52.185  12.483  1.00  0.00     0.108 C 
BRANCH   5   6
HETATM    6  C   UNL     1     -44.431 -52.875  13.540  1.00  0.00     0.002 C 
BRANCH   6   7
HETATM    7  C   UNL     1     -45.920 -52.597  13.440  1.00  0.00    -0.010 A 
HETATM    8  C   UNL     1     -46.472 -51.469  12.597  1.00  0.00     0.005 A 
HETATM    9  C   UNL     1     -46.647 -51.440  14.089  1.00  0.00     0.005 A 
ENDBRANCH   6   7
BRANCH   6  10
HETATM   10  C   UNL     1     -44.181 -54.377  13.486  1.00  0.00    -0.010 A 
HETATM   11  C   UNL     1     -45.182 -55.369  14.034  1.00  0.00     0.005 A 
HETATM   12  C   UNL     1     -43.885 -55.143  14.755  1.00  0.00     0.005 A 
ENDBRANCH   6  10
ENDBRANCH   5   6
ENDBRANCH   2   5
BRANCH   3  13
HETATM   13  C   UNL     1     -41.754 -48.851  12.147  1.00  0.00     0.129 C 
BRANCH  13  14
HETATM   14  C   UNL     1     -40.543 -48.667  11.231  1.00  0.00     0.084 C 
BRANCH  14  15
HETATM   15  C   UNL     1     -39.346 -49.411  11.752  1.00  0.00     0.052 A 
HETATM   16  N   UNL     1     -38.428 -49.964  10.977  1.00  0.00    -0.363 N 
HETATM   17  C   UNL     1     -37.465 -50.571  11.756  1.00  0.00     0.095 A 
ATOM     18  HN  UNL     1     -38.432 -49.945   9.957  1.00  0.00     0.165 HD
HETATM   19  C   UNL     1     -37.641 -50.454  13.117  1.00  0.00     0.068 A 
HETATM   20  S   UNL     1     -39.072 -49.568  13.442  1.00  0.00    -0.087 SA
ENDBRANCH  14  15
ENDBRANCH  13  14
ENDBRANCH   3  13
TORSDOF 7
ENDMDL
MODEL 9
REMARK VINA RESULT:      -5.0      2.763      4.611
REMARK  7 active torsions:
REMARK  status: ('A' for Active; 'I' for Inactive)
REMARK    1  A    between atoms: C_2  and  C_3 
REMARK       I    between atoms: C_2  and  N_11 
REMARK    2  A    between atoms: C_3  and  C_4 
REMARK    3  A    between atoms: C_4  and  C_5 
REMARK    4  A    between atoms: C_4  and  C_8 
REMARK    5  A    between atoms: N_11  and  C_12 
REMARK    6  A    between atoms: C_12  and  C_13 
REMARK    7  A    between atoms: C_13  and  C_14 
ROOT
HETATM    1  O   UNL     1     -42.605 -50.479  14.065  1.00  0.00    -0.274 OA
HETATM    2  C   UNL     1     -42.474 -51.018  12.972  1.00  0.00     0.217 C 
HETATM    3  N   UNL     1     -42.244 -50.324  11.806  1.00  0.00    -0.361 N 
HETATM    4  H   UNL     1     -41.963 -50.838  10.975  1.00  0.00     0.162 HD
ENDROOT
BRANCH   2   5
HETATM    5  C   UNL     1     -42.534 -52.518  12.757  1.00  0.00     0.108 C 
BRANCH   5   6
HETATM    6  C   UNL     1     -41.799 -53.324  13.840  1.00  0.00     0.002 C 
BRANCH   6   7
HETATM    7  C   UNL     1     -42.474 -54.614  14.269  1.00  0.00    -0.010 A 
HETATM    8  C   UNL     1     -43.974 -54.723  14.425  1.00  0.00     0.005 A 
HETATM    9  C   UNL     1     -43.086 -54.881  15.627  1.00  0.00     0.005 A 
ENDBRANCH   6   7
BRANCH   6  10
HETATM   10  C   UNL     1     -40.381 -53.616  13.363  1.00  0.00    -0.010 A 
HETATM   11  C   UNL     1     -39.442 -54.495  14.156  1.00  0.00     0.005 A 
HETATM   12  C   UNL     1     -39.199 -53.016  14.087  1.00  0.00     0.005 A 
ENDBRANCH   6  10
ENDBRANCH   5   6
ENDBRANCH   2   5
BRANCH   3  13
HETATM   13  C   UNL     1     -42.184 -48.877  11.715  1.00  0.00     0.129 C 
BRANCH  13  14
HETATM   14  C   UNL     1     -40.916 -48.393  11.009  1.00  0.00     0.084 C 
BRANCH  14  15
HETATM   15  C   UNL     1     -39.684 -49.001  11.618  1.00  0.00     0.052 A 
HETATM   16  N   UNL     1     -38.876 -49.827  10.976  1.00  0.00    -0.363 N 
HETATM   17  C   UNL     1     -37.844 -50.210  11.808  1.00  0.00     0.095 A 
ATOM     18  HN  UNL     1     -38.998 -50.136  10.012  1.00  0.00     0.165 HD
HETATM   19  C   UNL     1     -37.858 -49.652  13.066  1.00  0.00     0.068 A 
HETATM   20  S   UNL     1     -39.219 -48.624  13.230  1.00  0.00    -0.087 SA
ENDBRANCH  14  15
ENDBRANCH  13  14
ENDBRANCH   3  13
TORSDOF 7
ENDMDL
