MODEL 1
REMARK VINA RESULT:      -6.3      0.000      0.000
REMARK  4 active torsions:
REMARK  status: ('A' for Active; 'I' for Inactive)
REMARK    1  A    between atoms: O_1  and  C_2 
REMARK    2  A    between atoms: C_2  and  C_3 
REMARK    3  A    between atoms: C_4  and  N_5 
REMARK       I    between atoms: N_5  and  C_6 
REMARK       I    between atoms: C_6  and  N_8 
REMARK    4  A    between atoms: N_8  and  C_9 
ROOT
HETATM    1  N   UNL     1     -43.254 -51.359  12.681  1.00  0.00    -0.337 N 
HETATM    2  C   UNL     1     -42.818 -50.054  12.639  1.00  0.00     0.321 C 
HETATM    3  O   UNL     1     -43.167 -49.208  13.454  1.00  0.00    -0.247 OA
HETATM    4  N   UNL     1     -42.036 -49.822  11.530  1.00  0.00    -0.308 N 
HETATM    5  H   UNL     1     -42.568 -52.045  12.396  1.00  0.00     0.164 HD
HETATM    6  H   UNL     1     -42.278 -50.404  10.740  1.00  0.00     0.170 HD
ENDROOT
BRANCH   1   7
HETATM    7  C   UNL     1     -44.242 -51.758  13.671  1.00  0.00     0.096 C 
HETATM    8  C   UNL     1     -44.401 -53.291  13.807  1.00  0.00     0.036 C 
HETATM    9  C   UNL     1     -45.923 -53.496  13.559  1.00  0.00    -0.006 C 
HETATM   10  C   UNL     1     -46.771 -52.893  14.692  1.00  0.00     0.005 C 
HETATM   11  C   UNL     1     -46.174 -52.484  12.439  1.00  0.00     0.012 C 
HETATM   12  C   UNL     1     -46.560 -51.382  14.514  1.00  0.00     0.007 C 
HETATM   13  C   UNL     1     -45.661 -51.301  13.267  1.00  0.00     0.009 C 
BRANCH   8  14
HETATM   14  C   UNL     1     -43.879 -53.828  15.136  1.00  0.00     0.171 C 
BRANCH  14  15
HETATM   15  O   UNL     1     -44.101 -55.231  15.207  1.00  0.00    -0.400 OA
HETATM   16  H   UNL     1     -43.224 -55.652  15.191  1.00  0.00     0.209 HD
ENDBRANCH  14  15
ENDBRANCH   8  14
ENDBRANCH   1   7
BRANCH   4  17
HETATM   17  C   UNL     1     -41.508 -48.546  11.246  1.00  0.00     0.051 A 
HETATM   18  C   UNL     1     -40.353 -48.128  11.903  1.00  0.00     0.032 A 
HETATM   19  C   UNL     1     -39.794 -46.892  11.585  1.00  0.00     0.019 A 
HETATM   20  C   UNL     1     -40.442 -46.091  10.657  1.00  0.00     0.088 A 
HETATM   21  N   UNL     1     -41.583 -46.444  10.030  1.00  0.00    -0.373 N 
HETATM   22  C   UNL     1     -42.082 -47.671  10.325  1.00  0.00     0.117 A 
ATOM     23  HN  UNL     1     -42.046 -45.822   9.368  1.00  0.00     0.164 HD
ENDBRANCH   4  17
TORSDOF 4
ENDMDL
MODEL 2
REMARK VINA RESULT:      -6.3      2.388      3.166
REMARK  4 active torsions:
REMARK  status: ('A' for Active; 'I' for Inactive)
REMARK    1  A    between atoms: O_1  and  C_2 
REMARK    2  A    between atoms: C_2  and  C_3 
REMARK    3  A    between atoms: C_4  and  N_5 
REMARK       I    between atoms: N_5  and  C_6 
REMARK       I    between atoms: C_6  and  N_8 
REMARK    4  A    between atoms: N_8  and  C_9 
ROOT
HETATM    1  N   UNL     1     -43.403 -50.840  14.070  1.00  0.00    -0.337 N 
HETATM    2  C   UNL     1     -42.280 -51.113  13.322  1.00  0.00     0.321 C 
HETATM    3  O   UNL     1     -42.143 -52.147  12.679  1.00  0.00    -0.247 OA
HETATM    4  N   UNL     1     -41.326 -50.132  13.475  1.00  0.00    -0.308 N 
HETATM    5  H   UNL     1     -43.679 -49.868  14.084  1.00  0.00     0.164 HD
HETATM    6  H   UNL     1     -41.355 -49.681  14.379  1.00  0.00     0.170 HD
ENDROOT
BRANCH   1   7
HETATM    7  C   UNL     1     -44.448 -51.844  14.193  1.00  0.00     0.096 C 
HETATM    8  C   UNL     1     -45.788 -51.429  13.537  1.00  0.00     0.036 C 
HETATM    9  C   UNL     1     -46.796 -51.569  14.713  1.00  0.00    -0.006 C 
HETATM   10  C   UNL     1     -46.982 -53.037  15.132  1.00  0.00     0.005 C 
HETATM   11  C   UNL     1     -45.960 -51.039  15.879  1.00  0.00     0.012 C 
HETATM   12  C   UNL     1     -45.625 -53.393  15.756  1.00  0.00     0.007 C 
HETATM   13  C   UNL     1     -44.845 -52.068  15.669  1.00  0.00     0.009 C 
BRANCH   8  14
HETATM   14  C   UNL     1     -46.119 -52.246  12.292  1.00  0.00     0.171 C 
BRANCH  14  15
HETATM   15  O   UNL     1     -44.984 -53.008  11.903  1.00  0.00    -0.400 OA
HETATM   16  H   UNL     1     -45.052 -53.863  12.363  1.00  0.00     0.209 HD
ENDBRANCH  14  15
ENDBRANCH   8  14
ENDBRANCH   1   7
BRANCH   4  17
HETATM   17  C   UNL     1     -40.069 -50.212  12.841  1.00  0.00     0.051 A 
HETATM   18  C   UNL     1     -38.988 -50.739  13.544  1.00  0.00     0.032 A 
HETATM   19  C   UNL     1     -37.756 -50.874  12.905  1.00  0.00     0.019 A 
HETATM   20  C   UNL     1     -37.636 -50.427  11.598  1.00  0.00     0.088 A 
HETATM   21  N   UNL     1     -38.650 -49.876  10.898  1.00  0.00    -0.373 N 
HETATM   22  C   UNL     1     -39.849 -49.797  11.530  1.00  0.00     0.117 A 
ATOM     23  HN  UNL     1     -38.522 -49.538   9.945  1.00  0.00     0.164 HD
ENDBRANCH   4  17
TORSDOF 4
ENDMDL
MODEL 3
REMARK VINA RESULT:      -6.0      2.194      2.746
REMARK  4 active torsions:
REMARK  status: ('A' for Active; 'I' for Inactive)
REMARK    1  A    between atoms: O_1  and  C_2 
REMARK    2  A    between atoms: C_2  and  C_3 
REMARK    3  A    between atoms: C_4  and  N_5 
REMARK       I    between atoms: N_5  and  C_6 
REMARK       I    between atoms: C_6  and  N_8 
REMARK    4  A    between atoms: N_8  and  C_9 
ROOT
HETATM    1  N   UNL     1     -43.258 -51.131  12.850  1.00  0.00    -0.337 N 
HETATM    2  C   UNL     1     -42.538 -50.001  12.535  1.00  0.00     0.321 C 
HETATM    3  O   UNL     1     -41.380 -49.825  12.897  1.00  0.00    -0.247 OA
HETATM    4  N   UNL     1     -43.314 -49.084  11.861  1.00  0.00    -0.308 N 
HETATM    5  H   UNL     1     -43.894 -51.444  12.130  1.00  0.00     0.164 HD
HETATM    6  H   UNL     1     -44.293 -49.129  12.107  1.00  0.00     0.170 HD
ENDROOT
BRANCH   1   7
HETATM    7  C   UNL     1     -42.674 -52.136  13.724  1.00  0.00     0.096 C 
HETATM    8  C   UNL     1     -42.444 -53.502  13.033  1.00  0.00     0.036 C 
HETATM    9  C   UNL     1     -43.221 -54.483  13.956  1.00  0.00    -0.006 C 
HETATM   10  C   UNL     1     -42.561 -54.607  15.339  1.00  0.00     0.005 C 
HETATM   11  C   UNL     1     -44.455 -53.645  14.297  1.00  0.00     0.012 C 
HETATM   12  C   UNL     1     -42.807 -53.227  15.964  1.00  0.00     0.007 C 
HETATM   13  C   UNL     1     -43.628 -52.497  14.885  1.00  0.00     0.009 C 
BRANCH   8  14
HETATM   14  C   UNL     1     -40.966 -53.826  12.833  1.00  0.00     0.171 C 
BRANCH  14  15
HETATM   15  O   UNL     1     -40.566 -53.449  11.522  1.00  0.00    -0.400 OA
HETATM   16  H   UNL     1     -40.923 -54.123  10.918  1.00  0.00     0.209 HD
ENDBRANCH  14  15
ENDBRANCH   8  14
ENDBRANCH   1   7
BRANCH   4  17
HETATM   17  C   UNL     1     -42.809 -47.827  11.470  1.00  0.00     0.051 A 
HETATM   18  C   UNL     1     -42.895 -46.756  12.357  1.00  0.00     0.032 A 
HETATM   19  C   UNL     1     -42.347 -45.526  12.000  1.00  0.00     0.019 A 
HETATM   20  C   UNL     1     -41.778 -45.395  10.743  1.00  0.00     0.088 A 
HETATM   21  N   UNL     1     -41.711 -46.397   9.842  1.00  0.00    -0.373 N 
HETATM   22  C   UNL     1     -42.213 -47.596  10.232  1.00  0.00     0.117 A 
ATOM     23  HN  UNL     1     -41.305 -46.261   8.917  1.00  0.00     0.164 HD
ENDBRANCH   4  17
TORSDOF 4
ENDMDL
MODEL 4
REMARK VINA RESULT:      -6.0      1.874      2.345
REMARK  4 active torsions:
REMARK  status: ('A' for Active; 'I' for Inactive)
REMARK    1  A    between atoms: O_1  and  C_2 
REMARK    2  A    between atoms: C_2  and  C_3 
REMARK    3  A    between atoms: C_4  and  N_5 
REMARK       I    between atoms: N_5  and  C_6 
REMARK       I    between atoms: C_6  and  N_8 
REMARK    4  A    between atoms: N_8  and  C_9 
ROOT
HETATM    1  N   UNL     1     -43.457 -52.086  12.534  1.00  0.00    -0.337 N 
HETATM    2  C   UNL     1     -42.290 -51.439  12.871  1.00  0.00     0.321 C 
HETATM    3  O   UNL     1     -41.995 -51.156  14.026  1.00  0.00    -0.247 OA
HETATM    4  N   UNL     1     -41.573 -51.081  11.751  1.00  0.00    -0.308 N 
HETATM    5  H   UNL     1     -43.377 -52.732  11.760  1.00  0.00     0.164 HD
HETATM    6  H   UNL     1     -42.155 -50.899  10.944  1.00  0.00     0.170 HD
ENDROOT
BRANCH   1   7
HETATM    7  C   UNL     1     -44.442 -52.378  13.563  1.00  0.00     0.096 C 
HETATM    8  C   UNL     1     -45.361 -53.577  13.221  1.00  0.00     0.036 C 
HETATM    9  C   UNL     1     -46.782 -52.957  13.338  1.00  0.00    -0.006 C 
HETATM   10  C   UNL     1     -47.122 -52.581  14.790  1.00  0.00     0.005 C 
HETATM   11  C   UNL     1     -46.548 -51.574  12.728  1.00  0.00     0.012 C 
HETATM   12  C   UNL     1     -46.174 -51.406  15.074  1.00  0.00     0.007 C 
HETATM   13  C   UNL     1     -45.446 -51.216  13.730  1.00  0.00     0.009 C 
BRANCH   8  14
HETATM   14  C   UNL     1     -45.104 -54.794  14.106  1.00  0.00     0.171 C 
BRANCH  14  15
HETATM   15  O   UNL     1     -46.053 -55.810  13.809  1.00  0.00    -0.400 OA
HETATM   16  H   UNL     1     -46.917 -55.370  13.732  1.00  0.00     0.209 HD
ENDBRANCH  14  15
ENDBRANCH   8  14
ENDBRANCH   1   7
BRANCH   4  17
HETATM   17  C   UNL     1     -40.361 -50.367  11.841  1.00  0.00     0.051 A 
HETATM   18  C   UNL     1     -40.370 -48.989  11.636  1.00  0.00     0.032 A 
HETATM   19  C   UNL     1     -39.185 -48.268  11.779  1.00  0.00     0.019 A 
HETATM   20  C   UNL     1     -38.020 -48.961  12.071  1.00  0.00     0.088 A 
HETATM   21  N   UNL     1     -37.966 -50.299  12.237  1.00  0.00    -0.373 N 
HETATM   22  C   UNL     1     -39.141 -50.970  12.135  1.00  0.00     0.117 A 
ATOM     23  HN  UNL     1     -37.088 -50.780  12.429  1.00  0.00     0.164 HD
ENDBRANCH   4  17
TORSDOF 4
ENDMDL
MODEL 5
REMARK VINA RESULT:      -5.7      2.194      7.118
REMARK  4 active torsions:
REMARK  status: ('A' for Active; 'I' for Inactive)
REMARK    1  A    between atoms: O_1  and  C_2 
REMARK    2  A    between atoms: C_2  and  C_3 
REMARK    3  A    between atoms: C_4  and  N_5 
REMARK       I    between atoms: N_5  and  C_6 
REMARK       I    between atoms: C_6  and  N_8 
REMARK    4  A    between atoms: N_8  and  C_9 
ROOT
HETATM    1  N   UNL     1     -41.947 -49.794  11.590  1.00  0.00    -0.337 N 
HETATM    2  C   UNL     1     -42.669 -50.622  12.419  1.00  0.00     0.321 C 
HETATM    3  O   UNL     1     -43.289 -50.213  13.394  1.00  0.00    -0.247 OA
HETATM    4  N   UNL     1     -42.519 -51.944  12.062  1.00  0.00    -0.308 N 
HETATM    5  H   UNL     1     -41.957 -50.056  10.614  1.00  0.00     0.164 HD
HETATM    6  H   UNL     1     -41.625 -52.145  11.636  1.00  0.00     0.170 HD
ENDROOT
BRANCH   1   7
HETATM    7  C   UNL     1     -41.823 -48.382  11.913  1.00  0.00     0.096 C 
HETATM    8  C   UNL     1     -41.540 -47.485  10.683  1.00  0.00     0.036 C 
HETATM    9  C   UNL     1     -40.235 -46.747  11.096  1.00  0.00    -0.006 C 
HETATM   10  C   UNL     1     -40.477 -45.775  12.264  1.00  0.00     0.005 C 
HETATM   11  C   UNL     1     -39.477 -47.870  11.806  1.00  0.00     0.012 C 
HETATM   12  C   UNL     1     -40.765 -46.716  13.442  1.00  0.00     0.007 C 
HETATM   13  C   UNL     1     -40.600 -48.115  12.818  1.00  0.00     0.009 C 
BRANCH   8  14
HETATM   14  C   UNL     1     -42.716 -46.582  10.321  1.00  0.00     0.171 C 
BRANCH  14  15
HETATM   15  O   UNL     1     -43.894 -47.050  10.964  1.00  0.00    -0.400 OA
HETATM   16  H   UNL     1     -44.615 -46.458  10.688  1.00  0.00     0.209 HD
ENDBRANCH  14  15
ENDBRANCH   8  14
ENDBRANCH   1   7
BRANCH   4  17
HETATM   17  C   UNL     1     -43.129 -52.984  12.792  1.00  0.00     0.051 A 
HETATM   18  C   UNL     1     -42.404 -53.625  13.794  1.00  0.00     0.032 A 
HETATM   19  C   UNL     1     -43.019 -54.616  14.557  1.00  0.00     0.019 A 
HETATM   20  C   UNL     1     -44.326 -54.969  14.254  1.00  0.00     0.088 A 
HETATM   21  N   UNL     1     -45.046 -54.399  13.267  1.00  0.00    -0.373 N 
HETATM   22  C   UNL     1     -44.437 -53.407  12.568  1.00  0.00     0.117 A 
ATOM     23  HN  UNL     1     -45.998 -54.697  13.056  1.00  0.00     0.164 HD
ENDBRANCH   4  17
TORSDOF 4
ENDMDL
MODEL 6
REMARK VINA RESULT:      -5.7      3.047      7.497
REMARK  4 active torsions:
REMARK  status: ('A' for Active; 'I' for Inactive)
REMARK    1  A    between atoms: O_1  and  C_2 
REMARK    2  A    between atoms: C_2  and  C_3 
REMARK    3  A    between atoms: C_4  and  N_5 
REMARK       I    between atoms: N_5  and  C_6 
REMARK       I    between atoms: C_6  and  N_8 
REMARK    4  A    between atoms: N_8  and  C_9 
ROOT
HETATM    1  N   UNL     1     -40.653 -52.167  13.974  1.00  0.00    -0.337 N 
HETATM    2  C   UNL     1     -42.023 -52.291  13.983  1.00  0.00     0.321 C 
HETATM    3  O   UNL     1     -42.778 -51.371  13.688  1.00  0.00    -0.247 OA
HETATM    4  N   UNL     1     -42.413 -53.526  14.451  1.00  0.00    -0.308 N 
HETATM    5  H   UNL     1     -40.153 -52.996  13.681  1.00  0.00     0.164 HD
HETATM    6  H   UNL     1     -41.765 -53.925  15.116  1.00  0.00     0.170 HD
ENDROOT
BRANCH   1   7
HETATM    7  C   UNL     1     -40.047 -50.876  13.692  1.00  0.00     0.096 C 
HETATM    8  C   UNL     1     -39.642 -50.689  12.210  1.00  0.00     0.036 C 
HETATM    9  C   UNL     1     -38.131 -50.338  12.314  1.00  0.00    -0.006 C 
HETATM   10  C   UNL     1     -37.909 -48.967  12.976  1.00  0.00     0.005 C 
HETATM   11  C   UNL     1     -37.691 -51.277  13.439  1.00  0.00     0.012 C 
HETATM   12  C   UNL     1     -38.340 -49.211  14.429  1.00  0.00     0.007 C 
HETATM   13  C   UNL     1     -38.704 -50.707  14.437  1.00  0.00     0.009 C 
BRANCH   8  14
HETATM   14  C   UNL     1     -40.503 -49.659  11.483  1.00  0.00     0.171 C 
BRANCH  14  15
HETATM   15  O   UNL     1     -40.459 -49.900  10.083  1.00  0.00    -0.400 OA
HETATM   16  H   UNL     1     -39.551 -50.186   9.880  1.00  0.00     0.209 HD
ENDBRANCH  14  15
ENDBRANCH   8  14
ENDBRANCH   1   7
BRANCH   4  17
HETATM   17  C   UNL     1     -43.772 -53.873  14.594  1.00  0.00     0.051 A 
HETATM   18  C   UNL     1     -44.398 -53.667  15.822  1.00  0.00     0.032 A 
HETATM   19  C   UNL     1     -45.756 -53.953  15.954  1.00  0.00     0.019 A 
HETATM   20  C   UNL     1     -46.428 -54.488  14.866  1.00  0.00     0.088 A 
HETATM   21  N   UNL     1     -45.847 -54.738  13.674  1.00  0.00    -0.373 N 
HETATM   22  C   UNL     1     -44.535 -54.409  13.559  1.00  0.00     0.117 A 
ATOM     23  HN  UNL     1     -46.366 -55.152  12.900  1.00  0.00     0.164 HD
ENDBRANCH   4  17
TORSDOF 4
ENDMDL
MODEL 7
REMARK VINA RESULT:      -5.6      3.109      3.857
REMARK  4 active torsions:
REMARK  status: ('A' for Active; 'I' for Inactive)
REMARK    1  A    between atoms: O_1  and  C_2 
REMARK    2  A    between atoms: C_2  and  C_3 
REMARK    3  A    between atoms: C_4  and  N_5 
REMARK       I    between atoms: N_5  and  C_6 
REMARK       I    between atoms: C_6  and  N_8 
REMARK    4  A    between atoms: N_8  and  C_9 
ROOT
HETATM    1  N   UNL     1     -41.193 -51.307  12.234  1.00  0.00    -0.337 N 
HETATM    2  C   UNL     1     -41.486 -49.963  12.281  1.00  0.00     0.321 C 
HETATM    3  O   UNL     1     -41.626 -49.348  13.331  1.00  0.00    -0.247 OA
HETATM    4  N   UNL     1     -41.688 -49.449  11.019  1.00  0.00    -0.308 N 
HETATM    5  H   UNL     1     -40.585 -51.583  11.475  1.00  0.00     0.164 HD
HETATM    6  H   UNL     1     -42.056 -50.126  10.365  1.00  0.00     0.170 HD
ENDROOT
BRANCH   1   7
HETATM    7  C   UNL     1     -41.130 -52.075  13.467  1.00  0.00     0.096 C 
HETATM    8  C   UNL     1     -39.710 -52.585  13.810  1.00  0.00     0.036 C 
HETATM    9  C   UNL     1     -39.927 -54.118  13.953  1.00  0.00    -0.006 C 
HETATM   10  C   UNL     1     -40.792 -54.459  15.179  1.00  0.00     0.005 C 
HETATM   11  C   UNL     1     -40.919 -54.379  12.817  1.00  0.00     0.012 C 
HETATM   12  C   UNL     1     -42.174 -53.918  14.787  1.00  0.00     0.007 C 
HETATM   13  C   UNL     1     -41.947 -53.382  13.361  1.00  0.00     0.009 C 
BRANCH   8  14
HETATM   14  C   UNL     1     -39.107 -51.894  15.031  1.00  0.00     0.171 C 
BRANCH  14  15
HETATM   15  O   UNL     1     -39.454 -50.516  15.020  1.00  0.00    -0.400 OA
HETATM   16  H   UNL     1     -39.014 -50.125  14.245  1.00  0.00     0.209 HD
ENDBRANCH  14  15
ENDBRANCH   8  14
ENDBRANCH   1   7
BRANCH   4  17
HETATM   17  C   UNL     1     -42.044 -48.101  10.813  1.00  0.00     0.051 A 
HETATM   18  C   UNL     1     -41.041 -47.136  10.758  1.00  0.00     0.032 A 
HETATM   19  C   UNL     1     -41.382 -45.809  10.498  1.00  0.00     0.019 A 
HETATM   20  C   UNL     1     -42.723 -45.486  10.355  1.00  0.00     0.088 A 
HETATM   21  N   UNL     1     -43.724 -46.386  10.441  1.00  0.00    -0.373 N 
HETATM   22  C   UNL     1     -43.361 -47.677  10.652  1.00  0.00     0.117 A 
ATOM     23  HN  UNL     1     -44.702 -46.111  10.353  1.00  0.00     0.164 HD
ENDBRANCH   4  17
TORSDOF 4
ENDMDL
MODEL 8
REMARK VINA RESULT:      -5.4      5.033      6.250
REMARK  4 active torsions:
REMARK  status: ('A' for Active; 'I' for Inactive)
REMARK    1  A    between atoms: O_1  and  C_2 
REMARK    2  A    between atoms: C_2  and  C_3 
REMARK    3  A    between atoms: C_4  and  N_5 
REMARK       I    between atoms: N_5  and  C_6 
REMARK       I    between atoms: C_6  and  N_8 
REMARK    4  A    between atoms: N_8  and  C_9 
ROOT
HETATM    1  N   UNL     1     -39.477 -47.770  11.563  1.00  0.00    -0.337 N 
HETATM    2  C   UNL     1     -40.211 -46.662  11.919  1.00  0.00     0.321 C 
HETATM    3  O   UNL     1     -40.701 -46.516  13.033  1.00  0.00    -0.247 OA
HETATM    4  N   UNL     1     -40.391 -45.814  10.849  1.00  0.00    -0.308 N 
HETATM    5  H   UNL     1     -38.709 -47.586  10.932  1.00  0.00     0.164 HD
HETATM    6  H   UNL     1     -40.410 -46.291   9.958  1.00  0.00     0.170 HD
ENDROOT
BRANCH   1   7
HETATM    7  C   UNL     1     -39.337 -48.873  12.500  1.00  0.00     0.096 C 
HETATM    8  C   UNL     1     -38.039 -48.813  13.342  1.00  0.00     0.036 C 
HETATM    9  C   UNL     1     -37.383 -50.192  13.049  1.00  0.00    -0.006 C 
HETATM   10  C   UNL     1     -38.202 -51.350  13.643  1.00  0.00     0.005 C 
HETATM   11  C   UNL     1     -37.692 -50.351  11.560  1.00  0.00     0.012 C 
HETATM   12  C   UNL     1     -39.474 -51.349  12.783  1.00  0.00     0.007 C 
HETATM   13  C   UNL     1     -39.205 -50.225  11.765  1.00  0.00     0.009 C 
BRANCH   8  14
HETATM   14  C   UNL     1     -38.298 -48.512  14.815  1.00  0.00     0.171 C 
BRANCH  14  15
HETATM   15  O   UNL     1     -39.680 -48.243  15.013  1.00  0.00    -0.400 OA
HETATM   16  H   UNL     1     -40.106 -48.324  14.142  1.00  0.00     0.209 HD
ENDBRANCH  14  15
ENDBRANCH   8  14
ENDBRANCH   1   7
BRANCH   4  17
HETATM   17  C   UNL     1     -41.149 -44.631  10.957  1.00  0.00     0.051 A 
HETATM   18  C   UNL     1     -40.502 -43.437  11.268  1.00  0.00     0.032 A 
HETATM   19  C   UNL     1     -41.236 -42.253  11.320  1.00  0.00     0.019 A 
HETATM   20  C   UNL     1     -42.606 -42.314  11.110  1.00  0.00     0.088 A 
HETATM   21  N   UNL     1     -43.273 -43.456  10.846  1.00  0.00    -0.373 N 
HETATM   22  C   UNL     1     -42.527 -44.587  10.758  1.00  0.00     0.117 A 
ATOM     23  HN  UNL     1     -44.285 -43.470  10.718  1.00  0.00     0.164 HD
ENDBRANCH   4  17
TORSDOF 4
ENDMDL
MODEL 9
REMARK VINA RESULT:      -5.3      4.458      7.054
REMARK  4 active torsions:
REMARK  status: ('A' for Active; 'I' for Inactive)
REMARK    1  A    between atoms: O_1  and  C_2 
REMARK    2  A    between atoms: C_2  and  C_3 
REMARK    3  A    between atoms: C_4  and  N_5 
REMARK       I    between atoms: N_5  and  C_6 
REMARK       I    between atoms: C_6  and  N_8 
REMARK    4  A    between atoms: N_8  and  C_9 
ROOT
HETATM    1  N   UNL     1     -43.309 -53.097  15.841  1.00  0.00    -0.337 N 
HETATM    2  C   UNL     1     -42.524 -54.228  15.862  1.00  0.00     0.321 C 
HETATM    3  O   UNL     1     -42.694 -55.172  15.099  1.00  0.00    -0.247 OA
HETATM    4  N   UNL     1     -41.613 -54.187  16.894  1.00  0.00    -0.308 N 
HETATM    5  H   UNL     1     -42.819 -52.237  16.047  1.00  0.00     0.164 HD
HETATM    6  H   UNL     1     -41.937 -53.661  17.694  1.00  0.00     0.170 HD
ENDROOT
BRANCH   1   7
HETATM    7  C   UNL     1     -44.452 -53.030  14.945  1.00  0.00     0.096 C 
HETATM    8  C   UNL     1     -44.139 -52.358  13.586  1.00  0.00     0.036 C 
HETATM    9  C   UNL     1     -45.193 -51.217  13.523  1.00  0.00    -0.006 C 
HETATM   10  C   UNL     1     -46.622 -51.769  13.387  1.00  0.00     0.005 C 
HETATM   11  C   UNL     1     -45.201 -50.746  14.978  1.00  0.00     0.012 C 
HETATM   12  C   UNL     1     -46.867 -52.431  14.751  1.00  0.00     0.007 C 
HETATM   13  C   UNL     1     -45.568 -52.131  15.521  1.00  0.00     0.009 C 
BRANCH   8  14
HETATM   14  C   UNL     1     -44.167 -53.339  12.417  1.00  0.00     0.171 C 
BRANCH  14  15
HETATM   15  O   UNL     1     -44.717 -54.578  12.845  1.00  0.00    -0.400 OA
HETATM   16  H   UNL     1     -44.033 -55.253  12.694  1.00  0.00     0.209 HD
ENDBRANCH  14  15
ENDBRANCH   8  14
ENDBRANCH   1   7
BRANCH   4  17
HETATM   17  C   UNL     1     -40.727 -55.254  17.147  1.00  0.00     0.051 A 
HETATM   18  C   UNL     1     -41.112 -56.260  18.031  1.00  0.00     0.032 A 
HETATM   19  C   UNL     1     -40.266 -57.347  18.241  1.00  0.00     0.019 A 
HETATM   20  C   UNL     1     -39.037 -57.363  17.599  1.00  0.00     0.088 A 
HETATM   21  N   UNL     1     -38.613 -56.390  16.767  1.00  0.00    -0.373 N 
HETATM   22  C   UNL     1     -39.475 -55.364  16.546  1.00  0.00     0.117 A 
ATOM     23  HN  UNL     1     -37.694 -56.422  16.328  1.00  0.00     0.164 HD
ENDBRANCH   4  17
TORSDOF 4
ENDMDL
