MODEL 1
REMARK VINA RESULT:      -7.0      0.000      0.000
REMARK  7 active torsions:
REMARK  status: ('A' for Active; 'I' for Inactive)
REMARK    1  A    between atoms: C_2  and  N_4 
REMARK    2  A    between atoms: N_3  and  C_15 
REMARK    3  A    between atoms: C_9  and  C_10 
REMARK       I    between atoms: C_9  and  N_16 
REMARK    4  A    between atoms: C_15  and  C_18 
REMARK    5  A    between atoms: N_16  and  C_17 
REMARK    6  A    between atoms: C_18  and  C_23 
REMARK    7  A    between atoms: C_18  and  O_26 
ROOT
HETATM    1  C   UNL     1     -40.684 -49.359  12.619  1.00  0.00     0.122 A 
HETATM    2  C   UNL     1     -40.121 -48.276  11.899  1.00  0.00     0.136 A 
HETATM    3  N   UNL     1     -40.708 -51.387  13.440  1.00  0.00    -0.325 N 
HETATM    4  C   UNL     1     -39.975 -50.553  12.636  1.00  0.00     0.140 A 
HETATM    5  N   UNL     1     -41.846 -49.477  13.356  1.00  0.00    -0.346 N 
ATOM      6  HN  UNL     1     -42.562 -48.766  13.505  1.00  0.00     0.167 HD
HETATM    7  C   UNL     1     -41.831 -50.704  13.825  1.00  0.00     0.185 A 
HETATM    8  N   UNL     1     -38.960 -48.528  11.222  1.00  0.00    -0.337 N 
ATOM      9  HN  UNL     1     -38.540 -47.809  10.634  1.00  0.00     0.168 HD
HETATM   10  N   UNL     1     -38.805 -50.813  12.032  1.00  0.00    -0.336 N 
ATOM     11  HN  UNL     1     -38.309 -51.703  12.087  1.00  0.00     0.168 HD
HETATM   12  C   UNL     1     -38.376 -49.740  11.342  1.00  0.00     0.183 A 
ENDROOT
BRANCH   2  13
HETATM   13  N   UNL     1     -40.701 -47.016  11.819  1.00  0.00    -0.352 N 
HETATM   14  C   UNL     1     -41.605 -46.682  10.697  1.00  0.00     0.178 C 
HETATM   15  C   UNL     1     -41.473 -45.150  10.547  1.00  0.00     0.037 C 
HETATM   16  C   UNL     1     -40.684 -44.689  11.765  1.00  0.00     0.022 C 
HETATM   17  C   UNL     1     -39.811 -45.887  12.088  1.00  0.00     0.125 C 
BRANCH  14  18
HETATM   18  C   UNL     1     -43.057 -47.147  10.952  1.00  0.00     0.240 C 
HETATM   19  N   UNL     1     -43.766 -47.397   9.789  1.00  0.00    -0.355 N 
HETATM   20  H   UNL     1     -43.230 -47.381   8.920  1.00  0.00     0.162 HD
HETATM   21  O   UNL     1     -43.567 -47.207  12.066  1.00  0.00    -0.271 OA
BRANCH  19  22
HETATM   22  C   UNL     1     -45.154 -47.728   9.753  1.00  0.00     0.084 A 
HETATM   23  C   UNL     1     -45.838 -48.148   8.479  1.00  0.00     0.027 A 
HETATM   24  C   UNL     1     -46.121 -46.799   9.070  1.00  0.00     0.027 A 
ENDBRANCH  19  22
ENDBRANCH  14  18
ENDBRANCH   2  13
BRANCH   3  25
HETATM   25  C   UNL     1     -40.276 -52.664  13.979  1.00  0.00     0.165 C 
BRANCH  25  26
HETATM   26  C   UNL     1     -40.605 -53.878  13.100  1.00  0.00     0.165 C 
BRANCH  26  27
HETATM   27  C   UNL     1     -41.994 -54.474  13.390  1.00  0.00     0.151 C 
HETATM   28  O   UNL     1     -43.008 -53.719  12.687  1.00  0.00    -0.383 OA
HETATM   29  C   UNL     1     -44.238 -53.841  13.426  1.00  0.00     0.168 C 
HETATM   30  C   UNL     1     -43.947 -54.688  14.651  1.00  0.00     0.029 C 
HETATM   31  C   UNL     1     -42.456 -54.513  14.832  1.00  0.00     0.036 C 
ENDBRANCH  26  27
BRANCH  26  32
HETATM   32  O   UNL     1     -40.603 -53.491  11.712  1.00  0.00    -0.391 OA
HETATM   33  H   UNL     1     -41.342 -53.970  11.285  1.00  0.00     0.210 HD
ENDBRANCH  26  32
ENDBRANCH  25  26
ENDBRANCH   3  25
TORSDOF 7
ENDMDL
MODEL 2
REMARK VINA RESULT:      -6.9      1.874      2.168
REMARK  7 active torsions:
REMARK  status: ('A' for Active; 'I' for Inactive)
REMARK    1  A    between atoms: C_2  and  N_4 
REMARK    2  A    between atoms: N_3  and  C_15 
REMARK    3  A    between atoms: C_9  and  C_10 
REMARK       I    between atoms: C_9  and  N_16 
REMARK    4  A    between atoms: C_15  and  C_18 
REMARK    5  A    between atoms: N_16  and  C_17 
REMARK    6  A    between atoms: C_18  and  C_23 
REMARK    7  A    between atoms: C_18  and  O_26 
ROOT
HETATM    1  C   UNL     1     -42.551 -49.386  12.320  1.00  0.00     0.122 A 
HETATM    2  C   UNL     1     -41.908 -48.313  11.655  1.00  0.00     0.136 A 
HETATM    3  N   UNL     1     -42.753 -51.457  12.994  1.00  0.00    -0.325 N 
HETATM    4  C   UNL     1     -41.969 -50.642  12.219  1.00  0.00     0.140 A 
HETATM    5  N   UNL     1     -43.691 -49.443  13.099  1.00  0.00    -0.346 N 
ATOM      6  HN  UNL     1     -44.323 -48.677  13.331  1.00  0.00     0.167 HD
HETATM    7  C   UNL     1     -43.785 -50.697  13.477  1.00  0.00     0.185 A 
HETATM    8  N   UNL     1     -40.805 -48.627  10.909  1.00  0.00    -0.337 N 
ATOM      9  HN  UNL     1     -40.336 -47.911  10.356  1.00  0.00     0.168 HD
HETATM   10  N   UNL     1     -40.857 -50.972  11.545  1.00  0.00    -0.336 N 
ATOM     11  HN  UNL     1     -40.453 -51.908  11.514  1.00  0.00     0.168 HD
HETATM   12  C   UNL     1     -40.345 -49.897  10.915  1.00  0.00     0.183 A 
ENDROOT
BRANCH   2  13
HETATM   13  N   UNL     1     -42.357 -46.998  11.692  1.00  0.00    -0.352 N 
HETATM   14  C   UNL     1     -42.085 -46.086  10.560  1.00  0.00     0.178 C 
HETATM   15  C   UNL     1     -42.072 -44.680  11.200  1.00  0.00     0.037 C 
HETATM   16  C   UNL     1     -42.586 -44.876  12.620  1.00  0.00     0.022 C 
HETATM   17  C   UNL     1     -42.152 -46.291  12.956  1.00  0.00     0.125 C 
BRANCH  14  18
HETATM   18  C   UNL     1     -43.125 -46.231   9.425  1.00  0.00     0.240 C 
HETATM   19  N   UNL     1     -44.248 -46.951   9.799  1.00  0.00    -0.355 N 
HETATM   20  H   UNL     1     -44.328 -47.181  10.791  1.00  0.00     0.162 HD
HETATM   21  O   UNL     1     -42.945 -45.830   8.280  1.00  0.00    -0.271 OA
BRANCH  19  22
HETATM   22  C   UNL     1     -45.297 -47.318   8.904  1.00  0.00     0.084 A 
HETATM   23  C   UNL     1     -46.724 -46.896   9.136  1.00  0.00     0.027 A 
HETATM   24  C   UNL     1     -46.325 -48.327   9.340  1.00  0.00     0.027 A 
ENDBRANCH  19  22
ENDBRANCH  14  18
ENDBRANCH   2  13
BRANCH   3  25
HETATM   25  C   UNL     1     -42.436 -52.808  13.419  1.00  0.00     0.165 C 
BRANCH  25  26
HETATM   26  C   UNL     1     -43.381 -53.891  12.882  1.00  0.00     0.165 C 
BRANCH  26  27
HETATM   27  C   UNL     1     -44.480 -54.283  13.885  1.00  0.00     0.151 C 
HETATM   28  O   UNL     1     -45.744 -53.710  13.476  1.00  0.00    -0.383 OA
HETATM   29  C   UNL     1     -46.547 -53.527  14.657  1.00  0.00     0.168 C 
HETATM   30  C   UNL     1     -45.717 -53.985  15.842  1.00  0.00     0.029 C 
HETATM   31  C   UNL     1     -44.302 -53.859  15.328  1.00  0.00     0.036 C 
ENDBRANCH  26  27
BRANCH  26  32
HETATM   32  O   UNL     1     -44.051 -53.412  11.700  1.00  0.00    -0.391 OA
HETATM   33  H   UNL     1     -43.571 -53.784  10.933  1.00  0.00     0.210 HD
ENDBRANCH  26  32
ENDBRANCH  25  26
ENDBRANCH   3  25
TORSDOF 7
ENDMDL
MODEL 3
REMARK VINA RESULT:      -6.8      1.888      2.382
REMARK  7 active torsions:
REMARK  status: ('A' for Active; 'I' for Inactive)
REMARK    1  A    between atoms: C_2  and  N_4 
REMARK    2  A    between atoms: N_3  and  C_15 
REMARK    3  A    between atoms: C_9  and  C_10 
REMARK       I    between atoms: C_9  and  N_16 
REMARK    4  A    between atoms: C_15  and  C_18 
REMARK    5  A    between atoms: N_16  and  C_17 
REMARK    6  A    between atoms: C_18  and  C_23 
REMARK    7  A    between atoms: C_18  and  O_26 
ROOT
HETATM    1  C   UNL     1     -41.327 -48.710  12.217  1.00  0.00     0.122 A 
HETATM    2  C   UNL     1     -40.220 -47.872  11.934  1.00  0.00     0.136 A 
HETATM    3  N   UNL     1     -42.330 -50.635  12.487  1.00  0.00    -0.325 N 
HETATM    4  C   UNL     1     -41.137 -50.080  12.103  1.00  0.00     0.140 A 
HETATM    5  N   UNL     1     -42.621 -48.433  12.616  1.00  0.00    -0.346 N 
ATOM      6  HN  UNL     1     -43.041 -47.516  12.766  1.00  0.00     0.167 HD
HETATM    7  C   UNL     1     -43.193 -49.607  12.759  1.00  0.00     0.185 A 
HETATM    8  N   UNL     1     -39.079 -48.489  11.501  1.00  0.00    -0.337 N 
ATOM      9  HN  UNL     1     -38.269 -47.937  11.220  1.00  0.00     0.168 HD
HETATM   10  N   UNL     1     -40.014 -50.719  11.738  1.00  0.00    -0.336 N 
ATOM     11  HN  UNL     1     -39.914 -51.733  11.686  1.00  0.00     0.168 HD
HETATM   12  C   UNL     1     -39.038 -49.838  11.450  1.00  0.00     0.183 A 
ENDROOT
BRANCH   2  13
HETATM   13  N   UNL     1     -40.253 -46.486  12.035  1.00  0.00    -0.352 N 
HETATM   14  C   UNL     1     -40.296 -45.651  10.815  1.00  0.00     0.178 C 
HETATM   15  C   UNL     1     -39.640 -44.320  11.243  1.00  0.00     0.037 C 
HETATM   16  C   UNL     1     -39.491 -44.408  12.755  1.00  0.00     0.022 C 
HETATM   17  C   UNL     1     -39.330 -45.896  13.004  1.00  0.00     0.125 C 
BRANCH  14  18
HETATM   18  C   UNL     1     -41.734 -45.477  10.273  1.00  0.00     0.240 C 
HETATM   19  N   UNL     1     -42.140 -46.514   9.449  1.00  0.00    -0.355 N 
HETATM   20  H   UNL     1     -41.518 -47.323   9.401  1.00  0.00     0.162 HD
HETATM   21  O   UNL     1     -42.422 -44.481  10.474  1.00  0.00    -0.271 OA
BRANCH  19  22
HETATM   22  C   UNL     1     -43.376 -46.532   8.736  1.00  0.00     0.084 A 
HETATM   23  C   UNL     1     -44.519 -47.422   9.150  1.00  0.00     0.027 A 
HETATM   24  C   UNL     1     -43.738 -47.736   7.909  1.00  0.00     0.027 A 
ENDBRANCH  19  22
ENDBRANCH  14  18
ENDBRANCH   2  13
BRANCH   3  25
HETATM   25  C   UNL     1     -42.576 -52.035  12.780  1.00  0.00     0.165 C 
BRANCH  25  26
HETATM   26  C   UNL     1     -43.140 -52.311  14.180  1.00  0.00     0.165 C 
BRANCH  26  27
HETATM   27  C   UNL     1     -44.676 -52.412  14.202  1.00  0.00     0.151 C 
HETATM   28  O   UNL     1     -45.186 -52.426  12.849  1.00  0.00    -0.383 OA
HETATM   29  C   UNL     1     -46.520 -51.886  12.875  1.00  0.00     0.168 C 
HETATM   30  C   UNL     1     -46.821 -51.499  14.311  1.00  0.00     0.029 C 
HETATM   31  C   UNL     1     -45.444 -51.310  14.903  1.00  0.00     0.036 C 
ENDBRANCH  26  27
BRANCH  26  32
HETATM   32  O   UNL     1     -42.637 -53.569  14.671  1.00  0.00    -0.391 OA
HETATM   33  H   UNL     1     -42.595 -53.494  15.646  1.00  0.00     0.210 HD
ENDBRANCH  26  32
ENDBRANCH  25  26
ENDBRANCH   3  25
TORSDOF 7
ENDMDL
MODEL 4
REMARK VINA RESULT:      -6.7      1.704      3.785
REMARK  7 active torsions:
REMARK  status: ('A' for Active; 'I' for Inactive)
REMARK    1  A    between atoms: C_2  and  N_4 
REMARK    2  A    between atoms: N_3  and  C_15 
REMARK    3  A    between atoms: C_9  and  C_10 
REMARK       I    between atoms: C_9  and  N_16 
REMARK    4  A    between atoms: C_15  and  C_18 
REMARK    5  A    between atoms: N_16  and  C_17 
REMARK    6  A    between atoms: C_18  and  C_23 
REMARK    7  A    between atoms: C_18  and  O_26 
ROOT
HETATM    1  C   UNL     1     -41.385 -49.289  11.580  1.00  0.00     0.122 A 
HETATM    2  C   UNL     1     -42.537 -48.534  11.250  1.00  0.00     0.136 A 
HETATM    3  N   UNL     1     -40.285 -50.854  12.642  1.00  0.00    -0.325 N 
HETATM    4  C   UNL     1     -41.512 -50.247  12.577  1.00  0.00     0.140 A 
HETATM    5  N   UNL     1     -40.096 -49.279  11.082  1.00  0.00    -0.346 N 
ATOM      6  HN  UNL     1     -39.716 -48.672  10.356  1.00  0.00     0.167 HD
HETATM    7  C   UNL     1     -39.465 -50.221  11.746  1.00  0.00     0.185 A 
HETATM    8  N   UNL     1     -43.658 -48.767  11.998  1.00  0.00    -0.337 N 
ATOM      9  HN  UNL     1     -44.500 -48.211  11.852  1.00  0.00     0.168 HD
HETATM   10  N   UNL     1     -42.612 -50.541  13.287  1.00  0.00    -0.336 N 
ATOM     11  HN  UNL     1     -42.665 -51.269  14.000  1.00  0.00     0.168 HD
HETATM   12  C   UNL     1     -43.637 -49.744  12.931  1.00  0.00     0.183 A 
ENDROOT
BRANCH   2  13
HETATM   13  N   UNL     1     -42.567 -47.564  10.255  1.00  0.00    -0.352 N 
HETATM   14  C   UNL     1     -42.636 -46.131  10.614  1.00  0.00     0.178 C 
HETATM   15  C   UNL     1     -43.332 -45.470   9.403  1.00  0.00     0.037 C 
HETATM   16  C   UNL     1     -43.389 -46.547   8.329  1.00  0.00     0.022 C 
HETATM   17  C   UNL     1     -43.462 -47.834   9.129  1.00  0.00     0.125 C 
BRANCH  14  18
HETATM   18  C   UNL     1     -41.242 -45.533  10.917  1.00  0.00     0.240 C 
HETATM   19  N   UNL     1     -41.296 -44.244  11.421  1.00  0.00    -0.355 N 
HETATM   20  H   UNL     1     -42.223 -43.890  11.660  1.00  0.00     0.162 HD
HETATM   21  O   UNL     1     -40.187 -46.101  10.658  1.00  0.00    -0.271 OA
BRANCH  19  22
HETATM   22  C   UNL     1     -40.147 -43.436  11.673  1.00  0.00     0.084 A 
HETATM   23  C   UNL     1     -39.755 -43.026  13.069  1.00  0.00     0.027 A 
HETATM   24  C   UNL     1     -40.326 -42.011  12.125  1.00  0.00     0.027 A 
ENDBRANCH  19  22
ENDBRANCH  14  18
ENDBRANCH   2  13
BRANCH   3  25
HETATM   25  C   UNL     1     -39.966 -52.081  13.349  1.00  0.00     0.165 C 
BRANCH  25  26
HETATM   26  C   UNL     1     -40.316 -53.369  12.593  1.00  0.00     0.165 C 
BRANCH  26  27
HETATM   27  C   UNL     1     -41.485 -54.142  13.227  1.00  0.00     0.151 C 
HETATM   28  O   UNL     1     -42.742 -53.563  12.806  1.00  0.00    -0.383 OA
HETATM   29  C   UNL     1     -43.715 -53.828  13.834  1.00  0.00     0.168 C 
HETATM   30  C   UNL     1     -43.005 -54.579  14.945  1.00  0.00     0.029 C 
HETATM   31  C   UNL     1     -41.559 -54.192  14.739  1.00  0.00     0.036 C 
ENDBRANCH  26  27
BRANCH  26  32
HETATM   32  O   UNL     1     -40.714 -53.052  11.245  1.00  0.00    -0.391 OA
HETATM   33  H   UNL     1     -41.686 -52.938  11.257  1.00  0.00     0.210 HD
ENDBRANCH  26  32
ENDBRANCH  25  26
ENDBRANCH   3  25
TORSDOF 7
ENDMDL
MODEL 5
REMARK VINA RESULT:      -6.7      1.401      2.165
REMARK  7 active torsions:
REMARK  status: ('A' for Active; 'I' for Inactive)
REMARK    1  A    between atoms: C_2  and  N_4 
REMARK    2  A    between atoms: N_3  and  C_15 
REMARK    3  A    between atoms: C_9  and  C_10 
REMARK       I    between atoms: C_9  and  N_16 
REMARK    4  A    between atoms: C_15  and  C_18 
REMARK    5  A    between atoms: N_16  and  C_17 
REMARK    6  A    between atoms: C_18  and  C_23 
REMARK    7  A    between atoms: C_18  and  O_26 
ROOT
HETATM    1  C   UNL     1     -40.457 -48.776  12.898  1.00  0.00     0.122 A 
HETATM    2  C   UNL     1     -41.326 -47.659  12.830  1.00  0.00     0.136 A 
HETATM    3  N   UNL     1     -39.960 -50.873  13.275  1.00  0.00    -0.325 N 
HETATM    4  C   UNL     1     -40.985 -49.968  13.376  1.00  0.00     0.140 A 
HETATM    5  N   UNL     1     -39.128 -48.938  12.558  1.00  0.00    -0.346 N 
ATOM      6  HN  UNL     1     -38.490 -48.231  12.195  1.00  0.00     0.167 HD
HETATM    7  C   UNL     1     -38.863 -50.201  12.805  1.00  0.00     0.185 A 
HETATM    8  N   UNL     1     -42.593 -47.838  13.312  1.00  0.00    -0.337 N 
ATOM      9  HN  UNL     1     -43.245 -47.055  13.350  1.00  0.00     0.168 HD
HETATM   10  N   UNL     1     -42.238 -50.191  13.801  1.00  0.00    -0.336 N 
ATOM     11  HN  UNL     1     -42.589 -51.092  14.127  1.00  0.00     0.168 HD
HETATM   12  C   UNL     1     -42.971 -49.063  13.737  1.00  0.00     0.183 A 
ENDROOT
BRANCH   2  13
HETATM   13  N   UNL     1     -40.947 -46.413  12.345  1.00  0.00    -0.352 N 
HETATM   14  C   UNL     1     -40.717 -46.216  10.897  1.00  0.00     0.178 C 
HETATM   15  C   UNL     1     -39.702 -45.053  10.829  1.00  0.00     0.037 C 
HETATM   16  C   UNL     1     -39.616 -44.506  12.247  1.00  0.00     0.022 C 
HETATM   17  C   UNL     1     -39.909 -45.721  13.108  1.00  0.00     0.125 C 
BRANCH  14  18
HETATM   18  C   UNL     1     -42.027 -45.929  10.127  1.00  0.00     0.240 C 
HETATM   19  N   UNL     1     -42.409 -46.965   9.290  1.00  0.00    -0.355 N 
HETATM   20  H   UNL     1     -41.878 -47.834   9.374  1.00  0.00     0.162 HD
HETATM   21  O   UNL     1     -42.626 -44.860  10.177  1.00  0.00    -0.271 OA
BRANCH  19  22
HETATM   22  C   UNL     1     -43.515 -46.900   8.391  1.00  0.00     0.084 A 
HETATM   23  C   UNL     1     -44.794 -47.653   8.649  1.00  0.00     0.027 A 
HETATM   24  C   UNL     1     -43.868 -48.103   7.559  1.00  0.00     0.027 A 
ENDBRANCH  19  22
ENDBRANCH  14  18
ENDBRANCH   2  13
BRANCH   3  25
HETATM   25  C   UNL     1     -40.065 -52.314  13.413  1.00  0.00     0.165 C 
BRANCH  25  26
HETATM   26  C   UNL     1     -40.801 -53.019  12.265  1.00  0.00     0.165 C 
BRANCH  26  27
HETATM   27  C   UNL     1     -42.077 -53.747  12.723  1.00  0.00     0.151 C 
HETATM   28  O   UNL     1     -43.210 -52.852  12.635  1.00  0.00    -0.383 OA
HETATM   29  C   UNL     1     -44.182 -53.276  13.609  1.00  0.00     0.168 C 
HETATM   30  C   UNL     1     -43.596 -54.468  14.342  1.00  0.00     0.029 C 
HETATM   31  C   UNL     1     -42.109 -54.290  14.137  1.00  0.00     0.036 C 
ENDBRANCH  26  27
BRANCH  26  32
HETATM   32  O   UNL     1     -41.209 -52.051  11.279  1.00  0.00    -0.391 OA
HETATM   33  H   UNL     1     -42.139 -52.253  11.053  1.00  0.00     0.210 HD
ENDBRANCH  26  32
ENDBRANCH  25  26
ENDBRANCH   3  25
TORSDOF 7
ENDMDL
MODEL 6
REMARK VINA RESULT:      -6.6      1.960      2.298
REMARK  7 active torsions:
REMARK  status: ('A' for Active; 'I' for Inactive)
REMARK    1  A    between atoms: C_2  and  N_4 
REMARK    2  A    between atoms: N_3  and  C_15 
REMARK    3  A    between atoms: C_9  and  C_10 
REMARK       I    between atoms: C_9  and  N_16 
REMARK    4  A    between atoms: C_15  and  C_18 
REMARK    5  A    between atoms: N_16  and  C_17 
REMARK    6  A    between atoms: C_18  and  C_23 
REMARK    7  A    between atoms: C_18  and  O_26 
ROOT
HETATM    1  C   UNL     1     -41.915 -50.065  12.266  1.00  0.00     0.122 A 
HETATM    2  C   UNL     1     -41.538 -48.721  12.018  1.00  0.00     0.136 A 
HETATM    3  N   UNL     1     -41.586 -52.226  12.353  1.00  0.00    -0.325 N 
HETATM    4  C   UNL     1     -40.990 -51.055  11.962  1.00  0.00     0.140 A 
HETATM    5  N   UNL     1     -43.067 -50.623  12.786  1.00  0.00    -0.346 N 
ATOM      6  HN  UNL     1     -43.913 -50.136  13.083  1.00  0.00     0.167 HD
HETATM    7  C   UNL     1     -42.837 -51.916  12.815  1.00  0.00     0.185 A 
HETATM    8  N   UNL     1     -40.318 -48.526  11.431  1.00  0.00    -0.337 N 
ATOM      9  HN  UNL     1     -40.017 -47.588  11.169  1.00  0.00     0.168 HD
HETATM   10  N   UNL     1     -39.764 -50.891  11.441  1.00  0.00    -0.336 N 
ATOM     11  HN  UNL     1     -39.109 -51.650  11.250  1.00  0.00     0.168 HD
HETATM   12  C   UNL     1     -39.518 -49.589  11.203  1.00  0.00     0.183 A 
ENDROOT
BRANCH   2  13
HETATM   13  N   UNL     1     -42.345 -47.626  12.301  1.00  0.00    -0.352 N 
HETATM   14  C   UNL     1     -42.171 -46.361  11.555  1.00  0.00     0.178 C 
HETATM   15  C   UNL     1     -42.664 -45.273  12.534  1.00  0.00     0.037 C 
HETATM   16  C   UNL     1     -43.317 -46.026  13.684  1.00  0.00     0.022 C 
HETATM   17  C   UNL     1     -42.554 -47.338  13.719  1.00  0.00     0.125 C 
BRANCH  14  18
HETATM   18  C   UNL     1     -42.933 -46.362  10.209  1.00  0.00     0.240 C 
HETATM   19  N   UNL     1     -44.152 -47.019  10.269  1.00  0.00    -0.355 N 
HETATM   20  H   UNL     1     -44.468 -47.301  11.199  1.00  0.00     0.162 HD
HETATM   21  O   UNL     1     -42.475 -45.908   9.166  1.00  0.00    -0.271 OA
BRANCH  19  22
HETATM   22  C   UNL     1     -44.989 -47.256   9.139  1.00  0.00     0.084 A 
HETATM   23  C   UNL     1     -46.421 -46.789   9.099  1.00  0.00     0.027 A 
HETATM   24  C   UNL     1     -46.114 -48.250   9.243  1.00  0.00     0.027 A 
ENDBRANCH  19  22
ENDBRANCH  14  18
ENDBRANCH   2  13
BRANCH   3  25
HETATM   25  C   UNL     1     -40.943 -53.521  12.478  1.00  0.00     0.165 C 
BRANCH  25  26
HETATM   26  C   UNL     1     -40.016 -53.665  13.692  1.00  0.00     0.165 C 
BRANCH  26  27
HETATM   27  C   UNL     1     -40.708 -54.311  14.906  1.00  0.00     0.151 C 
HETATM   28  O   UNL     1     -41.204 -53.281  15.793  1.00  0.00    -0.383 OA
HETATM   29  C   UNL     1     -41.241 -53.828  17.124  1.00  0.00     0.168 C 
HETATM   30  C   UNL     1     -40.715 -55.249  17.043  1.00  0.00     0.029 C 
HETATM   31  C   UNL     1     -39.879 -55.225  15.784  1.00  0.00     0.036 C 
ENDBRANCH  26  27
BRANCH  26  32
HETATM   32  O   UNL     1     -38.898 -54.510  13.356  1.00  0.00    -0.391 OA
HETATM   33  H   UNL     1     -39.269 -55.323  12.958  1.00  0.00     0.210 HD
ENDBRANCH  26  32
ENDBRANCH  25  26
ENDBRANCH   3  25
TORSDOF 7
ENDMDL
MODEL 7
REMARK VINA RESULT:      -6.6      1.494      1.776
REMARK  7 active torsions:
REMARK  status: ('A' for Active; 'I' for Inactive)
REMARK    1  A    between atoms: C_2  and  N_4 
REMARK    2  A    between atoms: N_3  and  C_15 
REMARK    3  A    between atoms: C_9  and  C_10 
REMARK       I    between atoms: C_9  and  N_16 
REMARK    4  A    between atoms: C_15  and  C_18 
REMARK    5  A    between atoms: N_16  and  C_17 
REMARK    6  A    between atoms: C_18  and  C_23 
REMARK    7  A    between atoms: C_18  and  O_26 
ROOT
HETATM    1  C   UNL     1     -41.157 -48.923  12.131  1.00  0.00     0.122 A 
HETATM    2  C   UNL     1     -40.103 -47.994  11.950  1.00  0.00     0.136 A 
HETATM    3  N   UNL     1     -42.041 -50.923  12.190  1.00  0.00    -0.325 N 
HETATM    4  C   UNL     1     -40.883 -50.260  11.879  1.00  0.00     0.140 A 
HETATM    5  N   UNL     1     -42.468 -48.768  12.541  1.00  0.00    -0.346 N 
ATOM      6  HN  UNL     1     -42.945 -47.899  12.779  1.00  0.00     0.167 HD
HETATM    7  C   UNL     1     -42.967 -49.983  12.556  1.00  0.00     0.185 A 
HETATM    8  N   UNL     1     -38.923 -48.493  11.470  1.00  0.00    -0.337 N 
ATOM      9  HN  UNL     1     -38.148 -47.866  11.257  1.00  0.00     0.168 HD
HETATM   10  N   UNL     1     -39.720 -50.788  11.465  1.00  0.00    -0.336 N 
ATOM     11  HN  UNL     1     -39.557 -51.783  11.309  1.00  0.00     0.168 HD
HETATM   12  C   UNL     1     -38.798 -49.825  11.281  1.00  0.00     0.183 A 
ENDROOT
BRANCH   2  13
HETATM   13  N   UNL     1     -40.222 -46.631  12.193  1.00  0.00    -0.352 N 
HETATM   14  C   UNL     1     -40.274 -45.676  11.064  1.00  0.00     0.178 C 
HETATM   15  C   UNL     1     -39.713 -44.363  11.654  1.00  0.00     0.037 C 
HETATM   16  C   UNL     1     -39.611 -44.601  13.154  1.00  0.00     0.022 C 
HETATM   17  C   UNL     1     -39.369 -46.096  13.253  1.00  0.00     0.125 C 
BRANCH  14  18
HETATM   18  C   UNL     1     -41.700 -45.525  10.487  1.00  0.00     0.240 C 
HETATM   19  N   UNL     1     -42.029 -46.512   9.571  1.00  0.00    -0.355 N 
HETATM   20  H   UNL     1     -41.367 -47.286   9.484  1.00  0.00     0.162 HD
HETATM   21  O   UNL     1     -42.441 -44.581  10.739  1.00  0.00    -0.271 OA
BRANCH  19  22
HETATM   22  C   UNL     1     -43.239 -46.531   8.815  1.00  0.00     0.084 A 
HETATM   23  C   UNL     1     -44.381 -47.447   9.169  1.00  0.00     0.027 A 
HETATM   24  C   UNL     1     -43.554 -47.720   7.949  1.00  0.00     0.027 A 
ENDBRANCH  19  22
ENDBRANCH  14  18
ENDBRANCH   2  13
BRANCH   3  25
HETATM   25  C   UNL     1     -42.201 -52.359  12.334  1.00  0.00     0.165 C 
BRANCH  25  26
HETATM   26  C   UNL     1     -41.253 -53.014  13.346  1.00  0.00     0.165 C 
BRANCH  26  27
HETATM   27  C   UNL     1     -41.906 -54.169  14.126  1.00  0.00     0.151 C 
HETATM   28  O   UNL     1     -43.212 -53.765  14.598  1.00  0.00    -0.383 OA
HETATM   29  C   UNL     1     -43.506 -54.525  15.785  1.00  0.00     0.168 C 
HETATM   30  C   UNL     1     -42.306 -55.411  16.061  1.00  0.00     0.029 C 
HETATM   31  C   UNL     1     -41.184 -54.687  15.353  1.00  0.00     0.036 C 
ENDBRANCH  26  27
BRANCH  26  32
HETATM   32  O   UNL     1     -40.114 -53.571  12.660  1.00  0.00    -0.391 OA
HETATM   33  H   UNL     1     -39.907 -52.965  11.921  1.00  0.00     0.210 HD
ENDBRANCH  26  32
ENDBRANCH  25  26
ENDBRANCH   3  25
TORSDOF 7
ENDMDL
MODEL 8
REMARK VINA RESULT:      -6.6      2.330      4.247
REMARK  7 active torsions:
REMARK  status: ('A' for Active; 'I' for Inactive)
REMARK    1  A    between atoms: C_2  and  N_4 
REMARK    2  A    between atoms: N_3  and  C_15 
REMARK    3  A    between atoms: C_9  and  C_10 
REMARK       I    between atoms: C_9  and  N_16 
REMARK    4  A    between atoms: C_15  and  C_18 
REMARK    5  A    between atoms: N_16  and  C_17 
REMARK    6  A    between atoms: C_18  and  C_23 
REMARK    7  A    between atoms: C_18  and  O_26 
ROOT
HETATM    1  C   UNL     1     -41.432 -51.943  13.961  1.00  0.00     0.122 A 
HETATM    2  C   UNL     1     -40.645 -51.717  12.805  1.00  0.00     0.136 A 
HETATM    3  N   UNL     1     -42.952 -52.977  15.147  1.00  0.00    -0.325 N 
HETATM    4  C   UNL     1     -42.397 -52.939  13.894  1.00  0.00     0.140 A 
HETATM    5  N   UNL     1     -41.431 -51.355  15.212  1.00  0.00    -0.346 N 
ATOM      6  HN  UNL     1     -40.840 -50.591  15.538  1.00  0.00     0.167 HD
HETATM    7  C   UNL     1     -42.358 -51.993  15.890  1.00  0.00     0.185 A 
HETATM    8  N   UNL     1     -40.958 -52.456  11.698  1.00  0.00    -0.337 N 
ATOM      9  HN  UNL     1     -40.471 -52.294  10.816  1.00  0.00     0.168 HD
HETATM   10  N   UNL     1     -42.688 -53.720  12.842  1.00  0.00    -0.336 N 
ATOM     11  HN  UNL     1     -43.396 -54.455  12.843  1.00  0.00     0.168 HD
HETATM   12  C   UNL     1     -41.919 -53.401  11.785  1.00  0.00     0.183 A 
ENDROOT
BRANCH   2  13
HETATM   13  N   UNL     1     -39.624 -50.777  12.736  1.00  0.00    -0.352 N 
HETATM   14  C   UNL     1     -39.461 -49.943  11.525  1.00  0.00     0.178 C 
HETATM   15  C   UNL     1     -37.956 -49.594  11.505  1.00  0.00     0.037 C 
HETATM   16  C   UNL     1     -37.414 -50.055  12.851  1.00  0.00     0.022 C 
HETATM   17  C   UNL     1     -38.313 -51.224  13.206  1.00  0.00     0.125 C 
BRANCH  14  18
HETATM   18  C   UNL     1     -40.377 -48.697  11.542  1.00  0.00     0.240 C 
HETATM   19  N   UNL     1     -41.250 -48.643  10.467  1.00  0.00    -0.355 N 
HETATM   20  H   UNL     1     -41.289 -49.474   9.874  1.00  0.00     0.162 HD
HETATM   21  O   UNL     1     -40.287 -47.797  12.369  1.00  0.00    -0.271 OA
BRANCH  19  22
HETATM   22  C   UNL     1     -42.115 -47.542  10.194  1.00  0.00     0.084 A 
HETATM   23  C   UNL     1     -43.575 -47.569  10.563  1.00  0.00     0.027 A 
HETATM   24  C   UNL     1     -43.165 -47.671   9.124  1.00  0.00     0.027 A 
ENDBRANCH  19  22
ENDBRANCH  14  18
ENDBRANCH   2  13
BRANCH   3  25
HETATM   25  C   UNL     1     -43.832 -54.008  15.669  1.00  0.00     0.165 C 
BRANCH  25  26
HETATM   26  C   UNL     1     -45.194 -53.502  16.162  1.00  0.00     0.165 C 
BRANCH  26  27
HETATM   27  C   UNL     1     -46.093 -52.983  15.026  1.00  0.00     0.151 C 
HETATM   28  O   UNL     1     -45.727 -53.621  13.781  1.00  0.00    -0.383 OA
HETATM   29  C   UNL     1     -46.073 -52.724  12.709  1.00  0.00     0.168 C 
HETATM   30  C   UNL     1     -46.650 -51.470  13.338  1.00  0.00     0.029 C 
HETATM   31  C   UNL     1     -46.068 -51.497  14.732  1.00  0.00     0.036 C 
ENDBRANCH  26  27
BRANCH  26  32
HETATM   32  O   UNL     1     -45.912 -54.577  16.799  1.00  0.00    -0.391 OA
HETATM   33  H   UNL     1     -45.319 -55.354  16.794  1.00  0.00     0.210 HD
ENDBRANCH  26  32
ENDBRANCH  25  26
ENDBRANCH   3  25
TORSDOF 7
ENDMDL
MODEL 9
REMARK VINA RESULT:      -6.6      2.558      4.079
REMARK  7 active torsions:
REMARK  status: ('A' for Active; 'I' for Inactive)
REMARK    1  A    between atoms: C_2  and  N_4 
REMARK    2  A    between atoms: N_3  and  C_15 
REMARK    3  A    between atoms: C_9  and  C_10 
REMARK       I    between atoms: C_9  and  N_16 
REMARK    4  A    between atoms: C_15  and  C_18 
REMARK    5  A    between atoms: N_16  and  C_17 
REMARK    6  A    between atoms: C_18  and  C_23 
REMARK    7  A    between atoms: C_18  and  O_26 
ROOT
HETATM    1  C   UNL     1     -42.832 -51.414  12.773  1.00  0.00     0.122 A 
HETATM    2  C   UNL     1     -41.421 -51.343  12.672  1.00  0.00     0.136 A 
HETATM    3  N   UNL     1     -44.754 -52.451  12.904  1.00  0.00    -0.325 N 
HETATM    4  C   UNL     1     -43.414 -52.674  12.724  1.00  0.00     0.140 A 
HETATM    5  N   UNL     1     -43.800 -50.441  12.932  1.00  0.00    -0.346 N 
ATOM      6  HN  UNL     1     -43.663 -49.432  12.985  1.00  0.00     0.167 HD
HETATM    7  C   UNL     1     -44.937 -51.097  12.997  1.00  0.00     0.185 A 
HETATM    8  N   UNL     1     -40.761 -52.522  12.461  1.00  0.00    -0.337 N 
ATOM      9  HN  UNL     1     -39.752 -52.529  12.316  1.00  0.00     0.168 HD
HETATM   10  N   UNL     1     -42.790 -53.853  12.577  1.00  0.00    -0.336 N 
ATOM     11  HN  UNL     1     -43.258 -54.760  12.565  1.00  0.00     0.168 HD
HETATM   12  C   UNL     1     -41.462 -53.677  12.448  1.00  0.00     0.183 A 
ENDROOT
BRANCH   2  13
HETATM   13  N   UNL     1     -40.700 -50.157  12.737  1.00  0.00    -0.352 N 
HETATM   14  C   UNL     1     -40.476 -49.354  11.514  1.00  0.00     0.178 C 
HETATM   15  C   UNL     1     -39.159 -48.596  11.794  1.00  0.00     0.037 C 
HETATM   16  C   UNL     1     -38.856 -48.838  13.265  1.00  0.00     0.022 C 
HETATM   17  C   UNL     1     -39.471 -50.200  13.529  1.00  0.00     0.125 C 
BRANCH  14  18
HETATM   18  C   UNL     1     -41.665 -48.417  11.200  1.00  0.00     0.240 C 
HETATM   19  N   UNL     1     -41.876 -48.233   9.843  1.00  0.00    -0.355 N 
HETATM   20  H   UNL     1     -41.330 -48.825   9.216  1.00  0.00     0.162 HD
HETATM   21  O   UNL     1     -42.307 -47.821  12.059  1.00  0.00    -0.271 OA
BRANCH  19  22
HETATM   22  C   UNL     1     -42.836 -47.328   9.299  1.00  0.00     0.084 A 
HETATM   23  C   UNL     1     -44.309 -47.643   9.289  1.00  0.00     0.027 A 
HETATM   24  C   UNL     1     -43.529 -47.669   8.008  1.00  0.00     0.027 A 
ENDBRANCH  19  22
ENDBRANCH  14  18
ENDBRANCH   2  13
BRANCH   3  25
HETATM   25  C   UNL     1     -45.766 -53.454  13.179  1.00  0.00     0.165 C 
BRANCH  25  26
HETATM   26  C   UNL     1     -45.504 -54.309  14.426  1.00  0.00     0.165 C 
BRANCH  26  27
HETATM   27  C   UNL     1     -45.491 -53.488  15.728  1.00  0.00     0.151 C 
HETATM   28  O   UNL     1     -45.475 -54.378  16.868  1.00  0.00    -0.383 OA
HETATM   29  C   UNL     1     -46.091 -53.690  17.972  1.00  0.00     0.168 C 
HETATM   30  C   UNL     1     -46.528 -52.327  17.467  1.00  0.00     0.029 C 
HETATM   31  C   UNL     1     -46.651 -52.546  15.977  1.00  0.00     0.036 C 
ENDBRANCH  26  27
BRANCH  26  32
HETATM   32  O   UNL     1     -46.544 -55.296  14.570  1.00  0.00    -0.391 OA
HETATM   33  H   UNL     1     -46.106 -56.170  14.559  1.00  0.00     0.210 HD
ENDBRANCH  26  32
ENDBRANCH  25  26
ENDBRANCH   3  25
TORSDOF 7
ENDMDL
