MODEL 1
REMARK VINA RESULT:      -6.1      0.000      0.000
REMARK  3 active torsions:
REMARK  status: ('A' for Active; 'I' for Inactive)
REMARK       I    between atoms: N_1  and  C_2 
REMARK    1  A    between atoms: C_2  and  C_4 
REMARK    2  A    between atoms: N_9  and  C_10 
REMARK    3  A    between atoms: C_14  and  C_18 
ROOT
HETATM    1  C   UNL     1     -40.391 -52.139  13.581  1.00  0.00     0.126 A 
HETATM    2  N   UNL     1     -41.555 -51.448  13.484  1.00  0.00    -0.350 N 
ATOM      3  HN  UNL     1     -41.549 -50.433  13.382  1.00  0.00     0.166 HD
HETATM    4  C   UNL     1     -42.729 -52.133  13.524  1.00  0.00     0.106 A 
HETATM    5  C   UNL     1     -42.829 -53.509  13.650  1.00  0.00     0.065 A 
HETATM    6  C   UNL     1     -41.638 -54.221  13.775  1.00  0.00     0.045 A 
HETATM    7  C   UNL     1     -40.421 -53.541  13.754  1.00  0.00     0.078 A 
HETATM    8 CL   UNL     1     -38.997 -54.491  14.029  1.00  0.00    -0.080 Cl
ENDROOT
BRANCH   1   9
HETATM    9  N   UNL     1     -39.183 -51.431  13.544  1.00  0.00    -0.348 N 
HETATM   10  C   UNL     1     -39.000 -50.601  12.302  1.00  0.00     0.201 C 
HETATM   11  C   UNL     1     -39.261 -49.103  12.538  1.00  0.00     0.202 C 
HETATM   12  O   UNL     1     -38.592 -48.602  13.702  1.00  0.00    -0.387 OA
HETATM   13  C   UNL     1     -39.060 -49.286  14.868  1.00  0.00     0.187 C 
HETATM   14  C   UNL     1     -38.751 -50.784  14.802  1.00  0.00     0.151 C 
BRANCH  10  15
HETATM   15  C   UNL     1     -37.595 -50.788  11.695  1.00  0.00     0.240 C 
HETATM   16  N   UNL     1     -37.290 -49.989  10.629  1.00  0.00    -0.368 N 
HETATM   17  H   UNL     1     -36.346 -50.001  10.273  1.00  0.00     0.159 HD
HETATM   18  H   UNL     1     -37.904 -49.210  10.423  1.00  0.00     0.159 HD
HETATM   19  O   UNL     1     -36.758 -51.563  12.150  1.00  0.00    -0.271 OA
ENDBRANCH  10  15
ENDBRANCH   1   9
BRANCH   5  20
HETATM   20  C   UNL     1     -44.154 -54.207  13.658  1.00  0.00     0.418 C 
HETATM   21  F   UNL     1     -44.162 -55.358  14.381  1.00  0.00    -0.166 F 
HETATM   22  F   UNL     1     -45.141 -53.428  14.181  1.00  0.00    -0.166 F 
HETATM   23  F   UNL     1     -44.571 -54.546  12.407  1.00  0.00    -0.166 F 
ENDBRANCH   5  20
TORSDOF 3
ENDMDL
MODEL 2
REMARK VINA RESULT:      -5.9      3.979      5.375
REMARK  3 active torsions:
REMARK  status: ('A' for Active; 'I' for Inactive)
REMARK       I    between atoms: N_1  and  C_2 
REMARK    1  A    between atoms: C_2  and  C_4 
REMARK    2  A    between atoms: N_9  and  C_10 
REMARK    3  A    between atoms: C_14  and  C_18 
ROOT
HETATM    1  C   UNL     1     -44.537 -51.730  14.153  1.00  0.00     0.126 A 
HETATM    2  N   UNL     1     -44.145 -51.686  15.451  1.00  0.00    -0.350 N 
ATOM      3  HN  UNL     1     -43.167 -51.825  15.703  1.00  0.00     0.166 HD
HETATM    4  C   UNL     1     -45.080 -51.454  16.412  1.00  0.00     0.106 A 
HETATM    5  C   UNL     1     -46.427 -51.246  16.159  1.00  0.00     0.065 A 
HETATM    6  C   UNL     1     -46.839 -51.313  14.830  1.00  0.00     0.045 A 
HETATM    7  C   UNL     1     -45.903 -51.567  13.828  1.00  0.00     0.078 A 
HETATM    8 CL   UNL     1     -46.520 -51.747  12.218  1.00  0.00    -0.080 Cl
ENDROOT
BRANCH   1   9
HETATM    9  N   UNL     1     -43.573 -51.973  13.167  1.00  0.00    -0.348 N 
HETATM   10  C   UNL     1     -42.265 -51.269  13.405  1.00  0.00     0.201 C 
HETATM   11  C   UNL     1     -41.174 -52.202  13.956  1.00  0.00     0.202 C 
HETATM   12  O   UNL     1     -41.073 -53.429  13.222  1.00  0.00    -0.387 OA
HETATM   13  C   UNL     1     -42.306 -54.150  13.303  1.00  0.00     0.187 C 
HETATM   14  C   UNL     1     -43.459 -53.363  12.675  1.00  0.00     0.151 C 
BRANCH  10  15
HETATM   15  C   UNL     1     -41.751 -50.576  12.128  1.00  0.00     0.240 C 
HETATM   16  N   UNL     1     -40.910 -51.312  11.341  1.00  0.00    -0.368 N 
HETATM   17  H   UNL     1     -40.639 -50.938  10.444  1.00  0.00     0.159 HD
HETATM   18  H   UNL     1     -40.825 -52.304  11.528  1.00  0.00     0.159 HD
HETATM   19  O   UNL     1     -42.097 -49.449  11.782  1.00  0.00    -0.271 OA
ENDBRANCH  10  15
ENDBRANCH   1   9
BRANCH   5  20
HETATM   20  C   UNL     1     -47.402 -50.965  17.261  1.00  0.00     0.418 C 
HETATM   21  F   UNL     1     -47.051 -49.912  18.047  1.00  0.00    -0.166 F 
HETATM   22  F   UNL     1     -48.645 -50.680  16.785  1.00  0.00    -0.166 F 
HETATM   23  F   UNL     1     -47.559 -52.025  18.100  1.00  0.00    -0.166 F 
ENDBRANCH   5  20
TORSDOF 3
ENDMDL
MODEL 3
REMARK VINA RESULT:      -5.8      1.837      2.339
REMARK  3 active torsions:
REMARK  status: ('A' for Active; 'I' for Inactive)
REMARK       I    between atoms: N_1  and  C_2 
REMARK    1  A    between atoms: C_2  and  C_4 
REMARK    2  A    between atoms: N_9  and  C_10 
REMARK    3  A    between atoms: C_14  and  C_18 
ROOT
HETATM    1  C   UNL     1     -41.968 -50.865  13.220  1.00  0.00     0.126 A 
HETATM    2  N   UNL     1     -42.984 -50.025  13.537  1.00  0.00    -0.350 N 
ATOM      3  HN  UNL     1     -42.793 -49.066  13.828  1.00  0.00     0.166 HD
HETATM    4  C   UNL     1     -44.262 -50.483  13.461  1.00  0.00     0.106 A 
HETATM    5  C   UNL     1     -44.613 -51.765  13.067  1.00  0.00     0.065 A 
HETATM    6  C   UNL     1     -43.572 -52.639  12.763  1.00  0.00     0.045 A 
HETATM    7  C   UNL     1     -42.252 -52.200  12.850  1.00  0.00     0.078 A 
HETATM    8 CL   UNL     1     -41.019 -53.385  12.564  1.00  0.00    -0.080 Cl
ENDROOT
BRANCH   1   9
HETATM    9  N   UNL     1     -40.652 -50.392  13.303  1.00  0.00    -0.348 N 
HETATM   10  C   UNL     1     -40.071 -49.968  11.981  1.00  0.00     0.201 C 
HETATM   11  C   UNL     1     -40.049 -48.441  11.798  1.00  0.00     0.202 C 
HETATM   12  O   UNL     1     -39.517 -47.755  12.939  1.00  0.00    -0.387 OA
HETATM   13  C   UNL     1     -40.327 -48.017  14.088  1.00  0.00     0.187 C 
HETATM   14  C   UNL     1     -40.333 -49.506  14.443  1.00  0.00     0.151 C 
BRANCH  10  15
HETATM   15  C   UNL     1     -38.650 -50.529  11.778  1.00  0.00     0.240 C 
HETATM   16  N   UNL     1     -37.872 -49.881  10.860  1.00  0.00    -0.368 N 
HETATM   17  H   UNL     1     -36.902 -50.146  10.777  1.00  0.00     0.159 HD
HETATM   18  H   UNL     1     -38.187 -48.981  10.515  1.00  0.00     0.159 HD
HETATM   19  O   UNL     1     -38.195 -51.471  12.423  1.00  0.00    -0.271 OA
ENDBRANCH  10  15
ENDBRANCH   1   9
BRANCH   5  20
HETATM   20  C   UNL     1     -46.043 -52.199  12.975  1.00  0.00     0.418 C 
HETATM   21  F   UNL     1     -46.477 -52.386  11.700  1.00  0.00    -0.166 F 
HETATM   22  F   UNL     1     -46.265 -53.374  13.624  1.00  0.00    -0.166 F 
HETATM   23  F   UNL     1     -46.897 -51.298  13.534  1.00  0.00    -0.166 F 
ENDBRANCH   5  20
TORSDOF 3
ENDMDL
MODEL 4
REMARK VINA RESULT:      -5.8      4.731      6.532
REMARK  3 active torsions:
REMARK  status: ('A' for Active; 'I' for Inactive)
REMARK       I    between atoms: N_1  and  C_2 
REMARK    1  A    between atoms: C_2  and  C_4 
REMARK    2  A    between atoms: N_9  and  C_10 
REMARK    3  A    between atoms: C_14  and  C_18 
ROOT
HETATM    1  C   UNL     1     -41.950 -52.076  13.812  1.00  0.00     0.126 A 
HETATM    2  N   UNL     1     -40.824 -52.776  14.096  1.00  0.00    -0.350 N 
ATOM      3  HN  UNL     1     -40.876 -53.664  14.595  1.00  0.00     0.166 HD
HETATM    4  C   UNL     1     -39.622 -52.274  13.701  1.00  0.00     0.106 A 
HETATM    5  C   UNL     1     -39.460 -51.083  13.011  1.00  0.00     0.065 A 
HETATM    6  C   UNL     1     -40.611 -50.348  12.739  1.00  0.00     0.045 A 
HETATM    7  C   UNL     1     -41.853 -50.832  13.148  1.00  0.00     0.078 A 
HETATM    8 CL   UNL     1     -43.219 -49.800  12.868  1.00  0.00    -0.080 Cl
ENDROOT
BRANCH   1   9
HETATM    9  N   UNL     1     -43.186 -52.593  14.223  1.00  0.00    -0.348 N 
HETATM   10  C   UNL     1     -43.465 -53.982  13.717  1.00  0.00     0.201 C 
HETATM   11  C   UNL     1     -43.251 -55.064  14.789  1.00  0.00     0.202 C 
HETATM   12  O   UNL     1     -43.878 -54.740  16.036  1.00  0.00    -0.387 OA
HETATM   13  C   UNL     1     -43.325 -53.530  16.561  1.00  0.00     0.187 C 
HETATM   14  C   UNL     1     -43.578 -52.344  15.627  1.00  0.00     0.151 C 
BRANCH  10  15
HETATM   15  C   UNL     1     -44.890 -54.103  13.143  1.00  0.00     0.240 C 
HETATM   16  N   UNL     1     -45.676 -55.081  13.685  1.00  0.00    -0.368 N 
HETATM   17  H   UNL     1     -46.648 -55.122  13.416  1.00  0.00     0.159 HD
HETATM   18  H   UNL     1     -45.362 -55.531  14.536  1.00  0.00     0.159 HD
HETATM   19  O   UNL     1     -45.341 -53.348  12.285  1.00  0.00    -0.271 OA
ENDBRANCH  10  15
ENDBRANCH   1   9
BRANCH   5  20
HETATM   20  C   UNL     1     -38.110 -50.600  12.578  1.00  0.00     0.418 C 
HETATM   21  F   UNL     1     -37.687 -49.492  13.243  1.00  0.00    -0.166 F 
HETATM   22  F   UNL     1     -37.144 -51.541  12.765  1.00  0.00    -0.166 F 
HETATM   23  F   UNL     1     -38.070 -50.283  11.255  1.00  0.00    -0.166 F 
ENDBRANCH   5  20
TORSDOF 3
ENDMDL
MODEL 5
REMARK VINA RESULT:      -5.8      2.376      3.457
REMARK  3 active torsions:
REMARK  status: ('A' for Active; 'I' for Inactive)
REMARK       I    between atoms: N_1  and  C_2 
REMARK    1  A    between atoms: C_2  and  C_4 
REMARK    2  A    between atoms: N_9  and  C_10 
REMARK    3  A    between atoms: C_14  and  C_18 
ROOT
HETATM    1  C   UNL     1     -41.282 -53.992  14.312  1.00  0.00     0.126 A 
HETATM    2  N   UNL     1     -41.913 -54.721  15.266  1.00  0.00    -0.350 N 
ATOM      3  HN  UNL     1     -41.398 -55.082  16.069  1.00  0.00     0.166 HD
HETATM    4  C   UNL     1     -43.245 -54.961  15.134  1.00  0.00     0.106 A 
HETATM    5  C   UNL     1     -44.024 -54.501  14.084  1.00  0.00     0.065 A 
HETATM    6  C   UNL     1     -43.376 -53.772  13.089  1.00  0.00     0.045 A 
HETATM    7  C   UNL     1     -42.007 -53.527  13.192  1.00  0.00     0.078 A 
HETATM    8 CL   UNL     1     -41.263 -52.711  11.855  1.00  0.00    -0.080 Cl
ENDROOT
BRANCH   1   9
HETATM    9  N   UNL     1     -39.909 -53.749  14.448  1.00  0.00    -0.348 N 
HETATM   10  C   UNL     1     -39.583 -52.409  15.049  1.00  0.00     0.201 C 
HETATM   11  C   UNL     1     -39.178 -52.499  16.531  1.00  0.00     0.202 C 
HETATM   12  O   UNL     1     -38.206 -53.523  16.777  1.00  0.00    -0.387 OA
HETATM   13  C   UNL     1     -38.742 -54.801  16.422  1.00  0.00     0.187 C 
HETATM   14  C   UNL     1     -39.079 -54.874  14.931  1.00  0.00     0.151 C 
BRANCH  10  15
HETATM   15  C   UNL     1     -38.476 -51.685  14.258  1.00  0.00     0.240 C 
HETATM   16  N   UNL     1     -37.754 -50.752  14.949  1.00  0.00    -0.368 N 
HETATM   17  H   UNL     1     -36.951 -50.336  14.502  1.00  0.00     0.159 HD
HETATM   18  H   UNL     1     -37.848 -50.725  15.958  1.00  0.00     0.159 HD
HETATM   19  O   UNL     1     -38.200 -51.943  13.089  1.00  0.00    -0.271 OA
ENDBRANCH  10  15
ENDBRANCH   1   9
BRANCH   5  20
HETATM   20  C   UNL     1     -45.494 -54.776  14.012  1.00  0.00     0.418 C 
HETATM   21  F   UNL     1     -46.156 -53.980  13.129  1.00  0.00    -0.166 F 
HETATM   22  F   UNL     1     -45.759 -56.057  13.636  1.00  0.00    -0.166 F 
HETATM   23  F   UNL     1     -46.115 -54.604  15.211  1.00  0.00    -0.166 F 
ENDBRANCH   5  20
TORSDOF 3
ENDMDL
MODEL 6
REMARK VINA RESULT:      -5.7      5.282      6.773
REMARK  3 active torsions:
REMARK  status: ('A' for Active; 'I' for Inactive)
REMARK       I    between atoms: N_1  and  C_2 
REMARK    1  A    between atoms: C_2  and  C_4 
REMARK    2  A    between atoms: N_9  and  C_10 
REMARK    3  A    between atoms: C_14  and  C_18 
ROOT
HETATM    1  C   UNL     1     -39.646 -47.201  12.594  1.00  0.00     0.126 A 
HETATM    2  N   UNL     1     -39.687 -48.167  11.642  1.00  0.00    -0.350 N 
ATOM      3  HN  UNL     1     -40.227 -48.030  10.788  1.00  0.00     0.166 HD
HETATM    4  C   UNL     1     -38.997 -49.321  11.848  1.00  0.00     0.106 A 
HETATM    5  C   UNL     1     -38.232 -49.586  12.973  1.00  0.00     0.065 A 
HETATM    6  C   UNL     1     -38.205 -48.607  13.964  1.00  0.00     0.045 A 
HETATM    7  C   UNL     1     -38.919 -47.423  13.786  1.00  0.00     0.078 A 
HETATM    8 CL   UNL     1     -38.921 -46.311  15.117  1.00  0.00    -0.080 Cl
ENDROOT
BRANCH   1   9
HETATM    9  N   UNL     1     -40.361 -46.015  12.382  1.00  0.00    -0.348 N 
HETATM   10  C   UNL     1     -39.592 -44.966  11.627  1.00  0.00     0.201 C 
HETATM   11  C   UNL     1     -40.011 -44.863  10.150  1.00  0.00     0.202 C 
HETATM   12  O   UNL     1     -41.433 -44.806   9.982  1.00  0.00    -0.387 OA
HETATM   13  C   UNL     1     -42.034 -45.999  10.494  1.00  0.00     0.187 C 
HETATM   14  C   UNL     1     -41.781 -46.154  11.995  1.00  0.00     0.151 C 
BRANCH  10  15
HETATM   15  C   UNL     1     -39.714 -43.581  12.293  1.00  0.00     0.240 C 
HETATM   16  N   UNL     1     -40.338 -42.613  11.558  1.00  0.00    -0.368 N 
HETATM   17  H   UNL     1     -40.537 -41.727  11.997  1.00  0.00     0.159 HD
HETATM   18  H   UNL     1     -40.843 -42.894  10.725  1.00  0.00     0.159 HD
HETATM   19  O   UNL     1     -39.328 -43.343  13.435  1.00  0.00    -0.271 OA
ENDBRANCH  10  15
ENDBRANCH   1   9
BRANCH   5  20
HETATM   20  C   UNL     1     -37.471 -50.866  13.126  1.00  0.00     0.418 C 
HETATM   21  F   UNL     1     -36.787 -51.232  12.008  1.00  0.00    -0.166 F 
HETATM   22  F   UNL     1     -36.549 -50.799  14.125  1.00  0.00    -0.166 F 
HETATM   23  F   UNL     1     -38.277 -51.918  13.434  1.00  0.00    -0.166 F 
ENDBRANCH   5  20
TORSDOF 3
ENDMDL
MODEL 7
REMARK VINA RESULT:      -5.7      4.894      5.979
REMARK  3 active torsions:
REMARK  status: ('A' for Active; 'I' for Inactive)
REMARK       I    between atoms: N_1  and  C_2 
REMARK    1  A    between atoms: C_2  and  C_4 
REMARK    2  A    between atoms: N_9  and  C_10 
REMARK    3  A    between atoms: C_14  and  C_18 
ROOT
HETATM    1  C   UNL     1     -41.286 -48.367  11.876  1.00  0.00     0.126 A 
HETATM    2  N   UNL     1     -40.726 -47.436  11.064  1.00  0.00    -0.350 N 
ATOM      3  HN  UNL     1     -39.719 -47.271  11.081  1.00  0.00     0.166 HD
HETATM    4  C   UNL     1     -41.529 -46.727  10.226  1.00  0.00     0.106 A 
HETATM    5  C   UNL     1     -42.902 -46.893  10.132  1.00  0.00     0.065 A 
HETATM    6  C   UNL     1     -43.486 -47.831  10.980  1.00  0.00     0.045 A 
HETATM    7  C   UNL     1     -42.686 -48.558  11.861  1.00  0.00     0.078 A 
HETATM    8 CL   UNL     1     -43.508 -49.620  12.958  1.00  0.00    -0.080 Cl
ENDROOT
BRANCH   1   9
HETATM    9  N   UNL     1     -40.457 -49.093  12.740  1.00  0.00    -0.348 N 
HETATM   10  C   UNL     1     -39.456 -49.968  12.035  1.00  0.00     0.201 C 
HETATM   11  C   UNL     1     -38.038 -49.371  12.027  1.00  0.00     0.202 C 
HETATM   12  O   UNL     1     -37.628 -48.906  13.319  1.00  0.00    -0.387 OA
HETATM   13  C   UNL     1     -38.505 -47.869  13.767  1.00  0.00     0.187 C 
HETATM   14  C   UNL     1     -39.940 -48.377  13.926  1.00  0.00     0.151 C 
BRANCH  10  15
HETATM   15  C   UNL     1     -39.413 -51.385  12.639  1.00  0.00     0.240 C 
HETATM   16  N   UNL     1     -38.464 -51.602  13.599  1.00  0.00    -0.368 N 
HETATM   17  H   UNL     1     -38.473 -52.479  14.097  1.00  0.00     0.159 HD
HETATM   18  H   UNL     1     -37.985 -50.798  13.989  1.00  0.00     0.159 HD
HETATM   19  O   UNL     1     -40.203 -52.276  12.335  1.00  0.00    -0.271 OA
ENDBRANCH  10  15
ENDBRANCH   1   9
BRANCH   5  20
HETATM   20  C   UNL     1     -43.728 -46.100   9.166  1.00  0.00     0.418 C 
HETATM   21  F   UNL     1     -43.820 -44.780   9.481  1.00  0.00    -0.166 F 
HETATM   22  F   UNL     1     -43.227 -46.151   7.901  1.00  0.00    -0.166 F 
HETATM   23  F   UNL     1     -45.007 -46.555   9.079  1.00  0.00    -0.166 F 
ENDBRANCH   5  20
TORSDOF 3
ENDMDL
MODEL 8
REMARK VINA RESULT:      -5.6      4.584      6.117
REMARK  3 active torsions:
REMARK  status: ('A' for Active; 'I' for Inactive)
REMARK       I    between atoms: N_1  and  C_2 
REMARK    1  A    between atoms: C_2  and  C_4 
REMARK    2  A    between atoms: N_9  and  C_10 
REMARK    3  A    between atoms: C_14  and  C_18 
ROOT
HETATM    1  C   UNL     1     -40.793 -49.912  11.859  1.00  0.00     0.126 A 
HETATM    2  N   UNL     1     -42.045 -49.560  11.474  1.00  0.00    -0.350 N 
ATOM      3  HN  UNL     1     -42.812 -50.231  11.526  1.00  0.00     0.166 HD
HETATM    4  C   UNL     1     -42.261 -48.296  11.020  1.00  0.00     0.106 A 
HETATM    5  C   UNL     1     -41.282 -47.320  10.926  1.00  0.00     0.065 A 
HETATM    6  C   UNL     1     -39.990 -47.683  11.297  1.00  0.00     0.045 A 
HETATM    7  C   UNL     1     -39.738 -48.977  11.749  1.00  0.00     0.078 A 
HETATM    8 CL   UNL     1     -38.083 -49.375  12.081  1.00  0.00    -0.080 Cl
ENDROOT
BRANCH   1   9
HETATM    9  N   UNL     1     -40.572 -51.215  12.323  1.00  0.00    -0.348 N 
HETATM   10  C   UNL     1     -40.371 -51.307  13.811  1.00  0.00     0.201 C 
HETATM   11  C   UNL     1     -41.618 -51.819  14.553  1.00  0.00     0.202 C 
HETATM   12  O   UNL     1     -42.181 -52.989  13.947  1.00  0.00    -0.387 OA
HETATM   13  C   UNL     1     -42.594 -52.696  12.609  1.00  0.00     0.187 C 
HETATM   14  C   UNL     1     -41.409 -52.283  11.733  1.00  0.00     0.151 C 
BRANCH  10  15
HETATM   15  C   UNL     1     -39.162 -52.193  14.169  1.00  0.00     0.240 C 
HETATM   16  N   UNL     1     -39.250 -52.887  15.343  1.00  0.00    -0.368 N 
HETATM   17  H   UNL     1     -38.532 -53.561  15.560  1.00  0.00     0.159 HD
HETATM   18  H   UNL     1     -40.151 -52.934  15.805  1.00  0.00     0.159 HD
HETATM   19  O   UNL     1     -38.183 -52.329  13.439  1.00  0.00    -0.271 OA
ENDBRANCH  10  15
ENDBRANCH   1   9
BRANCH   5  20
HETATM   20  C   UNL     1     -41.592 -45.936  10.445  1.00  0.00     0.418 C 
HETATM   21  F   UNL     1     -40.495 -45.234  10.054  1.00  0.00    -0.166 F 
HETATM   22  F   UNL     1     -42.435 -45.941   9.375  1.00  0.00    -0.166 F 
HETATM   23  F   UNL     1     -42.204 -45.178  11.396  1.00  0.00    -0.166 F 
ENDBRANCH   5  20
TORSDOF 3
ENDMDL
MODEL 9
REMARK VINA RESULT:      -5.5      4.710      6.644
REMARK  3 active torsions:
REMARK  status: ('A' for Active; 'I' for Inactive)
REMARK       I    between atoms: N_1  and  C_2 
REMARK    1  A    between atoms: C_2  and  C_4 
REMARK    2  A    between atoms: N_9  and  C_10 
REMARK    3  A    between atoms: C_14  and  C_18 
ROOT
HETATM    1  C   UNL     1     -43.121 -51.876  13.013  1.00  0.00     0.126 A 
HETATM    2  N   UNL     1     -43.293 -50.557  12.742  1.00  0.00    -0.350 N 
ATOM      3  HN  UNL     1     -44.214 -50.127  12.822  1.00  0.00     0.166 HD
HETATM    4  C   UNL     1     -42.214 -49.820  12.362  1.00  0.00     0.106 A 
HETATM    5  C   UNL     1     -40.928 -50.321  12.238  1.00  0.00     0.065 A 
HETATM    6  C   UNL     1     -40.751 -51.679  12.491  1.00  0.00     0.045 A 
HETATM    7  C   UNL     1     -41.843 -52.461  12.865  1.00  0.00     0.078 A 
HETATM    8 CL   UNL     1     -41.554 -54.161  13.050  1.00  0.00    -0.080 Cl
ENDROOT
BRANCH   1   9
HETATM    9  N   UNL     1     -44.234 -52.633  13.400  1.00  0.00    -0.348 N 
HETATM   10  C   UNL     1     -44.544 -52.556  14.870  1.00  0.00     0.201 C 
HETATM   11  C   UNL     1     -45.728 -51.627  15.185  1.00  0.00     0.202 C 
HETATM   12  O   UNL     1     -46.862 -51.871  14.342  1.00  0.00    -0.387 OA
HETATM   13  C   UNL     1     -46.513 -51.638  12.974  1.00  0.00     0.187 C 
HETATM   14  C   UNL     1     -45.412 -52.592  12.506  1.00  0.00     0.151 C 
BRANCH  10  15
HETATM   15  C   UNL     1     -44.812 -53.951  15.469  1.00  0.00     0.240 C 
HETATM   16  N   UNL     1     -45.921 -54.062  16.260  1.00  0.00    -0.368 N 
HETATM   17  H   UNL     1     -46.194 -54.979  16.581  1.00  0.00     0.159 HD
HETATM   18  H   UNL     1     -46.591 -53.303  16.256  1.00  0.00     0.159 HD
HETATM   19  O   UNL     1     -44.119 -54.936  15.228  1.00  0.00    -0.271 OA
ENDBRANCH  10  15
ENDBRANCH   1   9
BRANCH   5  20
HETATM   20  C   UNL     1     -39.776 -49.448  11.844  1.00  0.00     0.418 C 
HETATM   21  F   UNL     1     -40.145 -48.330  11.164  1.00  0.00    -0.166 F 
HETATM   22  F   UNL     1     -39.068 -49.016  12.923  1.00  0.00    -0.166 F 
HETATM   23  F   UNL     1     -38.882 -50.095  11.047  1.00  0.00    -0.166 F 
ENDBRANCH   5  20
TORSDOF 3
ENDMDL
