MODEL 1
REMARK VINA RESULT:      -6.0      0.000      0.000
REMARK  3 active torsions:
REMARK  status: ('A' for Active; 'I' for Inactive)
REMARK    1  A    between atoms: C_2  and  C_3 
REMARK       I    between atoms: C_2  and  N_13 
REMARK    2  A    between atoms: C_3  and  N_4 
REMARK    3  A    between atoms: N_13  and  C_14 
ROOT
HETATM    1  N   UNL     1     -41.237 -48.942  11.738  1.00  0.00    -0.277 N 
HETATM    2  C   UNL     1     -40.457 -47.870  11.428  1.00  0.00     0.203 A 
HETATM    3  N   UNL     1     -40.992 -47.210  10.425  1.00  0.00    -0.327 N 
ATOM      4  HN  UNL     1     -40.649 -46.365   9.966  1.00  0.00     0.169 HD
HETATM    5  C   UNL     1     -42.124 -47.934  10.146  1.00  0.00     0.204 A 
HETATM    6  C   UNL     1     -43.027 -47.585   9.085  1.00  0.00     0.138 C 
HETATM    7  N   UNL     1     -43.761 -47.309   8.224  1.00  0.00    -0.188 NA
HETATM    8  N   UNL     1     -42.326 -48.998  10.942  1.00  0.00    -0.273 N 
ATOM      9  HN  UNL     1     -43.096 -49.667  10.945  1.00  0.00     0.189 HD
ENDROOT
BRANCH   1  10
HETATM   10  C   UNL     1     -41.048 -49.902  12.803  1.00  0.00     0.252 C 
BRANCH  10  11
HETATM   11  C   UNL     1     -41.965 -51.094  12.632  1.00  0.00     0.237 C 
HETATM   12  O   UNL     1     -41.726 -51.991  11.828  1.00  0.00    -0.272 OA
HETATM   13  N   UNL     1     -43.077 -51.107  13.453  1.00  0.00    -0.354 N 
HETATM   14  H   UNL     1     -43.211 -50.345  14.109  1.00  0.00     0.162 HD
BRANCH  13  15
HETATM   15  C   UNL     1     -44.117 -52.135  13.407  1.00  0.00     0.099 C 
HETATM   16  C   UNL     1     -45.546 -51.572  13.498  1.00  0.00     0.041 C 
HETATM   17  C   UNL     1     -46.499 -52.673  13.967  1.00  0.00     0.142 C 
HETATM   18  S   UNL     1     -45.507 -54.095  14.364  1.00  0.00     0.146 S 
HETATM   19  O   UNL     1     -45.868 -54.588  15.676  1.00  0.00    -0.228 OA
HETATM   20  O   UNL     1     -45.468 -54.955  13.201  1.00  0.00    -0.228 OA
HETATM   21  C   UNL     1     -43.964 -53.229  14.458  1.00  0.00     0.165 C 
ENDBRANCH  13  15
ENDBRANCH  10  11
ENDBRANCH   1  10
TORSDOF 3
ENDMDL
MODEL 2
REMARK VINA RESULT:      -6.0      4.629      5.771
REMARK  3 active torsions:
REMARK  status: ('A' for Active; 'I' for Inactive)
REMARK    1  A    between atoms: C_2  and  C_3 
REMARK       I    between atoms: C_2  and  N_13 
REMARK    2  A    between atoms: C_3  and  N_4 
REMARK    3  A    between atoms: N_13  and  C_14 
ROOT
HETATM    1  N   UNL     1     -43.255 -46.436   9.434  1.00  0.00    -0.277 N 
HETATM    2  C   UNL     1     -44.152 -45.441   9.190  1.00  0.00     0.203 A 
HETATM    3  N   UNL     1     -45.289 -45.961   8.786  1.00  0.00    -0.327 N 
ATOM      4  HN  UNL     1     -46.152 -45.480   8.528  1.00  0.00     0.169 HD
HETATM    5  C   UNL     1     -45.034 -47.310   8.796  1.00  0.00     0.204 A 
HETATM    6  C   UNL     1     -46.009 -48.288   8.398  1.00  0.00     0.138 C 
HETATM    7  N   UNL     1     -46.794 -49.084   8.074  1.00  0.00    -0.188 NA
HETATM    8  N   UNL     1     -43.801 -47.650   9.208  1.00  0.00    -0.273 N 
ATOM      9  HN  UNL     1     -43.388 -48.576   9.320  1.00  0.00     0.189 HD
ENDROOT
BRANCH   1  10
HETATM   10  C   UNL     1     -41.906 -46.313   9.940  1.00  0.00     0.252 C 
BRANCH  10  11
HETATM   11  C   UNL     1     -41.637 -47.329  11.030  1.00  0.00     0.237 C 
HETATM   12  O   UNL     1     -42.485 -47.628  11.866  1.00  0.00    -0.272 OA
HETATM   13  N   UNL     1     -40.378 -47.901  11.006  1.00  0.00    -0.354 N 
HETATM   14  H   UNL     1     -39.727 -47.625  10.280  1.00  0.00     0.162 HD
BRANCH  13  15
HETATM   15  C   UNL     1     -39.896 -48.859  12.002  1.00  0.00     0.099 C 
HETATM   16  C   UNL     1     -39.002 -48.229  13.083  1.00  0.00     0.041 C 
HETATM   17  C   UNL     1     -38.144 -49.315  13.734  1.00  0.00     0.142 C 
HETATM   18  S   UNL     1     -38.434 -50.823  12.836  1.00  0.00     0.146 S 
HETATM   19  O   UNL     1     -37.169 -51.423  12.472  1.00  0.00    -0.228 OA
HETATM   20  O   UNL     1     -39.469 -51.564  13.526  1.00  0.00    -0.228 OA
HETATM   21  C   UNL     1     -39.163 -50.059  11.412  1.00  0.00     0.165 C 
ENDBRANCH  13  15
ENDBRANCH  10  11
ENDBRANCH   1  10
TORSDOF 3
ENDMDL
MODEL 3
REMARK VINA RESULT:      -6.0      2.052      2.914
REMARK  3 active torsions:
REMARK  status: ('A' for Active; 'I' for Inactive)
REMARK    1  A    between atoms: C_2  and  C_3 
REMARK       I    between atoms: C_2  and  N_13 
REMARK    2  A    between atoms: C_3  and  N_4 
REMARK    3  A    between atoms: N_13  and  C_14 
ROOT
HETATM    1  N   UNL     1     -42.788 -47.573  10.376  1.00  0.00    -0.277 N 
HETATM    2  C   UNL     1     -42.740 -46.288   9.927  1.00  0.00     0.203 A 
HETATM    3  N   UNL     1     -43.910 -45.948   9.435  1.00  0.00    -0.327 N 
ATOM      4  HN  UNL     1     -44.191 -45.057   9.027  1.00  0.00     0.169 HD
HETATM    5  C   UNL     1     -44.661 -47.085   9.606  1.00  0.00     0.204 A 
HETATM    6  C   UNL     1     -46.030 -47.181   9.183  1.00  0.00     0.138 C 
HETATM    7  N   UNL     1     -47.139 -47.266   8.840  1.00  0.00    -0.188 NA
HETATM    8  N   UNL     1     -44.017 -48.104  10.200  1.00  0.00    -0.273 N 
ATOM      9  HN  UNL     1     -44.364 -49.030  10.450  1.00  0.00     0.189 HD
ENDROOT
BRANCH   1  10
HETATM   10  C   UNL     1     -41.743 -48.327  11.034  1.00  0.00     0.252 C 
BRANCH  10  11
HETATM   11  C   UNL     1     -42.318 -49.268  12.069  1.00  0.00     0.237 C 
HETATM   12  O   UNL     1     -42.983 -48.865  13.020  1.00  0.00    -0.272 OA
HETATM   13  N   UNL     1     -42.053 -50.609  11.861  1.00  0.00    -0.354 N 
HETATM   14  H   UNL     1     -41.512 -50.881  11.048  1.00  0.00     0.162 HD
BRANCH  13  15
HETATM   15  C   UNL     1     -42.465 -51.676  12.773  1.00  0.00     0.099 C 
HETATM   16  C   UNL     1     -41.527 -52.896  12.761  1.00  0.00     0.041 C 
HETATM   17  C   UNL     1     -42.273 -54.119  13.296  1.00  0.00     0.142 C 
HETATM   18  S   UNL     1     -43.966 -53.635  13.548  1.00  0.00     0.146 S 
HETATM   19  O   UNL     1     -44.845 -54.600  12.923  1.00  0.00    -0.228 OA
HETATM   20  O   UNL     1     -44.118 -53.236  14.931  1.00  0.00    -0.228 OA
HETATM   21  C   UNL     1     -43.893 -52.167  12.558  1.00  0.00     0.165 C 
ENDBRANCH  13  15
ENDBRANCH  10  11
ENDBRANCH   1  10
TORSDOF 3
ENDMDL
MODEL 4
REMARK VINA RESULT:      -5.8      3.949      7.106
REMARK  3 active torsions:
REMARK  status: ('A' for Active; 'I' for Inactive)
REMARK    1  A    between atoms: C_2  and  C_3 
REMARK       I    between atoms: C_2  and  N_13 
REMARK    2  A    between atoms: C_3  and  N_4 
REMARK    3  A    between atoms: N_13  and  C_14 
ROOT
HETATM    1  N   UNL     1     -41.436 -52.601  12.335  1.00  0.00    -0.277 N 
HETATM    2  C   UNL     1     -40.985 -53.597  13.147  1.00  0.00     0.203 A 
HETATM    3  N   UNL     1     -41.994 -54.346  13.530  1.00  0.00    -0.327 N 
ATOM      4  HN  UNL     1     -41.982 -55.167  14.136  1.00  0.00     0.169 HD
HETATM    5  C   UNL     1     -43.071 -53.754  12.916  1.00  0.00     0.204 A 
HETATM    6  C   UNL     1     -44.415 -54.234  13.074  1.00  0.00     0.138 C 
HETATM    7  N   UNL     1     -45.507 -54.617  13.200  1.00  0.00    -0.188 NA
HETATM    8  N   UNL     1     -42.772 -52.688  12.154  1.00  0.00    -0.273 N 
ATOM      9  HN  UNL     1     -43.388 -52.103  11.590  1.00  0.00     0.189 HD
ENDROOT
BRANCH   1  10
HETATM   10  C   UNL     1     -40.661 -51.587  11.654  1.00  0.00     0.252 C 
BRANCH  10  11
HETATM   11  C   UNL     1     -41.199 -50.203  11.943  1.00  0.00     0.237 C 
HETATM   12  O   UNL     1     -41.508 -49.847  13.078  1.00  0.00    -0.272 OA
HETATM   13  N   UNL     1     -41.304 -49.368  10.846  1.00  0.00    -0.354 N 
HETATM   14  H   UNL     1     -41.016 -49.714   9.937  1.00  0.00     0.162 HD
BRANCH  13  15
HETATM   15  C   UNL     1     -41.853 -48.013  10.898  1.00  0.00     0.099 C 
HETATM   16  C   UNL     1     -42.755 -47.666   9.701  1.00  0.00     0.041 C 
HETATM   17  C   UNL     1     -42.846 -46.146   9.553  1.00  0.00     0.142 C 
HETATM   18  S   UNL     1     -41.727 -45.434  10.738  1.00  0.00     0.146 S 
HETATM   19  O   UNL     1     -40.881 -44.459  10.083  1.00  0.00    -0.228 OA
HETATM   20  O   UNL     1     -42.478 -45.122  11.935  1.00  0.00    -0.228 OA
HETATM   21  C   UNL     1     -40.803 -46.916  11.041  1.00  0.00     0.165 C 
ENDBRANCH  13  15
ENDBRANCH  10  11
ENDBRANCH   1  10
TORSDOF 3
ENDMDL
MODEL 5
REMARK VINA RESULT:      -5.6      3.123      3.737
REMARK  3 active torsions:
REMARK  status: ('A' for Active; 'I' for Inactive)
REMARK    1  A    between atoms: C_2  and  C_3 
REMARK       I    between atoms: C_2  and  N_13 
REMARK    2  A    between atoms: C_3  and  N_4 
REMARK    3  A    between atoms: N_13  and  C_14 
ROOT
HETATM    1  N   UNL     1     -42.489 -47.380  10.180  1.00  0.00    -0.277 N 
HETATM    2  C   UNL     1     -42.816 -46.066  10.040  1.00  0.00     0.203 A 
HETATM    3  N   UNL     1     -44.068 -45.961   9.656  1.00  0.00    -0.327 N 
ATOM      4  HN  UNL     1     -44.606 -45.114   9.469  1.00  0.00     0.169 HD
HETATM    5  C   UNL     1     -44.477 -47.269   9.569  1.00  0.00     0.204 A 
HETATM    6  C   UNL     1     -45.801 -47.643   9.155  1.00  0.00     0.138 C 
HETATM    7  N   UNL     1     -46.871 -47.952   8.816  1.00  0.00    -0.188 NA
HETATM    8  N   UNL     1     -43.544 -48.176   9.902  1.00  0.00    -0.273 N 
ATOM      9  HN  UNL     1     -43.613 -49.194   9.936  1.00  0.00     0.189 HD
ENDROOT
BRANCH   1  10
HETATM   10  C   UNL     1     -41.235 -47.942  10.631  1.00  0.00     0.252 C 
BRANCH  10  11
HETATM   11  C   UNL     1     -41.463 -49.179  11.473  1.00  0.00     0.237 C 
HETATM   12  O   UNL     1     -42.287 -49.205  12.383  1.00  0.00    -0.272 OA
HETATM   13  N   UNL     1     -40.688 -50.274  11.138  1.00  0.00    -0.354 N 
HETATM   14  H   UNL     1     -40.036 -50.195  10.365  1.00  0.00     0.162 HD
BRANCH  13  15
HETATM   15  C   UNL     1     -40.710 -51.545  11.862  1.00  0.00     0.099 C 
HETATM   16  C   UNL     1     -42.127 -52.096  12.099  1.00  0.00     0.041 C 
HETATM   17  C   UNL     1     -42.101 -53.085  13.265  1.00  0.00     0.142 C 
HETATM   18  S   UNL     1     -40.462 -53.046  13.954  1.00  0.00     0.146 S 
HETATM   19  O   UNL     1     -40.541 -52.874  15.389  1.00  0.00    -0.228 OA
HETATM   20  O   UNL     1     -39.693 -54.111  13.346  1.00  0.00    -0.228 OA
HETATM   21  C   UNL     1     -39.975 -51.518  13.198  1.00  0.00     0.165 C 
ENDBRANCH  13  15
ENDBRANCH  10  11
ENDBRANCH   1  10
TORSDOF 3
ENDMDL
MODEL 6
REMARK VINA RESULT:      -5.6      1.832      2.717
REMARK  3 active torsions:
REMARK  status: ('A' for Active; 'I' for Inactive)
REMARK    1  A    between atoms: C_2  and  C_3 
REMARK       I    between atoms: C_2  and  N_13 
REMARK    2  A    between atoms: C_3  and  N_4 
REMARK    3  A    between atoms: N_13  and  C_14 
ROOT
HETATM    1  N   UNL     1     -41.190 -48.337  10.640  1.00  0.00    -0.277 N 
HETATM    2  C   UNL     1     -42.269 -47.917   9.923  1.00  0.00     0.203 A 
HETATM    3  N   UNL     1     -42.231 -46.610   9.794  1.00  0.00    -0.327 N 
ATOM      4  HN  UNL     1     -42.892 -46.000   9.312  1.00  0.00     0.169 HD
HETATM    5  C   UNL     1     -41.084 -46.264  10.466  1.00  0.00     0.204 A 
HETATM    6  C   UNL     1     -40.646 -44.903  10.605  1.00  0.00     0.138 C 
HETATM    7  N   UNL     1     -40.288 -43.802  10.723  1.00  0.00    -0.188 NA
HETATM    8  N   UNL     1     -40.400 -47.297  10.985  1.00  0.00    -0.273 N 
ATOM      9  HN  UNL     1     -39.521 -47.297  11.502  1.00  0.00     0.189 HD
ENDROOT
BRANCH   1  10
HETATM   10  C   UNL     1     -40.814 -49.694  10.971  1.00  0.00     0.252 C 
BRANCH  10  11
HETATM   11  C   UNL     1     -41.670 -50.238  12.094  1.00  0.00     0.237 C 
HETATM   12  O   UNL     1     -42.037 -49.537  13.033  1.00  0.00    -0.272 OA
HETATM   13  N   UNL     1     -42.017 -51.572  11.980  1.00  0.00    -0.354 N 
HETATM   14  H   UNL     1     -41.696 -52.095  11.173  1.00  0.00     0.162 HD
BRANCH  13  15
HETATM   15  C   UNL     1     -42.787 -52.306  12.984  1.00  0.00     0.099 C 
HETATM   16  C   UNL     1     -42.014 -53.473  13.624  1.00  0.00     0.041 C 
HETATM   17  C   UNL     1     -43.004 -54.470  14.228  1.00  0.00     0.142 C 
HETATM   18  S   UNL     1     -44.638 -53.928  13.781  1.00  0.00     0.146 S 
HETATM   19  O   UNL     1     -45.381 -55.036  13.219  1.00  0.00    -0.228 OA
HETATM   20  O   UNL     1     -45.157 -53.122  14.866  1.00  0.00    -0.228 OA
HETATM   21  C   UNL     1     -44.126 -52.835  12.482  1.00  0.00     0.165 C 
ENDBRANCH  13  15
ENDBRANCH  10  11
ENDBRANCH   1  10
TORSDOF 3
ENDMDL
MODEL 7
REMARK VINA RESULT:      -5.3      1.253      1.869
REMARK  3 active torsions:
REMARK  status: ('A' for Active; 'I' for Inactive)
REMARK    1  A    between atoms: C_2  and  C_3 
REMARK       I    between atoms: C_2  and  N_13 
REMARK    2  A    between atoms: C_3  and  N_4 
REMARK    3  A    between atoms: N_13  and  C_14 
ROOT
HETATM    1  N   UNL     1     -40.816 -48.521  11.823  1.00  0.00    -0.277 N 
HETATM    2  C   UNL     1     -41.646 -48.557  10.744  1.00  0.00     0.203 A 
HETATM    3  N   UNL     1     -41.551 -47.429  10.077  1.00  0.00    -0.327 N 
ATOM      4  HN  UNL     1     -42.042 -47.152   9.226  1.00  0.00     0.169 HD
HETATM    5  C   UNL     1     -40.632 -46.715  10.804  1.00  0.00     0.204 A 
HETATM    6  C   UNL     1     -40.226 -45.383  10.448  1.00  0.00     0.138 C 
HETATM    7  N   UNL     1     -39.896 -44.303  10.167  1.00  0.00    -0.188 NA
HETATM    8  N   UNL     1     -40.137 -47.356  11.876  1.00  0.00    -0.273 N 
ATOM      9  HN  UNL     1     -39.436 -47.045  12.550  1.00  0.00     0.189 HD
ENDROOT
BRANCH   1  10
HETATM   10  C   UNL     1     -40.571 -49.566  12.793  1.00  0.00     0.252 C 
BRANCH  10  11
HETATM   11  C   UNL     1     -41.471 -50.758  12.551  1.00  0.00     0.237 C 
HETATM   12  O   UNL     1     -41.173 -51.651  11.761  1.00  0.00    -0.272 OA
HETATM   13  N   UNL     1     -42.641 -50.775  13.288  1.00  0.00    -0.354 N 
HETATM   14  H   UNL     1     -42.822 -50.017  13.936  1.00  0.00     0.162 HD
BRANCH  13  15
HETATM   15  C   UNL     1     -43.673 -51.804  13.162  1.00  0.00     0.099 C 
HETATM   16  C   UNL     1     -45.094 -51.292  13.457  1.00  0.00     0.041 C 
HETATM   17  C   UNL     1     -45.997 -52.473  13.818  1.00  0.00     0.142 C 
HETATM   18  S   UNL     1     -44.965 -53.919  13.901  1.00  0.00     0.146 S 
HETATM   19  O   UNL     1     -45.212 -54.623  15.142  1.00  0.00    -0.228 OA
HETATM   20  O   UNL     1     -45.016 -54.583  12.615  1.00  0.00    -0.228 OA
HETATM   21  C   UNL     1     -43.425 -53.048  14.008  1.00  0.00     0.165 C 
ENDBRANCH  13  15
ENDBRANCH  10  11
ENDBRANCH   1  10
TORSDOF 3
ENDMDL
MODEL 8
REMARK VINA RESULT:      -5.3      2.301      3.097
REMARK  3 active torsions:
REMARK  status: ('A' for Active; 'I' for Inactive)
REMARK    1  A    between atoms: C_2  and  C_3 
REMARK       I    between atoms: C_2  and  N_13 
REMARK    2  A    between atoms: C_3  and  N_4 
REMARK    3  A    between atoms: N_13  and  C_14 
ROOT
HETATM    1  N   UNL     1     -40.569 -52.196  12.434  1.00  0.00    -0.277 N 
HETATM    2  C   UNL     1     -39.880 -51.401  13.298  1.00  0.00     0.203 A 
HETATM    3  N   UNL     1     -40.000 -50.144  12.933  1.00  0.00    -0.327 N 
ATOM      4  HN  UNL     1     -39.604 -49.314  13.375  1.00  0.00     0.169 HD
HETATM    5  C   UNL     1     -40.788 -50.221  11.811  1.00  0.00     0.204 A 
HETATM    6  C   UNL     1     -41.168 -49.064  11.049  1.00  0.00     0.138 C 
HETATM    7  N   UNL     1     -41.477 -48.130  10.426  1.00  0.00    -0.188 NA
HETATM    8  N   UNL     1     -41.179 -51.462  11.478  1.00  0.00    -0.273 N 
ATOM      9  HN  UNL     1     -41.777 -51.768  10.710  1.00  0.00     0.189 HD
ENDROOT
BRANCH   1  10
HETATM   10  C   UNL     1     -40.745 -53.630  12.491  1.00  0.00     0.252 C 
BRANCH  10  11
HETATM   11  C   UNL     1     -41.638 -54.025  13.647  1.00  0.00     0.237 C 
HETATM   12  O   UNL     1     -41.187 -54.483  14.694  1.00  0.00    -0.272 OA
HETATM   13  N   UNL     1     -42.991 -53.822  13.446  1.00  0.00    -0.354 N 
HETATM   14  H   UNL     1     -43.301 -53.425  12.566  1.00  0.00     0.162 HD
BRANCH  13  15
HETATM   15  C   UNL     1     -44.027 -54.190  14.411  1.00  0.00     0.099 C 
HETATM   16  C   UNL     1     -45.310 -54.737  13.761  1.00  0.00     0.041 C 
HETATM   17  C   UNL     1     -46.478 -54.595  14.739  1.00  0.00     0.142 C 
HETATM   18  S   UNL     1     -45.875 -53.700  16.153  1.00  0.00     0.146 S 
HETATM   19  O   UNL     1     -46.774 -52.607  16.457  1.00  0.00    -0.228 OA
HETATM   20  O   UNL     1     -45.467 -54.663  17.154  1.00  0.00    -0.228 OA
HETATM   21  C   UNL     1     -44.414 -53.070  15.371  1.00  0.00     0.165 C 
ENDBRANCH  13  15
ENDBRANCH  10  11
ENDBRANCH   1  10
TORSDOF 3
ENDMDL
MODEL 9
REMARK VINA RESULT:      -5.2      4.480      7.560
REMARK  3 active torsions:
REMARK  status: ('A' for Active; 'I' for Inactive)
REMARK    1  A    between atoms: C_2  and  C_3 
REMARK       I    between atoms: C_2  and  N_13 
REMARK    2  A    between atoms: C_3  and  N_4 
REMARK    3  A    between atoms: N_13  and  C_14 
ROOT
HETATM    1  N   UNL     1     -41.118 -51.379  12.303  1.00  0.00    -0.277 N 
HETATM    2  C   UNL     1     -40.890 -51.899  13.541  1.00  0.00     0.203 A 
HETATM    3  N   UNL     1     -41.838 -52.758  13.840  1.00  0.00    -0.327 N 
ATOM      4  HN  UNL     1     -41.948 -53.312  14.690  1.00  0.00     0.169 HD
HETATM    5  C   UNL     1     -42.646 -52.727  12.730  1.00  0.00     0.204 A 
HETATM    6  C   UNL     1     -43.846 -53.511  12.622  1.00  0.00     0.138 C 
HETATM    7  N   UNL     1     -44.820 -54.141  12.529  1.00  0.00    -0.188 NA
HETATM    8  N   UNL     1     -42.231 -51.908  11.750  1.00  0.00    -0.273 N 
ATOM      9  HN  UNL     1     -42.644 -51.732  10.834  1.00  0.00     0.189 HD
ENDROOT
BRANCH   1  10
HETATM   10  C   UNL     1     -40.299 -50.441  11.566  1.00  0.00     0.252 C 
BRANCH  10  11
HETATM   11  C   UNL     1     -40.893 -49.050  11.606  1.00  0.00     0.237 C 
HETATM   12  O   UNL     1     -42.088 -48.845  11.409  1.00  0.00    -0.272 OA
HETATM   13  N   UNL     1     -39.999 -48.034  11.890  1.00  0.00    -0.354 N 
HETATM   14  H   UNL     1     -39.028 -48.269  12.059  1.00  0.00     0.162 HD
BRANCH  13  15
HETATM   15  C   UNL     1     -40.355 -46.615  11.917  1.00  0.00     0.099 C 
HETATM   16  C   UNL     1     -40.001 -45.864  10.622  1.00  0.00     0.041 C 
HETATM   17  C   UNL     1     -39.907 -44.365  10.910  1.00  0.00     0.142 C 
HETATM   18  S   UNL     1     -40.086 -44.154  12.667  1.00  0.00     0.146 S 
HETATM   19  O   UNL     1     -39.017 -43.316  13.168  1.00  0.00    -0.228 OA
HETATM   20  O   UNL     1     -41.479 -43.876  12.947  1.00  0.00    -0.228 OA
HETATM   21  C   UNL     1     -39.767 -45.844  13.095  1.00  0.00     0.165 C 
ENDBRANCH  13  15
ENDBRANCH  10  11
ENDBRANCH   1  10
TORSDOF 3
ENDMDL
