MODEL 1
REMARK VINA RESULT:      -6.0      0.000      0.000
REMARK  5 active torsions:
REMARK  status: ('A' for Active; 'I' for Inactive)
REMARK    1  A    between atoms: C_2  and  C_3 
REMARK    2  A    between atoms: C_2  and  N_16 
REMARK       I    between atoms: C_3  and  N_5 
REMARK    3  A    between atoms: N_5  and  C_6 
REMARK    4  A    between atoms: C_6  and  C_7 
REMARK    5  A    between atoms: C_7  and  N_10 
ROOT
HETATM    1  C   UNL     1     -41.737 -48.918  11.264  1.00  0.00     0.242 C 
HETATM    2  O   UNL     1     -40.666 -49.242  10.759  1.00  0.00    -0.271 OA
HETATM    3  N   UNL     1     -42.463 -49.764  12.084  1.00  0.00    -0.357 N 
HETATM    4  H   UNL     1     -43.207 -49.383  12.661  1.00  0.00     0.162 HD
ENDROOT
BRANCH   3   5
HETATM    5  C   UNL     1     -42.073 -51.153  12.294  1.00  0.00     0.163 C 
BRANCH   5   6
HETATM    6  C   UNL     1     -42.948 -51.938  13.356  1.00  0.00     0.168 C 
HETATM    7  C   UNL     1     -42.240 -51.747  14.725  1.00  0.00     0.050 C 
HETATM    8  C   UNL     1     -44.336 -51.282  13.485  1.00  0.00     0.050 C 
BRANCH   6   9
HETATM    9  N   UNL     1     -42.986 -53.395  13.026  1.00  0.00     0.103 N 
HETATM   10  C   UNL     1     -44.277 -53.972  12.590  1.00  0.00     0.299 C 
HETATM   11  C   UNL     1     -45.203 -54.435  13.726  1.00  0.00     0.198 C 
HETATM   12  O   UNL     1     -44.545 -55.386  14.573  1.00  0.00    -0.388 OA
HETATM   13  C   UNL     1     -43.334 -54.843  15.108  1.00  0.00     0.198 C 
HETATM   14  C   UNL     1     -42.389 -54.339  14.000  1.00  0.00     0.299 C 
ENDBRANCH   6   9
ENDBRANCH   5   6
ENDBRANCH   3   5
BRANCH   1  15
HETATM   15  C   UNL     1     -42.358 -47.551  11.048  1.00  0.00     0.196 C 
HETATM   16  C   UNL     1     -43.211 -47.129  12.245  1.00  0.00     0.044 C 
BRANCH  15  17
HETATM   17  N   UNL     1     -43.133 -47.585   9.824  1.00  0.00    -0.273 N 
HETATM   18  C   UNL     1     -44.462 -47.343   9.670  1.00  0.00     0.202 A 
HETATM   19  N   UNL     1     -44.799 -47.542   8.420  1.00  0.00    -0.346 N 
HETATM   20  C   UNL     1     -43.619 -47.916   7.842  1.00  0.00     0.198 A 
ATOM     21  HN  UNL     1     -45.716 -47.443   7.985  1.00  0.00     0.167 HD
HETATM   22  N   UNL     1     -42.570 -47.973   8.667  1.00  0.00    -0.292 N 
ATOM     23  HN  UNL     1     -41.604 -48.238   8.472  1.00  0.00     0.188 HD
ENDBRANCH  15  17
ENDBRANCH   1  15
TORSDOF 5
ENDMDL
MODEL 2
REMARK VINA RESULT:      -5.8      1.517      1.911
REMARK  5 active torsions:
REMARK  status: ('A' for Active; 'I' for Inactive)
REMARK    1  A    between atoms: C_2  and  C_3 
REMARK    2  A    between atoms: C_2  and  N_16 
REMARK       I    between atoms: C_3  and  N_5 
REMARK    3  A    between atoms: N_5  and  C_6 
REMARK    4  A    between atoms: C_6  and  C_7 
REMARK    5  A    between atoms: C_7  and  N_10 
ROOT
HETATM    1  C   UNL     1     -41.526 -50.090  11.961  1.00  0.00     0.242 C 
HETATM    2  O   UNL     1     -40.487 -50.546  11.492  1.00  0.00    -0.271 OA
HETATM    3  N   UNL     1     -42.547 -50.893  12.438  1.00  0.00    -0.357 N 
HETATM    4  H   UNL     1     -43.270 -50.487  13.023  1.00  0.00     0.162 HD
ENDROOT
BRANCH   3   5
HETATM    5  C   UNL     1     -42.518 -52.344  12.288  1.00  0.00     0.163 C 
BRANCH   5   6
HETATM    6  C   UNL     1     -43.254 -53.147  13.437  1.00  0.00     0.168 C 
HETATM    7  C   UNL     1     -42.334 -54.351  13.781  1.00  0.00     0.050 C 
HETATM    8  C   UNL     1     -43.344 -52.286  14.710  1.00  0.00     0.050 C 
BRANCH   6   9
HETATM    9  N   UNL     1     -44.570 -53.664  12.952  1.00  0.00     0.103 N 
HETATM   10  C   UNL     1     -45.637 -52.679  12.663  1.00  0.00     0.299 C 
HETATM   11  C   UNL     1     -46.496 -52.275  13.872  1.00  0.00     0.198 C 
HETATM   12  O   UNL     1     -47.094 -53.422  14.488  1.00  0.00    -0.388 OA
HETATM   13  C   UNL     1     -46.096 -54.370  14.881  1.00  0.00     0.198 C 
HETATM   14  C   UNL     1     -45.193 -54.779  13.702  1.00  0.00     0.299 C 
ENDBRANCH   6   9
ENDBRANCH   5   6
ENDBRANCH   3   5
BRANCH   1  15
HETATM   15  C   UNL     1     -41.781 -48.599  12.075  1.00  0.00     0.196 C 
HETATM   16  C   UNL     1     -42.531 -48.258  13.363  1.00  0.00     0.044 C 
BRANCH  15  17
HETATM   17  N   UNL     1     -42.509 -48.164  10.901  1.00  0.00    -0.273 N 
HETATM   18  C   UNL     1     -43.803 -47.754  10.825  1.00  0.00     0.202 A 
HETATM   19  N   UNL     1     -44.110 -47.510   9.575  1.00  0.00    -0.346 N 
HETATM   20  C   UNL     1     -42.950 -47.796   8.914  1.00  0.00     0.198 A 
ATOM     21  HN  UNL     1     -44.997 -47.186   9.190  1.00  0.00     0.167 HD
HETATM   22  N   UNL     1     -41.942 -48.217   9.684  1.00  0.00    -0.292 N 
ATOM     23  HN  UNL     1     -40.999 -48.502   9.419  1.00  0.00     0.188 HD
ENDBRANCH  15  17
ENDBRANCH   1  15
TORSDOF 5
ENDMDL
MODEL 3
REMARK VINA RESULT:      -5.7      2.194      2.862
REMARK  5 active torsions:
REMARK  status: ('A' for Active; 'I' for Inactive)
REMARK    1  A    between atoms: C_2  and  C_3 
REMARK    2  A    between atoms: C_2  and  N_16 
REMARK       I    between atoms: C_3  and  N_5 
REMARK    3  A    between atoms: N_5  and  C_6 
REMARK    4  A    between atoms: C_6  and  C_7 
REMARK    5  A    between atoms: C_7  and  N_10 
ROOT
HETATM    1  C   UNL     1     -42.637 -48.157  11.224  1.00  0.00     0.242 C 
HETATM    2  O   UNL     1     -43.261 -47.825  12.228  1.00  0.00    -0.271 OA
HETATM    3  N   UNL     1     -41.939 -49.349  11.139  1.00  0.00    -0.357 N 
HETATM    4  H   UNL     1     -41.642 -49.690  10.230  1.00  0.00     0.162 HD
ENDROOT
BRANCH   3   5
HETATM    5  C   UNL     1     -41.781 -50.232  12.289  1.00  0.00     0.163 C 
BRANCH   5   6
HETATM    6  C   UNL     1     -40.282 -50.485  12.733  1.00  0.00     0.168 C 
HETATM    7  C   UNL     1     -39.391 -49.817  11.649  1.00  0.00     0.050 C 
HETATM    8  C   UNL     1     -39.990 -49.751  14.054  1.00  0.00     0.050 C 
BRANCH   6   9
HETATM    9  N   UNL     1     -39.988 -51.951  12.767  1.00  0.00     0.103 N 
HETATM   10  C   UNL     1     -40.977 -52.869  12.160  1.00  0.00     0.299 C 
HETATM   11  C   UNL     1     -42.120 -53.305  13.091  1.00  0.00     0.198 C 
HETATM   12  O   UNL     1     -41.611 -53.913  14.284  1.00  0.00    -0.388 OA
HETATM   13  C   UNL     1     -40.721 -53.027  14.970  1.00  0.00     0.198 C 
HETATM   14  C   UNL     1     -39.575 -52.542  14.061  1.00  0.00     0.299 C 
ENDBRANCH   6   9
ENDBRANCH   5   6
ENDBRANCH   3   5
BRANCH   1  15
HETATM   15  C   UNL     1     -42.586 -47.298   9.975  1.00  0.00     0.196 C 
HETATM   16  C   UNL     1     -41.824 -45.996  10.225  1.00  0.00     0.044 C 
BRANCH  15  17
HETATM   17  N   UNL     1     -43.941 -47.048   9.530  1.00  0.00    -0.273 N 
HETATM   18  C   UNL     1     -44.429 -45.934   8.922  1.00  0.00     0.202 A 
HETATM   19  N   UNL     1     -45.719 -46.067   8.740  1.00  0.00    -0.346 N 
HETATM   20  C   UNL     1     -45.977 -47.299   9.269  1.00  0.00     0.198 A 
ATOM     21  HN  UNL     1     -46.371 -45.411   8.309  1.00  0.00     0.167 HD
HETATM   22  N   UNL     1     -44.920 -47.934   9.782  1.00  0.00    -0.292 N 
ATOM     23  HN  UNL     1     -44.869 -48.845  10.240  1.00  0.00     0.188 HD
ENDBRANCH  15  17
ENDBRANCH   1  15
TORSDOF 5
ENDMDL
MODEL 4
REMARK VINA RESULT:      -5.6      1.742      2.479
REMARK  5 active torsions:
REMARK  status: ('A' for Active; 'I' for Inactive)
REMARK    1  A    between atoms: C_2  and  C_3 
REMARK    2  A    between atoms: C_2  and  N_16 
REMARK       I    between atoms: C_3  and  N_5 
REMARK    3  A    between atoms: N_5  and  C_6 
REMARK    4  A    between atoms: C_6  and  C_7 
REMARK    5  A    between atoms: C_7  and  N_10 
ROOT
HETATM    1  C   UNL     1     -41.803 -50.283  12.051  1.00  0.00     0.242 C 
HETATM    2  O   UNL     1     -42.551 -49.691  12.824  1.00  0.00    -0.271 OA
HETATM    3  N   UNL     1     -41.886 -51.647  11.828  1.00  0.00    -0.357 N 
HETATM    4  H   UNL     1     -41.419 -52.050  11.022  1.00  0.00     0.162 HD
ENDROOT
BRANCH   3   5
HETATM    5  C   UNL     1     -42.780 -52.499  12.604  1.00  0.00     0.163 C 
BRANCH   5   6
HETATM    6  C   UNL     1     -42.066 -53.387  13.703  1.00  0.00     0.168 C 
HETATM    7  C   UNL     1     -40.757 -53.914  13.051  1.00  0.00     0.050 C 
HETATM    8  C   UNL     1     -41.639 -52.511  14.896  1.00  0.00     0.050 C 
BRANCH   6   9
HETATM    9  N   UNL     1     -42.927 -54.551  14.075  1.00  0.00     0.103 N 
HETATM   10  C   UNL     1     -44.389 -54.417  13.890  1.00  0.00     0.299 C 
HETATM   11  C   UNL     1     -45.140 -53.774  15.066  1.00  0.00     0.198 C 
HETATM   12  O   UNL     1     -44.902 -54.491  16.284  1.00  0.00    -0.388 OA
HETATM   13  C   UNL     1     -43.502 -54.566  16.568  1.00  0.00     0.198 C 
HETATM   14  C   UNL     1     -42.707 -55.178  15.399  1.00  0.00     0.299 C 
ENDBRANCH   6   9
ENDBRANCH   5   6
ENDBRANCH   3   5
BRANCH   1  15
HETATM   15  C   UNL     1     -40.725 -49.572  11.255  1.00  0.00     0.196 C 
HETATM   16  C   UNL     1     -39.494 -49.285  12.115  1.00  0.00     0.044 C 
BRANCH  15  17
HETATM   17  N   UNL     1     -41.286 -48.357  10.701  1.00  0.00    -0.273 N 
HETATM   18  C   UNL     1     -40.812 -47.088  10.820  1.00  0.00     0.202 A 
HETATM   19  N   UNL     1     -41.639 -46.257  10.236  1.00  0.00    -0.346 N 
HETATM   20  C   UNL     1     -42.623 -47.083   9.772  1.00  0.00     0.198 A 
ATOM     21  HN  UNL     1     -41.566 -45.243  10.149  1.00  0.00     0.167 HD
HETATM   22  N   UNL     1     -42.460 -48.380  10.046  1.00  0.00    -0.292 N 
ATOM     23  HN  UNL     1     -43.062 -49.172   9.821  1.00  0.00     0.188 HD
ENDBRANCH  15  17
ENDBRANCH   1  15
TORSDOF 5
ENDMDL
MODEL 5
REMARK VINA RESULT:      -5.6      3.806      4.958
REMARK  5 active torsions:
REMARK  status: ('A' for Active; 'I' for Inactive)
REMARK    1  A    between atoms: C_2  and  C_3 
REMARK    2  A    between atoms: C_2  and  N_16 
REMARK       I    between atoms: C_3  and  N_5 
REMARK    3  A    between atoms: N_5  and  C_6 
REMARK    4  A    between atoms: C_6  and  C_7 
REMARK    5  A    between atoms: C_7  and  N_10 
ROOT
HETATM    1  C   UNL     1     -41.856 -48.579  10.997  1.00  0.00     0.242 C 
HETATM    2  O   UNL     1     -42.597 -48.857  11.935  1.00  0.00    -0.271 OA
HETATM    3  N   UNL     1     -40.712 -49.303  10.709  1.00  0.00    -0.357 N 
HETATM    4  H   UNL     1     -40.265 -49.192   9.804  1.00  0.00     0.162 HD
ENDROOT
BRANCH   3   5
HETATM    5  C   UNL     1     -40.233 -50.365  11.587  1.00  0.00     0.163 C 
BRANCH   5   6
HETATM    6  C   UNL     1     -38.898 -50.030  12.370  1.00  0.00     0.168 C 
HETATM    7  C   UNL     1     -38.544 -51.303  13.186  1.00  0.00     0.050 C 
HETATM    8  C   UNL     1     -37.742 -49.811  11.376  1.00  0.00     0.050 C 
BRANCH   6   9
HETATM    9  N   UNL     1     -39.118 -48.892  13.315  1.00  0.00     0.103 N 
HETATM   10  C   UNL     1     -37.928 -48.172  13.820  1.00  0.00     0.299 C 
HETATM   11  C   UNL     1     -37.274 -48.787  15.068  1.00  0.00     0.198 C 
HETATM   12  O   UNL     1     -38.218 -48.908  16.139  1.00  0.00    -0.388 OA
HETATM   13  C   UNL     1     -39.350 -49.685  15.737  1.00  0.00     0.198 C 
HETATM   14  C   UNL     1     -40.018 -49.119  14.470  1.00  0.00     0.299 C 
ENDBRANCH   6   9
ENDBRANCH   5   6
ENDBRANCH   3   5
BRANCH   1  15
HETATM   15  C   UNL     1     -42.132 -47.423  10.055  1.00  0.00     0.196 C 
HETATM   16  C   UNL     1     -42.016 -46.078  10.773  1.00  0.00     0.044 C 
BRANCH  15  17
HETATM   17  N   UNL     1     -43.445 -47.606   9.471  1.00  0.00    -0.273 N 
HETATM   18  C   UNL     1     -43.766 -47.709   8.154  1.00  0.00     0.202 A 
HETATM   19  N   UNL     1     -45.067 -47.797   8.029  1.00  0.00    -0.346 N 
HETATM   20  C   UNL     1     -45.503 -47.736   9.322  1.00  0.00     0.198 A 
ATOM     21  HN  UNL     1     -45.619 -47.888   7.176  1.00  0.00     0.167 HD
HETATM   22  N   UNL     1     -44.545 -47.603  10.243  1.00  0.00    -0.292 N 
ATOM     23  HN  UNL     1     -44.627 -47.520  11.257  1.00  0.00     0.188 HD
ENDBRANCH  15  17
ENDBRANCH   1  15
TORSDOF 5
ENDMDL
MODEL 6
REMARK VINA RESULT:      -5.5      3.447      4.757
REMARK  5 active torsions:
REMARK  status: ('A' for Active; 'I' for Inactive)
REMARK    1  A    between atoms: C_2  and  C_3 
REMARK    2  A    between atoms: C_2  and  N_16 
REMARK       I    between atoms: C_3  and  N_5 
REMARK    3  A    between atoms: N_5  and  C_6 
REMARK    4  A    between atoms: C_6  and  C_7 
REMARK    5  A    between atoms: C_7  and  N_10 
ROOT
HETATM    1  C   UNL     1     -42.804 -50.777  15.088  1.00  0.00     0.242 C 
HETATM    2  O   UNL     1     -42.224 -51.150  16.103  1.00  0.00    -0.271 OA
HETATM    3  N   UNL     1     -44.184 -50.728  14.992  1.00  0.00    -0.357 N 
HETATM    4  H   UNL     1     -44.613 -50.200  14.238  1.00  0.00     0.162 HD
ENDROOT
BRANCH   3   5
HETATM    5  C   UNL     1     -45.047 -51.248  16.046  1.00  0.00     0.163 C 
BRANCH   5   6
HETATM    6  C   UNL     1     -46.347 -51.994  15.534  1.00  0.00     0.168 C 
HETATM    7  C   UNL     1     -47.540 -51.359  16.301  1.00  0.00     0.050 C 
HETATM    8  C   UNL     1     -46.577 -51.693  14.041  1.00  0.00     0.050 C 
BRANCH   6   9
HETATM    9  N   UNL     1     -46.278 -53.450  15.863  1.00  0.00     0.103 N 
HETATM   10  C   UNL     1     -45.091 -53.938  16.599  1.00  0.00     0.299 C 
HETATM   11  C   UNL     1     -43.885 -54.308  15.722  1.00  0.00     0.198 C 
HETATM   12  O   UNL     1     -44.242 -55.290  14.740  1.00  0.00    -0.388 OA
HETATM   13  C   UNL     1     -45.326 -54.829  13.928  1.00  0.00     0.198 C 
HETATM   14  C   UNL     1     -46.547 -54.417  14.773  1.00  0.00     0.299 C 
ENDBRANCH   6   9
ENDBRANCH   5   6
ENDBRANCH   3   5
BRANCH   1  15
HETATM   15  C   UNL     1     -42.062 -50.322  13.846  1.00  0.00     0.196 C 
HETATM   16  C   UNL     1     -42.944 -49.442  12.960  1.00  0.00     0.044 C 
BRANCH  15  17
HETATM   17  N   UNL     1     -41.587 -51.492  13.136  1.00  0.00    -0.273 N 
HETATM   18  C   UNL     1     -41.275 -51.599  11.817  1.00  0.00     0.202 A 
HETATM   19  N   UNL     1     -40.951 -52.838  11.545  1.00  0.00    -0.346 N 
HETATM   20  C   UNL     1     -41.090 -53.461  12.753  1.00  0.00     0.198 A 
ATOM     21  HN  UNL     1     -40.666 -53.240  10.652  1.00  0.00     0.167 HD
HETATM   22  N   UNL     1     -41.494 -52.680  13.758  1.00  0.00    -0.292 N 
ATOM     23  HN  UNL     1     -41.682 -52.919  14.732  1.00  0.00     0.188 HD
ENDBRANCH  15  17
ENDBRANCH   1  15
TORSDOF 5
ENDMDL
MODEL 7
REMARK VINA RESULT:      -5.5      2.057      2.958
REMARK  5 active torsions:
REMARK  status: ('A' for Active; 'I' for Inactive)
REMARK    1  A    between atoms: C_2  and  C_3 
REMARK    2  A    between atoms: C_2  and  N_16 
REMARK       I    between atoms: C_3  and  N_5 
REMARK    3  A    between atoms: N_5  and  C_6 
REMARK    4  A    between atoms: C_6  and  C_7 
REMARK    5  A    between atoms: C_7  and  N_10 
ROOT
HETATM    1  C   UNL     1     -42.510 -48.654  11.855  1.00  0.00     0.242 C 
HETATM    2  O   UNL     1     -42.909 -48.011  12.821  1.00  0.00    -0.271 OA
HETATM    3  N   UNL     1     -42.401 -50.034  11.870  1.00  0.00    -0.357 N 
HETATM    4  H   UNL     1     -42.298 -50.536  10.993  1.00  0.00     0.162 HD
ENDROOT
BRANCH   3   5
HETATM    5  C   UNL     1     -42.622 -50.810  13.085  1.00  0.00     0.163 C 
BRANCH   5   6
HETATM    6  C   UNL     1     -42.213 -52.337  12.984  1.00  0.00     0.168 C 
HETATM    7  C   UNL     1     -43.497 -53.101  12.559  1.00  0.00     0.050 C 
HETATM    8  C   UNL     1     -41.189 -52.536  11.852  1.00  0.00     0.050 C 
BRANCH   6   9
HETATM    9  N   UNL     1     -41.763 -52.846  14.316  1.00  0.00     0.103 N 
HETATM   10  C   UNL     1     -40.856 -51.990  15.112  1.00  0.00     0.299 C 
HETATM   11  C   UNL     1     -39.360 -52.152  14.796  1.00  0.00     0.198 C 
HETATM   12  O   UNL     1     -38.945 -53.516  14.947  1.00  0.00    -0.388 OA
HETATM   13  C   UNL     1     -39.726 -54.382  14.119  1.00  0.00     0.198 C 
HETATM   14  C   UNL     1     -41.236 -54.229  14.384  1.00  0.00     0.299 C 
ENDBRANCH   6   9
ENDBRANCH   5   6
ENDBRANCH   3   5
BRANCH   1  15
HETATM   15  C   UNL     1     -42.111 -47.998  10.547  1.00  0.00     0.196 C 
HETATM   16  C   UNL     1     -41.158 -46.825  10.779  1.00  0.00     0.044 C 
BRANCH  15  17
HETATM   17  N   UNL     1     -43.313 -47.582   9.854  1.00  0.00    -0.273 N 
HETATM   18  C   UNL     1     -43.421 -46.704   8.821  1.00  0.00     0.202 A 
HETATM   19  N   UNL     1     -44.684 -46.540   8.519  1.00  0.00    -0.346 N 
HETATM   20  C   UNL     1     -45.321 -47.350   9.416  1.00  0.00     0.198 A 
ATOM     21  HN  UNL     1     -45.093 -45.953   7.792  1.00  0.00     0.167 HD
HETATM   22  N   UNL     1     -44.522 -47.999  10.268  1.00  0.00    -0.292 N 
ATOM     23  HN  UNL     1     -44.764 -48.636  11.027  1.00  0.00     0.188 HD
ENDBRANCH  15  17
ENDBRANCH   1  15
TORSDOF 5
ENDMDL
MODEL 8
REMARK VINA RESULT:      -5.4      2.898      3.892
REMARK  5 active torsions:
REMARK  status: ('A' for Active; 'I' for Inactive)
REMARK    1  A    between atoms: C_2  and  C_3 
REMARK    2  A    between atoms: C_2  and  N_16 
REMARK       I    between atoms: C_3  and  N_5 
REMARK    3  A    between atoms: N_5  and  C_6 
REMARK    4  A    between atoms: C_6  and  C_7 
REMARK    5  A    between atoms: C_7  and  N_10 
ROOT
HETATM    1  C   UNL     1     -42.248 -51.164  13.307  1.00  0.00     0.242 C 
HETATM    2  O   UNL     1     -41.666 -52.142  13.764  1.00  0.00    -0.271 OA
HETATM    3  N   UNL     1     -43.546 -51.223  12.828  1.00  0.00    -0.357 N 
HETATM    4  H   UNL     1     -44.064 -50.362  12.682  1.00  0.00     0.162 HD
ENDROOT
BRANCH   3   5
HETATM    5  C   UNL     1     -44.263 -52.486  12.706  1.00  0.00     0.163 C 
BRANCH   5   6
HETATM    6  C   UNL     1     -45.751 -52.463  13.249  1.00  0.00     0.168 C 
HETATM    7  C   UNL     1     -45.830 -51.269  14.240  1.00  0.00     0.050 C 
HETATM    8  C   UNL     1     -46.728 -52.144  12.101  1.00  0.00     0.050 C 
BRANCH   6   9
HETATM    9  N   UNL     1     -46.059 -53.727  13.984  1.00  0.00     0.103 N 
HETATM   10  C   UNL     1     -46.238 -53.648  15.451  1.00  0.00     0.299 C 
HETATM   11  C   UNL     1     -44.943 -53.751  16.273  1.00  0.00     0.198 C 
HETATM   12  O   UNL     1     -44.232 -54.957  15.968  1.00  0.00    -0.388 OA
HETATM   13  C   UNL     1     -43.942 -55.040  14.569  1.00  0.00     0.198 C 
HETATM   14  C   UNL     1     -45.212 -54.910  13.707  1.00  0.00     0.299 C 
ENDBRANCH   6   9
ENDBRANCH   5   6
ENDBRANCH   3   5
BRANCH   1  15
HETATM   15  C   UNL     1     -41.605 -49.792  13.236  1.00  0.00     0.196 C 
HETATM   16  C   UNL     1     -42.549 -48.764  12.612  1.00  0.00     0.044 C 
BRANCH  15  17
HETATM   17  N   UNL     1     -40.366 -49.901  12.494  1.00  0.00    -0.273 N 
HETATM   18  C   UNL     1     -40.170 -49.710  11.162  1.00  0.00     0.202 A 
HETATM   19  N   UNL     1     -38.922 -49.970  10.863  1.00  0.00    -0.346 N 
HETATM   20  C   UNL     1     -38.388 -50.328  12.068  1.00  0.00     0.198 A 
ATOM     21  HN  UNL     1     -38.462 -49.919   9.954  1.00  0.00     0.167 HD
HETATM   22  N   UNL     1     -39.239 -50.316  13.098  1.00  0.00    -0.292 N 
ATOM     23  HN  UNL     1     -39.078 -50.558  14.076  1.00  0.00     0.188 HD
ENDBRANCH  15  17
ENDBRANCH   1  15
TORSDOF 5
ENDMDL
MODEL 9
REMARK VINA RESULT:      -5.3      2.045      3.075
REMARK  5 active torsions:
REMARK  status: ('A' for Active; 'I' for Inactive)
REMARK    1  A    between atoms: C_2  and  C_3 
REMARK    2  A    between atoms: C_2  and  N_16 
REMARK       I    between atoms: C_3  and  N_5 
REMARK    3  A    between atoms: N_5  and  C_6 
REMARK    4  A    between atoms: C_6  and  C_7 
REMARK    5  A    between atoms: C_7  and  N_10 
ROOT
HETATM    1  C   UNL     1     -42.614 -50.589  13.128  1.00  0.00     0.242 C 
HETATM    2  O   UNL     1     -42.366 -51.446  12.286  1.00  0.00    -0.271 OA
HETATM    3  N   UNL     1     -43.645 -50.717  14.043  1.00  0.00    -0.357 N 
HETATM    4  H   UNL     1     -43.668 -50.111  14.858  1.00  0.00     0.162 HD
ENDROOT
BRANCH   3   5
HETATM    5  C   UNL     1     -44.597 -51.820  13.979  1.00  0.00     0.163 C 
BRANCH   5   6
HETATM    6  C   UNL     1     -45.589 -51.916  15.210  1.00  0.00     0.168 C 
HETATM    7  C   UNL     1     -45.046 -50.929  16.281  1.00  0.00     0.050 C 
HETATM    8  C   UNL     1     -46.983 -51.402  14.807  1.00  0.00     0.050 C 
BRANCH   6   9
HETATM    9  N   UNL     1     -45.585 -53.299  15.777  1.00  0.00     0.103 N 
HETATM   10  C   UNL     1     -44.299 -53.842  16.268  1.00  0.00     0.299 C 
HETATM   11  C   UNL     1     -43.426 -54.520  15.199  1.00  0.00     0.198 C 
HETATM   12  O   UNL     1     -44.141 -55.574  14.542  1.00  0.00    -0.388 OA
HETATM   13  C   UNL     1     -45.352 -55.084  13.958  1.00  0.00     0.198 C 
HETATM   14  C   UNL     1     -46.243 -54.369  14.992  1.00  0.00     0.299 C 
ENDBRANCH   6   9
ENDBRANCH   5   6
ENDBRANCH   3   5
BRANCH   1  15
HETATM   15  C   UNL     1     -41.804 -49.313  13.255  1.00  0.00     0.196 C 
HETATM   16  C   UNL     1     -42.408 -48.369  14.296  1.00  0.00     0.044 C 
BRANCH  15  17
HETATM   17  N   UNL     1     -41.719 -48.688  11.951  1.00  0.00    -0.273 N 
HETATM   18  C   UNL     1     -40.679 -47.986  11.427  1.00  0.00     0.202 A 
HETATM   19  N   UNL     1     -41.016 -47.522  10.250  1.00  0.00    -0.346 N 
HETATM   20  C   UNL     1     -42.297 -47.971  10.100  1.00  0.00     0.198 A 
ATOM     21  HN  UNL     1     -40.459 -46.963   9.603  1.00  0.00     0.167 HD
HETATM   22  N   UNL     1     -42.780 -48.678  11.125  1.00  0.00    -0.292 N 
ATOM     23  HN  UNL     1     -43.702 -49.096  11.248  1.00  0.00     0.188 HD
ENDBRANCH  15  17
ENDBRANCH   1  15
TORSDOF 5
ENDMDL
