MODEL 1
REMARK VINA RESULT:      -6.0      0.000      0.000
REMARK  5 active torsions:
REMARK  status: ('A' for Active; 'I' for Inactive)
REMARK    1  A    between atoms: C_2  and  O_3 
REMARK    2  A    between atoms: O_3  and  C_4 
REMARK    3  A    between atoms: C_6  and  N_7 
REMARK       I    between atoms: N_7  and  C_8 
REMARK    4  A    between atoms: C_8  and  C_10 
REMARK    5  A    between atoms: C_10  and  N_11 
ROOT
HETATM    1  C   UNL     1     -39.965 -51.333  12.586  1.00  0.00     0.133 C 
HETATM    2  C   UNL     1     -40.863 -52.307  11.775  1.00  0.00     0.059 C 
HETATM    3  C   UNL     1     -41.332 -52.887  13.125  1.00  0.00     0.098 C 
HETATM    4  C   UNL     1     -41.021 -51.479  13.760  1.00  0.00     0.006 C 
HETATM    5  C   UNL     1     -40.379 -51.516  15.156  1.00  0.00     0.014 C 
HETATM    6  C   UNL     1     -41.438 -51.728  16.235  1.00  0.00     0.001 C 
HETATM    7  C   UNL     1     -42.507 -50.641  16.187  1.00  0.00     0.000 C 
HETATM    8  C   UNL     1     -43.150 -50.556  14.807  1.00  0.00     0.001 C 
HETATM    9  C   UNL     1     -42.109 -50.384  13.700  1.00  0.00     0.014 C 
ENDROOT
BRANCH   3  10
HETATM   10  N   UNL     1     -42.738 -53.329  13.138  1.00  0.00    -0.354 N 
HETATM   11  C   UNL     1     -43.186 -54.323  13.992  1.00  0.00     0.236 C 
HETATM   12  O   UNL     1     -42.460 -54.920  14.783  1.00  0.00    -0.272 OA
HETATM   13  H   UNL     1     -43.368 -53.074  12.381  1.00  0.00     0.162 HD
BRANCH  11  14
HETATM   14  C   UNL     1     -44.664 -54.667  13.842  1.00  0.00     0.234 C 
BRANCH  14  15
HETATM   15  N   UNL     1     -45.495 -53.547  14.273  1.00  0.00    -0.316 N 
HETATM   16  C   UNL     1     -45.782 -53.382  15.616  1.00  0.00     0.095 A 
HETATM   17  C   UNL     1     -46.531 -52.360  16.038  1.00  0.00     0.017 A 
HETATM   18  C   UNL     1     -47.043 -51.402  15.093  1.00  0.00     0.007 A 
HETATM   19  C   UNL     1     -46.813 -51.552  13.785  1.00  0.00     0.074 A 
HETATM   20  C   UNL     1     -46.010 -52.706  13.292  1.00  0.00     0.247 A 
HETATM   21  O   UNL     1     -45.844 -52.874  12.084  1.00  0.00    -0.268 OA
ENDBRANCH  14  15
ENDBRANCH  11  14
ENDBRANCH   3  10
BRANCH   1  22
HETATM   22  O   UNL     1     -38.621 -51.797  12.881  1.00  0.00    -0.385 OA
BRANCH  22  23
HETATM   23  C   UNL     1     -37.573 -50.836  12.790  1.00  0.00     0.163 C 
HETATM   24  C   UNL     1     -37.714 -50.071  11.487  1.00  0.00     0.033 C 
ENDBRANCH  22  23
ENDBRANCH   1  22
TORSDOF 5
ENDMDL
MODEL 2
REMARK VINA RESULT:      -5.5      1.436      2.123
REMARK  5 active torsions:
REMARK  status: ('A' for Active; 'I' for Inactive)
REMARK    1  A    between atoms: C_2  and  O_3 
REMARK    2  A    between atoms: O_3  and  C_4 
REMARK    3  A    between atoms: C_6  and  N_7 
REMARK       I    between atoms: N_7  and  C_8 
REMARK    4  A    between atoms: C_8  and  C_10 
REMARK    5  A    between atoms: C_10  and  N_11 
ROOT
HETATM    1  C   UNL     1     -40.388 -50.969  13.166  1.00  0.00     0.133 C 
HETATM    2  C   UNL     1     -41.652 -50.476  12.409  1.00  0.00     0.059 C 
HETATM    3  C   UNL     1     -42.226 -51.896  12.587  1.00  0.00     0.098 C 
HETATM    4  C   UNL     1     -41.335 -52.020  13.882  1.00  0.00     0.006 C 
HETATM    5  C   UNL     1     -40.673 -53.391  14.093  1.00  0.00     0.014 C 
HETATM    6  C   UNL     1     -41.655 -54.377  14.720  1.00  0.00     0.001 C 
HETATM    7  C   UNL     1     -42.198 -53.855  16.046  1.00  0.00     0.000 C 
HETATM    8  C   UNL     1     -42.841 -52.482  15.880  1.00  0.00     0.001 C 
HETATM    9  C   UNL     1     -41.893 -51.482  15.217  1.00  0.00     0.014 C 
ENDROOT
BRANCH   3  10
HETATM   10  N   UNL     1     -43.687 -51.940  12.776  1.00  0.00    -0.354 N 
HETATM   11  C   UNL     1     -44.423 -53.089  12.539  1.00  0.00     0.236 C 
HETATM   12  O   UNL     1     -43.933 -54.143  12.144  1.00  0.00    -0.272 OA
HETATM   13  H   UNL     1     -44.222 -51.080  12.876  1.00  0.00     0.162 HD
BRANCH  11  14
HETATM   14  C   UNL     1     -45.924 -52.935  12.761  1.00  0.00     0.234 C 
BRANCH  14  15
HETATM   15  N   UNL     1     -46.209 -52.686  14.170  1.00  0.00    -0.316 N 
HETATM   16  C   UNL     1     -46.520 -51.405  14.592  1.00  0.00     0.095 A 
HETATM   17  C   UNL     1     -46.795 -51.152  15.874  1.00  0.00     0.017 A 
HETATM   18  C   UNL     1     -46.784 -52.220  16.839  1.00  0.00     0.007 A 
HETATM   19  C   UNL     1     -46.454 -53.462  16.471  1.00  0.00     0.074 A 
HETATM   20  C   UNL     1     -46.109 -53.757  15.052  1.00  0.00     0.247 A 
HETATM   21  O   UNL     1     -45.753 -54.888  14.723  1.00  0.00    -0.268 OA
ENDBRANCH  14  15
ENDBRANCH  11  14
ENDBRANCH   3  10
BRANCH   1  22
HETATM   22  O   UNL     1     -39.328 -51.526  12.345  1.00  0.00    -0.385 OA
BRANCH  22  23
HETATM   23  C   UNL     1     -38.015 -51.011  12.552  1.00  0.00     0.163 C 
HETATM   24  C   UNL     1     -37.658 -50.086  11.402  1.00  0.00     0.033 C 
ENDBRANCH  22  23
ENDBRANCH   1  22
TORSDOF 5
ENDMDL
MODEL 3
REMARK VINA RESULT:      -5.5      3.088      6.446
REMARK  5 active torsions:
REMARK  status: ('A' for Active; 'I' for Inactive)
REMARK    1  A    between atoms: C_2  and  O_3 
REMARK    2  A    between atoms: O_3  and  C_4 
REMARK    3  A    between atoms: C_6  and  N_7 
REMARK       I    between atoms: N_7  and  C_8 
REMARK    4  A    between atoms: C_8  and  C_10 
REMARK    5  A    between atoms: C_10  and  N_11 
ROOT
HETATM    1  C   UNL     1     -44.299 -53.895  13.778  1.00  0.00     0.133 C 
HETATM    2  C   UNL     1     -44.374 -53.085  12.455  1.00  0.00     0.059 C 
HETATM    3  C   UNL     1     -43.364 -52.102  13.082  1.00  0.00     0.098 C 
HETATM    4  C   UNL     1     -42.837 -53.305  13.952  1.00  0.00     0.006 C 
HETATM    5  C   UNL     1     -42.490 -52.959  15.409  1.00  0.00     0.014 C 
HETATM    6  C   UNL     1     -41.101 -52.332  15.501  1.00  0.00     0.001 C 
HETATM    7  C   UNL     1     -40.034 -53.256  14.921  1.00  0.00     0.000 C 
HETATM    8  C   UNL     1     -40.358 -53.643  13.483  1.00  0.00     0.001 C 
HETATM    9  C   UNL     1     -41.761 -54.237  13.352  1.00  0.00     0.014 C 
ENDROOT
BRANCH   3  10
HETATM   10  N   UNL     1     -42.418 -51.510  12.119  1.00  0.00    -0.354 N 
HETATM   11  C   UNL     1     -41.778 -50.307  12.366  1.00  0.00     0.236 C 
HETATM   12  O   UNL     1     -41.955 -49.635  13.379  1.00  0.00    -0.272 OA
HETATM   13  H   UNL     1     -42.369 -51.853  11.163  1.00  0.00     0.162 HD
BRANCH  11  14
HETATM   14  C   UNL     1     -40.858 -49.838  11.243  1.00  0.00     0.234 C 
BRANCH  14  15
HETATM   15  N   UNL     1     -41.061 -48.419  10.975  1.00  0.00    -0.316 N 
HETATM   16  C   UNL     1     -42.154 -48.009  10.233  1.00  0.00     0.095 A 
HETATM   17  C   UNL     1     -42.370 -46.715   9.982  1.00  0.00     0.017 A 
HETATM   18  C   UNL     1     -41.465 -45.721  10.496  1.00  0.00     0.007 A 
HETATM   19  C   UNL     1     -40.380 -46.084  11.188  1.00  0.00     0.074 A 
HETATM   20  C   UNL     1     -40.104 -47.525  11.446  1.00  0.00     0.247 A 
HETATM   21  O   UNL     1     -39.078 -47.863  12.035  1.00  0.00    -0.268 OA
ENDBRANCH  14  15
ENDBRANCH  11  14
ENDBRANCH   3  10
BRANCH   1  22
HETATM   22  O   UNL     1     -45.257 -53.530  14.807  1.00  0.00    -0.385 OA
BRANCH  22  23
HETATM   23  C   UNL     1     -46.550 -53.124  14.367  1.00  0.00     0.163 C 
HETATM   24  C   UNL     1     -46.809 -51.703  14.831  1.00  0.00     0.033 C 
ENDBRANCH  22  23
ENDBRANCH   1  22
TORSDOF 5
ENDMDL
MODEL 4
REMARK VINA RESULT:      -5.4      2.336      6.486
REMARK  5 active torsions:
REMARK  status: ('A' for Active; 'I' for Inactive)
REMARK    1  A    between atoms: C_2  and  O_3 
REMARK    2  A    between atoms: O_3  and  C_4 
REMARK    3  A    between atoms: C_6  and  N_7 
REMARK       I    between atoms: N_7  and  C_8 
REMARK    4  A    between atoms: C_8  and  C_10 
REMARK    5  A    between atoms: C_10  and  N_11 
ROOT
HETATM    1  C   UNL     1     -46.362 -50.845  17.212  1.00  0.00     0.133 C 
HETATM    2  C   UNL     1     -45.445 -51.894  17.899  1.00  0.00     0.059 C 
HETATM    3  C   UNL     1     -45.488 -52.692  16.579  1.00  0.00     0.098 C 
HETATM    4  C   UNL     1     -45.729 -51.322  15.838  1.00  0.00     0.006 C 
HETATM    5  C   UNL     1     -46.743 -51.369  14.685  1.00  0.00     0.014 C 
HETATM    6  C   UNL     1     -46.092 -51.900  13.411  1.00  0.00     0.001 C 
HETATM    7  C   UNL     1     -44.888 -51.055  13.007  1.00  0.00     0.000 C 
HETATM    8  C   UNL     1     -43.870 -50.964  14.138  1.00  0.00     0.001 C 
HETATM    9  C   UNL     1     -44.502 -50.471  15.440  1.00  0.00     0.014 C 
ENDROOT
BRANCH   3  10
HETATM   10  N   UNL     1     -44.241 -53.411  16.264  1.00  0.00    -0.354 N 
HETATM   11  C   UNL     1     -44.219 -54.501  15.410  1.00  0.00     0.236 C 
HETATM   12  O   UNL     1     -45.220 -54.963  14.868  1.00  0.00    -0.272 OA
HETATM   13  H   UNL     1     -43.404 -53.265  16.824  1.00  0.00     0.162 HD
BRANCH  11  14
HETATM   14  C   UNL     1     -42.843 -55.133  15.228  1.00  0.00     0.234 C 
BRANCH  14  15
HETATM   15  N   UNL     1     -41.932 -54.195  14.581  1.00  0.00    -0.316 N 
HETATM   16  C   UNL     1     -41.923 -54.086  13.202  1.00  0.00     0.095 A 
HETATM   17  C   UNL     1     -41.107 -53.228  12.585  1.00  0.00     0.017 A 
HETATM   18  C   UNL     1     -40.228 -52.388  13.356  1.00  0.00     0.007 A 
HETATM   19  C   UNL     1     -40.186 -52.493  14.688  1.00  0.00     0.074 A 
HETATM   20  C   UNL     1     -41.063 -53.471  15.391  1.00  0.00     0.247 A 
HETATM   21  O   UNL     1     -40.986 -53.605  16.612  1.00  0.00    -0.268 OA
ENDBRANCH  14  15
ENDBRANCH  11  14
ENDBRANCH   3  10
BRANCH   1  22
HETATM   22  O   UNL     1     -47.791 -51.053  17.358  1.00  0.00    -0.385 OA
BRANCH  22  23
HETATM   23  C   UNL     1     -48.381 -50.635  18.586  1.00  0.00     0.163 C 
HETATM   24  C   UNL     1     -48.263 -49.127  18.705  1.00  0.00     0.033 C 
ENDBRANCH  22  23
ENDBRANCH   1  22
TORSDOF 5
ENDMDL
MODEL 5
REMARK VINA RESULT:      -5.4      2.776      3.881
REMARK  5 active torsions:
REMARK  status: ('A' for Active; 'I' for Inactive)
REMARK    1  A    between atoms: C_2  and  O_3 
REMARK    2  A    between atoms: O_3  and  C_4 
REMARK    3  A    between atoms: C_6  and  N_7 
REMARK       I    between atoms: N_7  and  C_8 
REMARK    4  A    between atoms: C_8  and  C_10 
REMARK    5  A    between atoms: C_10  and  N_11 
ROOT
HETATM    1  C   UNL     1     -40.152 -47.239  12.355  1.00  0.00     0.133 C 
HETATM    2  C   UNL     1     -41.580 -47.737  12.708  1.00  0.00     0.059 C 
HETATM    3  C   UNL     1     -41.087 -49.163  12.385  1.00  0.00     0.098 C 
HETATM    4  C   UNL     1     -39.640 -48.678  12.782  1.00  0.00     0.006 C 
HETATM    5  C   UNL     1     -38.504 -49.209  11.895  1.00  0.00     0.014 C 
HETATM    6  C   UNL     1     -38.105 -50.622  12.311  1.00  0.00     0.001 C 
HETATM    7  C   UNL     1     -37.683 -50.672  13.777  1.00  0.00     0.000 C 
HETATM    8  C   UNL     1     -38.778 -50.129  14.688  1.00  0.00     0.001 C 
HETATM    9  C   UNL     1     -39.227 -48.728  14.270  1.00  0.00     0.014 C 
ENDROOT
BRANCH   3  10
HETATM   10  N   UNL     1     -41.691 -50.216  13.219  1.00  0.00    -0.354 N 
HETATM   11  C   UNL     1     -41.793 -51.527  12.784  1.00  0.00     0.236 C 
HETATM   12  O   UNL     1     -41.414 -51.911  11.681  1.00  0.00    -0.272 OA
HETATM   13  H   UNL     1     -42.238 -49.975  14.042  1.00  0.00     0.162 HD
BRANCH  11  14
HETATM   14  C   UNL     1     -42.473 -52.470  13.772  1.00  0.00     0.234 C 
BRANCH  14  15
HETATM   15  N   UNL     1     -43.892 -52.154  13.886  1.00  0.00    -0.316 N 
HETATM   16  C   UNL     1     -44.341 -51.373  14.937  1.00  0.00     0.095 A 
HETATM   17  C   UNL     1     -45.633 -51.060  15.058  1.00  0.00     0.017 A 
HETATM   18  C   UNL     1     -46.583 -51.525  14.081  1.00  0.00     0.007 A 
HETATM   19  C   UNL     1     -46.189 -52.310  13.073  1.00  0.00     0.074 A 
HETATM   20  C   UNL     1     -44.757 -52.700  12.942  1.00  0.00     0.247 A 
HETATM   21  O   UNL     1     -44.403 -53.466  12.046  1.00  0.00    -0.268 OA
ENDBRANCH  14  15
ENDBRANCH  11  14
ENDBRANCH   3  10
BRANCH   1  22
HETATM   22  O   UNL     1     -39.927 -46.872  10.968  1.00  0.00    -0.385 OA
BRANCH  22  23
HETATM   23  C   UNL     1     -40.114 -45.502  10.626  1.00  0.00     0.163 C 
HETATM   24  C   UNL     1     -39.571 -44.632  11.745  1.00  0.00     0.033 C 
ENDBRANCH  22  23
ENDBRANCH   1  22
TORSDOF 5
ENDMDL
MODEL 6
REMARK VINA RESULT:      -5.3      2.302      6.686
REMARK  5 active torsions:
REMARK  status: ('A' for Active; 'I' for Inactive)
REMARK    1  A    between atoms: C_2  and  O_3 
REMARK    2  A    between atoms: O_3  and  C_4 
REMARK    3  A    between atoms: C_6  and  N_7 
REMARK       I    between atoms: N_7  and  C_8 
REMARK    4  A    between atoms: C_8  and  C_10 
REMARK    5  A    between atoms: C_10  and  N_11 
ROOT
HETATM    1  C   UNL     1     -44.649 -52.364  13.578  1.00  0.00     0.133 C 
HETATM    2  C   UNL     1     -44.417 -50.828  13.593  1.00  0.00     0.059 C 
HETATM    3  C   UNL     1     -43.104 -51.104  14.355  1.00  0.00     0.098 C 
HETATM    4  C   UNL     1     -43.071 -52.513  13.648  1.00  0.00     0.006 C 
HETATM    5  C   UNL     1     -42.609 -53.680  14.534  1.00  0.00     0.014 C 
HETATM    6  C   UNL     1     -41.086 -53.728  14.617  1.00  0.00     0.001 C 
HETATM    7  C   UNL     1     -40.456 -53.848  13.233  1.00  0.00     0.000 C 
HETATM    8  C   UNL     1     -40.912 -52.719  12.316  1.00  0.00     0.001 C 
HETATM    9  C   UNL     1     -42.437 -52.621  12.244  1.00  0.00     0.014 C 
ENDROOT
BRANCH   3  10
HETATM   10  N   UNL     1     -42.010 -50.171  14.034  1.00  0.00    -0.354 N 
HETATM   11  C   UNL     1     -41.106 -49.744  14.992  1.00  0.00     0.236 C 
HETATM   12  O   UNL     1     -41.149 -50.087  16.171  1.00  0.00    -0.272 OA
HETATM   13  H   UNL     1     -42.014 -49.650  13.160  1.00  0.00     0.162 HD
BRANCH  11  14
HETATM   14  C   UNL     1     -40.061 -48.757  14.481  1.00  0.00     0.234 C 
BRANCH  14  15
HETATM   15  N   UNL     1     -39.121 -49.426  13.588  1.00  0.00    -0.316 N 
HETATM   16  C   UNL     1     -38.401 -50.518  14.042  1.00  0.00     0.095 A 
HETATM   17  C   UNL     1     -37.542 -51.155  13.243  1.00  0.00     0.017 A 
HETATM   18  C   UNL     1     -37.361 -50.717  11.883  1.00  0.00     0.007 A 
HETATM   19  C   UNL     1     -38.014 -49.645  11.424  1.00  0.00     0.074 A 
HETATM   20  C   UNL     1     -38.950 -48.900  12.312  1.00  0.00     0.247 A 
HETATM   21  O   UNL     1     -39.510 -47.882  11.906  1.00  0.00    -0.268 OA
ENDBRANCH  14  15
ENDBRANCH  11  14
ENDBRANCH   3  10
BRANCH   1  22
HETATM   22  O   UNL     1     -45.388 -52.911  14.702  1.00  0.00    -0.385 OA
BRANCH  22  23
HETATM   23  C   UNL     1     -46.804 -52.758  14.677  1.00  0.00     0.163 C 
HETATM   24  C   UNL     1     -47.215 -51.757  15.741  1.00  0.00     0.033 C 
ENDBRANCH  22  23
ENDBRANCH   1  22
TORSDOF 5
ENDMDL
MODEL 7
REMARK VINA RESULT:      -5.2      2.635      3.647
REMARK  5 active torsions:
REMARK  status: ('A' for Active; 'I' for Inactive)
REMARK    1  A    between atoms: C_2  and  O_3 
REMARK    2  A    between atoms: O_3  and  C_4 
REMARK    3  A    between atoms: C_6  and  N_7 
REMARK       I    between atoms: N_7  and  C_8 
REMARK    4  A    between atoms: C_8  and  C_10 
REMARK    5  A    between atoms: C_10  and  N_11 
ROOT
HETATM    1  C   UNL     1     -39.801 -49.477  11.662  1.00  0.00     0.133 C 
HETATM    2  C   UNL     1     -40.648 -50.764  11.861  1.00  0.00     0.059 C 
HETATM    3  C   UNL     1     -41.657 -49.894  12.640  1.00  0.00     0.098 C 
HETATM    4  C   UNL     1     -41.161 -48.670  11.780  1.00  0.00     0.006 C 
HETATM    5  C   UNL     1     -41.019 -47.345  12.545  1.00  0.00     0.014 C 
HETATM    6  C   UNL     1     -42.371 -46.651  12.686  1.00  0.00     0.001 C 
HETATM    7  C   UNL     1     -43.010 -46.395  11.325  1.00  0.00     0.000 C 
HETATM    8  C   UNL     1     -43.144 -47.686  10.524  1.00  0.00     0.001 C 
HETATM    9  C   UNL     1     -41.811 -48.425  10.400  1.00  0.00     0.014 C 
ENDROOT
BRANCH   3  10
HETATM   10  N   UNL     1     -43.063 -50.301  12.473  1.00  0.00    -0.354 N 
HETATM   11  C   UNL     1     -43.880 -50.576  13.557  1.00  0.00     0.236 C 
HETATM   12  O   UNL     1     -43.505 -50.521  14.725  1.00  0.00    -0.272 OA
HETATM   13  H   UNL     1     -43.412 -50.599  11.565  1.00  0.00     0.162 HD
BRANCH  11  14
HETATM   14  C   UNL     1     -45.296 -51.010  13.188  1.00  0.00     0.234 C 
BRANCH  14  15
HETATM   15  N   UNL     1     -45.507 -52.410  13.537  1.00  0.00    -0.316 N 
HETATM   16  C   UNL     1     -44.806 -53.398  12.869  1.00  0.00     0.095 A 
HETATM   17  C   UNL     1     -44.973 -54.687  13.176  1.00  0.00     0.017 A 
HETATM   18  C   UNL     1     -45.884 -55.067  14.225  1.00  0.00     0.007 A 
HETATM   19  C   UNL     1     -46.603 -54.140  14.866  1.00  0.00     0.074 A 
HETATM   20  C   UNL     1     -46.456 -52.700  14.512  1.00  0.00     0.247 A 
HETATM   21  O   UNL     1     -47.157 -51.852  15.065  1.00  0.00    -0.268 OA
ENDBRANCH  14  15
ENDBRANCH  11  14
ENDBRANCH   3  10
BRANCH   1  22
HETATM   22  O   UNL     1     -38.808 -49.199  12.684  1.00  0.00    -0.385 OA
BRANCH  22  23
HETATM   23  C   UNL     1     -37.501 -49.725  12.472  1.00  0.00     0.163 C 
HETATM   24  C   UNL     1     -37.309 -49.995  10.992  1.00  0.00     0.033 C 
ENDBRANCH  22  23
ENDBRANCH   1  22
TORSDOF 5
ENDMDL
MODEL 8
REMARK VINA RESULT:      -5.2      1.898      6.448
REMARK  5 active torsions:
REMARK  status: ('A' for Active; 'I' for Inactive)
REMARK    1  A    between atoms: C_2  and  O_3 
REMARK    2  A    between atoms: O_3  and  C_4 
REMARK    3  A    between atoms: C_6  and  N_7 
REMARK       I    between atoms: N_7  and  C_8 
REMARK    4  A    between atoms: C_8  and  C_10 
REMARK    5  A    between atoms: C_10  and  N_11 
ROOT
HETATM    1  C   UNL     1     -45.206 -54.584  14.884  1.00  0.00     0.133 C 
HETATM    2  C   UNL     1     -44.945 -54.331  13.374  1.00  0.00     0.059 C 
HETATM    3  C   UNL     1     -43.917 -53.263  13.803  1.00  0.00     0.098 C 
HETATM    4  C   UNL     1     -43.722 -54.085  15.134  1.00  0.00     0.006 C 
HETATM    5  C   UNL     1     -43.569 -53.242  16.409  1.00  0.00     0.014 C 
HETATM    6  C   UNL     1     -42.138 -52.734  16.556  1.00  0.00     0.001 C 
HETATM    7  C   UNL     1     -41.138 -53.887  16.576  1.00  0.00     0.000 C 
HETATM    8  C   UNL     1     -41.277 -54.762  15.335  1.00  0.00     0.001 C 
HETATM    9  C   UNL     1     -42.711 -55.254  15.139  1.00  0.00     0.014 C 
ENDROOT
BRANCH   3  10
HETATM   10  N   UNL     1     -42.751 -53.152  12.910  1.00  0.00    -0.354 N 
HETATM   11  C   UNL     1     -42.063 -51.961  12.748  1.00  0.00     0.236 C 
HETATM   12  O   UNL     1     -42.370 -50.913  13.311  1.00  0.00    -0.272 OA
HETATM   13  H   UNL     1     -42.548 -53.880  12.229  1.00  0.00     0.162 HD
BRANCH  11  14
HETATM   14  C   UNL     1     -40.901 -52.031  11.761  1.00  0.00     0.234 C 
BRANCH  14  15
HETATM   15  N   UNL     1     -39.834 -51.122  12.164  1.00  0.00    -0.316 N 
HETATM   16  C   UNL     1     -39.735 -49.874  11.574  1.00  0.00     0.095 A 
HETATM   17  C   UNL     1     -38.774 -49.019  11.932  1.00  0.00     0.017 A 
HETATM   18  C   UNL     1     -37.828 -49.383  12.954  1.00  0.00     0.007 A 
HETATM   19  C   UNL     1     -37.874 -50.593  13.520  1.00  0.00     0.074 A 
HETATM   20  C   UNL     1     -38.917 -51.574  13.107  1.00  0.00     0.247 A 
HETATM   21  O   UNL     1     -38.926 -52.707  13.588  1.00  0.00    -0.268 OA
ENDBRANCH  14  15
ENDBRANCH  11  14
ENDBRANCH   3  10
BRANCH   1  22
HETATM   22  O   UNL     1     -46.255 -53.787  15.494  1.00  0.00    -0.385 OA
BRANCH  22  23
HETATM   23  C   UNL     1     -47.038 -52.977  14.622  1.00  0.00     0.163 C 
HETATM   24  C   UNL     1     -46.893 -51.523  15.031  1.00  0.00     0.033 C 
ENDBRANCH  22  23
ENDBRANCH   1  22
TORSDOF 5
ENDMDL
MODEL 9
REMARK VINA RESULT:      -5.2      2.108      6.692
REMARK  5 active torsions:
REMARK  status: ('A' for Active; 'I' for Inactive)
REMARK    1  A    between atoms: C_2  and  O_3 
REMARK    2  A    between atoms: O_3  and  C_4 
REMARK    3  A    between atoms: C_6  and  N_7 
REMARK       I    between atoms: N_7  and  C_8 
REMARK    4  A    between atoms: C_8  and  C_10 
REMARK    5  A    between atoms: C_10  and  N_11 
ROOT
HETATM    1  C   UNL     1     -46.396 -52.899  14.358  1.00  0.00     0.133 C 
HETATM    2  C   UNL     1     -46.260 -51.707  13.371  1.00  0.00     0.059 C 
HETATM    3  C   UNL     1     -44.829 -51.513  13.912  1.00  0.00     0.098 C 
HETATM    4  C   UNL     1     -44.821 -53.053  14.250  1.00  0.00     0.006 C 
HETATM    5  C   UNL     1     -44.153 -53.429  15.582  1.00  0.00     0.014 C 
HETATM    6  C   UNL     1     -42.636 -53.492  15.429  1.00  0.00     0.001 C 
HETATM    7  C   UNL     1     -42.226 -54.487  14.347  1.00  0.00     0.000 C 
HETATM    8  C   UNL     1     -42.891 -54.160  13.014  1.00  0.00     0.001 C 
HETATM    9  C   UNL     1     -44.411 -54.050  13.144  1.00  0.00     0.014 C 
ENDROOT
BRANCH   3  10
HETATM   10  N   UNL     1     -43.859 -51.046  12.906  1.00  0.00    -0.354 N 
HETATM   11  C   UNL     1     -42.696 -50.383  13.262  1.00  0.00     0.236 C 
HETATM   12  O   UNL     1     -42.388 -50.119  14.421  1.00  0.00    -0.272 OA
HETATM   13  H   UNL     1     -44.113 -51.004  11.922  1.00  0.00     0.162 HD
BRANCH  11  14
HETATM   14  C   UNL     1     -41.829 -49.950  12.083  1.00  0.00     0.234 C 
BRANCH  14  15
HETATM   15  N   UNL     1     -40.428 -49.869  12.482  1.00  0.00    -0.316 N 
HETATM   16  C   UNL     1     -39.861 -48.636  12.751  1.00  0.00     0.095 A 
HETATM   17  C   UNL     1     -38.585 -48.534  13.129  1.00  0.00     0.017 A 
HETATM   18  C   UNL     1     -37.778 -49.718  13.273  1.00  0.00     0.007 A 
HETATM   19  C   UNL     1     -38.285 -50.922  12.988  1.00  0.00     0.074 A 
HETATM   20  C   UNL     1     -39.697 -51.051  12.530  1.00  0.00     0.247 A 
HETATM   21  O   UNL     1     -40.147 -52.153  12.215  1.00  0.00    -0.268 OA
ENDBRANCH  14  15
ENDBRANCH  11  14
ENDBRANCH   3  10
BRANCH   1  22
HETATM   22  O   UNL     1     -46.913 -52.581  15.677  1.00  0.00    -0.385 OA
BRANCH  22  23
HETATM   23  C   UNL     1     -47.473 -51.283  15.853  1.00  0.00     0.163 C 
HETATM   24  C   UNL     1     -48.081 -51.188  17.240  1.00  0.00     0.033 C 
ENDBRANCH  22  23
ENDBRANCH   1  22
TORSDOF 5
ENDMDL
