MODEL 1
REMARK VINA RESULT:      -5.7      0.000      0.000
REMARK  6 active torsions:
REMARK  status: ('A' for Active; 'I' for Inactive)
REMARK    1  A    between atoms: N_6  and  C_7 
REMARK    2  A    between atoms: C_7  and  C_8 
REMARK    3  A    between atoms: C_8  and  N_9 
REMARK    4  A    between atoms: N_9  and  C_10 
REMARK    5  A    between atoms: C_10  and  C_11 
REMARK    6  A    between atoms: C_11  and  N_12 
ROOT
HETATM    1  N   UNL     1     -42.523 -49.959  11.812  1.00  0.00     0.086 N 
HETATM    2  H   UNL     1     -43.105 -50.325  11.057  1.00  0.00     0.316 HD
ENDROOT
BRANCH   1   3
HETATM    3  C   UNL     1     -41.390 -49.222  11.225  1.00  0.00     0.291 C 
BRANCH   3   4
HETATM    4  C   UNL     1     -41.684 -47.774  10.816  1.00  0.00     0.178 C 
BRANCH   4   5
HETATM    5  N   UNL     1     -42.844 -47.696   9.950  1.00  0.00    -0.302 N 
HETATM    6  N   UNL     1     -42.727 -47.957   8.637  1.00  0.00    -0.310 N 
HETATM    7  C   UNL     1     -43.964 -47.770   8.171  1.00  0.00     0.115 A 
ATOM      8  HN  UNL     1     -41.892 -48.232   8.119  1.00  0.00     0.186 HD
HETATM    9  C   UNL     1     -44.881 -47.399   9.183  1.00  0.00    -0.028 A 
HETATM   10  C   UNL     1     -46.325 -47.115   9.048  1.00  0.00     0.051 C 
HETATM   11  C   UNL     1     -44.113 -47.362  10.327  1.00  0.00     0.118 A 
ENDBRANCH   4   5
ENDBRANCH   3   4
ENDBRANCH   1   3
BRANCH   1  12
HETATM   12  C   UNL     1     -42.121 -51.073  12.678  1.00  0.00     0.289 C 
BRANCH  12  13
HETATM   13  C   UNL     1     -43.064 -52.296  12.656  1.00  0.00     0.155 C 
BRANCH  13  14
HETATM   14  N   UNL     1     -44.232 -52.086  13.497  1.00  0.00    -0.350 N 
HETATM   15  C   UNL     1     -44.196 -51.200  14.629  1.00  0.00     0.126 C 
HETATM   16  C   UNL     1     -45.636 -51.114  15.097  1.00  0.00     0.029 C 
HETATM   17  C   UNL     1     -46.480 -51.588  13.921  1.00  0.00     0.104 C 
HETATM   18  C   UNL     1     -45.511 -52.312  13.027  1.00  0.00     0.219 C 
HETATM   19  O   UNL     1     -45.811 -52.918  12.008  1.00  0.00    -0.273 OA
ENDBRANCH  13  14
ENDBRANCH  12  13
ENDBRANCH   1  12
TORSDOF 6
ENDMDL
MODEL 2
REMARK VINA RESULT:      -5.5      2.100      2.351
REMARK  6 active torsions:
REMARK  status: ('A' for Active; 'I' for Inactive)
REMARK    1  A    between atoms: N_6  and  C_7 
REMARK    2  A    between atoms: C_7  and  C_8 
REMARK    3  A    between atoms: C_8  and  N_9 
REMARK    4  A    between atoms: N_9  and  C_10 
REMARK    5  A    between atoms: C_10  and  C_11 
REMARK    6  A    between atoms: C_11  and  N_12 
ROOT
HETATM    1  N   UNL     1     -42.581 -50.232  11.957  1.00  0.00     0.086 N 
HETATM    2  H   UNL     1     -42.637 -50.519  10.978  1.00  0.00     0.316 HD
ENDROOT
BRANCH   1   3
HETATM    3  C   UNL     1     -42.133 -48.829  12.016  1.00  0.00     0.291 C 
BRANCH   3   4
HETATM    4  C   UNL     1     -41.697 -48.218  10.679  1.00  0.00     0.178 C 
BRANCH   4   5
HETATM    5  N   UNL     1     -42.839 -47.908   9.842  1.00  0.00    -0.302 N 
HETATM    6  N   UNL     1     -42.740 -47.995   8.505  1.00  0.00    -0.310 N 
HETATM    7  C   UNL     1     -43.951 -47.626   8.079  1.00  0.00     0.115 A 
ATOM      8  HN  UNL     1     -41.933 -48.275   7.947  1.00  0.00     0.186 HD
HETATM    9  C   UNL     1     -44.832 -47.312   9.140  1.00  0.00    -0.028 A 
HETATM   10  C   UNL     1     -46.242 -46.874   9.057  1.00  0.00     0.051 C 
HETATM   11  C   UNL     1     -44.071 -47.508  10.272  1.00  0.00     0.118 A 
ENDBRANCH   4   5
ENDBRANCH   3   4
ENDBRANCH   1   3
BRANCH   1  12
HETATM   12  C   UNL     1     -41.702 -51.165  12.671  1.00  0.00     0.289 C 
BRANCH  12  13
HETATM   13  C   UNL     1     -41.847 -52.647  12.263  1.00  0.00     0.155 C 
BRANCH  13  14
HETATM   14  N   UNL     1     -42.844 -53.330  13.072  1.00  0.00    -0.350 N 
HETATM   15  C   UNL     1     -44.163 -53.606  12.569  1.00  0.00     0.126 C 
HETATM   16  C   UNL     1     -44.802 -54.486  13.625  1.00  0.00     0.029 C 
HETATM   17  C   UNL     1     -43.649 -55.044  14.448  1.00  0.00     0.104 C 
HETATM   18  C   UNL     1     -42.484 -54.151  14.123  1.00  0.00     0.219 C 
HETATM   19  O   UNL     1     -41.381 -54.213  14.646  1.00  0.00    -0.273 OA
ENDBRANCH  13  14
ENDBRANCH  12  13
ENDBRANCH   1  12
TORSDOF 6
ENDMDL
MODEL 3
REMARK VINA RESULT:      -5.3      4.466      6.259
REMARK  6 active torsions:
REMARK  status: ('A' for Active; 'I' for Inactive)
REMARK    1  A    between atoms: N_6  and  C_7 
REMARK    2  A    between atoms: C_7  and  C_8 
REMARK    3  A    between atoms: C_8  and  N_9 
REMARK    4  A    between atoms: N_9  and  C_10 
REMARK    5  A    between atoms: C_10  and  C_11 
REMARK    6  A    between atoms: C_11  and  N_12 
ROOT
HETATM    1  N   UNL     1     -43.096 -54.007  12.603  1.00  0.00     0.086 N 
HETATM    2  H   UNL     1     -42.407 -54.702  12.312  1.00  0.00     0.316 HD
ENDROOT
BRANCH   1   3
HETATM    3  C   UNL     1     -42.465 -52.675  12.583  1.00  0.00     0.291 C 
BRANCH   3   4
HETATM    4  C   UNL     1     -40.954 -52.663  12.325  1.00  0.00     0.178 C 
BRANCH   4   5
HETATM    5  N   UNL     1     -40.224 -53.248  13.433  1.00  0.00    -0.302 N 
HETATM    6  N   UNL     1     -39.732 -54.494  13.335  1.00  0.00    -0.310 N 
HETATM    7  C   UNL     1     -39.155 -54.694  14.523  1.00  0.00     0.115 A 
ATOM      8  HN  UNL     1     -39.785 -55.135  12.543  1.00  0.00     0.186 HD
HETATM    9  C   UNL     1     -39.267 -53.576  15.382  1.00  0.00    -0.028 A 
HETATM   10  C   UNL     1     -38.753 -53.427  16.759  1.00  0.00     0.051 C 
HETATM   11  C   UNL     1     -39.969 -52.654  14.635  1.00  0.00     0.118 A 
ENDBRANCH   4   5
ENDBRANCH   3   4
ENDBRANCH   1   3
BRANCH   1  12
HETATM   12  C   UNL     1     -43.627 -54.392  13.916  1.00  0.00     0.289 C 
BRANCH  12  13
HETATM   13  C   UNL     1     -45.126 -54.761  13.936  1.00  0.00     0.155 C 
BRANCH  13  14
HETATM   14  N   UNL     1     -45.962 -53.596  14.185  1.00  0.00    -0.350 N 
HETATM   15  C   UNL     1     -46.151 -53.075  15.512  1.00  0.00     0.126 C 
HETATM   16  C   UNL     1     -46.904 -51.774  15.311  1.00  0.00     0.029 C 
HETATM   17  C   UNL     1     -46.690 -51.397  13.851  1.00  0.00     0.104 C 
HETATM   18  C   UNL     1     -46.218 -52.666  13.197  1.00  0.00     0.219 C 
HETATM   19  O   UNL     1     -46.014 -52.807  12.000  1.00  0.00    -0.273 OA
ENDBRANCH  13  14
ENDBRANCH  12  13
ENDBRANCH   1  12
TORSDOF 6
ENDMDL
MODEL 4
REMARK VINA RESULT:      -5.3      3.525      4.803
REMARK  6 active torsions:
REMARK  status: ('A' for Active; 'I' for Inactive)
REMARK    1  A    between atoms: N_6  and  C_7 
REMARK    2  A    between atoms: C_7  and  C_8 
REMARK    3  A    between atoms: C_8  and  N_9 
REMARK    4  A    between atoms: N_9  and  C_10 
REMARK    5  A    between atoms: C_10  and  C_11 
REMARK    6  A    between atoms: C_11  and  N_12 
ROOT
HETATM    1  N   UNL     1     -42.960 -53.636  14.333  1.00  0.00     0.086 N 
HETATM    2  H   UNL     1     -43.485 -52.770  14.470  1.00  0.00     0.316 HD
ENDROOT
BRANCH   1   3
HETATM    3  C   UNL     1     -42.468 -53.679  12.944  1.00  0.00     0.291 C 
BRANCH   3   4
HETATM    4  C   UNL     1     -40.947 -53.592  12.778  1.00  0.00     0.178 C 
BRANCH   4   5
HETATM    5  N   UNL     1     -40.525 -52.240  12.470  1.00  0.00    -0.302 N 
HETATM    6  N   UNL     1     -41.095 -51.569  11.454  1.00  0.00    -0.310 N 
HETATM    7  C   UNL     1     -40.455 -50.397  11.459  1.00  0.00     0.115 A 
ATOM      8  HN  UNL     1     -41.838 -51.881  10.829  1.00  0.00     0.186 HD
HETATM    9  C   UNL     1     -39.482 -50.307  12.482  1.00  0.00    -0.028 A 
HETATM   10  C   UNL     1     -38.589 -49.172  12.796  1.00  0.00     0.051 C 
HETATM   11  C   UNL     1     -39.558 -51.527  13.119  1.00  0.00     0.118 A 
ENDBRANCH   4   5
ENDBRANCH   3   4
ENDBRANCH   1   3
BRANCH   1  12
HETATM   12  C   UNL     1     -43.819 -54.770  14.693  1.00  0.00     0.289 C 
BRANCH  12  13
HETATM   13  C   UNL     1     -45.153 -54.854  13.918  1.00  0.00     0.155 C 
BRANCH  13  14
HETATM   14  N   UNL     1     -45.985 -53.685  14.156  1.00  0.00    -0.350 N 
HETATM   15  C   UNL     1     -46.255 -53.210  15.486  1.00  0.00     0.126 C 
HETATM   16  C   UNL     1     -46.973 -51.890  15.286  1.00  0.00     0.029 C 
HETATM   17  C   UNL     1     -46.657 -51.463  13.858  1.00  0.00     0.104 C 
HETATM   18  C   UNL     1     -46.162 -52.715  13.189  1.00  0.00     0.219 C 
HETATM   19  O   UNL     1     -45.880 -52.816  12.004  1.00  0.00    -0.273 OA
ENDBRANCH  13  14
ENDBRANCH  12  13
ENDBRANCH   1  12
TORSDOF 6
ENDMDL
MODEL 5
REMARK VINA RESULT:      -5.3      1.887      2.715
REMARK  6 active torsions:
REMARK  status: ('A' for Active; 'I' for Inactive)
REMARK    1  A    between atoms: N_6  and  C_7 
REMARK    2  A    between atoms: C_7  and  C_8 
REMARK    3  A    between atoms: C_8  and  N_9 
REMARK    4  A    between atoms: N_9  and  C_10 
REMARK    5  A    between atoms: C_10  and  C_11 
REMARK    6  A    between atoms: C_11  and  N_12 
ROOT
HETATM    1  N   UNL     1     -42.475 -52.087  11.883  1.00  0.00     0.086 N 
HETATM    2  H   UNL     1     -41.924 -52.418  11.089  1.00  0.00     0.316 HD
ENDROOT
BRANCH   1   3
HETATM    3  C   UNL     1     -41.830 -50.884  12.440  1.00  0.00     0.291 C 
BRANCH   3   4
HETATM    4  C   UNL     1     -40.689 -50.297  11.601  1.00  0.00     0.178 C 
BRANCH   4   5
HETATM    5  N   UNL     1     -40.986 -48.941  11.182  1.00  0.00    -0.302 N 
HETATM    6  N   UNL     1     -42.078 -48.686  10.442  1.00  0.00    -0.310 N 
HETATM    7  C   UNL     1     -42.013 -47.368  10.237  1.00  0.00     0.115 A 
ATOM      8  HN  UNL     1     -42.788 -49.342  10.115  1.00  0.00     0.186 HD
HETATM    9  C   UNL     1     -40.887 -46.772  10.851  1.00  0.00    -0.028 A 
HETATM   10  C   UNL     1     -40.489 -45.348  10.846  1.00  0.00     0.051 C 
HETATM   11  C   UNL     1     -40.243 -47.829  11.458  1.00  0.00     0.118 A 
ENDBRANCH   4   5
ENDBRANCH   3   4
ENDBRANCH   1   3
BRANCH   1  12
HETATM   12  C   UNL     1     -42.617 -53.184  12.847  1.00  0.00     0.289 C 
BRANCH  12  13
HETATM   13  C   UNL     1     -43.988 -53.894  12.837  1.00  0.00     0.155 C 
BRANCH  13  14
HETATM   14  N   UNL     1     -44.995 -53.124  13.552  1.00  0.00    -0.350 N 
HETATM   15  C   UNL     1     -44.743 -52.589  14.863  1.00  0.00     0.126 C 
HETATM   16  C   UNL     1     -45.941 -51.708  15.156  1.00  0.00     0.029 C 
HETATM   17  C   UNL     1     -46.583 -51.424  13.804  1.00  0.00     0.104 C 
HETATM   18  C   UNL     1     -46.012 -52.469  12.886  1.00  0.00     0.219 C 
HETATM   19  O   UNL     1     -46.340 -52.638  11.721  1.00  0.00    -0.273 OA
ENDBRANCH  13  14
ENDBRANCH  12  13
ENDBRANCH   1  12
TORSDOF 6
ENDMDL
MODEL 6
REMARK VINA RESULT:      -5.2      4.409      6.366
REMARK  6 active torsions:
REMARK  status: ('A' for Active; 'I' for Inactive)
REMARK    1  A    between atoms: N_6  and  C_7 
REMARK    2  A    between atoms: C_7  and  C_8 
REMARK    3  A    between atoms: C_8  and  N_9 
REMARK    4  A    between atoms: N_9  and  C_10 
REMARK    5  A    between atoms: C_10  and  C_11 
REMARK    6  A    between atoms: C_11  and  N_12 
ROOT
HETATM    1  N   UNL     1     -40.821 -53.067  14.317  1.00  0.00     0.086 N 
HETATM    2  H   UNL     1     -41.077 -53.801  14.979  1.00  0.00     0.316 HD
ENDROOT
BRANCH   1   3
HETATM    3  C   UNL     1     -41.596 -53.254  13.077  1.00  0.00     0.291 C 
BRANCH   3   4
HETATM    4  C   UNL     1     -42.349 -52.017  12.575  1.00  0.00     0.178 C 
BRANCH   4   5
HETATM    5  N   UNL     1     -43.762 -52.094  12.893  1.00  0.00    -0.302 N 
HETATM    6  N   UNL     1     -44.583 -52.849  12.143  1.00  0.00    -0.310 N 
HETATM    7  C   UNL     1     -45.778 -52.664  12.709  1.00  0.00     0.115 A 
ATOM      8  HN  UNL     1     -44.349 -53.426  11.335  1.00  0.00     0.186 HD
HETATM    9  C   UNL     1     -45.727 -51.799  13.827  1.00  0.00    -0.028 A 
HETATM   10  C   UNL     1     -46.839 -51.367  14.700  1.00  0.00     0.051 C 
HETATM   11  C   UNL     1     -44.396 -51.450  13.915  1.00  0.00     0.118 A 
ENDBRANCH   4   5
ENDBRANCH   3   4
ENDBRANCH   1   3
BRANCH   1  12
HETATM   12  C   UNL     1     -39.367 -53.099  14.118  1.00  0.00     0.289 C 
BRANCH  12  13
HETATM   13  C   UNL     1     -38.637 -51.766  14.392  1.00  0.00     0.155 C 
BRANCH  13  14
HETATM   14  N   UNL     1     -38.646 -50.900  13.223  1.00  0.00    -0.350 N 
HETATM   15  C   UNL     1     -39.395 -49.673  13.200  1.00  0.00     0.126 C 
HETATM   16  C   UNL     1     -38.981 -48.993  11.909  1.00  0.00     0.029 C 
HETATM   17  C   UNL     1     -37.671 -49.652  11.499  1.00  0.00     0.104 C 
HETATM   18  C   UNL     1     -37.622 -50.926  12.296  1.00  0.00     0.219 C 
HETATM   19  O   UNL     1     -36.762 -51.789  12.194  1.00  0.00    -0.273 OA
ENDBRANCH  13  14
ENDBRANCH  12  13
ENDBRANCH   1  12
TORSDOF 6
ENDMDL
MODEL 7
REMARK VINA RESULT:      -5.1      2.763      3.708
REMARK  6 active torsions:
REMARK  status: ('A' for Active; 'I' for Inactive)
REMARK    1  A    between atoms: N_6  and  C_7 
REMARK    2  A    between atoms: C_7  and  C_8 
REMARK    3  A    between atoms: C_8  and  N_9 
REMARK    4  A    between atoms: N_9  and  C_10 
REMARK    5  A    between atoms: C_10  and  C_11 
REMARK    6  A    between atoms: C_11  and  N_12 
ROOT
HETATM    1  N   UNL     1     -40.851 -51.219  11.063  1.00  0.00     0.086 N 
HETATM    2  H   UNL     1     -39.915 -51.425  10.710  1.00  0.00     0.316 HD
ENDROOT
BRANCH   1   3
HETATM    3  C   UNL     1     -40.813 -49.938  11.791  1.00  0.00     0.291 C 
BRANCH   3   4
HETATM    4  C   UNL     1     -41.549 -48.773  11.119  1.00  0.00     0.178 C 
BRANCH   4   5
HETATM    5  N   UNL     1     -40.869 -47.514  11.350  1.00  0.00    -0.302 N 
HETATM    6  N   UNL     1     -40.668 -46.657  10.335  1.00  0.00    -0.310 N 
HETATM    7  C   UNL     1     -40.012 -45.645  10.908  1.00  0.00     0.115 A 
ATOM      8  HN  UNL     1     -40.950 -46.756   9.359  1.00  0.00     0.186 HD
HETATM    9  C   UNL     1     -39.799 -45.844  12.292  1.00  0.00    -0.028 A 
HETATM   10  C   UNL     1     -39.119 -44.946  13.249  1.00  0.00     0.051 C 
HETATM   11  C   UNL     1     -40.372 -47.072  12.543  1.00  0.00     0.118 A 
ENDBRANCH   4   5
ENDBRANCH   3   4
ENDBRANCH   1   3
BRANCH   1  12
HETATM   12  C   UNL     1     -41.308 -52.351  11.877  1.00  0.00     0.289 C 
BRANCH  12  13
HETATM   13  C   UNL     1     -42.606 -52.104  12.676  1.00  0.00     0.155 C 
BRANCH  13  14
HETATM   14  N   UNL     1     -43.147 -53.342  13.215  1.00  0.00    -0.350 N 
HETATM   15  C   UNL     1     -42.583 -53.966  14.381  1.00  0.00     0.126 C 
HETATM   16  C   UNL     1     -43.542 -55.092  14.716  1.00  0.00     0.029 C 
HETATM   17  C   UNL     1     -44.842 -54.753  13.999  1.00  0.00     0.104 C 
HETATM   18  C   UNL     1     -44.451 -53.727  12.972  1.00  0.00     0.219 C 
HETATM   19  O   UNL     1     -45.199 -53.255  12.128  1.00  0.00    -0.273 OA
ENDBRANCH  13  14
ENDBRANCH  12  13
ENDBRANCH   1  12
TORSDOF 6
ENDMDL
MODEL 8
REMARK VINA RESULT:      -5.0      3.964      6.366
REMARK  6 active torsions:
REMARK  status: ('A' for Active; 'I' for Inactive)
REMARK    1  A    between atoms: N_6  and  C_7 
REMARK    2  A    between atoms: C_7  and  C_8 
REMARK    3  A    between atoms: C_8  and  N_9 
REMARK    4  A    between atoms: N_9  and  C_10 
REMARK    5  A    between atoms: C_10  and  C_11 
REMARK    6  A    between atoms: C_11  and  N_12 
ROOT
HETATM    1  N   UNL     1     -40.967 -51.607  11.399  1.00  0.00     0.086 N 
HETATM    2  H   UNL     1     -41.260 -51.596  10.421  1.00  0.00     0.316 HD
ENDROOT
BRANCH   1   3
HETATM    3  C   UNL     1     -42.069 -52.141  12.220  1.00  0.00     0.291 C 
BRANCH   3   4
HETATM    4  C   UNL     1     -42.538 -51.236  13.365  1.00  0.00     0.178 C 
BRANCH   4   5
HETATM    5  N   UNL     1     -43.967 -51.355  13.580  1.00  0.00    -0.302 N 
HETATM    6  N   UNL     1     -44.792 -51.566  12.540  1.00  0.00    -0.310 N 
HETATM    7  C   UNL     1     -46.001 -51.600  13.106  1.00  0.00     0.115 A 
ATOM      8  HN  UNL     1     -44.552 -51.674  11.555  1.00  0.00     0.186 HD
HETATM    9  C   UNL     1     -45.956 -51.422  14.508  1.00  0.00    -0.028 A 
HETATM   10  C   UNL     1     -47.084 -51.406  15.464  1.00  0.00     0.051 C 
HETATM   11  C   UNL     1     -44.614 -51.267  14.780  1.00  0.00     0.118 A 
ENDBRANCH   4   5
ENDBRANCH   3   4
ENDBRANCH   1   3
BRANCH   1  12
HETATM   12  C   UNL     1     -40.547 -50.253  11.780  1.00  0.00     0.289 C 
BRANCH  12  13
HETATM   13  C   UNL     1     -39.089 -49.892  11.423  1.00  0.00     0.155 C 
BRANCH  13  14
HETATM   14  N   UNL     1     -38.285 -49.671  12.615  1.00  0.00    -0.350 N 
HETATM   15  C   UNL     1     -38.641 -48.676  13.589  1.00  0.00     0.126 C 
HETATM   16  C   UNL     1     -37.682 -48.905  14.742  1.00  0.00     0.029 C 
HETATM   17  C   UNL     1     -37.143 -50.316  14.554  1.00  0.00     0.104 C 
HETATM   18  C   UNL     1     -37.460 -50.656  13.124  1.00  0.00     0.219 C 
HETATM   19  O   UNL     1     -37.116 -51.679  12.549  1.00  0.00    -0.273 OA
ENDBRANCH  13  14
ENDBRANCH  12  13
ENDBRANCH   1  12
TORSDOF 6
ENDMDL
MODEL 9
REMARK VINA RESULT:      -4.8      4.043      5.419
REMARK  6 active torsions:
REMARK  status: ('A' for Active; 'I' for Inactive)
REMARK    1  A    between atoms: N_6  and  C_7 
REMARK    2  A    between atoms: C_7  and  C_8 
REMARK    3  A    between atoms: C_8  and  N_9 
REMARK    4  A    between atoms: N_9  and  C_10 
REMARK    5  A    between atoms: C_10  and  C_11 
REMARK    6  A    between atoms: C_11  and  N_12 
ROOT
HETATM    1  N   UNL     1     -42.667 -52.672  11.804  1.00  0.00     0.086 N 
HETATM    2  H   UNL     1     -42.969 -53.059  10.908  1.00  0.00     0.316 HD
ENDROOT
BRANCH   1   3
HETATM    3  C   UNL     1     -41.210 -52.458  11.763  1.00  0.00     0.291 C 
BRANCH   3   4
HETATM    4  C   UNL     1     -40.434 -52.956  12.989  1.00  0.00     0.178 C 
BRANCH   4   5
HETATM    5  N   UNL     1     -39.577 -51.919  13.528  1.00  0.00    -0.302 N 
HETATM    6  N   UNL     1     -39.039 -52.055  14.752  1.00  0.00    -0.310 N 
HETATM    7  C   UNL     1     -38.344 -50.927  14.914  1.00  0.00     0.115 A 
ATOM      8  HN  UNL     1     -39.139 -52.835  15.403  1.00  0.00     0.186 HD
HETATM    9  C   UNL     1     -38.425 -50.068  13.792  1.00  0.00    -0.028 A 
HETATM   10  C   UNL     1     -37.789 -48.747  13.606  1.00  0.00     0.051 C 
HETATM   11  C   UNL     1     -39.235 -50.750  12.910  1.00  0.00     0.118 A 
ENDBRANCH   4   5
ENDBRANCH   3   4
ENDBRANCH   1   3
BRANCH   1  12
HETATM   12  C   UNL     1     -43.104 -53.574  12.877  1.00  0.00     0.289 C 
BRANCH  12  13
HETATM   13  C   UNL     1     -44.606 -53.932  12.863  1.00  0.00     0.155 C 
BRANCH  13  14
HETATM   14  N   UNL     1     -45.370 -53.071  13.753  1.00  0.00    -0.350 N 
HETATM   15  C   UNL     1     -45.856 -51.787  13.326  1.00  0.00     0.126 C 
HETATM   16  C   UNL     1     -46.750 -51.318  14.458  1.00  0.00     0.029 C 
HETATM   17  C   UNL     1     -47.091 -52.568  15.258  1.00  0.00     0.104 C 
HETATM   18  C   UNL     1     -46.066 -53.583  14.831  1.00  0.00     0.219 C 
HETATM   19  O   UNL     1     -45.942 -54.702  15.307  1.00  0.00    -0.273 OA
ENDBRANCH  13  14
ENDBRANCH  12  13
ENDBRANCH   1  12
TORSDOF 6
ENDMDL
