MODEL 1
REMARK VINA RESULT:      -5.8      0.000      0.000
REMARK  5 active torsions:
REMARK  status: ('A' for Active; 'I' for Inactive)
REMARK    1  A    between atoms: C_2  and  C_3 
REMARK    2  A    between atoms: C_2  and  N_10 
REMARK    3  A    between atoms: C_3  and  N_4 
REMARK       I    between atoms: N_10  and  C_11 
REMARK    4  A    between atoms: C_11  and  C_13 
REMARK    5  A    between atoms: C_13  and  N_14 
ROOT
HETATM    1  N   UNL     1     -40.911 -50.338  11.471  1.00  0.00    -0.354 N 
HETATM    2  C   UNL     1     -41.731 -51.167  12.214  1.00  0.00     0.237 C 
HETATM    3  O   UNL     1     -42.583 -50.764  13.003  1.00  0.00    -0.272 OA
HETATM    4  H   UNL     1     -40.063 -50.776  11.104  1.00  0.00     0.162 HD
ENDROOT
BRANCH   1   5
HETATM    5  C   UNL     1     -40.934 -48.878  11.587  1.00  0.00     0.108 C 
HETATM    6  C   UNL     1     -39.498 -48.359  11.632  1.00  0.00     0.034 C 
BRANCH   5   7
HETATM    7  C   UNL     1     -41.743 -48.260  10.412  1.00  0.00     0.297 C 
BRANCH   7   8
HETATM    8  N   UNL     1     -43.107 -47.757  10.672  1.00  0.00     0.094 N 
HETATM    9  C   UNL     1     -43.875 -47.473   9.438  1.00  0.00     0.298 C 
HETATM   10  C   UNL     1     -43.365 -46.265   8.629  1.00  0.00     0.198 C 
HETATM   11  O   UNL     1     -43.299 -45.079   9.435  1.00  0.00    -0.388 OA
HETATM   12  C   UNL     1     -42.489 -45.294  10.598  1.00  0.00     0.198 C 
HETATM   13  C   UNL     1     -43.021 -46.478  11.431  1.00  0.00     0.298 C 
ENDBRANCH   7   8
ENDBRANCH   5   7
ENDBRANCH   1   5
BRANCH   2  14
HETATM   14  C   UNL     1     -41.534 -52.638  11.935  1.00  0.00     0.251 C 
BRANCH  14  15
HETATM   15  N   UNL     1     -42.282 -53.421  12.894  1.00  0.00    -0.288 N 
HETATM   16  N   UNL     1     -43.588 -53.662  12.648  1.00  0.00    -0.303 N 
HETATM   17  C   UNL     1     -43.960 -54.479  13.641  1.00  0.00     0.024 A 
ATOM     18  HN  UNL     1     -44.160 -53.304  11.883  1.00  0.00     0.186 HD
HETATM   19  C   UNL     1     -45.349 -54.991  13.718  1.00  0.00     0.070 C 
HETATM   20  C   UNL     1     -42.886 -54.762  14.512  1.00  0.00     0.052 A 
HETATM   21  C   UNL     1     -41.807 -54.076  14.000  1.00  0.00     0.027 A 
HETATM   22  C   UNL     1     -40.392 -54.012  14.446  1.00  0.00     0.070 C 
ENDBRANCH  14  15
ENDBRANCH   2  14
TORSDOF 5
ENDMDL
MODEL 2
REMARK VINA RESULT:      -5.5      1.975      7.274
REMARK  5 active torsions:
REMARK  status: ('A' for Active; 'I' for Inactive)
REMARK    1  A    between atoms: C_2  and  C_3 
REMARK    2  A    between atoms: C_2  and  N_10 
REMARK    3  A    between atoms: C_3  and  N_4 
REMARK       I    between atoms: N_10  and  C_11 
REMARK    4  A    between atoms: C_11  and  C_13 
REMARK    5  A    between atoms: C_13  and  N_14 
ROOT
HETATM    1  N   UNL     1     -42.378 -50.648  12.369  1.00  0.00    -0.354 N 
HETATM    2  C   UNL     1     -41.764 -49.555  11.785  1.00  0.00     0.237 C 
HETATM    3  O   UNL     1     -40.817 -49.634  11.007  1.00  0.00    -0.272 OA
HETATM    4  H   UNL     1     -42.926 -50.444  13.209  1.00  0.00     0.162 HD
ENDROOT
BRANCH   1   5
HETATM    5  C   UNL     1     -41.923 -52.025  12.163  1.00  0.00     0.108 C 
HETATM    6  C   UNL     1     -40.653 -52.258  12.979  1.00  0.00     0.034 C 
BRANCH   5   7
HETATM    7  C   UNL     1     -43.053 -53.024  12.543  1.00  0.00     0.297 C 
BRANCH   7   8
HETATM    8  N   UNL     1     -44.106 -52.586  13.482  1.00  0.00     0.094 N 
HETATM    9  C   UNL     1     -43.770 -52.840  14.902  1.00  0.00     0.298 C 
HETATM   10  C   UNL     1     -43.751 -54.328  15.300  1.00  0.00     0.198 C 
HETATM   11  O   UNL     1     -44.990 -54.978  14.977  1.00  0.00    -0.388 OA
HETATM   12  C   UNL     1     -45.302 -54.824  13.586  1.00  0.00     0.198 C 
HETATM   13  C   UNL     1     -45.361 -53.333  13.194  1.00  0.00     0.298 C 
ENDBRANCH   7   8
ENDBRANCH   5   7
ENDBRANCH   1   5
BRANCH   2  14
HETATM   14  C   UNL     1     -42.397 -48.231  12.141  1.00  0.00     0.251 C 
BRANCH  14  15
HETATM   15  N   UNL     1     -43.043 -47.670  10.974  1.00  0.00    -0.288 N 
HETATM   16  N   UNL     1     -44.261 -48.138  10.626  1.00  0.00    -0.303 N 
HETATM   17  C   UNL     1     -44.624 -47.365   9.596  1.00  0.00     0.024 A 
ATOM     18  HN  UNL     1     -44.784 -48.905  11.049  1.00  0.00     0.186 HD
HETATM   19  C   UNL     1     -45.934 -47.558   8.929  1.00  0.00     0.070 C 
HETATM   20  C   UNL     1     -43.638 -46.400   9.296  1.00  0.00     0.052 A 
HETATM   21  C   UNL     1     -42.629 -46.610  10.210  1.00  0.00     0.027 A 
HETATM   22  C   UNL     1     -41.349 -45.889  10.433  1.00  0.00     0.070 C 
ENDBRANCH  14  15
ENDBRANCH   2  14
TORSDOF 5
ENDMDL
MODEL 3
REMARK VINA RESULT:      -5.5      0.901      1.812
REMARK  5 active torsions:
REMARK  status: ('A' for Active; 'I' for Inactive)
REMARK    1  A    between atoms: C_2  and  C_3 
REMARK    2  A    between atoms: C_2  and  N_10 
REMARK    3  A    between atoms: C_3  and  N_4 
REMARK       I    between atoms: N_10  and  C_11 
REMARK    4  A    between atoms: C_11  and  C_13 
REMARK    5  A    between atoms: C_13  and  N_14 
ROOT
HETATM    1  N   UNL     1     -40.982 -50.430  11.431  1.00  0.00    -0.354 N 
HETATM    2  C   UNL     1     -41.189 -51.321  12.467  1.00  0.00     0.237 C 
HETATM    3  O   UNL     1     -41.390 -50.984  13.632  1.00  0.00    -0.272 OA
HETATM    4  H   UNL     1     -40.530 -50.822  10.601  1.00  0.00     0.162 HD
ENDROOT
BRANCH   1   5
HETATM    5  C   UNL     1     -40.924 -48.979  11.623  1.00  0.00     0.108 C 
HETATM    6  C   UNL     1     -39.461 -48.542  11.678  1.00  0.00     0.034 C 
BRANCH   5   7
HETATM    7  C   UNL     1     -41.707 -48.257  10.489  1.00  0.00     0.297 C 
BRANCH   7   8
HETATM    8  N   UNL     1     -43.056 -47.728  10.780  1.00  0.00     0.094 N 
HETATM    9  C   UNL     1     -43.863 -47.477   9.565  1.00  0.00     0.298 C 
HETATM   10  C   UNL     1     -43.368 -46.303   8.698  1.00  0.00     0.198 C 
HETATM   11  O   UNL     1     -43.260 -45.092   9.461  1.00  0.00    -0.388 OA
HETATM   12  C   UNL     1     -42.413 -45.278  10.601  1.00  0.00     0.198 C 
HETATM   13  C   UNL     1     -42.929 -46.427  11.492  1.00  0.00     0.298 C 
ENDBRANCH   7   8
ENDBRANCH   5   7
ENDBRANCH   1   5
BRANCH   2  14
HETATM   14  C   UNL     1     -41.207 -52.769  12.040  1.00  0.00     0.251 C 
BRANCH  14  15
HETATM   15  N   UNL     1     -41.680 -53.593  13.130  1.00  0.00    -0.288 N 
HETATM   16  N   UNL     1     -40.806 -53.943  14.099  1.00  0.00    -0.303 N 
HETATM   17  C   UNL     1     -41.556 -54.598  14.993  1.00  0.00     0.024 A 
ATOM     18  HN  UNL     1     -39.805 -53.752  14.140  1.00  0.00     0.186 HD
HETATM   19  C   UNL     1     -40.953 -55.140  16.234  1.00  0.00     0.070 C 
HETATM   20  C   UNL     1     -42.909 -54.658  14.593  1.00  0.00     0.052 A 
HETATM   21  C   UNL     1     -42.967 -53.990  13.390  1.00  0.00     0.027 A 
HETATM   22  C   UNL     1     -44.115 -53.679  12.501  1.00  0.00     0.070 C 
ENDBRANCH  14  15
ENDBRANCH   2  14
TORSDOF 5
ENDMDL
MODEL 4
REMARK VINA RESULT:      -5.4      1.792      2.153
REMARK  5 active torsions:
REMARK  status: ('A' for Active; 'I' for Inactive)
REMARK    1  A    between atoms: C_2  and  C_3 
REMARK    2  A    between atoms: C_2  and  N_10 
REMARK    3  A    between atoms: C_3  and  N_4 
REMARK       I    between atoms: N_10  and  C_11 
REMARK    4  A    between atoms: C_11  and  C_13 
REMARK    5  A    between atoms: C_13  and  N_14 
ROOT
HETATM    1  N   UNL     1     -40.070 -50.770  11.759  1.00  0.00    -0.354 N 
HETATM    2  C   UNL     1     -41.158 -51.119  12.538  1.00  0.00     0.237 C 
HETATM    3  O   UNL     1     -41.605 -50.421  13.445  1.00  0.00    -0.272 OA
HETATM    4  H   UNL     1     -39.618 -51.545  11.268  1.00  0.00     0.162 HD
ENDROOT
BRANCH   1   5
HETATM    5  C   UNL     1     -39.295 -49.546  11.971  1.00  0.00     0.108 C 
HETATM    6  C   UNL     1     -37.860 -49.776  11.497  1.00  0.00     0.034 C 
BRANCH   5   7
HETATM    7  C   UNL     1     -39.968 -48.352  11.236  1.00  0.00     0.297 C 
BRANCH   7   8
HETATM    8  N   UNL     1     -40.650 -47.315  12.038  1.00  0.00     0.094 N 
HETATM    9  C   UNL     1     -42.045 -47.064  11.610  1.00  0.00     0.298 C 
HETATM   10  C   UNL     1     -42.181 -46.379  10.236  1.00  0.00     0.198 C 
HETATM   11  O   UNL     1     -41.435 -45.154  10.180  1.00  0.00    -0.388 OA
HETATM   12  C   UNL     1     -40.057 -45.377  10.506  1.00  0.00     0.198 C 
HETATM   13  C   UNL     1     -39.917 -46.027  11.899  1.00  0.00     0.298 C 
ENDBRANCH   7   8
ENDBRANCH   5   7
ENDBRANCH   1   5
BRANCH   2  14
HETATM   14  C   UNL     1     -41.803 -52.426  12.143  1.00  0.00     0.251 C 
BRANCH  14  15
HETATM   15  N   UNL     1     -43.060 -52.580  12.841  1.00  0.00    -0.288 N 
HETATM   16  N   UNL     1     -44.097 -51.792  12.479  1.00  0.00    -0.303 N 
HETATM   17  C   UNL     1     -45.118 -52.239  13.220  1.00  0.00     0.024 A 
ATOM     18  HN  UNL     1     -44.101 -51.032  11.799  1.00  0.00     0.186 HD
HETATM   19  C   UNL     1     -46.463 -51.628  13.099  1.00  0.00     0.070 C 
HETATM   20  C   UNL     1     -44.730 -53.315  14.046  1.00  0.00     0.052 A 
HETATM   21  C   UNL     1     -43.397 -53.526  13.774  1.00  0.00     0.027 A 
HETATM   22  C   UNL     1     -42.444 -54.541  14.291  1.00  0.00     0.070 C 
ENDBRANCH  14  15
ENDBRANCH   2  14
TORSDOF 5
ENDMDL
MODEL 5
REMARK VINA RESULT:      -5.4      1.657      1.952
REMARK  5 active torsions:
REMARK  status: ('A' for Active; 'I' for Inactive)
REMARK    1  A    between atoms: C_2  and  C_3 
REMARK    2  A    between atoms: C_2  and  N_10 
REMARK    3  A    between atoms: C_3  and  N_4 
REMARK       I    between atoms: N_10  and  C_11 
REMARK    4  A    between atoms: C_11  and  C_13 
REMARK    5  A    between atoms: C_13  and  N_14 
ROOT
HETATM    1  N   UNL     1     -41.940 -50.629  11.777  1.00  0.00    -0.354 N 
HETATM    2  C   UNL     1     -42.413 -51.178  12.955  1.00  0.00     0.237 C 
HETATM    3  O   UNL     1     -42.306 -50.639  14.054  1.00  0.00    -0.272 OA
HETATM    4  H   UNL     1     -41.812 -51.290  11.007  1.00  0.00     0.162 HD
ENDROOT
BRANCH   1   5
HETATM    5  C   UNL     1     -41.207 -49.362  11.722  1.00  0.00     0.108 C 
HETATM    6  C   UNL     1     -39.738 -49.649  11.415  1.00  0.00     0.034 C 
BRANCH   5   7
HETATM    7  C   UNL     1     -41.850 -48.416  10.669  1.00  0.00     0.297 C 
BRANCH   7   8
HETATM    8  N   UNL     1     -43.093 -47.698  11.020  1.00  0.00     0.094 N 
HETATM    9  C   UNL     1     -43.957 -47.413   9.852  1.00  0.00     0.298 C 
HETATM   10  C   UNL     1     -43.389 -46.367   8.874  1.00  0.00     0.198 C 
HETATM   11  O   UNL     1     -43.066 -45.139   9.542  1.00  0.00    -0.388 OA
HETATM   12  C   UNL     1     -42.160 -45.368  10.628  1.00  0.00     0.198 C 
HETATM   13  C   UNL     1     -42.744 -46.385  11.630  1.00  0.00     0.298 C 
ENDBRANCH   7   8
ENDBRANCH   5   7
ENDBRANCH   1   5
BRANCH   2  14
HETATM   14  C   UNL     1     -43.135 -52.492  12.776  1.00  0.00     0.251 C 
BRANCH  14  15
HETATM   15  N   UNL     1     -44.118 -52.655  13.824  1.00  0.00    -0.288 N 
HETATM   16  N   UNL     1     -45.085 -51.720  13.950  1.00  0.00    -0.303 N 
HETATM   17  C   UNL     1     -45.877 -52.200  14.916  1.00  0.00     0.024 A 
ATOM     18  HN  UNL     1     -45.188 -50.849  13.430  1.00  0.00     0.186 HD
HETATM   19  C   UNL     1     -47.084 -51.454  15.345  1.00  0.00     0.070 C 
HETATM   20  C   UNL     1     -45.415 -53.444  15.397  1.00  0.00     0.052 A 
HETATM   21  C   UNL     1     -44.282 -53.724  14.666  1.00  0.00     0.027 A 
HETATM   22  C   UNL     1     -43.379 -54.903  14.679  1.00  0.00     0.070 C 
ENDBRANCH  14  15
ENDBRANCH   2  14
TORSDOF 5
ENDMDL
MODEL 6
REMARK VINA RESULT:      -5.2      2.230      7.235
REMARK  5 active torsions:
REMARK  status: ('A' for Active; 'I' for Inactive)
REMARK    1  A    between atoms: C_2  and  C_3 
REMARK    2  A    between atoms: C_2  and  N_10 
REMARK    3  A    between atoms: C_3  and  N_4 
REMARK       I    between atoms: N_10  and  C_11 
REMARK    4  A    between atoms: C_11  and  C_13 
REMARK    5  A    between atoms: C_13  and  N_14 
ROOT
HETATM    1  N   UNL     1     -42.439 -50.487  12.145  1.00  0.00    -0.354 N 
HETATM    2  C   UNL     1     -41.567 -49.414  12.125  1.00  0.00     0.237 C 
HETATM    3  O   UNL     1     -41.143 -48.856  13.135  1.00  0.00    -0.272 OA
HETATM    4  H   UNL     1     -42.946 -50.654  11.273  1.00  0.00     0.162 HD
ENDROOT
BRANCH   1   5
HETATM    5  C   UNL     1     -42.996 -51.043  13.380  1.00  0.00     0.108 C 
HETATM    6  C   UNL     1     -44.521 -50.999  13.303  1.00  0.00     0.034 C 
BRANCH   5   7
HETATM    7  C   UNL     1     -42.464 -52.486  13.606  1.00  0.00     0.297 C 
BRANCH   7   8
HETATM    8  N   UNL     1     -41.601 -52.753  14.776  1.00  0.00     0.094 N 
HETATM    9  C   UNL     1     -40.439 -51.840  14.869  1.00  0.00     0.298 C 
HETATM   10  C   UNL     1     -39.371 -52.048  13.778  1.00  0.00     0.198 C 
HETATM   11  O   UNL     1     -38.911 -53.407  13.741  1.00  0.00    -0.388 OA
HETATM   12  C   UNL     1     -40.006 -54.315  13.564  1.00  0.00     0.198 C 
HETATM   13  C   UNL     1     -41.058 -54.136  14.678  1.00  0.00     0.298 C 
ENDBRANCH   7   8
ENDBRANCH   5   7
ENDBRANCH   1   5
BRANCH   2  14
HETATM   14  C   UNL     1     -41.123 -49.006  10.741  1.00  0.00     0.251 C 
BRANCH  14  15
HETATM   15  N   UNL     1     -41.902 -47.873  10.293  1.00  0.00    -0.288 N 
HETATM   16  N   UNL     1     -43.131 -48.100   9.779  1.00  0.00    -0.303 N 
HETATM   17  C   UNL     1     -43.623 -46.875   9.562  1.00  0.00     0.024 A 
ATOM     18  HN  UNL     1     -43.580 -48.997   9.599  1.00  0.00     0.186 HD
HETATM   19  C   UNL     1     -44.985 -46.695   9.004  1.00  0.00     0.070 C 
HETATM   20  C   UNL     1     -42.708 -45.870   9.945  1.00  0.00     0.052 A 
HETATM   21  C   UNL     1     -41.606 -46.541  10.427  1.00  0.00     0.027 A 
HETATM   22  C   UNL     1     -40.338 -46.039  11.014  1.00  0.00     0.070 C 
ENDBRANCH  14  15
ENDBRANCH   2  14
TORSDOF 5
ENDMDL
MODEL 7
REMARK VINA RESULT:      -5.2      3.000      5.326
REMARK  5 active torsions:
REMARK  status: ('A' for Active; 'I' for Inactive)
REMARK    1  A    between atoms: C_2  and  C_3 
REMARK    2  A    between atoms: C_2  and  N_10 
REMARK    3  A    between atoms: C_3  and  N_4 
REMARK       I    between atoms: N_10  and  C_11 
REMARK    4  A    between atoms: C_11  and  C_13 
REMARK    5  A    between atoms: C_13  and  N_14 
ROOT
HETATM    1  N   UNL     1     -43.191 -53.605  13.660  1.00  0.00    -0.354 N 
HETATM    2  C   UNL     1     -44.035 -54.566  14.186  1.00  0.00     0.237 C 
HETATM    3  O   UNL     1     -43.680 -55.424  14.990  1.00  0.00    -0.272 OA
HETATM    4  H   UNL     1     -43.516 -53.164  12.796  1.00  0.00     0.162 HD
ENDROOT
BRANCH   1   5
HETATM    5  C   UNL     1     -41.760 -53.542  13.966  1.00  0.00     0.108 C 
HETATM    6  C   UNL     1     -40.992 -54.357  12.927  1.00  0.00     0.034 C 
BRANCH   5   7
HETATM    7  C   UNL     1     -41.287 -52.062  14.014  1.00  0.00     0.297 C 
BRANCH   7   8
HETATM    8  N   UNL     1     -40.431 -51.552  12.922  1.00  0.00     0.094 N 
HETATM    9  C   UNL     1     -39.295 -50.732  13.400  1.00  0.00     0.298 C 
HETATM   10  C   UNL     1     -39.695 -49.369  13.997  1.00  0.00     0.198 C 
HETATM   11  O   UNL     1     -40.487 -48.601  13.079  1.00  0.00    -0.388 OA
HETATM   12  C   UNL     1     -41.644 -49.335  12.662  1.00  0.00     0.198 C 
HETATM   13  C   UNL     1     -41.245 -50.683  12.027  1.00  0.00     0.298 C 
ENDBRANCH   7   8
ENDBRANCH   5   7
ENDBRANCH   1   5
BRANCH   2  14
HETATM   14  C   UNL     1     -45.469 -54.442  13.730  1.00  0.00     0.251 C 
BRANCH  14  15
HETATM   15  N   UNL     1     -46.113 -53.355  14.434  1.00  0.00    -0.288 N 
HETATM   16  N   UNL     1     -46.216 -53.431  15.779  1.00  0.00    -0.303 N 
HETATM   17  C   UNL     1     -46.750 -52.256  16.131  1.00  0.00     0.024 A 
ATOM     18  HN  UNL     1     -45.949 -54.206  16.386  1.00  0.00     0.186 HD
HETATM   19  C   UNL     1     -47.011 -51.940  17.555  1.00  0.00     0.070 C 
HETATM   20  C   UNL     1     -46.978 -51.431  15.008  1.00  0.00     0.052 A 
HETATM   21  C   UNL     1     -46.547 -52.159  13.922  1.00  0.00     0.027 A 
HETATM   22  C   UNL     1     -46.486 -51.816  12.479  1.00  0.00     0.070 C 
ENDBRANCH  14  15
ENDBRANCH   2  14
TORSDOF 5
ENDMDL
MODEL 8
REMARK VINA RESULT:      -5.2      2.431      3.065
REMARK  5 active torsions:
REMARK  status: ('A' for Active; 'I' for Inactive)
REMARK    1  A    between atoms: C_2  and  C_3 
REMARK    2  A    between atoms: C_2  and  N_10 
REMARK    3  A    between atoms: C_3  and  N_4 
REMARK       I    between atoms: N_10  and  C_11 
REMARK    4  A    between atoms: C_11  and  C_13 
REMARK    5  A    between atoms: C_13  and  N_14 
ROOT
HETATM    1  N   UNL     1     -42.662 -49.954  12.367  1.00  0.00    -0.354 N 
HETATM    2  C   UNL     1     -42.543 -50.497  13.634  1.00  0.00     0.237 C 
HETATM    3  O   UNL     1     -41.947 -49.952  14.560  1.00  0.00    -0.272 OA
HETATM    4  H   UNL     1     -42.899 -50.620  11.628  1.00  0.00     0.162 HD
ENDROOT
BRANCH   1   5
HETATM    5  C   UNL     1     -42.038 -48.688  11.977  1.00  0.00     0.108 C 
HETATM    6  C   UNL     1     -40.653 -48.973  11.398  1.00  0.00     0.034 C 
BRANCH   5   7
HETATM    7  C   UNL     1     -42.948 -47.931  10.969  1.00  0.00     0.297 C 
BRANCH   7   8
HETATM    8  N   UNL     1     -42.330 -47.308   9.781  1.00  0.00     0.094 N 
HETATM    9  C   UNL     1     -41.859 -45.925  10.020  1.00  0.00     0.298 C 
HETATM   10  C   UNL     1     -42.983 -44.891  10.229  1.00  0.00     0.198 C 
HETATM   11  O   UNL     1     -43.916 -44.898   9.138  1.00  0.00    -0.388 OA
HETATM   12  C   UNL     1     -44.458 -46.208   8.935  1.00  0.00     0.198 C 
HETATM   13  C   UNL     1     -43.337 -47.238   8.685  1.00  0.00     0.298 C 
ENDBRANCH   7   8
ENDBRANCH   5   7
ENDBRANCH   1   5
BRANCH   2  14
HETATM   14  C   UNL     1     -43.265 -51.811  13.812  1.00  0.00     0.251 C 
BRANCH  14  15
HETATM   15  N   UNL     1     -44.682 -51.622  13.601  1.00  0.00    -0.288 N 
HETATM   16  N   UNL     1     -45.181 -51.826  12.362  1.00  0.00    -0.303 N 
HETATM   17  C   UNL     1     -46.502 -51.677  12.515  1.00  0.00     0.024 A 
ATOM     18  HN  UNL     1     -44.670 -52.043  11.506  1.00  0.00     0.186 HD
HETATM   19  C   UNL     1     -47.420 -51.841  11.362  1.00  0.00     0.070 C 
HETATM   20  C   UNL     1     -46.842 -51.385  13.853  1.00  0.00     0.052 A 
HETATM   21  C   UNL     1     -45.648 -51.367  14.540  1.00  0.00     0.027 A 
HETATM   22  C   UNL     1     -45.355 -51.161  15.981  1.00  0.00     0.070 C 
ENDBRANCH  14  15
ENDBRANCH   2  14
TORSDOF 5
ENDMDL
MODEL 9
REMARK VINA RESULT:      -5.2      3.780      6.468
REMARK  5 active torsions:
REMARK  status: ('A' for Active; 'I' for Inactive)
REMARK    1  A    between atoms: C_2  and  C_3 
REMARK    2  A    between atoms: C_2  and  N_10 
REMARK    3  A    between atoms: C_3  and  N_4 
REMARK       I    between atoms: N_10  and  C_11 
REMARK    4  A    between atoms: C_11  and  C_13 
REMARK    5  A    between atoms: C_13  and  N_14 
ROOT
HETATM    1  N   UNL     1     -42.197 -52.565  14.224  1.00  0.00    -0.354 N 
HETATM    2  C   UNL     1     -41.695 -51.971  13.081  1.00  0.00     0.237 C 
HETATM    3  O   UNL     1     -41.808 -52.447  11.953  1.00  0.00    -0.272 OA
HETATM    4  H   UNL     1     -41.780 -52.245  15.101  1.00  0.00     0.162 HD
ENDROOT
BRANCH   1   5
HETATM    5  C   UNL     1     -42.875 -53.863  14.219  1.00  0.00     0.108 C 
HETATM    6  C   UNL     1     -42.026 -54.872  14.990  1.00  0.00     0.034 C 
BRANCH   5   7
HETATM    7  C   UNL     1     -44.304 -53.723  14.817  1.00  0.00     0.297 C 
BRANCH   7   8
HETATM    8  N   UNL     1     -45.469 -53.850  13.917  1.00  0.00     0.094 N 
HETATM    9  C   UNL     1     -45.437 -52.906  12.778  1.00  0.00     0.298 C 
HETATM   10  C   UNL     1     -45.640 -51.428  13.164  1.00  0.00     0.198 C 
HETATM   11  O   UNL     1     -46.852 -51.239  13.910  1.00  0.00    -0.388 OA
HETATM   12  C   UNL     1     -46.876 -52.078  15.071  1.00  0.00     0.198 C 
HETATM   13  C   UNL     1     -46.713 -53.563  14.683  1.00  0.00     0.298 C 
ENDBRANCH   7   8
ENDBRANCH   5   7
ENDBRANCH   1   5
BRANCH   2  14
HETATM   14  C   UNL     1     -41.031 -50.636  13.321  1.00  0.00     0.251 C 
BRANCH  14  15
HETATM   15  N   UNL     1     -39.625 -50.726  13.000  1.00  0.00    -0.288 N 
HETATM   16  N   UNL     1     -39.224 -50.372  11.759  1.00  0.00    -0.303 N 
HETATM   17  C   UNL     1     -37.890 -50.463  11.809  1.00  0.00     0.024 A 
ATOM     18  HN  UNL     1     -39.805 -50.099  10.965  1.00  0.00     0.186 HD
HETATM   19  C   UNL     1     -37.064 -50.136  10.622  1.00  0.00     0.070 C 
HETATM   20  C   UNL     1     -37.444 -50.868  13.086  1.00  0.00     0.052 A 
HETATM   21  C   UNL     1     -38.584 -51.019  13.843  1.00  0.00     0.027 A 
HETATM   22  C   UNL     1     -38.766 -51.383  15.271  1.00  0.00     0.070 C 
ENDBRANCH  14  15
ENDBRANCH   2  14
TORSDOF 5
ENDMDL
