MODEL 1
REMARK VINA RESULT:      -5.2      0.000      0.000
REMARK  5 active torsions:
REMARK  status: ('A' for Active; 'I' for Inactive)
REMARK    1  A    between atoms: C_2  and  O_3 
REMARK    2  A    between atoms: O_3  and  C_4 
REMARK    3  A    between atoms: C_6  and  N_7 
REMARK       I    between atoms: N_7  and  C_8 
REMARK    4  A    between atoms: C_8  and  C_10 
REMARK    5  A    between atoms: C_10  and  C_11 
ROOT
HETATM    1  N   UNL     1     -43.266 -48.920  12.345  1.00  0.00    -0.354 N 
HETATM    2  C   UNL     1     -42.552 -49.669  13.266  1.00  0.00     0.222 C 
HETATM    3  O   UNL     1     -41.343 -49.583  13.464  1.00  0.00    -0.273 OA
HETATM    4  H   UNL     1     -44.277 -49.005  12.360  1.00  0.00     0.163 HD
ENDROOT
BRANCH   2   5
HETATM    5  C   UNL     1     -43.403 -50.637  14.062  1.00  0.00     0.146 C 
BRANCH   5   6
HETATM    6  C   UNL     1     -43.881 -51.820  13.286  1.00  0.00     0.006 A 
HETATM    7  C   UNL     1     -43.079 -52.906  12.823  1.00  0.00     0.038 A 
HETATM    8  C   UNL     1     -41.621 -53.129  12.976  1.00  0.00     0.071 C 
HETATM    9  N   UNL     1     -43.807 -53.821  12.176  1.00  0.00    -0.265 N 
HETATM   10  O   UNL     1     -45.105 -53.365  12.219  1.00  0.00    -0.242 OA
ATOM     11  HN  UNL     1     -43.470 -54.680  11.740  1.00  0.00     0.194 HD
HETATM   12  C   UNL     1     -45.156 -52.180  12.884  1.00  0.00     0.081 A 
HETATM   13  C   UNL     1     -46.508 -51.597  13.016  1.00  0.00     0.079 C 
ENDBRANCH   5   6
ENDBRANCH   2   5
BRANCH   1  14
HETATM   14  C   UNL     1     -42.732 -47.907  11.478  1.00  0.00     0.116 A 
HETATM   15  C   UNL     1     -43.581 -47.187  10.452  1.00  0.00     0.146 A 
HETATM   16  C   UNL     1     -42.448 -48.068  10.014  1.00  0.00     0.061 A 
BRANCH  15  17
HETATM   17  O   UNL     1     -44.889 -47.727  10.160  1.00  0.00    -0.384 OA
BRANCH  17  18
HETATM   18  C   UNL     1     -45.334 -47.452   8.836  1.00  0.00     0.163 C 
HETATM   19  C   UNL     1     -46.471 -48.398   8.501  1.00  0.00     0.033 C 
ENDBRANCH  17  18
ENDBRANCH  15  17
ENDBRANCH   1  14
TORSDOF 5
ENDMDL
MODEL 2
REMARK VINA RESULT:      -5.1      3.063      5.548
REMARK  5 active torsions:
REMARK  status: ('A' for Active; 'I' for Inactive)
REMARK    1  A    between atoms: C_2  and  O_3 
REMARK    2  A    between atoms: O_3  and  C_4 
REMARK    3  A    between atoms: C_6  and  N_7 
REMARK       I    between atoms: N_7  and  C_8 
REMARK    4  A    between atoms: C_8  and  C_10 
REMARK    5  A    between atoms: C_10  and  C_11 
ROOT
HETATM    1  N   UNL     1     -43.943 -51.382  12.669  1.00  0.00    -0.354 N 
HETATM    2  C   UNL     1     -42.801 -50.704  13.064  1.00  0.00     0.222 C 
HETATM    3  O   UNL     1     -42.698 -50.022  14.081  1.00  0.00    -0.273 OA
HETATM    4  H   UNL     1     -43.863 -52.001  11.869  1.00  0.00     0.163 HD
ENDROOT
BRANCH   2   5
HETATM    5  C   UNL     1     -41.627 -50.877  12.122  1.00  0.00     0.146 C 
BRANCH   5   6
HETATM    6  C   UNL     1     -40.438 -51.543  12.734  1.00  0.00     0.006 A 
HETATM    7  C   UNL     1     -39.243 -50.898  13.173  1.00  0.00     0.038 A 
HETATM    8  C   UNL     1     -38.880 -49.461  13.127  1.00  0.00     0.071 C 
HETATM    9  N   UNL     1     -38.374 -51.767  13.696  1.00  0.00    -0.265 N 
HETATM   10  O   UNL     1     -38.988 -52.996  13.632  1.00  0.00    -0.242 OA
ATOM     11  HN  UNL     1     -37.446 -51.561  14.067  1.00  0.00     0.194 HD
HETATM   12  C   UNL     1     -40.219 -52.868  13.068  1.00  0.00     0.081 A 
HETATM   13  C   UNL     1     -40.991 -54.125  12.963  1.00  0.00     0.079 C 
ENDBRANCH   5   6
ENDBRANCH   2   5
BRANCH   1  14
HETATM   14  C   UNL     1     -45.192 -51.425  13.378  1.00  0.00     0.116 A 
HETATM   15  C   UNL     1     -45.942 -52.718  13.620  1.00  0.00     0.146 A 
HETATM   16  C   UNL     1     -46.542 -51.642  12.762  1.00  0.00     0.061 A 
BRANCH  15  17
HETATM   17  O   UNL     1     -45.525 -53.889  12.884  1.00  0.00    -0.384 OA
BRANCH  17  18
HETATM   18  C   UNL     1     -45.382 -55.049  13.696  1.00  0.00     0.163 C 
HETATM   19  C   UNL     1     -44.174 -54.866  14.594  1.00  0.00     0.033 C 
ENDBRANCH  17  18
ENDBRANCH  15  17
ENDBRANCH   1  14
TORSDOF 5
ENDMDL
MODEL 3
REMARK VINA RESULT:      -5.1      3.300      5.198
REMARK  5 active torsions:
REMARK  status: ('A' for Active; 'I' for Inactive)
REMARK    1  A    between atoms: C_2  and  O_3 
REMARK    2  A    between atoms: O_3  and  C_4 
REMARK    3  A    between atoms: C_6  and  N_7 
REMARK       I    between atoms: N_7  and  C_8 
REMARK    4  A    between atoms: C_8  and  C_10 
REMARK    5  A    between atoms: C_10  and  C_11 
ROOT
HETATM    1  N   UNL     1     -43.343 -53.860  13.728  1.00  0.00    -0.354 N 
HETATM    2  C   UNL     1     -44.132 -54.814  14.349  1.00  0.00     0.222 C 
HETATM    3  O   UNL     1     -43.716 -55.719  15.069  1.00  0.00    -0.273 OA
HETATM    4  H   UNL     1     -43.818 -53.100  13.253  1.00  0.00     0.163 HD
ENDROOT
BRANCH   2   5
HETATM    5  C   UNL     1     -45.615 -54.652  14.083  1.00  0.00     0.146 C 
BRANCH   5   6
HETATM    6  C   UNL     1     -46.158 -53.302  14.419  1.00  0.00     0.006 A 
HETATM    7  C   UNL     1     -46.349 -52.772  15.731  1.00  0.00     0.038 A 
HETATM    8  C   UNL     1     -46.081 -53.400  17.046  1.00  0.00     0.071 C 
HETATM    9  N   UNL     1     -46.833 -51.527  15.697  1.00  0.00    -0.265 N 
HETATM   10  O   UNL     1     -46.949 -51.206  14.364  1.00  0.00    -0.242 OA
ATOM     11  HN  UNL     1     -47.068 -50.936  16.495  1.00  0.00     0.194 HD
HETATM   12  C   UNL     1     -46.542 -52.254  13.600  1.00  0.00     0.081 A 
HETATM   13  C   UNL     1     -46.600 -52.022  12.141  1.00  0.00     0.079 C 
ENDBRANCH   5   6
ENDBRANCH   2   5
BRANCH   1  14
HETATM   14  C   UNL     1     -41.914 -53.747  13.825  1.00  0.00     0.116 A 
HETATM   15  C   UNL     1     -41.136 -52.661  13.112  1.00  0.00     0.146 A 
HETATM   16  C   UNL     1     -40.931 -54.102  12.749  1.00  0.00     0.061 A 
BRANCH  15  17
HETATM   17  O   UNL     1     -41.822 -51.893  12.099  1.00  0.00    -0.384 OA
BRANCH  17  18
HETATM   18  C   UNL     1     -41.950 -50.513  12.422  1.00  0.00     0.163 C 
HETATM   19  C   UNL     1     -43.284 -50.297  13.109  1.00  0.00     0.033 C 
ENDBRANCH  17  18
ENDBRANCH  15  17
ENDBRANCH   1  14
TORSDOF 5
ENDMDL
MODEL 4
REMARK VINA RESULT:      -5.0      3.165      4.803
REMARK  5 active torsions:
REMARK  status: ('A' for Active; 'I' for Inactive)
REMARK    1  A    between atoms: C_2  and  O_3 
REMARK    2  A    between atoms: O_3  and  C_4 
REMARK    3  A    between atoms: C_6  and  N_7 
REMARK       I    between atoms: N_7  and  C_8 
REMARK    4  A    between atoms: C_8  and  C_10 
REMARK    5  A    between atoms: C_10  and  C_11 
ROOT
HETATM    1  N   UNL     1     -41.928 -51.247  11.855  1.00  0.00    -0.354 N 
HETATM    2  C   UNL     1     -42.728 -51.813  12.834  1.00  0.00     0.222 C 
HETATM    3  O   UNL     1     -42.980 -51.305  13.925  1.00  0.00    -0.273 OA
HETATM    4  H   UNL     1     -41.892 -51.715  10.956  1.00  0.00     0.163 HD
ENDROOT
BRANCH   2   5
HETATM    5  C   UNL     1     -43.313 -53.156  12.449  1.00  0.00     0.146 C 
BRANCH   5   6
HETATM    6  C   UNL     1     -44.415 -53.628  13.341  1.00  0.00     0.006 A 
HETATM    7  C   UNL     1     -45.785 -53.231  13.270  1.00  0.00     0.038 A 
HETATM    8  C   UNL     1     -46.441 -52.280  12.341  1.00  0.00     0.071 C 
HETATM    9  N   UNL     1     -46.527 -53.847  14.194  1.00  0.00    -0.265 N 
HETATM   10  O   UNL     1     -45.666 -54.676  14.876  1.00  0.00    -0.242 OA
ATOM     11  HN  UNL     1     -47.527 -53.727  14.360  1.00  0.00     0.194 HD
HETATM   12  C   UNL     1     -44.411 -54.555  14.367  1.00  0.00     0.081 A 
HETATM   13  C   UNL     1     -43.394 -55.418  15.006  1.00  0.00     0.079 C 
ENDBRANCH   5   6
ENDBRANCH   2   5
BRANCH   1  14
HETATM   14  C   UNL     1     -41.270 -49.972  11.930  1.00  0.00     0.116 A 
HETATM   15  C   UNL     1     -39.762 -49.838  11.944  1.00  0.00     0.146 A 
HETATM   16  C   UNL     1     -40.572 -49.415  13.134  1.00  0.00     0.061 A 
BRANCH  15  17
HETATM   17  O   UNL     1     -38.980 -51.032  12.162  1.00  0.00    -0.384 OA
BRANCH  17  18
HETATM   18  C   UNL     1     -37.577 -50.796  12.184  1.00  0.00     0.163 C 
HETATM   19  C   UNL     1     -37.208 -49.954  10.977  1.00  0.00     0.033 C 
ENDBRANCH  17  18
ENDBRANCH  15  17
ENDBRANCH   1  14
TORSDOF 5
ENDMDL
MODEL 5
REMARK VINA RESULT:      -5.0      2.745      6.737
REMARK  5 active torsions:
REMARK  status: ('A' for Active; 'I' for Inactive)
REMARK    1  A    between atoms: C_2  and  O_3 
REMARK    2  A    between atoms: O_3  and  C_4 
REMARK    3  A    between atoms: C_6  and  N_7 
REMARK       I    between atoms: N_7  and  C_8 
REMARK    4  A    between atoms: C_8  and  C_10 
REMARK    5  A    between atoms: C_10  and  C_11 
ROOT
HETATM    1  N   UNL     1     -41.629 -50.158  11.546  1.00  0.00    -0.354 N 
HETATM    2  C   UNL     1     -42.208 -48.901  11.512  1.00  0.00     0.222 C 
HETATM    3  O   UNL     1     -43.108 -48.515  12.255  1.00  0.00    -0.273 OA
HETATM    4  H   UNL     1     -40.818 -50.313  10.956  1.00  0.00     0.163 HD
ENDROOT
BRANCH   2   5
HETATM    5  C   UNL     1     -41.623 -47.982  10.459  1.00  0.00     0.146 C 
BRANCH   5   6
HETATM    6  C   UNL     1     -42.581 -46.968   9.923  1.00  0.00     0.006 A 
HETATM    7  C   UNL     1     -42.841 -45.679  10.477  1.00  0.00     0.038 A 
HETATM    8  C   UNL     1     -42.262 -45.039  11.683  1.00  0.00     0.071 C 
HETATM    9  N   UNL     1     -43.736 -45.000   9.754  1.00  0.00    -0.265 N 
HETATM   10  O   UNL     1     -44.065 -45.820   8.699  1.00  0.00    -0.242 OA
ATOM     11  HN  UNL     1     -44.100 -44.066   9.944  1.00  0.00     0.194 HD
HETATM   12  C   UNL     1     -43.375 -46.989   8.791  1.00  0.00     0.081 A 
HETATM   13  C   UNL     1     -43.629 -47.950   7.696  1.00  0.00     0.079 C 
ENDBRANCH   5   6
ENDBRANCH   2   5
BRANCH   1  14
HETATM   14  C   UNL     1     -41.958 -51.220  12.456  1.00  0.00     0.116 A 
HETATM   15  C   UNL     1     -40.900 -52.082  13.112  1.00  0.00     0.146 A 
HETATM   16  C   UNL     1     -41.884 -52.687  12.153  1.00  0.00     0.061 A 
BRANCH  15  17
HETATM   17  O   UNL     1     -39.553 -52.007  12.598  1.00  0.00    -0.384 OA
BRANCH  17  18
HETATM   18  C   UNL     1     -38.586 -51.666  13.585  1.00  0.00     0.163 C 
HETATM   19  C   UNL     1     -37.512 -50.812  12.939  1.00  0.00     0.033 C 
ENDBRANCH  17  18
ENDBRANCH  15  17
ENDBRANCH   1  14
TORSDOF 5
ENDMDL
MODEL 6
REMARK VINA RESULT:      -5.0      3.329      4.646
REMARK  5 active torsions:
REMARK  status: ('A' for Active; 'I' for Inactive)
REMARK    1  A    between atoms: C_2  and  O_3 
REMARK    2  A    between atoms: O_3  and  C_4 
REMARK    3  A    between atoms: C_6  and  N_7 
REMARK       I    between atoms: N_7  and  C_8 
REMARK    4  A    between atoms: C_8  and  C_10 
REMARK    5  A    between atoms: C_10  and  C_11 
ROOT
HETATM    1  N   UNL     1     -42.003 -51.472  11.950  1.00  0.00    -0.354 N 
HETATM    2  C   UNL     1     -43.138 -51.857  12.644  1.00  0.00     0.222 C 
HETATM    3  O   UNL     1     -43.799 -51.129  13.381  1.00  0.00    -0.273 OA
HETATM    4  H   UNL     1     -41.616 -52.136  11.287  1.00  0.00     0.163 HD
ENDROOT
BRANCH   2   5
HETATM    5  C   UNL     1     -43.539 -53.300  12.415  1.00  0.00     0.146 C 
BRANCH   5   6
HETATM    6  C   UNL     1     -43.485 -54.157  13.637  1.00  0.00     0.006 A 
HETATM    7  C   UNL     1     -42.309 -54.535  14.352  1.00  0.00     0.038 A 
HETATM    8  C   UNL     1     -40.892 -54.199  14.073  1.00  0.00     0.071 C 
HETATM    9  N   UNL     1     -42.596 -55.290  15.416  1.00  0.00    -0.265 N 
HETATM   10  O   UNL     1     -43.967 -55.405  15.435  1.00  0.00    -0.242 OA
ATOM     11  HN  UNL     1     -41.934 -55.697  16.078  1.00  0.00     0.194 HD
HETATM   12  C   UNL     1     -44.501 -54.727  14.384  1.00  0.00     0.081 A 
HETATM   13  C   UNL     1     -45.978 -54.759  14.308  1.00  0.00     0.079 C 
ENDBRANCH   5   6
ENDBRANCH   2   5
BRANCH   1  14
HETATM   14  C   UNL     1     -41.411 -50.164  11.950  1.00  0.00     0.116 A 
HETATM   15  C   UNL     1     -39.912 -49.952  11.912  1.00  0.00     0.146 A 
HETATM   16  C   UNL     1     -40.708 -49.520  13.109  1.00  0.00     0.061 A 
BRANCH  15  17
HETATM   17  O   UNL     1     -39.062 -51.095  12.156  1.00  0.00    -0.384 OA
BRANCH  17  18
HETATM   18  C   UNL     1     -37.686 -50.760  12.292  1.00  0.00     0.163 C 
HETATM   19  C   UNL     1     -37.255 -49.969  11.072  1.00  0.00     0.033 C 
ENDBRANCH  17  18
ENDBRANCH  15  17
ENDBRANCH   1  14
TORSDOF 5
ENDMDL
MODEL 7
REMARK VINA RESULT:      -5.0      2.411      5.707
REMARK  5 active torsions:
REMARK  status: ('A' for Active; 'I' for Inactive)
REMARK    1  A    between atoms: C_2  and  O_3 
REMARK    2  A    between atoms: O_3  and  C_4 
REMARK    3  A    between atoms: C_6  and  N_7 
REMARK       I    between atoms: N_7  and  C_8 
REMARK    4  A    between atoms: C_8  and  C_10 
REMARK    5  A    between atoms: C_10  and  C_11 
ROOT
HETATM    1  N   UNL     1     -43.916 -51.349  12.601  1.00  0.00    -0.354 N 
HETATM    2  C   UNL     1     -42.668 -51.045  13.119  1.00  0.00     0.222 C 
HETATM    3  O   UNL     1     -42.440 -50.748  14.290  1.00  0.00    -0.273 OA
HETATM    4  H   UNL     1     -43.953 -51.688  11.646  1.00  0.00     0.163 HD
ENDROOT
BRANCH   2   5
HETATM    5  C   UNL     1     -41.546 -51.121  12.104  1.00  0.00     0.146 C 
BRANCH   5   6
HETATM    6  C   UNL     1     -40.939 -49.800  11.756  1.00  0.00     0.006 A 
HETATM    7  C   UNL     1     -39.545 -49.498  11.713  1.00  0.00     0.038 A 
HETATM    8  C   UNL     1     -38.384 -50.374  12.001  1.00  0.00     0.071 C 
HETATM    9  N   UNL     1     -39.323 -48.233  11.346  1.00  0.00    -0.265 N 
HETATM   10  O   UNL     1     -40.565 -47.685  11.120  1.00  0.00    -0.242 OA
ATOM     11  HN  UNL     1     -38.419 -47.769  11.253  1.00  0.00     0.194 HD
HETATM   12  C   UNL     1     -41.529 -48.615  11.354  1.00  0.00     0.081 A 
HETATM   13  C   UNL     1     -42.913 -48.149  11.124  1.00  0.00     0.079 C 
ENDBRANCH   5   6
ENDBRANCH   2   5
BRANCH   1  14
HETATM   14  C   UNL     1     -45.151 -51.389  13.333  1.00  0.00     0.116 A 
HETATM   15  C   UNL     1     -45.893 -52.681  13.601  1.00  0.00     0.146 A 
HETATM   16  C   UNL     1     -46.512 -51.616  12.744  1.00  0.00     0.061 A 
BRANCH  15  17
HETATM   17  O   UNL     1     -45.485 -53.858  12.870  1.00  0.00    -0.384 OA
BRANCH  17  18
HETATM   18  C   UNL     1     -45.291 -55.001  13.696  1.00  0.00     0.163 C 
HETATM   19  C   UNL     1     -44.000 -54.825  14.472  1.00  0.00     0.033 C 
ENDBRANCH  17  18
ENDBRANCH  15  17
ENDBRANCH   1  14
TORSDOF 5
ENDMDL
MODEL 8
REMARK VINA RESULT:      -5.0      3.109      5.626
REMARK  5 active torsions:
REMARK  status: ('A' for Active; 'I' for Inactive)
REMARK    1  A    between atoms: C_2  and  O_3 
REMARK    2  A    between atoms: O_3  and  C_4 
REMARK    3  A    between atoms: C_6  and  N_7 
REMARK       I    between atoms: N_7  and  C_8 
REMARK    4  A    between atoms: C_8  and  C_10 
REMARK    5  A    between atoms: C_10  and  C_11 
ROOT
HETATM    1  N   UNL     1     -41.890 -53.011  13.712  1.00  0.00    -0.354 N 
HETATM    2  C   UNL     1     -40.508 -53.011  13.621  1.00  0.00     0.222 C 
HETATM    3  O   UNL     1     -39.819 -53.978  13.303  1.00  0.00    -0.273 OA
HETATM    4  H   UNL     1     -42.346 -52.119  13.874  1.00  0.00     0.163 HD
ENDROOT
BRANCH   2   5
HETATM    5  C   UNL     1     -39.871 -51.674  13.940  1.00  0.00     0.146 C 
BRANCH   5   6
HETATM    6  C   UNL     1     -39.754 -50.752  12.770  1.00  0.00     0.006 A 
HETATM    7  C   UNL     1     -38.568 -50.485  12.022  1.00  0.00     0.038 A 
HETATM    8  C   UNL     1     -37.199 -51.022  12.208  1.00  0.00     0.071 C 
HETATM    9  N   UNL     1     -38.795 -49.630  11.021  1.00  0.00    -0.265 N 
HETATM   10  O   UNL     1     -40.138 -49.334  11.078  1.00  0.00    -0.242 OA
ATOM     11  HN  UNL     1     -38.114 -49.270  10.353  1.00  0.00     0.194 HD
HETATM   12  C   UNL     1     -40.714 -50.005  12.112  1.00  0.00     0.081 A 
HETATM   13  C   UNL     1     -42.169 -49.784  12.264  1.00  0.00     0.079 C 
ENDBRANCH   5   6
ENDBRANCH   2   5
BRANCH   1  14
HETATM   14  C   UNL     1     -42.759 -54.122  13.438  1.00  0.00     0.116 A 
HETATM   15  C   UNL     1     -44.109 -53.950  12.773  1.00  0.00     0.146 A 
HETATM   16  C   UNL     1     -44.017 -54.456  14.183  1.00  0.00     0.061 A 
BRANCH  15  17
HETATM   17  O   UNL     1     -44.643 -52.613  12.664  1.00  0.00    -0.384 OA
BRANCH  17  18
HETATM   18  C   UNL     1     -46.065 -52.568  12.656  1.00  0.00     0.163 C 
HETATM   19  C   UNL     1     -46.525 -51.560  13.692  1.00  0.00     0.033 C 
ENDBRANCH  17  18
ENDBRANCH  15  17
ENDBRANCH   1  14
TORSDOF 5
ENDMDL
MODEL 9
REMARK VINA RESULT:      -4.9      1.811      2.668
REMARK  5 active torsions:
REMARK  status: ('A' for Active; 'I' for Inactive)
REMARK    1  A    between atoms: C_2  and  O_3 
REMARK    2  A    between atoms: O_3  and  C_4 
REMARK    3  A    between atoms: C_6  and  N_7 
REMARK       I    between atoms: N_7  and  C_8 
REMARK    4  A    between atoms: C_8  and  C_10 
REMARK    5  A    between atoms: C_10  and  C_11 
ROOT
HETATM    1  N   UNL     1     -43.069 -49.904  12.209  1.00  0.00    -0.354 N 
HETATM    2  C   UNL     1     -43.239 -50.866  13.192  1.00  0.00     0.222 C 
HETATM    3  O   UNL     1     -43.316 -50.641  14.398  1.00  0.00    -0.273 OA
HETATM    4  H   UNL     1     -43.136 -50.209  11.244  1.00  0.00     0.163 HD
ENDROOT
BRANCH   2   5
HETATM    5  C   UNL     1     -43.344 -52.279  12.657  1.00  0.00     0.146 C 
BRANCH   5   6
HETATM    6  C   UNL     1     -44.422 -53.100  13.288  1.00  0.00     0.006 A 
HETATM    7  C   UNL     1     -45.826 -52.952  13.080  1.00  0.00     0.038 A 
HETATM    8  C   UNL     1     -46.553 -51.981  12.228  1.00  0.00     0.071 C 
HETATM    9  N   UNL     1     -46.528 -53.852  13.774  1.00  0.00    -0.265 N 
HETATM   10  O   UNL     1     -45.599 -54.623  14.434  1.00  0.00    -0.242 OA
ATOM     11  HN  UNL     1     -47.543 -53.949  13.807  1.00  0.00     0.194 HD
HETATM   12  C   UNL     1     -44.345 -54.185  14.143  1.00  0.00     0.081 A 
HETATM   13  C   UNL     1     -43.253 -54.952  14.780  1.00  0.00     0.079 C 
ENDBRANCH   5   6
ENDBRANCH   2   5
BRANCH   1  14
HETATM   14  C   UNL     1     -42.971 -48.486  12.418  1.00  0.00     0.116 A 
HETATM   15  C   UNL     1     -43.019 -47.494  11.276  1.00  0.00     0.146 A 
HETATM   16  C   UNL     1     -41.776 -47.635  12.105  1.00  0.00     0.061 A 
BRANCH  15  17
HETATM   17  O   UNL     1     -42.888 -48.005   9.931  1.00  0.00    -0.384 OA
BRANCH  17  18
HETATM   18  C   UNL     1     -43.784 -47.402   9.004  1.00  0.00     0.163 C 
HETATM   19  C   UNL     1     -43.479 -47.936   7.618  1.00  0.00     0.033 C 
ENDBRANCH  17  18
ENDBRANCH  15  17
ENDBRANCH   1  14
TORSDOF 5
ENDMDL
