MODEL 1
REMARK VINA RESULT:      -6.5      0.000      0.000
REMARK  5 active torsions:
REMARK  status: ('A' for Active; 'I' for Inactive)
REMARK    1  A    between atoms: N_1  and  C_8 
REMARK    2  A    between atoms: N_2  and  C_7 
REMARK    3  A    between atoms: C_8  and  C_9 
REMARK       I    between atoms: C_9  and  N_11 
REMARK    4  A    between atoms: C_10  and  C_15 
REMARK    5  A    between atoms: N_11  and  C_15 
ROOT
HETATM    1  N   UNL     1     -41.876 -51.196  12.967  1.00  0.00    -0.255 N 
HETATM    2  N   UNL     1     -43.841 -51.890  14.077  1.00  0.00    -0.279 N 
HETATM    3  C   UNL     1     -43.153 -50.876  13.419  1.00  0.00     0.334 C 
HETATM    4  C   UNL     1     -41.345 -52.483  12.974  1.00  0.00     0.292 C 
HETATM    5  C   UNL     1     -42.251 -53.536  13.475  1.00  0.00     0.200 C 
HETATM    6  C   UNL     1     -43.406 -53.200  14.041  1.00  0.00     0.146 C 
HETATM    7  O   UNL     1     -43.624 -49.743  13.303  1.00  0.00    -0.246 OA
HETATM    8  O   UNL     1     -40.191 -52.748  12.647  1.00  0.00    -0.264 OA
HETATM    9  F   UNL     1     -41.793 -54.803  13.474  1.00  0.00    -0.199 F 
ENDROOT
BRANCH   1  10
HETATM   10  C   UNL     1     -40.926 -50.099  12.857  1.00  0.00     0.240 C 
BRANCH  10  11
HETATM   11  C   UNL     1     -40.949 -49.198  11.629  1.00  0.00     0.236 C 
HETATM   12  N   UNL     1     -41.396 -47.907  11.772  1.00  0.00    -0.349 N 
HETATM   13  H   UNL     1     -41.622 -47.525  12.682  1.00  0.00     0.163 HD
HETATM   14  O   UNL     1     -40.439 -49.591  10.577  1.00  0.00    -0.272 OA
BRANCH  12  15
HETATM   15  C   UNL     1     -41.288 -46.996  10.643  1.00  0.00     0.137 C 
HETATM   16  C   UNL     1     -40.601 -45.681  11.020  1.00  0.00     0.039 C 
BRANCH  15  17
HETATM   17  C   UNL     1     -42.632 -46.726  10.057  1.00  0.00     0.074 A 
HETATM   18  O   UNL     1     -42.793 -45.584   9.323  1.00  0.00    -0.325 OA
HETATM   19  C   UNL     1     -44.052 -45.619   8.811  1.00  0.00     0.142 A 
HETATM   20  C   UNL     1     -44.707 -46.759   9.214  1.00  0.00     0.027 A 
HETATM   21  C   UNL     1     -43.797 -47.467  10.032  1.00  0.00     0.037 A 
ENDBRANCH  15  17
ENDBRANCH  12  15
ENDBRANCH  10  11
ENDBRANCH   1  10
BRANCH   2  22
HETATM   22  C   UNL     1     -44.939 -51.486  14.941  1.00  0.00     0.232 C 
HETATM   23  O   UNL     1     -45.016 -52.329  16.106  1.00  0.00    -0.366 OA
HETATM   24  C   UNL     1     -46.390 -52.379  16.521  1.00  0.00     0.170 C 
HETATM   25  C   UNL     1     -47.175 -51.483  15.581  1.00  0.00     0.031 C 
HETATM   26  C   UNL     1     -46.328 -51.512  14.328  1.00  0.00     0.056 C 
ENDBRANCH   2  22
TORSDOF 5
ENDMDL
MODEL 2
REMARK VINA RESULT:      -6.2      2.824      4.321
REMARK  5 active torsions:
REMARK  status: ('A' for Active; 'I' for Inactive)
REMARK    1  A    between atoms: N_1  and  C_8 
REMARK    2  A    between atoms: N_2  and  C_7 
REMARK    3  A    between atoms: C_8  and  C_9 
REMARK       I    between atoms: C_9  and  N_11 
REMARK    4  A    between atoms: C_10  and  C_15 
REMARK    5  A    between atoms: N_11  and  C_15 
ROOT
HETATM    1  N   UNL     1     -41.076 -52.469  13.143  1.00  0.00    -0.255 N 
HETATM    2  N   UNL     1     -40.226 -53.769  14.921  1.00  0.00    -0.279 N 
HETATM    3  C   UNL     1     -40.058 -52.683  14.068  1.00  0.00     0.334 C 
HETATM    4  C   UNL     1     -42.293 -53.147  13.150  1.00  0.00     0.292 C 
HETATM    5  C   UNL     1     -42.468 -54.117  14.249  1.00  0.00     0.200 C 
HETATM    6  C   UNL     1     -41.437 -54.420  15.033  1.00  0.00     0.146 C 
HETATM    7  O   UNL     1     -39.037 -51.994  14.089  1.00  0.00    -0.246 OA
HETATM    8  O   UNL     1     -43.156 -53.011  12.287  1.00  0.00    -0.264 OA
HETATM    9  F   UNL     1     -43.641 -54.776  14.317  1.00  0.00    -0.199 F 
ENDROOT
BRANCH   1  10
HETATM   10  C   UNL     1     -40.704 -51.811  11.899  1.00  0.00     0.240 C 
BRANCH  10  11
HETATM   11  C   UNL     1     -40.857 -50.302  11.766  1.00  0.00     0.236 C 
HETATM   12  N   UNL     1     -42.115 -49.785  11.568  1.00  0.00    -0.349 N 
HETATM   13  H   UNL     1     -42.937 -50.375  11.599  1.00  0.00     0.163 HD
HETATM   14  O   UNL     1     -39.886 -49.572  11.980  1.00  0.00    -0.272 OA
BRANCH  12  15
HETATM   15  C   UNL     1     -42.293 -48.341  11.584  1.00  0.00     0.137 C 
HETATM   16  C   UNL     1     -42.927 -47.847  12.887  1.00  0.00     0.039 C 
BRANCH  15  17
HETATM   17  C   UNL     1     -43.107 -47.902  10.416  1.00  0.00     0.074 A 
HETATM   18  O   UNL     1     -42.527 -47.948   9.178  1.00  0.00    -0.325 OA
HETATM   19  C   UNL     1     -43.490 -47.610   8.280  1.00  0.00     0.142 A 
HETATM   20  C   UNL     1     -44.676 -47.335   8.920  1.00  0.00     0.027 A 
HETATM   21  C   UNL     1     -44.426 -47.507  10.301  1.00  0.00     0.037 A 
ENDBRANCH  15  17
ENDBRANCH  12  15
ENDBRANCH  10  11
ENDBRANCH   1  10
BRANCH   2  22
HETATM   22  C   UNL     1     -39.029 -54.291  15.562  1.00  0.00     0.232 C 
HETATM   23  O   UNL     1     -39.027 -55.732  15.555  1.00  0.00    -0.366 OA
HETATM   24  C   UNL     1     -38.294 -56.175  16.707  1.00  0.00     0.170 C 
HETATM   25  C   UNL     1     -37.791 -54.936  17.422  1.00  0.00     0.031 C 
HETATM   26  C   UNL     1     -38.806 -53.892  17.009  1.00  0.00     0.056 C 
ENDBRANCH   2  22
TORSDOF 5
ENDMDL
MODEL 3
REMARK VINA RESULT:      -6.2      2.050      2.712
REMARK  5 active torsions:
REMARK  status: ('A' for Active; 'I' for Inactive)
REMARK    1  A    between atoms: N_1  and  C_8 
REMARK    2  A    between atoms: N_2  and  C_7 
REMARK    3  A    between atoms: C_8  and  C_9 
REMARK       I    between atoms: C_9  and  N_11 
REMARK    4  A    between atoms: C_10  and  C_15 
REMARK    5  A    between atoms: N_11  and  C_15 
ROOT
HETATM    1  N   UNL     1     -41.161 -53.004  12.711  1.00  0.00    -0.255 N 
HETATM    2  N   UNL     1     -42.966 -53.853  13.974  1.00  0.00    -0.279 N 
HETATM    3  C   UNL     1     -42.529 -53.245  12.802  1.00  0.00     0.334 C 
HETATM    4  C   UNL     1     -40.221 -53.489  13.616  1.00  0.00     0.292 C 
HETATM    5  C   UNL     1     -40.766 -54.330  14.701  1.00  0.00     0.200 C 
HETATM    6  C   UNL     1     -42.082 -54.429  14.863  1.00  0.00     0.146 C 
HETATM    7  O   UNL     1     -43.318 -52.884  11.926  1.00  0.00    -0.246 OA
HETATM    8  O   UNL     1     -39.026 -53.209  13.576  1.00  0.00    -0.264 OA
HETATM    9  F   UNL     1     -39.891 -54.847  15.585  1.00  0.00    -0.199 F 
ENDROOT
BRANCH   1  10
HETATM   10  C   UNL     1     -40.747 -51.885  11.877  1.00  0.00     0.240 C 
BRANCH  10  11
HETATM   11  C   UNL     1     -41.149 -50.467  12.260  1.00  0.00     0.236 C 
HETATM   12  N   UNL     1     -41.742 -49.673  11.308  1.00  0.00    -0.349 N 
HETATM   13  H   UNL     1     -41.993 -50.041  10.398  1.00  0.00     0.163 HD
HETATM   14  O   UNL     1     -41.068 -50.110  13.437  1.00  0.00    -0.272 OA
BRANCH  12  15
HETATM   15  C   UNL     1     -42.259 -48.371  11.699  1.00  0.00     0.137 C 
HETATM   16  C   UNL     1     -43.675 -48.124  11.171  1.00  0.00     0.039 C 
BRANCH  15  17
HETATM   17  C   UNL     1     -41.343 -47.286  11.246  1.00  0.00     0.074 A 
HETATM   18  O   UNL     1     -41.893 -46.206  10.614  1.00  0.00    -0.325 OA
HETATM   19  C   UNL     1     -40.885 -45.319  10.403  1.00  0.00     0.142 A 
HETATM   20  C   UNL     1     -39.694 -45.815  10.877  1.00  0.00     0.027 A 
HETATM   21  C   UNL     1     -39.985 -47.093  11.408  1.00  0.00     0.037 A 
ENDBRANCH  15  17
ENDBRANCH  12  15
ENDBRANCH  10  11
ENDBRANCH   1  10
BRANCH   2  22
HETATM   22  C   UNL     1     -44.375 -53.707  14.303  1.00  0.00     0.232 C 
HETATM   23  O   UNL     1     -44.553 -53.453  15.710  1.00  0.00    -0.366 OA
HETATM   24  C   UNL     1     -45.829 -53.986  16.095  1.00  0.00     0.170 C 
HETATM   25  C   UNL     1     -46.473 -54.555  14.844  1.00  0.00     0.031 C 
HETATM   26  C   UNL     1     -45.271 -54.892  13.989  1.00  0.00     0.056 C 
ENDBRANCH   2  22
TORSDOF 5
ENDMDL
MODEL 4
REMARK VINA RESULT:      -6.2      1.962      6.804
REMARK  5 active torsions:
REMARK  status: ('A' for Active; 'I' for Inactive)
REMARK    1  A    between atoms: N_1  and  C_8 
REMARK    2  A    between atoms: N_2  and  C_7 
REMARK    3  A    between atoms: C_8  and  C_9 
REMARK       I    between atoms: C_9  and  N_11 
REMARK    4  A    between atoms: C_10  and  C_15 
REMARK    5  A    between atoms: N_11  and  C_15 
ROOT
HETATM    1  N   UNL     1     -41.059 -50.787  12.391  1.00  0.00    -0.255 N 
HETATM    2  N   UNL     1     -41.380 -48.495  11.921  1.00  0.00    -0.279 N 
HETATM    3  C   UNL     1     -41.940 -49.713  12.292  1.00  0.00     0.334 C 
HETATM    4  C   UNL     1     -39.674 -50.669  12.322  1.00  0.00     0.292 C 
HETATM    5  C   UNL     1     -39.165 -49.291  12.165  1.00  0.00     0.200 C 
HETATM    6  C   UNL     1     -40.014 -48.297  11.922  1.00  0.00     0.146 C 
HETATM    7  O   UNL     1     -43.154 -49.844  12.458  1.00  0.00    -0.246 OA
HETATM    8  O   UNL     1     -38.905 -51.627  12.331  1.00  0.00    -0.264 OA
HETATM    9  F   UNL     1     -37.829 -49.122  12.124  1.00  0.00    -0.199 F 
ENDROOT
BRANCH   1  10
HETATM   10  C   UNL     1     -41.613 -52.112  12.158  1.00  0.00     0.240 C 
BRANCH  10  11
HETATM   11  C   UNL     1     -42.365 -52.826  13.274  1.00  0.00     0.236 C 
HETATM   12  N   UNL     1     -43.738 -52.795  13.264  1.00  0.00    -0.349 N 
HETATM   13  H   UNL     1     -44.250 -52.388  12.491  1.00  0.00     0.163 HD
HETATM   14  O   UNL     1     -41.741 -53.529  14.073  1.00  0.00    -0.272 OA
BRANCH  12  15
HETATM   15  C   UNL     1     -44.467 -53.590  14.239  1.00  0.00     0.137 C 
HETATM   16  C   UNL     1     -45.025 -54.883  13.637  1.00  0.00     0.039 C 
BRANCH  15  17
HETATM   17  C   UNL     1     -45.566 -52.791  14.851  1.00  0.00     0.074 A 
HETATM   18  O   UNL     1     -45.974 -53.123  16.113  1.00  0.00    -0.325 OA
HETATM   19  C   UNL     1     -46.893 -52.194  16.487  1.00  0.00     0.142 A 
HETATM   20  C   UNL     1     -47.092 -51.276  15.482  1.00  0.00     0.027 A 
HETATM   21  C   UNL     1     -46.248 -51.670  14.418  1.00  0.00     0.037 A 
ENDBRANCH  15  17
ENDBRANCH  12  15
ENDBRANCH  10  11
ENDBRANCH   1  10
BRANCH   2  22
HETATM   22  C   UNL     1     -42.284 -47.497  11.373  1.00  0.00     0.232 C 
HETATM   23  O   UNL     1     -42.645 -47.818  10.016  1.00  0.00    -0.366 OA
HETATM   24  C   UNL     1     -42.911 -46.585   9.329  1.00  0.00     0.170 C 
HETATM   25  C   UNL     1     -42.741 -45.465  10.338  1.00  0.00     0.031 C 
HETATM   26  C   UNL     1     -41.770 -46.069  11.329  1.00  0.00     0.056 C 
ENDBRANCH   2  22
TORSDOF 5
ENDMDL
MODEL 5
REMARK VINA RESULT:      -6.0      2.672      6.870
REMARK  5 active torsions:
REMARK  status: ('A' for Active; 'I' for Inactive)
REMARK    1  A    between atoms: N_1  and  C_8 
REMARK    2  A    between atoms: N_2  and  C_7 
REMARK    3  A    between atoms: C_8  and  C_9 
REMARK       I    between atoms: C_9  and  N_11 
REMARK    4  A    between atoms: C_10  and  C_15 
REMARK    5  A    between atoms: N_11  and  C_15 
ROOT
HETATM    1  N   UNL     1     -38.487 -50.618  13.436  1.00  0.00    -0.255 N 
HETATM    2  N   UNL     1     -39.533 -48.858  12.260  1.00  0.00    -0.279 N 
HETATM    3  C   UNL     1     -39.410 -49.577  13.445  1.00  0.00     0.334 C 
HETATM    4  C   UNL     1     -37.582 -50.850  12.404  1.00  0.00     0.292 C 
HETATM    5  C   UNL     1     -37.632 -49.880  11.291  1.00  0.00     0.200 C 
HETATM    6  C   UNL     1     -38.613 -48.984  11.240  1.00  0.00     0.146 C 
HETATM    7  O   UNL     1     -40.126 -49.344  14.421  1.00  0.00    -0.246 OA
HETATM    8  O   UNL     1     -36.823 -51.815  12.364  1.00  0.00    -0.264 OA
HETATM    9  F   UNL     1     -36.755 -50.045  10.283  1.00  0.00    -0.199 F 
ENDROOT
BRANCH   1  10
HETATM   10  C   UNL     1     -38.743 -51.730  14.340  1.00  0.00     0.240 C 
BRANCH  10  11
HETATM   11  C   UNL     1     -39.830 -52.743  14.005  1.00  0.00     0.236 C 
HETATM   12  N   UNL     1     -41.142 -52.392  14.216  1.00  0.00    -0.349 N 
HETATM   13  H   UNL     1     -41.396 -51.455  14.501  1.00  0.00     0.163 HD
HETATM   14  O   UNL     1     -39.528 -53.788  13.425  1.00  0.00    -0.272 OA
BRANCH  12  15
HETATM   15  C   UNL     1     -42.192 -53.292  13.767  1.00  0.00     0.137 C 
HETATM   16  C   UNL     1     -42.860 -52.810  12.476  1.00  0.00     0.039 C 
BRANCH  15  17
HETATM   17  C   UNL     1     -43.213 -53.481  14.836  1.00  0.00     0.074 A 
HETATM   18  O   UNL     1     -44.398 -52.809  14.716  1.00  0.00    -0.325 OA
HETATM   19  C   UNL     1     -45.191 -53.225  15.738  1.00  0.00     0.142 A 
HETATM   20  C   UNL     1     -44.533 -54.143  16.521  1.00  0.00     0.027 A 
HETATM   21  C   UNL     1     -43.248 -54.298  15.949  1.00  0.00     0.037 A 
ENDBRANCH  15  17
ENDBRANCH  12  15
ENDBRANCH  10  11
ENDBRANCH   1  10
BRANCH   2  22
HETATM   22  C   UNL     1     -40.760 -48.099  12.078  1.00  0.00     0.232 C 
HETATM   23  O   UNL     1     -41.685 -48.809  11.233  1.00  0.00    -0.366 OA
HETATM   24  C   UNL     1     -42.486 -47.837  10.545  1.00  0.00     0.170 C 
HETATM   25  C   UNL     1     -42.048 -46.469  11.032  1.00  0.00     0.031 C 
HETATM   26  C   UNL     1     -40.617 -46.721  11.455  1.00  0.00     0.056 C 
ENDBRANCH   2  22
TORSDOF 5
ENDMDL
MODEL 6
REMARK VINA RESULT:      -6.0      4.625      6.171
REMARK  5 active torsions:
REMARK  status: ('A' for Active; 'I' for Inactive)
REMARK    1  A    between atoms: N_1  and  C_8 
REMARK    2  A    between atoms: N_2  and  C_7 
REMARK    3  A    between atoms: C_8  and  C_9 
REMARK       I    between atoms: C_9  and  N_11 
REMARK    4  A    between atoms: C_10  and  C_15 
REMARK    5  A    between atoms: N_11  and  C_15 
ROOT
HETATM    1  N   UNL     1     -44.474 -53.100  14.271  1.00  0.00    -0.255 N 
HETATM    2  N   UNL     1     -45.854 -51.783  15.664  1.00  0.00    -0.279 N 
HETATM    3  C   UNL     1     -44.698 -52.545  15.528  1.00  0.00     0.334 C 
HETATM    4  C   UNL     1     -45.221 -52.790  13.138  1.00  0.00     0.292 C 
HETATM    5  C   UNL     1     -46.282 -51.782  13.337  1.00  0.00     0.200 C 
HETATM    6  C   UNL     1     -46.582 -51.374  14.566  1.00  0.00     0.146 C 
HETATM    7  O   UNL     1     -43.953 -52.768  16.484  1.00  0.00    -0.246 OA
HETATM    8  O   UNL     1     -45.071 -53.340  12.049  1.00  0.00    -0.264 OA
HETATM    9  F   UNL     1     -47.012 -51.427  12.262  1.00  0.00    -0.199 F 
ENDROOT
BRANCH   1  10
HETATM   10  C   UNL     1     -43.702 -54.332  14.227  1.00  0.00     0.240 C 
BRANCH  10  11
HETATM   11  C   UNL     1     -42.201 -54.276  13.971  1.00  0.00     0.236 C 
HETATM   12  N   UNL     1     -41.349 -54.355  15.046  1.00  0.00    -0.349 N 
HETATM   13  H   UNL     1     -41.695 -54.536  15.980  1.00  0.00     0.163 HD
HETATM   14  O   UNL     1     -41.782 -54.307  12.811  1.00  0.00    -0.272 OA
BRANCH  12  15
HETATM   15  C   UNL     1     -39.918 -54.447  14.803  1.00  0.00     0.137 C 
HETATM   16  C   UNL     1     -39.204 -55.306  15.851  1.00  0.00     0.039 C 
BRANCH  15  17
HETATM   17  C   UNL     1     -39.307 -53.089  14.747  1.00  0.00     0.074 A 
HETATM   18  O   UNL     1     -38.677 -52.718  13.592  1.00  0.00    -0.325 OA
HETATM   19  C   UNL     1     -38.308 -51.418  13.745  1.00  0.00     0.142 A 
HETATM   20  C   UNL     1     -38.679 -50.951  14.984  1.00  0.00     0.027 A 
HETATM   21  C   UNL     1     -39.311 -52.034  15.639  1.00  0.00     0.037 A 
ENDBRANCH  15  17
ENDBRANCH  12  15
ENDBRANCH  10  11
ENDBRANCH   1  10
BRANCH   2  22
HETATM   22  C   UNL     1     -46.352 -51.581  17.015  1.00  0.00     0.232 C 
HETATM   23  O   UNL     1     -47.758 -51.884  17.097  1.00  0.00    -0.366 OA
HETATM   24  C   UNL     1     -48.323 -51.066  18.133  1.00  0.00     0.170 C 
HETATM   25  C   UNL     1     -47.189 -50.258  18.736  1.00  0.00     0.031 C 
HETATM   26  C   UNL     1     -46.204 -50.183  17.589  1.00  0.00     0.056 C 
ENDBRANCH   2  22
TORSDOF 5
ENDMDL
MODEL 7
REMARK VINA RESULT:      -6.0      1.868      2.544
REMARK  5 active torsions:
REMARK  status: ('A' for Active; 'I' for Inactive)
REMARK    1  A    between atoms: N_1  and  C_8 
REMARK    2  A    between atoms: N_2  and  C_7 
REMARK    3  A    between atoms: C_8  and  C_9 
REMARK       I    between atoms: C_9  and  N_11 
REMARK    4  A    between atoms: C_10  and  C_15 
REMARK    5  A    between atoms: N_11  and  C_15 
ROOT
HETATM    1  N   UNL     1     -41.957 -53.736  13.076  1.00  0.00    -0.255 N 
HETATM    2  N   UNL     1     -44.034 -53.850  14.192  1.00  0.00    -0.279 N 
HETATM    3  C   UNL     1     -43.341 -53.596  13.014  1.00  0.00     0.334 C 
HETATM    4  C   UNL     1     -41.275 -54.276  14.163  1.00  0.00     0.292 C 
HETATM    5  C   UNL     1     -42.128 -54.740  15.276  1.00  0.00     0.200 C 
HETATM    6  C   UNL     1     -43.429 -54.466  15.269  1.00  0.00     0.146 C 
HETATM    7  O   UNL     1     -43.915 -53.207  11.995  1.00  0.00    -0.246 OA
HETATM    8  O   UNL     1     -40.050 -54.325  14.245  1.00  0.00    -0.264 OA
HETATM    9  F   UNL     1     -41.516 -55.298  16.337  1.00  0.00    -0.199 F 
ENDROOT
BRANCH   1  10
HETATM   10  C   UNL     1     -41.175 -52.930  12.150  1.00  0.00     0.240 C 
BRANCH  10  11
HETATM   11  C   UNL     1     -41.073 -51.425  12.357  1.00  0.00     0.236 C 
HETATM   12  N   UNL     1     -42.127 -50.635  11.965  1.00  0.00    -0.349 N 
HETATM   13  H   UNL     1     -42.992 -51.041  11.629  1.00  0.00     0.163 HD
HETATM   14  O   UNL     1     -40.124 -50.962  12.994  1.00  0.00    -0.272 OA
BRANCH  12  15
HETATM   15  C   UNL     1     -42.103 -49.217  12.288  1.00  0.00     0.137 C 
HETATM   16  C   UNL     1     -42.905 -48.894  13.551  1.00  0.00     0.039 C 
BRANCH  15  17
HETATM   17  C   UNL     1     -42.604 -48.411  11.138  1.00  0.00     0.074 A 
HETATM   18  O   UNL     1     -43.906 -47.996  11.166  1.00  0.00    -0.325 OA
HETATM   19  C   UNL     1     -44.088 -47.197  10.081  1.00  0.00     0.142 A 
HETATM   20  C   UNL     1     -42.928 -47.101   9.350  1.00  0.00     0.027 A 
HETATM   21  C   UNL     1     -41.972 -47.897  10.022  1.00  0.00     0.037 A 
ENDBRANCH  15  17
ENDBRANCH  12  15
ENDBRANCH  10  11
ENDBRANCH   1  10
BRANCH   2  22
HETATM   22  C   UNL     1     -45.372 -53.290  14.301  1.00  0.00     0.232 C 
HETATM   23  O   UNL     1     -45.339 -51.854  14.194  1.00  0.00    -0.366 OA
HETATM   24  C   UNL     1     -46.440 -51.333  14.954  1.00  0.00     0.170 C 
HETATM   25  C   UNL     1     -47.201 -52.520  15.512  1.00  0.00     0.031 C 
HETATM   26  C   UNL     1     -46.129 -53.585  15.583  1.00  0.00     0.056 C 
ENDBRANCH   2  22
TORSDOF 5
ENDMDL
MODEL 8
REMARK VINA RESULT:      -5.9      3.512      6.765
REMARK  5 active torsions:
REMARK  status: ('A' for Active; 'I' for Inactive)
REMARK    1  A    between atoms: N_1  and  C_8 
REMARK    2  A    between atoms: N_2  and  C_7 
REMARK    3  A    between atoms: C_8  and  C_9 
REMARK       I    between atoms: C_9  and  N_11 
REMARK    4  A    between atoms: C_10  and  C_15 
REMARK    5  A    between atoms: N_11  and  C_15 
ROOT
HETATM    1  N   UNL     1     -39.682 -51.154  12.268  1.00  0.00    -0.255 N 
HETATM    2  N   UNL     1     -38.223 -50.310  13.922  1.00  0.00    -0.279 N 
HETATM    3  C   UNL     1     -38.778 -51.420  13.293  1.00  0.00     0.334 C 
HETATM    4  C   UNL     1     -39.909 -49.887  11.737  1.00  0.00     0.292 C 
HETATM    5  C   UNL     1     -39.088 -48.804  12.316  1.00  0.00     0.200 C 
HETATM    6  C   UNL     1     -38.342 -49.043  13.390  1.00  0.00     0.146 C 
HETATM    7  O   UNL     1     -38.532 -52.568  13.667  1.00  0.00    -0.246 OA
HETATM    8  O   UNL     1     -40.763 -49.645  10.888  1.00  0.00    -0.264 OA
HETATM    9  F   UNL     1     -39.251 -47.565  11.814  1.00  0.00    -0.199 F 
ENDROOT
BRANCH   1  10
HETATM   10  C   UNL     1     -40.706 -52.158  12.020  1.00  0.00     0.240 C 
BRANCH  10  11
HETATM   11  C   UNL     1     -41.910 -52.256  12.948  1.00  0.00     0.236 C 
HETATM   12  N   UNL     1     -42.782 -53.305  12.783  1.00  0.00    -0.349 N 
HETATM   13  H   UNL     1     -42.590 -54.050  12.124  1.00  0.00     0.163 HD
HETATM   14  O   UNL     1     -42.002 -51.487  13.907  1.00  0.00    -0.272 OA
BRANCH  12  15
HETATM   15  C   UNL     1     -43.852 -53.490  13.751  1.00  0.00     0.137 C 
HETATM   16  C   UNL     1     -44.231 -54.963  13.924  1.00  0.00     0.039 C 
BRANCH  15  17
HETATM   17  C   UNL     1     -45.049 -52.691  13.366  1.00  0.00     0.074 A 
HETATM   18  O   UNL     1     -45.585 -52.898  12.125  1.00  0.00    -0.325 OA
HETATM   19  C   UNL     1     -46.716 -52.146  12.055  1.00  0.00     0.142 A 
HETATM   20  C   UNL     1     -46.909 -51.449  13.225  1.00  0.00     0.027 A 
HETATM   21  C   UNL     1     -45.824 -51.788  14.067  1.00  0.00     0.037 A 
ENDBRANCH  15  17
ENDBRANCH  12  15
ENDBRANCH  10  11
ENDBRANCH   1  10
BRANCH   2  22
HETATM   22  C   UNL     1     -37.659 -50.521  15.246  1.00  0.00     0.232 C 
HETATM   23  O   UNL     1     -38.676 -50.420  16.262  1.00  0.00    -0.366 OA
HETATM   24  C   UNL     1     -38.049 -49.949  17.465  1.00  0.00     0.170 C 
HETATM   25  C   UNL     1     -36.568 -49.799  17.169  1.00  0.00     0.031 C 
HETATM   26  C   UNL     1     -36.561 -49.564  15.675  1.00  0.00     0.056 C 
ENDBRANCH   2  22
TORSDOF 5
ENDMDL
MODEL 9
REMARK VINA RESULT:      -5.8      3.456      4.491
REMARK  5 active torsions:
REMARK  status: ('A' for Active; 'I' for Inactive)
REMARK    1  A    between atoms: N_1  and  C_8 
REMARK    2  A    between atoms: N_2  and  C_7 
REMARK    3  A    between atoms: C_8  and  C_9 
REMARK       I    between atoms: C_9  and  N_11 
REMARK    4  A    between atoms: C_10  and  C_15 
REMARK    5  A    between atoms: N_11  and  C_15 
ROOT
HETATM    1  N   UNL     1     -41.655 -53.369  12.948  1.00  0.00    -0.255 N 
HETATM    2  N   UNL     1     -43.284 -53.424  14.656  1.00  0.00    -0.279 N 
HETATM    3  C   UNL     1     -42.991 -53.224  13.311  1.00  0.00     0.334 C 
HETATM    4  C   UNL     1     -40.666 -53.868  13.792  1.00  0.00     0.292 C 
HETATM    5  C   UNL     1     -41.131 -54.280  15.132  1.00  0.00     0.200 C 
HETATM    6  C   UNL     1     -42.371 -53.998  15.517  1.00  0.00     0.146 C 
HETATM    7  O   UNL     1     -43.854 -52.873  12.505  1.00  0.00    -0.246 OA
HETATM    8  O   UNL     1     -39.476 -53.922  13.494  1.00  0.00    -0.264 OA
HETATM    9  F   UNL     1     -40.216 -54.797  15.975  1.00  0.00    -0.199 F 
ENDROOT
BRANCH   1  10
HETATM   10  C   UNL     1     -41.203 -52.607  11.793  1.00  0.00     0.240 C 
BRANCH  10  11
HETATM   11  C   UNL     1     -40.540 -51.251  11.994  1.00  0.00     0.236 C 
HETATM   12  N   UNL     1     -39.175 -51.203  12.142  1.00  0.00    -0.349 N 
HETATM   13  H   UNL     1     -38.604 -52.032  12.032  1.00  0.00     0.163 HD
HETATM   14  O   UNL     1     -41.212 -50.223  11.878  1.00  0.00    -0.272 OA
BRANCH  12  15
HETATM   15  C   UNL     1     -38.517 -49.907  12.190  1.00  0.00     0.137 C 
HETATM   16  C   UNL     1     -37.452 -49.754  11.101  1.00  0.00     0.039 C 
BRANCH  15  17
HETATM   17  C   UNL     1     -37.917 -49.674  13.534  1.00  0.00     0.074 A 
HETATM   18  O   UNL     1     -37.620 -48.387  13.888  1.00  0.00    -0.325 OA
HETATM   19  C   UNL     1     -37.195 -48.422  15.179  1.00  0.00     0.142 A 
HETATM   20  C   UNL     1     -37.202 -49.711  15.657  1.00  0.00     0.027 A 
HETATM   21  C   UNL     1     -37.653 -50.523  14.591  1.00  0.00     0.037 A 
ENDBRANCH  15  17
ENDBRANCH  12  15
ENDBRANCH  10  11
ENDBRANCH   1  10
BRANCH   2  22
HETATM   22  C   UNL     1     -44.527 -52.852  15.149  1.00  0.00     0.232 C 
HETATM   23  O   UNL     1     -45.658 -53.639  14.732  1.00  0.00    -0.366 OA
HETATM   24  C   UNL     1     -46.786 -52.758  14.613  1.00  0.00     0.170 C 
HETATM   25  C   UNL     1     -46.319 -51.374  15.022  1.00  0.00     0.031 C 
HETATM   26  C   UNL     1     -44.838 -51.431  14.713  1.00  0.00     0.056 C 
ENDBRANCH   2  22
TORSDOF 5
ENDMDL
