MODEL 1
REMARK VINA RESULT:      -6.2      0.000      0.000
REMARK  4 active torsions:
REMARK  status: ('A' for Active; 'I' for Inactive)
REMARK    1  A    between atoms: N_7  and  C_8 
REMARK    2  A    between atoms: C_8  and  C_9 
REMARK    3  A    between atoms: C_9  and  O_10 
REMARK    4  A    between atoms: C_9  and  C_11 
ROOT
HETATM    1  C   UNL     1     -41.538 -51.133  12.463  1.00  0.00     0.189 C 
ENDROOT
BRANCH   1   2
HETATM    2  N   UNL     1     -40.125 -50.903  12.772  1.00  0.00    -0.255 N 
HETATM    3  C   UNL     1     -39.671 -51.138  14.061  1.00  0.00     0.262 A 
HETATM    4  C   UNL     1     -38.217 -50.977  14.277  1.00  0.00     0.078 A 
HETATM    5  O   UNL     1     -40.391 -51.475  15.001  1.00  0.00    -0.267 OA
HETATM    6  C   UNL     1     -37.407 -50.665  13.266  1.00  0.00     0.031 A 
HETATM    7  C   UNL     1     -38.035 -50.471  11.942  1.00  0.00     0.022 A 
HETATM    8  C   UNL     1     -37.131 -50.107  10.791  1.00  0.00     0.069 C 
HETATM    9  N   UNL     1     -39.306 -50.581  11.709  1.00  0.00    -0.300 N 
ATOM     10  HN  UNL     1     -39.687 -50.434  10.774  1.00  0.00     0.187 HD
ENDBRANCH   1   2
BRANCH   1  11
HETATM   11  C   UNL     1     -41.774 -52.539  11.872  1.00  0.00     0.171 C 
BRANCH  11  12
HETATM   12  O   UNL     1     -40.558 -53.283  11.703  1.00  0.00    -0.389 OA
HETATM   13  H   UNL     1     -40.451 -53.869  12.477  1.00  0.00     0.210 HD
ENDBRANCH  11  12
BRANCH  11  14
HETATM   14  C   UNL     1     -42.683 -53.417  12.709  1.00  0.00    -0.026 A 
HETATM   15  C   UNL     1     -44.067 -53.474  12.468  1.00  0.00     0.010 A 
HETATM   16  C   UNL     1     -44.909 -54.216  13.301  1.00  0.00     0.002 A 
HETATM   17  C   UNL     1     -44.380 -54.912  14.386  1.00  0.00     0.024 A 
HETATM   18  C   UNL     1     -43.010 -54.870  14.627  1.00  0.00     0.034 A 
HETATM   19 CL   UNL     1     -42.358 -55.717  15.980  1.00  0.00    -0.084 Cl
HETATM   20  C   UNL     1     -42.163 -54.131  13.800  1.00  0.00     0.033 A 
ENDBRANCH  11  14
ENDBRANCH   1  11
TORSDOF 4
ENDMDL
MODEL 2
REMARK VINA RESULT:      -5.9      2.191      2.693
REMARK  4 active torsions:
REMARK  status: ('A' for Active; 'I' for Inactive)
REMARK    1  A    between atoms: N_7  and  C_8 
REMARK    2  A    between atoms: C_8  and  C_9 
REMARK    3  A    between atoms: C_9  and  O_10 
REMARK    4  A    between atoms: C_9  and  C_11 
ROOT
HETATM    1  C   UNL     1     -41.345 -51.038  13.014  1.00  0.00     0.189 C 
ENDROOT
BRANCH   1   2
HETATM    2  N   UNL     1     -41.130 -49.725  12.403  1.00  0.00    -0.255 N 
HETATM    3  C   UNL     1     -40.020 -48.981  12.777  1.00  0.00     0.262 A 
HETATM    4  C   UNL     1     -39.815 -47.710  12.051  1.00  0.00     0.078 A 
HETATM    5  O   UNL     1     -39.217 -49.322  13.645  1.00  0.00    -0.267 OA
HETATM    6  C   UNL     1     -40.639 -47.344  11.070  1.00  0.00     0.031 A 
HETATM    7  C   UNL     1     -41.763 -48.254  10.766  1.00  0.00     0.022 A 
HETATM    8  C   UNL     1     -42.710 -47.845   9.665  1.00  0.00     0.069 C 
HETATM    9  N   UNL     1     -41.996 -49.367  11.389  1.00  0.00    -0.300 N 
ATOM     10  HN  UNL     1     -42.789 -49.957  11.140  1.00  0.00     0.187 HD
ENDBRANCH   1   2
BRANCH   1  11
HETATM   11  C   UNL     1     -42.141 -51.979  12.085  1.00  0.00     0.171 C 
BRANCH  11  12
HETATM   12  O   UNL     1     -41.314 -52.626  11.107  1.00  0.00    -0.389 OA
HETATM   13  H   UNL     1     -40.874 -53.384  11.537  1.00  0.00     0.210 HD
ENDBRANCH  11  12
BRANCH  11  14
HETATM   14  C   UNL     1     -42.872 -53.091  12.809  1.00  0.00    -0.026 A 
HETATM   15  C   UNL     1     -44.201 -53.422  12.489  1.00  0.00     0.010 A 
HETATM   16  C   UNL     1     -44.896 -54.387  13.222  1.00  0.00     0.002 A 
HETATM   17  C   UNL     1     -44.274 -55.036  14.287  1.00  0.00     0.024 A 
HETATM   18  C   UNL     1     -42.955 -54.722  14.607  1.00  0.00     0.034 A 
HETATM   19 CL   UNL     1     -42.192 -55.512  15.935  1.00  0.00    -0.084 Cl
HETATM   20  C   UNL     1     -42.255 -53.760  13.878  1.00  0.00     0.033 A 
ENDBRANCH  11  14
ENDBRANCH   1  11
TORSDOF 4
ENDMDL
MODEL 3
REMARK VINA RESULT:      -5.8      4.983      6.353
REMARK  4 active torsions:
REMARK  status: ('A' for Active; 'I' for Inactive)
REMARK    1  A    between atoms: N_7  and  C_8 
REMARK    2  A    between atoms: C_8  and  C_9 
REMARK    3  A    between atoms: C_9  and  O_10 
REMARK    4  A    between atoms: C_9  and  C_11 
ROOT
HETATM    1  C   UNL     1     -41.982 -48.172  10.628  1.00  0.00     0.189 C 
ENDROOT
BRANCH   1   2
HETATM    2  N   UNL     1     -43.102 -47.398  10.088  1.00  0.00    -0.255 N 
HETATM    3  C   UNL     1     -42.887 -46.086   9.694  1.00  0.00     0.262 A 
HETATM    4  C   UNL     1     -44.037 -45.397   9.071  1.00  0.00     0.078 A 
HETATM    5  O   UNL     1     -41.818 -45.489   9.820  1.00  0.00    -0.267 OA
HETATM    6  C   UNL     1     -45.189 -46.037   8.873  1.00  0.00     0.031 A 
HETATM    7  C   UNL     1     -45.260 -47.444   9.322  1.00  0.00     0.022 A 
HETATM    8  C   UNL     1     -46.563 -48.175   9.114  1.00  0.00     0.069 C 
HETATM    9  N   UNL     1     -44.285 -48.082   9.892  1.00  0.00    -0.300 N 
ATOM     10  HN  UNL     1     -44.389 -49.053  10.185  1.00  0.00     0.187 HD
ENDBRANCH   1   2
BRANCH   1  11
HETATM   11  C   UNL     1     -42.115 -48.386  12.151  1.00  0.00     0.171 C 
BRANCH  11  12
HETATM   12  O   UNL     1     -43.042 -47.477  12.762  1.00  0.00    -0.389 OA
HETATM   13  H   UNL     1     -43.598 -47.092  12.057  1.00  0.00     0.210 HD
ENDBRANCH  11  12
BRANCH  11  14
HETATM   14  C   UNL     1     -42.579 -49.775  12.542  1.00  0.00    -0.026 A 
HETATM   15  C   UNL     1     -41.813 -50.914  12.236  1.00  0.00     0.010 A 
HETATM   16  C   UNL     1     -42.290 -52.196  12.521  1.00  0.00     0.002 A 
HETATM   17  C   UNL     1     -43.540 -52.359  13.115  1.00  0.00     0.024 A 
HETATM   18  C   UNL     1     -44.302 -51.237  13.431  1.00  0.00     0.034 A 
HETATM   19 CL   UNL     1     -45.855 -51.440  14.150  1.00  0.00    -0.084 Cl
HETATM   20  C   UNL     1     -43.831 -49.954  13.150  1.00  0.00     0.033 A 
ENDBRANCH  11  14
ENDBRANCH   1  11
TORSDOF 4
ENDMDL
MODEL 4
REMARK VINA RESULT:      -5.8      3.111      6.412
REMARK  4 active torsions:
REMARK  status: ('A' for Active; 'I' for Inactive)
REMARK    1  A    between atoms: N_7  and  C_8 
REMARK    2  A    between atoms: C_8  and  C_9 
REMARK    3  A    between atoms: C_9  and  O_10 
REMARK    4  A    between atoms: C_9  and  C_11 
ROOT
HETATM    1  C   UNL     1     -42.587 -52.340  12.308  1.00  0.00     0.189 C 
ENDROOT
BRANCH   1   2
HETATM    2  N   UNL     1     -43.294 -53.309  13.147  1.00  0.00    -0.255 N 
HETATM    3  C   UNL     1     -44.620 -53.604  12.866  1.00  0.00     0.262 A 
HETATM    4  C   UNL     1     -45.241 -54.660  13.693  1.00  0.00     0.078 A 
HETATM    5  O   UNL     1     -45.280 -53.058  11.982  1.00  0.00    -0.267 OA
HETATM    6  C   UNL     1     -44.533 -55.305  14.619  1.00  0.00     0.031 A 
HETATM    7  C   UNL     1     -43.122 -54.898  14.787  1.00  0.00     0.022 A 
HETATM    8  C   UNL     1     -42.314 -55.613  15.841  1.00  0.00     0.069 C 
HETATM    9  N   UNL     1     -42.541 -53.964  14.101  1.00  0.00    -0.300 N 
ATOM     10  HN  UNL     1     -41.563 -53.722  14.259  1.00  0.00     0.187 HD
ENDBRANCH   1   2
BRANCH   1  11
HETATM   11  C   UNL     1     -41.055 -52.465  12.453  1.00  0.00     0.171 C 
BRANCH  11  12
HETATM   12  O   UNL     1     -40.486 -53.418  11.543  1.00  0.00    -0.389 OA
HETATM   13  H   UNL     1     -39.635 -53.720  11.913  1.00  0.00     0.210 HD
ENDBRANCH  11  12
BRANCH  11  14
HETATM   14  C   UNL     1     -40.303 -51.171  12.219  1.00  0.00    -0.026 A 
HETATM   15  C   UNL     1     -38.967 -51.017  12.632  1.00  0.00     0.010 A 
HETATM   16  C   UNL     1     -38.311 -49.791  12.493  1.00  0.00     0.002 A 
HETATM   17  C   UNL     1     -38.980 -48.700  11.940  1.00  0.00     0.024 A 
HETATM   18  C   UNL     1     -40.300 -48.845  11.520  1.00  0.00     0.034 A 
HETATM   19 CL   UNL     1     -41.133 -47.491  10.853  1.00  0.00    -0.084 Cl
HETATM   20  C   UNL     1     -40.961 -50.066  11.655  1.00  0.00     0.033 A 
ENDBRANCH  11  14
ENDBRANCH   1  11
TORSDOF 4
ENDMDL
MODEL 5
REMARK VINA RESULT:      -5.8      2.166      2.825
REMARK  4 active torsions:
REMARK  status: ('A' for Active; 'I' for Inactive)
REMARK    1  A    between atoms: N_7  and  C_8 
REMARK    2  A    between atoms: C_8  and  C_9 
REMARK    3  A    between atoms: C_9  and  O_10 
REMARK    4  A    between atoms: C_9  and  C_11 
ROOT
HETATM    1  C   UNL     1     -39.781 -52.522  13.508  1.00  0.00     0.189 C 
ENDROOT
BRANCH   1   2
HETATM    2  N   UNL     1     -39.246 -51.159  13.500  1.00  0.00    -0.255 N 
HETATM    3  C   UNL     1     -37.987 -50.933  12.962  1.00  0.00     0.262 A 
HETATM    4  C   UNL     1     -37.551 -49.522  12.900  1.00  0.00     0.078 A 
HETATM    5  O   UNL     1     -37.245 -51.818  12.536  1.00  0.00    -0.267 OA
HETATM    6  C   UNL     1     -38.357 -48.541  13.304  1.00  0.00     0.031 A 
HETATM    7  C   UNL     1     -39.681 -48.936  13.829  1.00  0.00     0.022 A 
HETATM    8  C   UNL     1     -40.597 -47.835  14.301  1.00  0.00     0.069 C 
HETATM    9  N   UNL     1     -40.098 -50.160  13.923  1.00  0.00    -0.300 N 
ATOM     10  HN  UNL     1     -41.022 -50.377  14.296  1.00  0.00     0.187 HD
ENDBRANCH   1   2
BRANCH   1  11
HETATM   11  C   UNL     1     -40.889 -52.710  12.449  1.00  0.00     0.171 C 
BRANCH  11  12
HETATM   12  O   UNL     1     -40.520 -53.637  11.417  1.00  0.00    -0.389 OA
HETATM   13  H   UNL     1     -40.950 -53.354  10.588  1.00  0.00     0.210 HD
ENDBRANCH  11  12
BRANCH  11  14
HETATM   14  C   UNL     1     -42.202 -53.217  13.010  1.00  0.00    -0.026 A 
HETATM   15  C   UNL     1     -42.241 -54.274  13.937  1.00  0.00     0.010 A 
HETATM   16  C   UNL     1     -43.460 -54.793  14.380  1.00  0.00     0.002 A 
HETATM   17  C   UNL     1     -44.658 -54.264  13.904  1.00  0.00     0.024 A 
HETATM   18  C   UNL     1     -44.630 -53.211  12.993  1.00  0.00     0.034 A 
HETATM   19 CL   UNL     1     -46.112 -52.569  12.391  1.00  0.00    -0.084 Cl
HETATM   20  C   UNL     1     -43.417 -52.687  12.547  1.00  0.00     0.033 A 
ENDBRANCH  11  14
ENDBRANCH   1  11
TORSDOF 4
ENDMDL
MODEL 6
REMARK VINA RESULT:      -5.8      5.140      7.280
REMARK  4 active torsions:
REMARK  status: ('A' for Active; 'I' for Inactive)
REMARK    1  A    between atoms: N_7  and  C_8 
REMARK    2  A    between atoms: C_8  and  C_9 
REMARK    3  A    between atoms: C_9  and  O_10 
REMARK    4  A    between atoms: C_9  and  C_11 
ROOT
HETATM    1  C   UNL     1     -42.748 -47.941  11.868  1.00  0.00     0.189 C 
ENDROOT
BRANCH   1   2
HETATM    2  N   UNL     1     -43.551 -47.311  10.818  1.00  0.00    -0.255 N 
HETATM    3  C   UNL     1     -43.107 -46.125  10.251  1.00  0.00     0.262 A 
HETATM    4  C   UNL     1     -43.917 -45.597   9.132  1.00  0.00     0.078 A 
HETATM    5  O   UNL     1     -42.099 -45.518  10.610  1.00  0.00    -0.267 OA
HETATM    6  C   UNL     1     -44.982 -46.263   8.687  1.00  0.00     0.031 A 
HETATM    7  C   UNL     1     -45.316 -47.528   9.376  1.00  0.00     0.022 A 
HETATM    8  C   UNL     1     -46.526 -48.285   8.889  1.00  0.00     0.069 C 
HETATM    9  N   UNL     1     -44.649 -48.019  10.373  1.00  0.00    -0.300 N 
ATOM     10  HN  UNL     1     -44.925 -48.896  10.814  1.00  0.00     0.187 HD
ENDBRANCH   1   2
BRANCH   1  11
HETATM   11  C   UNL     1     -41.705 -48.919  11.283  1.00  0.00     0.171 C 
BRANCH  11  12
HETATM   12  O   UNL     1     -41.389 -48.640   9.912  1.00  0.00    -0.389 OA
HETATM   13  H   UNL     1     -40.754 -47.899   9.891  1.00  0.00     0.210 HD
ENDBRANCH  11  12
BRANCH  11  14
HETATM   14  C   UNL     1     -40.381 -48.925  12.020  1.00  0.00    -0.026 A 
HETATM   15  C   UNL     1     -40.029 -47.883  12.897  1.00  0.00     0.010 A 
HETATM   16  C   UNL     1     -38.770 -47.852  13.503  1.00  0.00     0.002 A 
HETATM   17  C   UNL     1     -37.844 -48.860  13.241  1.00  0.00     0.024 A 
HETATM   18  C   UNL     1     -38.187 -49.901  12.381  1.00  0.00     0.034 A 
HETATM   19 CL   UNL     1     -37.035 -51.138  12.043  1.00  0.00    -0.084 Cl
HETATM   20  C   UNL     1     -39.442 -49.939  11.773  1.00  0.00     0.033 A 
ENDBRANCH  11  14
ENDBRANCH   1  11
TORSDOF 4
ENDMDL
MODEL 7
REMARK VINA RESULT:      -5.7      5.246      7.360
REMARK  4 active torsions:
REMARK  status: ('A' for Active; 'I' for Inactive)
REMARK    1  A    between atoms: N_7  and  C_8 
REMARK    2  A    between atoms: C_8  and  C_9 
REMARK    3  A    between atoms: C_9  and  O_10 
REMARK    4  A    between atoms: C_9  and  C_11 
ROOT
HETATM    1  C   UNL     1     -42.559 -47.921  11.886  1.00  0.00     0.189 C 
ENDROOT
BRANCH   1   2
HETATM    2  N   UNL     1     -43.369 -47.255  10.864  1.00  0.00    -0.255 N 
HETATM    3  C   UNL     1     -42.949 -46.031  10.365  1.00  0.00     0.262 A 
HETATM    4  C   UNL     1     -43.763 -45.463   9.269  1.00  0.00     0.078 A 
HETATM    5  O   UNL     1     -41.959 -45.420  10.766  1.00  0.00    -0.267 OA
HETATM    6  C   UNL     1     -44.808 -46.128   8.779  1.00  0.00     0.031 A 
HETATM    7  C   UNL     1     -45.117 -47.435   9.397  1.00  0.00     0.022 A 
HETATM    8  C   UNL     1     -46.306 -48.194   8.859  1.00  0.00     0.069 C 
HETATM    9  N   UNL     1     -44.447 -47.964  10.373  1.00  0.00    -0.300 N 
ATOM     10  HN  UNL     1     -44.705 -48.869  10.763  1.00  0.00     0.187 HD
ENDBRANCH   1   2
BRANCH   1  11
HETATM   11  C   UNL     1     -41.595 -48.957  11.269  1.00  0.00     0.171 C 
BRANCH  11  12
HETATM   12  O   UNL     1     -41.400 -48.765   9.860  1.00  0.00    -0.389 OA
HETATM   13  H   UNL     1     -40.756 -48.042   9.739  1.00  0.00     0.210 HD
ENDBRANCH  11  12
BRANCH  11  14
HETATM   14  C   UNL     1     -40.209 -48.955  11.882  1.00  0.00    -0.026 A 
HETATM   15  C   UNL     1     -39.257 -49.931  11.539  1.00  0.00     0.010 A 
HETATM   16  C   UNL     1     -38.014 -49.974  12.175  1.00  0.00     0.002 A 
HETATM   17  C   UNL     1     -37.704 -49.042  13.164  1.00  0.00     0.024 A 
HETATM   18  C   UNL     1     -38.636 -48.065  13.504  1.00  0.00     0.034 A 
HETATM   19 CL   UNL     1     -38.259 -46.924  14.739  1.00  0.00    -0.084 Cl
HETATM   20  C   UNL     1     -39.879 -48.016  12.872  1.00  0.00     0.033 A 
ENDBRANCH  11  14
ENDBRANCH   1  11
TORSDOF 4
ENDMDL
MODEL 8
REMARK VINA RESULT:      -5.7      1.991      2.300
REMARK  4 active torsions:
REMARK  status: ('A' for Active; 'I' for Inactive)
REMARK    1  A    between atoms: N_7  and  C_8 
REMARK    2  A    between atoms: C_8  and  C_9 
REMARK    3  A    between atoms: C_9  and  O_10 
REMARK    4  A    between atoms: C_9  and  C_11 
ROOT
HETATM    1  C   UNL     1     -41.271 -51.667  13.606  1.00  0.00     0.189 C 
ENDROOT
BRANCH   1   2
HETATM    2  N   UNL     1     -40.095 -50.881  13.225  1.00  0.00    -0.255 N 
HETATM    3  C   UNL     1     -38.848 -51.488  13.235  1.00  0.00     0.262 A 
HETATM    4  C   UNL     1     -37.721 -50.664  12.749  1.00  0.00     0.078 A 
HETATM    5  O   UNL     1     -38.641 -52.643  13.604  1.00  0.00    -0.267 OA
HETATM    6  C   UNL     1     -37.926 -49.428  12.293  1.00  0.00     0.031 A 
HETATM    7  C   UNL     1     -39.316 -48.928  12.320  1.00  0.00     0.022 A 
HETATM    8  C   UNL     1     -39.559 -47.526  11.817  1.00  0.00     0.069 C 
HETATM    9  N   UNL     1     -40.332 -49.605  12.757  1.00  0.00    -0.300 N 
ATOM     10  HN  UNL     1     -41.272 -49.209  12.754  1.00  0.00     0.187 HD
ENDBRANCH   1   2
BRANCH   1  11
HETATM   11  C   UNL     1     -42.361 -51.634  12.512  1.00  0.00     0.171 C 
BRANCH  11  12
HETATM   12  O   UNL     1     -42.061 -52.492  11.402  1.00  0.00    -0.389 OA
HETATM   13  H   UNL     1     -41.686 -51.943  10.687  1.00  0.00     0.210 HD
ENDBRANCH  11  12
BRANCH  11  14
HETATM   14  C   UNL     1     -43.736 -52.048  12.997  1.00  0.00    -0.026 A 
HETATM   15  C   UNL     1     -44.673 -51.096  13.436  1.00  0.00     0.010 A 
HETATM   16  C   UNL     1     -45.904 -51.494  13.964  1.00  0.00     0.002 A 
HETATM   17  C   UNL     1     -46.217 -52.849  14.062  1.00  0.00     0.024 A 
HETATM   18  C   UNL     1     -45.299 -53.799  13.621  1.00  0.00     0.034 A 
HETATM   19 CL   UNL     1     -45.678 -55.475  13.758  1.00  0.00    -0.084 Cl
HETATM   20  C   UNL     1     -44.068 -53.409  13.092  1.00  0.00     0.033 A 
ENDBRANCH  11  14
ENDBRANCH   1  11
TORSDOF 4
ENDMDL
MODEL 9
REMARK VINA RESULT:      -5.7      3.142      4.907
REMARK  4 active torsions:
REMARK  status: ('A' for Active; 'I' for Inactive)
REMARK    1  A    between atoms: N_7  and  C_8 
REMARK    2  A    between atoms: C_8  and  C_9 
REMARK    3  A    between atoms: C_9  and  O_10 
REMARK    4  A    between atoms: C_9  and  C_11 
ROOT
HETATM    1  C   UNL     1     -42.190 -51.844  12.982  1.00  0.00     0.189 C 
ENDROOT
BRANCH   1   2
HETATM    2  N   UNL     1     -43.574 -51.728  13.448  1.00  0.00    -0.255 N 
HETATM    3  C   UNL     1     -43.813 -51.339  14.758  1.00  0.00     0.262 A 
HETATM    4  C   UNL     1     -45.230 -51.150  15.131  1.00  0.00     0.078 A 
HETATM    5  O   UNL     1     -42.932 -51.136  15.594  1.00  0.00    -0.267 OA
HETATM    6  C   UNL     1     -46.200 -51.310  14.231  1.00  0.00     0.031 A 
HETATM    7  C   UNL     1     -45.788 -51.701  12.866  1.00  0.00     0.022 A 
HETATM    8  C   UNL     1     -46.877 -51.896  11.841  1.00  0.00     0.069 C 
HETATM    9  N   UNL     1     -44.560 -51.898  12.498  1.00  0.00    -0.300 N 
ATOM     10  HN  UNL     1     -44.332 -52.169  11.542  1.00  0.00     0.187 HD
ENDBRANCH   1   2
BRANCH   1  11
HETATM   11  C   UNL     1     -41.815 -53.306  12.661  1.00  0.00     0.171 C 
BRANCH  11  12
HETATM   12  O   UNL     1     -40.652 -53.411  11.826  1.00  0.00    -0.389 OA
HETATM   13  H   UNL     1     -40.810 -54.120  11.174  1.00  0.00     0.210 HD
ENDBRANCH  11  12
BRANCH  11  14
HETATM   14  C   UNL     1     -41.525 -54.153  13.883  1.00  0.00    -0.026 A 
HETATM   15  C   UNL     1     -42.563 -54.734  14.633  1.00  0.00     0.010 A 
HETATM   16  C   UNL     1     -42.291 -55.439  15.808  1.00  0.00     0.002 A 
HETATM   17  C   UNL     1     -40.977 -55.573  16.253  1.00  0.00     0.024 A 
HETATM   18  C   UNL     1     -39.941 -55.009  15.513  1.00  0.00     0.034 A 
HETATM   19 CL   UNL     1     -38.317 -55.160  16.073  1.00  0.00    -0.084 Cl
HETATM   20  C   UNL     1     -40.205 -54.305  14.338  1.00  0.00     0.033 A 
ENDBRANCH  11  14
ENDBRANCH   1  11
TORSDOF 4
ENDMDL
