MODEL 1
REMARK VINA RESULT:      -6.3      0.000      0.000
REMARK  6 active torsions:
REMARK  status: ('A' for Active; 'I' for Inactive)
REMARK    1  A    between atoms: C_2  and  O_3 
REMARK    2  A    between atoms: O_3  and  C_4 
REMARK    3  A    between atoms: C_4  and  C_5 
REMARK       I    between atoms: C_5  and  N_7 
REMARK    4  A    between atoms: N_7  and  C_8 
REMARK    5  A    between atoms: C_11  and  O_12 
REMARK    6  A    between atoms: C_16  and  N_17 
REMARK       I    between atoms: N_20  and  C_23 
ROOT
HETATM    1  C   UNL     1     -40.001 -49.728  11.471  1.00  0.00     0.079 A 
HETATM    2  C   UNL     1     -38.657 -49.383  11.291  1.00  0.00     0.038 A 
HETATM    3  C   UNL     1     -37.740 -49.655  12.283  1.00  0.00     0.058 A 
HETATM    4  C   UNL     1     -38.208 -50.263  13.428  1.00  0.00     0.143 A 
HETATM    5  N   UNL     1     -39.497 -50.641  13.627  1.00  0.00    -0.321 N 
ATOM      6  HN  UNL     1     -39.776 -51.090  14.499  1.00  0.00     0.169 HD
HETATM    7  C   UNL     1     -40.416 -50.410  12.646  1.00  0.00     0.132 A 
ENDROOT
BRANCH   7   8
HETATM    8  N   UNL     1     -41.677 -50.979  12.810  1.00  0.00    -0.362 N 
HETATM    9  C   UNL     1     -42.755 -50.169  13.415  1.00  0.00     0.144 C 
HETATM   10  C   UNL     1     -43.729 -51.032  14.269  1.00  0.00     0.145 C 
HETATM   11  N   UNL     1     -44.157 -52.255  13.570  1.00  0.00    -0.349 N 
HETATM   12  C   UNL     1     -43.035 -53.052  13.102  1.00  0.00     0.145 C 
HETATM   13  C   UNL     1     -45.431 -52.735  13.356  1.00  0.00     0.215 C 
HETATM   14  C   UNL     1     -42.117 -52.239  12.191  1.00  0.00     0.144 C 
HETATM   15  O   UNL     1     -45.643 -53.768  12.708  1.00  0.00    -0.274 OA
HETATM   16  C   UNL     1     -46.621 -52.003  13.910  1.00  0.00     0.117 C 
ENDBRANCH   7   8
BRANCH   1  17
HETATM   17  N   UNL     1     -40.890 -49.246  10.488  1.00  0.00    -0.322 N 
HETATM   18  C   UNL     1     -41.593 -48.065  10.663  1.00  0.00     0.245 C 
HETATM   19  O   UNL     1     -41.475 -47.304  11.619  1.00  0.00    -0.271 OA
HETATM   20  H   UNL     1     -40.786 -49.603   9.548  1.00  0.00     0.169 HD
BRANCH  18  21
HETATM   21  C   UNL     1     -42.575 -47.784   9.529  1.00  0.00     0.270 C 
BRANCH  21  22
HETATM   22  O   UNL     1     -43.890 -47.521  10.008  1.00  0.00    -0.382 OA
BRANCH  22  23
HETATM   23  C   UNL     1     -44.678 -46.834   9.030  1.00  0.00     0.163 C 
HETATM   24  C   UNL     1     -46.104 -47.327   9.128  1.00  0.00     0.033 C 
ENDBRANCH  22  23
ENDBRANCH  21  22
ENDBRANCH  18  21
ENDBRANCH   1  17
BRANCH   4  25
HETATM   25  O   UNL     1     -37.237 -50.478  14.389  1.00  0.00    -0.341 OA
HETATM   26  C   UNL     1     -37.060 -49.395  15.286  1.00  0.00     0.211 C 
ENDBRANCH   4  25
TORSDOF 6
ENDMDL
MODEL 2
REMARK VINA RESULT:      -5.8      2.949      5.923
REMARK  6 active torsions:
REMARK  status: ('A' for Active; 'I' for Inactive)
REMARK    1  A    between atoms: C_2  and  O_3 
REMARK    2  A    between atoms: O_3  and  C_4 
REMARK    3  A    between atoms: C_4  and  C_5 
REMARK       I    between atoms: C_5  and  N_7 
REMARK    4  A    between atoms: N_7  and  C_8 
REMARK    5  A    between atoms: C_11  and  O_12 
REMARK    6  A    between atoms: C_16  and  N_17 
REMARK       I    between atoms: N_20  and  C_23 
ROOT
HETATM    1  C   UNL     1     -41.372 -46.593  10.992  1.00  0.00     0.079 A 
HETATM    2  C   UNL     1     -42.135 -45.633  10.318  1.00  0.00     0.038 A 
HETATM    3  C   UNL     1     -43.118 -46.033   9.438  1.00  0.00     0.058 A 
HETATM    4  C   UNL     1     -43.297 -47.388   9.263  1.00  0.00     0.143 A 
HETATM    5  N   UNL     1     -42.599 -48.348   9.921  1.00  0.00    -0.321 N 
ATOM      6  HN  UNL     1     -42.786 -49.335   9.746  1.00  0.00     0.169 HD
HETATM    7  C   UNL     1     -41.644 -47.976  10.821  1.00  0.00     0.132 A 
ENDROOT
BRANCH   7   8
HETATM    8  N   UNL     1     -41.086 -48.981  11.608  1.00  0.00    -0.362 N 
HETATM    9  C   UNL     1     -41.807 -49.425  12.820  1.00  0.00     0.144 C 
HETATM   10  C   UNL     1     -40.836 -49.840  13.962  1.00  0.00     0.145 C 
HETATM   11  N   UNL     1     -39.760 -50.728  13.491  1.00  0.00    -0.349 N 
HETATM   12  C   UNL     1     -39.028 -50.170  12.367  1.00  0.00     0.145 C 
HETATM   13  C   UNL     1     -39.355 -51.947  13.991  1.00  0.00     0.215 C 
HETATM   14  C   UNL     1     -39.962 -49.838  11.204  1.00  0.00     0.144 C 
HETATM   15  O   UNL     1     -38.453 -52.607  13.460  1.00  0.00    -0.274 OA
HETATM   16  C   UNL     1     -40.011 -52.521  15.216  1.00  0.00     0.117 C 
ENDBRANCH   7   8
BRANCH   1  17
HETATM   17  N   UNL     1     -40.276 -46.093  11.724  1.00  0.00    -0.322 N 
HETATM   18  C   UNL     1     -40.378 -45.805  13.077  1.00  0.00     0.245 C 
HETATM   19  O   UNL     1     -41.368 -46.010  13.772  1.00  0.00    -0.271 OA
HETATM   20  H   UNL     1     -39.353 -46.225  11.336  1.00  0.00     0.169 HD
BRANCH  18  21
HETATM   21  C   UNL     1     -39.110 -45.177  13.649  1.00  0.00     0.270 C 
BRANCH  21  22
HETATM   22  O   UNL     1     -38.839 -43.900  13.081  1.00  0.00    -0.382 OA
BRANCH  22  23
HETATM   23  C   UNL     1     -39.884 -42.965  13.367  1.00  0.00     0.163 C 
HETATM   24  C   UNL     1     -40.291 -42.287  12.078  1.00  0.00     0.033 C 
ENDBRANCH  22  23
ENDBRANCH  21  22
ENDBRANCH  18  21
ENDBRANCH   1  17
BRANCH   4  25
HETATM   25  O   UNL     1     -44.280 -47.712   8.345  1.00  0.00    -0.341 OA
HETATM   26  C   UNL     1     -45.589 -47.752   8.888  1.00  0.00     0.211 C 
ENDBRANCH   4  25
TORSDOF 6
ENDMDL
MODEL 3
REMARK VINA RESULT:      -5.8      2.675      6.002
REMARK  6 active torsions:
REMARK  status: ('A' for Active; 'I' for Inactive)
REMARK    1  A    between atoms: C_2  and  O_3 
REMARK    2  A    between atoms: O_3  and  C_4 
REMARK    3  A    between atoms: C_4  and  C_5 
REMARK       I    between atoms: C_5  and  N_7 
REMARK    4  A    between atoms: N_7  and  C_8 
REMARK    5  A    between atoms: C_11  and  O_12 
REMARK    6  A    between atoms: C_16  and  N_17 
REMARK       I    between atoms: N_20  and  C_23 
ROOT
HETATM    1  C   UNL     1     -40.750 -47.301  11.507  1.00  0.00     0.079 A 
HETATM    2  C   UNL     1     -41.301 -46.132  10.969  1.00  0.00     0.038 A 
HETATM    3  C   UNL     1     -42.335 -46.216  10.062  1.00  0.00     0.058 A 
HETATM    4  C   UNL     1     -42.780 -47.475   9.724  1.00  0.00     0.143 A 
HETATM    5  N   UNL     1     -42.293 -48.630  10.247  1.00  0.00    -0.321 N 
ATOM      6  HN  UNL     1     -42.671 -49.531   9.953  1.00  0.00     0.169 HD
HETATM    7  C   UNL     1     -41.291 -48.571  11.169  1.00  0.00     0.132 A 
ENDROOT
BRANCH   7   8
HETATM    8  N   UNL     1     -40.952 -49.757  11.817  1.00  0.00    -0.362 N 
HETATM    9  C   UNL     1     -42.022 -50.567  12.436  1.00  0.00     0.144 C 
HETATM   10  C   UNL     1     -41.540 -51.291  13.725  1.00  0.00     0.145 C 
HETATM   11  N   UNL     1     -40.245 -51.969  13.539  1.00  0.00    -0.349 N 
HETATM   12  C   UNL     1     -39.217 -51.076  13.032  1.00  0.00     0.145 C 
HETATM   13  C   UNL     1     -39.897 -53.273  13.816  1.00  0.00     0.215 C 
HETATM   14  C   UNL     1     -39.645 -50.423  11.718  1.00  0.00     0.144 C 
HETATM   15  O   UNL     1     -38.770 -53.719  13.566  1.00  0.00    -0.274 OA
HETATM   16  C   UNL     1     -40.894 -54.209  14.439  1.00  0.00     0.117 C 
ENDBRANCH   7   8
BRANCH   1  17
HETATM   17  N   UNL     1     -39.583 -47.125  12.278  1.00  0.00    -0.322 N 
HETATM   18  C   UNL     1     -39.629 -47.074  13.662  1.00  0.00     0.245 C 
HETATM   19  O   UNL     1     -40.636 -47.240  14.344  1.00  0.00    -0.271 OA
HETATM   20  H   UNL     1     -38.696 -47.331  11.840  1.00  0.00     0.169 HD
BRANCH  18  21
HETATM   21  C   UNL     1     -38.273 -46.771  14.293  1.00  0.00     0.270 C 
BRANCH  21  22
HETATM   22  O   UNL     1     -37.379 -47.876  14.203  1.00  0.00    -0.382 OA
BRANCH  22  23
HETATM   23  C   UNL     1     -36.848 -48.227  15.485  1.00  0.00     0.163 C 
HETATM   24  C   UNL     1     -36.703 -49.731  15.551  1.00  0.00     0.033 C 
ENDBRANCH  22  23
ENDBRANCH  21  22
ENDBRANCH  18  21
ENDBRANCH   1  17
BRANCH   4  25
HETATM   25  O   UNL     1     -43.799 -47.481   8.789  1.00  0.00    -0.341 OA
HETATM   26  C   UNL     1     -43.417 -47.980   7.518  1.00  0.00     0.211 C 
ENDBRANCH   4  25
TORSDOF 6
ENDMDL
MODEL 4
REMARK VINA RESULT:      -5.8      3.739      5.722
REMARK  6 active torsions:
REMARK  status: ('A' for Active; 'I' for Inactive)
REMARK    1  A    between atoms: C_2  and  O_3 
REMARK    2  A    between atoms: O_3  and  C_4 
REMARK    3  A    between atoms: C_4  and  C_5 
REMARK       I    between atoms: C_5  and  N_7 
REMARK    4  A    between atoms: N_7  and  C_8 
REMARK    5  A    between atoms: C_11  and  O_12 
REMARK    6  A    between atoms: C_16  and  N_17 
REMARK       I    between atoms: N_20  and  C_23 
ROOT
HETATM    1  C   UNL     1     -39.855 -53.770  15.650  1.00  0.00     0.079 A 
HETATM    2  C   UNL     1     -38.682 -54.419  16.052  1.00  0.00     0.038 A 
HETATM    3  C   UNL     1     -38.739 -55.717  16.510  1.00  0.00     0.058 A 
HETATM    4  C   UNL     1     -39.977 -56.320  16.550  1.00  0.00     0.143 A 
HETATM    5  N   UNL     1     -41.132 -55.735  16.141  1.00  0.00    -0.321 N 
ATOM      6  HN  UNL     1     -42.016 -56.242  16.195  1.00  0.00     0.169 HD
HETATM    7  C   UNL     1     -41.095 -54.462  15.654  1.00  0.00     0.132 A 
ENDROOT
BRANCH   7   8
HETATM    8  N   UNL     1     -42.262 -53.970  15.071  1.00  0.00    -0.362 N 
HETATM    9  C   UNL     1     -43.057 -52.961  15.802  1.00  0.00     0.144 C 
HETATM   10  C   UNL     1     -44.583 -53.113  15.538  1.00  0.00     0.145 C 
HETATM   11  N   UNL     1     -44.894 -53.266  14.107  1.00  0.00    -0.349 N 
HETATM   12  C   UNL     1     -44.151 -54.351  13.488  1.00  0.00     0.145 C 
HETATM   13  C   UNL     1     -45.794 -52.567  13.331  1.00  0.00     0.215 C 
HETATM   14  C   UNL     1     -42.645 -54.168  13.666  1.00  0.00     0.144 C 
HETATM   15  O   UNL     1     -45.919 -52.780  12.119  1.00  0.00    -0.274 OA
HETATM   16  C   UNL     1     -46.661 -51.505  13.946  1.00  0.00     0.117 C 
ENDBRANCH   7   8
BRANCH   1  17
HETATM   17  N   UNL     1     -39.725 -52.393  15.375  1.00  0.00    -0.322 N 
HETATM   18  C   UNL     1     -39.452 -51.932  14.097  1.00  0.00     0.245 C 
HETATM   19  O   UNL     1     -39.365 -52.634  13.093  1.00  0.00    -0.271 OA
HETATM   20  H   UNL     1     -40.120 -51.743  16.040  1.00  0.00     0.169 HD
BRANCH  18  21
HETATM   21  C   UNL     1     -39.247 -50.421  14.040  1.00  0.00     0.270 C 
BRANCH  21  22
HETATM   22  O   UNL     1     -37.958 -50.070  13.547  1.00  0.00    -0.382 OA
BRANCH  22  23
HETATM   23  C   UNL     1     -38.048 -49.261  12.370  1.00  0.00     0.163 C 
HETATM   24  C   UNL     1     -37.404 -50.005  11.222  1.00  0.00     0.033 C 
ENDBRANCH  22  23
ENDBRANCH  21  22
ENDBRANCH  18  21
ENDBRANCH   1  17
BRANCH   4  25
HETATM   25  O   UNL     1     -39.959 -57.611  17.047  1.00  0.00    -0.341 OA
HETATM   26  C   UNL     1     -38.970 -57.837  18.038  1.00  0.00     0.211 C 
ENDBRANCH   4  25
TORSDOF 6
ENDMDL
MODEL 5
REMARK VINA RESULT:      -5.7      2.028      5.296
REMARK  6 active torsions:
REMARK  status: ('A' for Active; 'I' for Inactive)
REMARK    1  A    between atoms: C_2  and  O_3 
REMARK    2  A    between atoms: O_3  and  C_4 
REMARK    3  A    between atoms: C_4  and  C_5 
REMARK       I    between atoms: C_5  and  N_7 
REMARK    4  A    between atoms: N_7  and  C_8 
REMARK    5  A    between atoms: C_11  and  O_12 
REMARK    6  A    between atoms: C_16  and  N_17 
REMARK       I    between atoms: N_20  and  C_23 
ROOT
HETATM    1  C   UNL     1     -40.840 -49.792  13.177  1.00  0.00     0.079 A 
HETATM    2  C   UNL     1     -40.093 -48.671  12.799  1.00  0.00     0.038 A 
HETATM    3  C   UNL     1     -40.485 -47.922  11.710  1.00  0.00     0.058 A 
HETATM    4  C   UNL     1     -41.615 -48.329  11.036  1.00  0.00     0.143 A 
HETATM    5  N   UNL     1     -42.383 -49.392  11.391  1.00  0.00    -0.321 N 
ATOM      6  HN  UNL     1     -43.211 -49.636  10.847  1.00  0.00     0.169 HD
HETATM    7  C   UNL     1     -42.033 -50.128  12.483  1.00  0.00     0.132 A 
ENDROOT
BRANCH   7   8
HETATM    8  N   UNL     1     -42.944 -51.087  12.923  1.00  0.00    -0.362 N 
HETATM    9  C   UNL     1     -42.780 -52.488  12.481  1.00  0.00     0.144 C 
HETATM   10  C   UNL     1     -44.146 -53.211  12.301  1.00  0.00     0.145 C 
HETATM   11  N   UNL     1     -45.050 -52.997  13.443  1.00  0.00    -0.349 N 
HETATM   12  C   UNL     1     -45.246 -51.589  13.744  1.00  0.00     0.145 C 
HETATM   13  C   UNL     1     -45.735 -53.926  14.197  1.00  0.00     0.215 C 
HETATM   14  C   UNL     1     -43.915 -50.886  14.008  1.00  0.00     0.144 C 
HETATM   15  O   UNL     1     -46.434 -53.599  15.165  1.00  0.00    -0.274 OA
HETATM   16  C   UNL     1     -45.649 -55.388  13.862  1.00  0.00     0.117 C 
ENDBRANCH   7   8
BRANCH   1  17
HETATM   17  N   UNL     1     -40.263 -50.597  14.181  1.00  0.00    -0.322 N 
HETATM   18  C   UNL     1     -39.473 -51.692  13.868  1.00  0.00     0.245 C 
HETATM   19  O   UNL     1     -39.145 -52.028  12.734  1.00  0.00    -0.271 OA
HETATM   20  H   UNL     1     -40.183 -50.204  15.109  1.00  0.00     0.169 HD
BRANCH  18  21
HETATM   21  C   UNL     1     -39.038 -52.484  15.097  1.00  0.00     0.270 C 
BRANCH  21  22
HETATM   22  O   UNL     1     -40.132 -53.140  15.730  1.00  0.00    -0.382 OA
BRANCH  22  23
HETATM   23  C   UNL     1     -40.428 -54.392  15.103  1.00  0.00     0.163 C 
HETATM   24  C   UNL     1     -41.909 -54.662  15.241  1.00  0.00     0.033 C 
ENDBRANCH  22  23
ENDBRANCH  21  22
ENDBRANCH  18  21
ENDBRANCH   1  17
BRANCH   4  25
HETATM   25  O   UNL     1     -41.930 -47.546   9.939  1.00  0.00    -0.341 OA
HETATM   26  C   UNL     1     -43.223 -46.968   9.993  1.00  0.00     0.211 C 
ENDBRANCH   4  25
TORSDOF 6
ENDMDL
MODEL 6
REMARK VINA RESULT:      -5.5      1.888      5.590
REMARK  6 active torsions:
REMARK  status: ('A' for Active; 'I' for Inactive)
REMARK    1  A    between atoms: C_2  and  O_3 
REMARK    2  A    between atoms: O_3  and  C_4 
REMARK    3  A    between atoms: C_4  and  C_5 
REMARK       I    between atoms: C_5  and  N_7 
REMARK    4  A    between atoms: N_7  and  C_8 
REMARK    5  A    between atoms: C_11  and  O_12 
REMARK    6  A    between atoms: C_16  and  N_17 
REMARK       I    between atoms: N_20  and  C_23 
ROOT
HETATM    1  C   UNL     1     -40.938 -47.861  11.949  1.00  0.00     0.079 A 
HETATM    2  C   UNL     1     -40.812 -46.640  11.276  1.00  0.00     0.038 A 
HETATM    3  C   UNL     1     -41.658 -46.345  10.229  1.00  0.00     0.058 A 
HETATM    4  C   UNL     1     -42.602 -47.290   9.892  1.00  0.00     0.143 A 
HETATM    5  N   UNL     1     -42.776 -48.470  10.540  1.00  0.00    -0.321 N 
ATOM      6  HN  UNL     1     -43.498 -49.124  10.239  1.00  0.00     0.169 HD
HETATM    7  C   UNL     1     -41.971 -48.771  11.599  1.00  0.00     0.132 A 
ENDROOT
BRANCH   7   8
HETATM    8  N   UNL     1     -42.303 -49.897  12.351  1.00  0.00    -0.362 N 
HETATM    9  C   UNL     1     -41.552 -51.151  12.132  1.00  0.00     0.144 C 
HETATM   10  C   UNL     1     -42.444 -52.410  12.324  1.00  0.00     0.145 C 
HETATM   11  N   UNL     1     -43.249 -52.348  13.555  1.00  0.00    -0.349 N 
HETATM   12  C   UNL     1     -44.043 -51.133  13.642  1.00  0.00     0.145 C 
HETATM   13  C   UNL     1     -43.369 -53.277  14.567  1.00  0.00     0.215 C 
HETATM   14  C   UNL     1     -43.166 -49.886  13.541  1.00  0.00     0.144 C 
HETATM   15  O   UNL     1     -44.057 -53.067  15.573  1.00  0.00    -0.274 OA
HETATM   16  C   UNL     1     -42.650 -54.594  14.475  1.00  0.00     0.117 C 
ENDBRANCH   7   8
BRANCH   1  17
HETATM   17  N   UNL     1     -39.917 -48.151  12.878  1.00  0.00    -0.322 N 
HETATM   18  C   UNL     1     -38.805 -48.898  12.522  1.00  0.00     0.245 C 
HETATM   19  O   UNL     1     -38.561 -49.312  11.392  1.00  0.00    -0.271 OA
HETATM   20  H   UNL     1     -39.856 -47.573  13.704  1.00  0.00     0.169 HD
BRANCH  18  21
HETATM   21  C   UNL     1     -37.879 -49.185  13.700  1.00  0.00     0.270 C 
BRANCH  21  22
HETATM   22  O   UNL     1     -37.959 -48.179  14.705  1.00  0.00    -0.382 OA
BRANCH  22  23
HETATM   23  C   UNL     1     -36.751 -48.104  15.469  1.00  0.00     0.163 C 
HETATM   24  C   UNL     1     -36.363 -49.501  15.898  1.00  0.00     0.033 C 
ENDBRANCH  22  23
ENDBRANCH  21  22
ENDBRANCH  18  21
ENDBRANCH   1  17
BRANCH   4  25
HETATM   25  O   UNL     1     -43.395 -46.935   8.815  1.00  0.00    -0.341 OA
HETATM   26  C   UNL     1     -43.409 -47.890   7.767  1.00  0.00     0.211 C 
ENDBRANCH   4  25
TORSDOF 6
ENDMDL
MODEL 7
REMARK VINA RESULT:      -5.4      2.945      6.440
REMARK  6 active torsions:
REMARK  status: ('A' for Active; 'I' for Inactive)
REMARK    1  A    between atoms: C_2  and  O_3 
REMARK    2  A    between atoms: O_3  and  C_4 
REMARK    3  A    between atoms: C_4  and  C_5 
REMARK       I    between atoms: C_5  and  N_7 
REMARK    4  A    between atoms: N_7  and  C_8 
REMARK    5  A    between atoms: C_11  and  O_12 
REMARK    6  A    between atoms: C_16  and  N_17 
REMARK       I    between atoms: N_20  and  C_23 
ROOT
HETATM    1  C   UNL     1     -43.735 -51.653  13.381  1.00  0.00     0.079 A 
HETATM    2  C   UNL     1     -44.943 -50.978  13.173  1.00  0.00     0.038 A 
HETATM    3  C   UNL     1     -46.053 -51.314  13.917  1.00  0.00     0.058 A 
HETATM    4  C   UNL     1     -45.910 -52.322  14.846  1.00  0.00     0.143 A 
HETATM    5  N   UNL     1     -44.748 -52.978  15.099  1.00  0.00    -0.321 N 
ATOM      6  HN  UNL     1     -44.713 -53.713  15.804  1.00  0.00     0.169 HD
HETATM    7  C   UNL     1     -43.630 -52.640  14.396  1.00  0.00     0.132 A 
ENDROOT
BRANCH   7   8
HETATM    8  N   UNL     1     -42.424 -53.200  14.815  1.00  0.00    -0.362 N 
HETATM    9  C   UNL     1     -41.847 -52.776  16.108  1.00  0.00     0.144 C 
HETATM   10  C   UNL     1     -40.292 -52.765  16.083  1.00  0.00     0.145 C 
HETATM   11  N   UNL     1     -39.730 -53.994  15.499  1.00  0.00    -0.349 N 
HETATM   12  C   UNL     1     -40.267 -54.281  14.179  1.00  0.00     0.145 C 
HETATM   13  C   UNL     1     -38.770 -54.841  16.009  1.00  0.00     0.215 C 
HETATM   14  C   UNL     1     -41.791 -54.380  14.208  1.00  0.00     0.144 C 
HETATM   15  O   UNL     1     -38.423 -55.871  15.419  1.00  0.00    -0.274 OA
HETATM   16  C   UNL     1     -38.108 -54.533  17.323  1.00  0.00     0.117 C 
ENDBRANCH   7   8
BRANCH   1  17
HETATM   17  N   UNL     1     -42.713 -51.370  12.451  1.00  0.00    -0.322 N 
HETATM   18  C   UNL     1     -41.743 -50.414  12.709  1.00  0.00     0.245 C 
HETATM   19  O   UNL     1     -41.629 -49.784  13.756  1.00  0.00    -0.271 OA
HETATM   20  H   UNL     1     -42.519 -52.063  11.742  1.00  0.00     0.169 HD
BRANCH  18  21
HETATM   21  C   UNL     1     -40.798 -50.192  11.531  1.00  0.00     0.270 C 
BRANCH  21  22
HETATM   22  O   UNL     1     -39.614 -49.500  11.913  1.00  0.00    -0.382 OA
BRANCH  22  23
HETATM   23  C   UNL     1     -38.511 -50.397  12.077  1.00  0.00     0.163 C 
HETATM   24  C   UNL     1     -37.384 -49.944  11.177  1.00  0.00     0.033 C 
ENDBRANCH  22  23
ENDBRANCH  21  22
ENDBRANCH  18  21
ENDBRANCH   1  17
BRANCH   4  25
HETATM   25  O   UNL     1     -47.072 -52.622  15.534  1.00  0.00    -0.341 OA
HETATM   26  C   UNL     1     -47.543 -51.572  16.362  1.00  0.00     0.211 C 
ENDBRANCH   4  25
TORSDOF 6
ENDMDL
MODEL 8
REMARK VINA RESULT:      -5.3      1.468      1.992
REMARK  6 active torsions:
REMARK  status: ('A' for Active; 'I' for Inactive)
REMARK    1  A    between atoms: C_2  and  O_3 
REMARK    2  A    between atoms: O_3  and  C_4 
REMARK    3  A    between atoms: C_4  and  C_5 
REMARK       I    between atoms: C_5  and  N_7 
REMARK    4  A    between atoms: N_7  and  C_8 
REMARK    5  A    between atoms: C_11  and  O_12 
REMARK    6  A    between atoms: C_16  and  N_17 
REMARK       I    between atoms: N_20  and  C_23 
ROOT
HETATM    1  C   UNL     1     -41.464 -48.731  12.145  1.00  0.00     0.079 A 
HETATM    2  C   UNL     1     -40.323 -48.011  11.772  1.00  0.00     0.038 A 
HETATM    3  C   UNL     1     -39.086 -48.396  12.241  1.00  0.00     0.058 A 
HETATM    4  C   UNL     1     -39.038 -49.493  13.073  1.00  0.00     0.143 A 
HETATM    5  N   UNL     1     -40.117 -50.235  13.432  1.00  0.00    -0.321 N 
ATOM      6  HN  UNL     1     -40.009 -51.039  14.050  1.00  0.00     0.169 HD
HETATM    7  C   UNL     1     -41.347 -49.892  12.955  1.00  0.00     0.132 A 
ENDROOT
BRANCH   7   8
HETATM    8  N   UNL     1     -42.392 -50.783  13.191  1.00  0.00    -0.362 N 
HETATM    9  C   UNL     1     -42.165 -52.227  12.973  1.00  0.00     0.144 C 
HETATM   10  C   UNL     1     -43.443 -52.951  12.459  1.00  0.00     0.145 C 
HETATM   11  N   UNL     1     -44.642 -52.597  13.237  1.00  0.00    -0.349 N 
HETATM   12  C   UNL     1     -44.855 -51.162  13.311  1.00  0.00     0.145 C 
HETATM   13  C   UNL     1     -45.566 -53.425  13.838  1.00  0.00     0.215 C 
HETATM   14  C   UNL     1     -43.638 -50.447  13.896  1.00  0.00     0.144 C 
HETATM   15  O   UNL     1     -46.511 -52.981  14.502  1.00  0.00    -0.274 OA
HETATM   16  C   UNL     1     -45.449 -54.917  13.703  1.00  0.00     0.117 C 
ENDBRANCH   7   8
BRANCH   1  17
HETATM   17  N   UNL     1     -42.696 -48.155  11.770  1.00  0.00    -0.322 N 
HETATM   18  C   UNL     1     -42.995 -47.884  10.444  1.00  0.00     0.245 C 
HETATM   19  O   UNL     1     -42.283 -48.165   9.485  1.00  0.00    -0.271 OA
HETATM   20  H   UNL     1     -43.461 -48.217  12.427  1.00  0.00     0.169 HD
BRANCH  18  21
HETATM   21  C   UNL     1     -44.331 -47.167  10.270  1.00  0.00     0.270 C 
BRANCH  21  22
HETATM   22  O   UNL     1     -44.888 -47.372   8.976  1.00  0.00    -0.382 OA
BRANCH  22  23
HETATM   23  C   UNL     1     -46.265 -47.756   9.052  1.00  0.00     0.163 C 
HETATM   24  C   UNL     1     -46.514 -48.859   8.048  1.00  0.00     0.033 C 
ENDBRANCH  22  23
ENDBRANCH  21  22
ENDBRANCH  18  21
ENDBRANCH   1  17
BRANCH   4  25
HETATM   25  O   UNL     1     -37.767 -49.803  13.524  1.00  0.00    -0.341 OA
HETATM   26  C   UNL     1     -37.245 -51.012  13.001  1.00  0.00     0.211 C 
ENDBRANCH   4  25
TORSDOF 6
ENDMDL
MODEL 9
REMARK VINA RESULT:      -5.2      3.125      5.973
REMARK  6 active torsions:
REMARK  status: ('A' for Active; 'I' for Inactive)
REMARK    1  A    between atoms: C_2  and  O_3 
REMARK    2  A    between atoms: O_3  and  C_4 
REMARK    3  A    between atoms: C_4  and  C_5 
REMARK       I    between atoms: C_5  and  N_7 
REMARK    4  A    between atoms: N_7  and  C_8 
REMARK    5  A    between atoms: C_11  and  O_12 
REMARK    6  A    between atoms: C_16  and  N_17 
REMARK       I    between atoms: N_20  and  C_23 
ROOT
HETATM    1  C   UNL     1     -39.562 -46.214  12.954  1.00  0.00     0.079 A 
HETATM    2  C   UNL     1     -39.382 -44.835  12.799  1.00  0.00     0.038 A 
HETATM    3  C   UNL     1     -39.440 -44.273  11.542  1.00  0.00     0.058 A 
HETATM    4  C   UNL     1     -39.676 -45.119  10.481  1.00  0.00     0.143 A 
HETATM    5  N   UNL     1     -39.887 -46.456  10.594  1.00  0.00    -0.321 N 
ATOM      6  HN  UNL     1     -40.059 -47.025   9.765  1.00  0.00     0.169 HD
HETATM    7  C   UNL     1     -39.865 -47.029  11.831  1.00  0.00     0.132 A 
ENDROOT
BRANCH   7   8
HETATM    8  N   UNL     1     -40.271 -48.359  11.923  1.00  0.00    -0.362 N 
HETATM    9  C   UNL     1     -41.716 -48.666  11.963  1.00  0.00     0.144 C 
HETATM   10  C   UNL     1     -42.029 -49.907  12.847  1.00  0.00     0.145 C 
HETATM   11  N   UNL     1     -41.137 -51.042  12.560  1.00  0.00    -0.349 N 
HETATM   12  C   UNL     1     -39.732 -50.684  12.650  1.00  0.00     0.145 C 
HETATM   13  C   UNL     1     -41.458 -52.352  12.272  1.00  0.00     0.215 C 
HETATM   14  C   UNL     1     -39.393 -49.520  11.719  1.00  0.00     0.144 C 
HETATM   15  O   UNL     1     -40.594 -53.196  12.008  1.00  0.00    -0.274 OA
HETATM   16  C   UNL     1     -42.893 -52.797  12.269  1.00  0.00     0.117 C 
ENDBRANCH   7   8
BRANCH   1  17
HETATM   17  N   UNL     1     -39.302 -46.719  14.245  1.00  0.00    -0.322 N 
HETATM   18  C   UNL     1     -40.316 -46.889  15.174  1.00  0.00     0.245 C 
HETATM   19  O   UNL     1     -41.510 -46.693  14.966  1.00  0.00    -0.271 OA
HETATM   20  H   UNL     1     -38.440 -47.228  14.384  1.00  0.00     0.169 HD
BRANCH  18  21
HETATM   21  C   UNL     1     -39.804 -47.346  16.537  1.00  0.00     0.270 C 
BRANCH  21  22
HETATM   22  O   UNL     1     -38.480 -47.866  16.468  1.00  0.00    -0.382 OA
BRANCH  22  23
HETATM   23  C   UNL     1     -38.448 -49.263  16.774  1.00  0.00     0.163 C 
HETATM   24  C   UNL     1     -37.087 -49.602  17.339  1.00  0.00     0.033 C 
ENDBRANCH  22  23
ENDBRANCH  21  22
ENDBRANCH  18  21
ENDBRANCH   1  17
BRANCH   4  25
HETATM   25  O   UNL     1     -39.693 -44.489   9.250  1.00  0.00    -0.341 OA
HETATM   26  C   UNL     1     -38.454 -44.530   8.561  1.00  0.00     0.211 C 
ENDBRANCH   4  25
TORSDOF 6
ENDMDL
