MODEL 1
REMARK VINA RESULT:      -6.1      0.000      0.000
REMARK  4 active torsions:
REMARK  status: ('A' for Active; 'I' for Inactive)
REMARK    1  A    between atoms: N_5  and  C_6 
REMARK    2  A    between atoms: C_6  and  C_7 
REMARK    3  A    between atoms: C_7  and  N_8 
REMARK       I    between atoms: N_8  and  C_9 
REMARK       I    between atoms: C_9  and  N_11 
REMARK    4  A    between atoms: N_11  and  C_12 
ROOT
HETATM    1  N   UNL     1     -40.590 -51.238  11.448  1.00  0.00    -0.341 N 
HETATM    2  C   UNL     1     -41.136 -49.997  11.715  1.00  0.00     0.320 C 
HETATM    3  O   UNL     1     -41.448 -49.655  12.850  1.00  0.00    -0.247 OA
HETATM    4  N   UNL     1     -41.208 -49.215  10.588  1.00  0.00    -0.308 N 
HETATM    5  H   UNL     1     -40.879 -51.655  10.575  1.00  0.00     0.164 HD
HETATM    6  H   UNL     1     -40.679 -49.542   9.794  1.00  0.00     0.170 HD
ENDROOT
BRANCH   1   7
HETATM    7  C   UNL     1     -40.417 -52.141  12.575  1.00  0.00     0.154 C 
BRANCH   7   8
HETATM    8  C   UNL     1     -41.128 -53.491  12.401  1.00  0.00     0.292 C 
BRANCH   8   9
HETATM    9  N   UNL     1     -42.358 -53.609  13.211  1.00  0.00     0.095 N 
HETATM   10  C   UNL     1     -43.555 -53.119  12.485  1.00  0.00     0.309 C 
HETATM   11  C   UNL     1     -44.847 -53.198  13.341  1.00  0.00     0.080 C 
HETATM   12  C   UNL     1     -45.251 -54.654  13.623  1.00  0.00     0.047 C 
HETATM   13  C   UNL     1     -45.990 -52.514  12.578  1.00  0.00     0.047 C 
HETATM   14  O   UNL     1     -44.675 -52.463  14.568  1.00  0.00    -0.377 OA
HETATM   15  C   UNL     1     -43.516 -52.876  15.303  1.00  0.00     0.199 C 
HETATM   16  C   UNL     1     -42.234 -52.820  14.457  1.00  0.00     0.298 C 
ENDBRANCH   8   9
ENDBRANCH   7   8
ENDBRANCH   1   7
BRANCH   4  17
HETATM   17  C   UNL     1     -41.662 -47.875  10.557  1.00  0.00     0.051 A 
HETATM   18  C   UNL     1     -40.839 -46.771  10.779  1.00  0.00     0.032 A 
HETATM   19  C   UNL     1     -41.355 -45.481  10.670  1.00  0.00     0.019 A 
HETATM   20  C   UNL     1     -42.694 -45.334  10.358  1.00  0.00     0.088 A 
HETATM   21  N   UNL     1     -43.537 -46.371  10.171  1.00  0.00    -0.373 N 
HETATM   22  C   UNL     1     -43.001 -47.612  10.277  1.00  0.00     0.117 A 
ATOM     23  HN  UNL     1     -44.524 -46.229   9.960  1.00  0.00     0.164 HD
ENDBRANCH   4  17
TORSDOF 4
ENDMDL
MODEL 2
REMARK VINA RESULT:      -6.1      2.479      7.413
REMARK  4 active torsions:
REMARK  status: ('A' for Active; 'I' for Inactive)
REMARK    1  A    between atoms: N_5  and  C_6 
REMARK    2  A    between atoms: C_6  and  C_7 
REMARK    3  A    between atoms: C_7  and  N_8 
REMARK       I    between atoms: N_8  and  C_9 
REMARK       I    between atoms: C_9  and  N_11 
REMARK    4  A    between atoms: N_11  and  C_12 
ROOT
HETATM    1  N   UNL     1     -43.190 -49.724  12.487  1.00  0.00    -0.341 N 
HETATM    2  C   UNL     1     -43.789 -50.648  13.322  1.00  0.00     0.320 C 
HETATM    3  O   UNL     1     -43.920 -50.449  14.525  1.00  0.00    -0.247 OA
HETATM    4  N   UNL     1     -44.257 -51.738  12.629  1.00  0.00    -0.308 N 
HETATM    5  H   UNL     1     -42.627 -50.117  11.746  1.00  0.00     0.164 HD
HETATM    6  H   UNL     1     -44.301 -51.633  11.627  1.00  0.00     0.170 HD
ENDROOT
BRANCH   1   7
HETATM    7  C   UNL     1     -42.697 -48.501  13.101  1.00  0.00     0.154 C 
BRANCH   7   8
HETATM    8  C   UNL     1     -41.986 -47.559  12.117  1.00  0.00     0.292 C 
BRANCH   8   9
HETATM    9  N   UNL     1     -42.881 -47.033  11.066  1.00  0.00     0.095 N 
HETATM   10  C   UNL     1     -42.777 -47.806   9.804  1.00  0.00     0.309 C 
HETATM   11  C   UNL     1     -43.682 -47.237   8.679  1.00  0.00     0.080 C 
HETATM   12  C   UNL     1     -45.173 -47.414   9.008  1.00  0.00     0.047 C 
HETATM   13  C   UNL     1     -43.380 -47.986   7.374  1.00  0.00     0.047 C 
HETATM   14  O   UNL     1     -43.366 -45.852   8.440  1.00  0.00    -0.377 OA
HETATM   15  C   UNL     1     -43.425 -45.058   9.632  1.00  0.00     0.199 C 
HETATM   16  C   UNL     1     -42.547 -45.625  10.760  1.00  0.00     0.298 C 
ENDBRANCH   8   9
ENDBRANCH   7   8
ENDBRANCH   1   7
BRANCH   4  17
HETATM   17  C   UNL     1     -44.971 -52.818  13.200  1.00  0.00     0.051 A 
HETATM   18  C   UNL     1     -44.477 -54.120  13.277  1.00  0.00     0.032 A 
HETATM   19  C   UNL     1     -45.222 -55.114  13.912  1.00  0.00     0.019 A 
HETATM   20  C   UNL     1     -46.455 -54.776  14.436  1.00  0.00     0.088 A 
HETATM   21  N   UNL     1     -46.989 -53.539  14.354  1.00  0.00    -0.373 N 
HETATM   22  C   UNL     1     -46.236 -52.595  13.738  1.00  0.00     0.117 A 
ATOM     23  HN  UNL     1     -47.911 -53.327  14.736  1.00  0.00     0.164 HD
ENDBRANCH   4  17
TORSDOF 4
ENDMDL
MODEL 3
REMARK VINA RESULT:      -6.0      1.818      6.468
REMARK  4 active torsions:
REMARK  status: ('A' for Active; 'I' for Inactive)
REMARK    1  A    between atoms: N_5  and  C_6 
REMARK    2  A    between atoms: C_6  and  C_7 
REMARK    3  A    between atoms: C_7  and  N_8 
REMARK       I    between atoms: N_8  and  C_9 
REMARK       I    between atoms: C_9  and  N_11 
REMARK    4  A    between atoms: N_11  and  C_12 
ROOT
HETATM    1  N   UNL     1     -41.191 -51.701  11.454  1.00  0.00    -0.341 N 
HETATM    2  C   UNL     1     -42.040 -52.174  12.436  1.00  0.00     0.320 C 
HETATM    3  O   UNL     1     -41.847 -51.950  13.626  1.00  0.00    -0.247 OA
HETATM    4  N   UNL     1     -43.119 -52.838  11.905  1.00  0.00    -0.308 N 
HETATM    5  H   UNL     1     -41.051 -52.324  10.671  1.00  0.00     0.164 HD
HETATM    6  H   UNL     1     -43.266 -52.715  10.914  1.00  0.00     0.170 HD
ENDROOT
BRANCH   1   7
HETATM    7  C   UNL     1     -40.034 -50.936  11.892  1.00  0.00     0.154 C 
BRANCH   7   8
HETATM    8  C   UNL     1     -40.030 -49.483  11.394  1.00  0.00     0.292 C 
BRANCH   8   9
HETATM    9  N   UNL     1     -41.327 -48.800  11.583  1.00  0.00     0.095 N 
HETATM   10  C   UNL     1     -41.422 -47.550  10.790  1.00  0.00     0.309 C 
HETATM   11  C   UNL     1     -42.763 -46.802  11.012  1.00  0.00     0.080 C 
HETATM   12  C   UNL     1     -43.954 -47.596  10.452  1.00  0.00     0.047 C 
HETATM   13  C   UNL     1     -42.700 -45.448  10.293  1.00  0.00     0.047 C 
HETATM   14  O   UNL     1     -42.945 -46.516  12.412  1.00  0.00    -0.377 OA
HETATM   15  C   UNL     1     -42.837 -47.684  13.234  1.00  0.00     0.199 C 
HETATM   16  C   UNL     1     -41.520 -48.444  13.006  1.00  0.00     0.298 C 
ENDBRANCH   8   9
ENDBRANCH   7   8
ENDBRANCH   1   7
BRANCH   4  17
HETATM   17  C   UNL     1     -44.190 -53.379  12.656  1.00  0.00     0.051 A 
HETATM   18  C   UNL     1     -44.095 -54.548  13.412  1.00  0.00     0.032 A 
HETATM   19  C   UNL     1     -45.182 -54.978  14.172  1.00  0.00     0.019 A 
HETATM   20  C   UNL     1     -46.345 -54.232  14.136  1.00  0.00     0.088 A 
HETATM   21  N   UNL     1     -46.495 -53.116  13.392  1.00  0.00    -0.373 N 
HETATM   22  C   UNL     1     -45.417 -52.721  12.671  1.00  0.00     0.117 A 
ATOM     23  HN  UNL     1     -47.374 -52.598  13.373  1.00  0.00     0.164 HD
ENDBRANCH   4  17
TORSDOF 4
ENDMDL
MODEL 4
REMARK VINA RESULT:      -5.9      1.999      7.538
REMARK  4 active torsions:
REMARK  status: ('A' for Active; 'I' for Inactive)
REMARK    1  A    between atoms: N_5  and  C_6 
REMARK    2  A    between atoms: C_6  and  C_7 
REMARK    3  A    between atoms: C_7  and  N_8 
REMARK       I    between atoms: N_8  and  C_9 
REMARK       I    between atoms: C_9  and  N_11 
REMARK    4  A    between atoms: N_11  and  C_12 
ROOT
HETATM    1  N   UNL     1     -40.828 -50.780  11.126  1.00  0.00    -0.341 N 
HETATM    2  C   UNL     1     -41.342 -51.522  12.172  1.00  0.00     0.320 C 
HETATM    3  O   UNL     1     -40.975 -51.356  13.330  1.00  0.00    -0.247 OA
HETATM    4  N   UNL     1     -42.329 -52.382  11.755  1.00  0.00    -0.308 N 
HETATM    5  H   UNL     1     -40.709 -51.284  10.259  1.00  0.00     0.164 HD
HETATM    6  H   UNL     1     -42.690 -52.217  10.827  1.00  0.00     0.170 HD
ENDROOT
BRANCH   1   7
HETATM    7  C   UNL     1     -39.808 -49.795  11.453  1.00  0.00     0.154 C 
BRANCH   7   8
HETATM    8  C   UNL     1     -40.359 -48.540  12.145  1.00  0.00     0.292 C 
BRANCH   8   9
HETATM    9  N   UNL     1     -40.517 -47.392  11.228  1.00  0.00     0.095 N 
HETATM   10  C   UNL     1     -40.196 -46.102  11.885  1.00  0.00     0.309 C 
HETATM   11  C   UNL     1     -40.399 -44.885  10.944  1.00  0.00     0.080 C 
HETATM   12  C   UNL     1     -39.383 -44.887   9.789  1.00  0.00     0.047 C 
HETATM   13  C   UNL     1     -40.213 -43.595  11.754  1.00  0.00     0.047 C 
HETATM   14  O   UNL     1     -41.750 -44.865  10.443  1.00  0.00    -0.377 OA
HETATM   15  C   UNL     1     -42.127 -46.098   9.818  1.00  0.00     0.199 C 
HETATM   16  C   UNL     1     -41.910 -47.312  10.736  1.00  0.00     0.298 C 
ENDBRANCH   8   9
ENDBRANCH   7   8
ENDBRANCH   1   7
BRANCH   4  17
HETATM   17  C   UNL     1     -43.084 -53.225  12.604  1.00  0.00     0.051 A 
HETATM   18  C   UNL     1     -42.519 -54.091  13.541  1.00  0.00     0.032 A 
HETATM   19  C   UNL     1     -43.339 -54.843  14.381  1.00  0.00     0.019 A 
HETATM   20  C   UNL     1     -44.708 -54.720  14.244  1.00  0.00     0.088 A 
HETATM   21  N   UNL     1     -45.301 -53.923  13.329  1.00  0.00    -0.373 N 
HETATM   22  C   UNL     1     -44.475 -53.200  12.533  1.00  0.00     0.117 A 
ATOM     23  HN  UNL     1     -46.315 -53.869  13.241  1.00  0.00     0.164 HD
ENDBRANCH   4  17
TORSDOF 4
ENDMDL
MODEL 5
REMARK VINA RESULT:      -5.8      1.495      2.010
REMARK  4 active torsions:
REMARK  status: ('A' for Active; 'I' for Inactive)
REMARK    1  A    between atoms: N_5  and  C_6 
REMARK    2  A    between atoms: C_6  and  C_7 
REMARK    3  A    between atoms: C_7  and  N_8 
REMARK       I    between atoms: N_8  and  C_9 
REMARK       I    between atoms: C_9  and  N_11 
REMARK    4  A    between atoms: N_11  and  C_12 
ROOT
HETATM    1  N   UNL     1     -42.120 -51.541  11.952  1.00  0.00    -0.341 N 
HETATM    2  C   UNL     1     -41.796 -50.227  12.228  1.00  0.00     0.320 C 
HETATM    3  O   UNL     1     -40.975 -49.926  13.087  1.00  0.00    -0.247 OA
HETATM    4  N   UNL     1     -42.444 -49.352  11.390  1.00  0.00    -0.308 N 
HETATM    5  H   UNL     1     -43.090 -51.705  11.722  1.00  0.00     0.164 HD
HETATM    6  H   UNL     1     -42.881 -49.764  10.579  1.00  0.00     0.170 HD
ENDROOT
BRANCH   1   7
HETATM    7  C   UNL     1     -41.457 -52.566  12.744  1.00  0.00     0.154 C 
BRANCH   7   8
HETATM    8  C   UNL     1     -42.268 -53.024  13.966  1.00  0.00     0.292 C 
BRANCH   8   9
HETATM    9  N   UNL     1     -43.705 -53.207  13.674  1.00  0.00     0.095 N 
HETATM   10  C   UNL     1     -44.549 -52.210  14.377  1.00  0.00     0.309 C 
HETATM   11  C   UNL     1     -46.064 -52.417  14.112  1.00  0.00     0.080 C 
HETATM   12  C   UNL     1     -46.428 -52.128  12.646  1.00  0.00     0.047 C 
HETATM   13  C   UNL     1     -46.860 -51.460  15.009  1.00  0.00     0.047 C 
HETATM   14  O   UNL     1     -46.455 -53.752  14.487  1.00  0.00    -0.377 OA
HETATM   15  C   UNL     1     -45.655 -54.761  13.858  1.00  0.00     0.199 C 
HETATM   16  C   UNL     1     -44.151 -54.552  14.097  1.00  0.00     0.298 C 
ENDBRANCH   8   9
ENDBRANCH   7   8
ENDBRANCH   1   7
BRANCH   4  17
HETATM   17  C   UNL     1     -42.267 -47.948  11.388  1.00  0.00     0.051 A 
HETATM   18  C   UNL     1     -42.783 -47.098  12.366  1.00  0.00     0.032 A 
HETATM   19  C   UNL     1     -42.510 -45.732  12.321  1.00  0.00     0.019 A 
HETATM   20  C   UNL     1     -41.740 -45.251  11.279  1.00  0.00     0.088 A 
HETATM   21  N   UNL     1     -41.250 -46.028  10.290  1.00  0.00    -0.373 N 
HETATM   22  C   UNL     1     -41.527 -47.353  10.368  1.00  0.00     0.117 A 
ATOM     23  HN  UNL     1     -40.700 -45.638   9.524  1.00  0.00     0.164 HD
ENDBRANCH   4  17
TORSDOF 4
ENDMDL
MODEL 6
REMARK VINA RESULT:      -5.8      3.167      4.427
REMARK  4 active torsions:
REMARK  status: ('A' for Active; 'I' for Inactive)
REMARK    1  A    between atoms: N_5  and  C_6 
REMARK    2  A    between atoms: C_6  and  C_7 
REMARK    3  A    between atoms: C_7  and  N_8 
REMARK       I    between atoms: N_8  and  C_9 
REMARK       I    between atoms: C_9  and  N_11 
REMARK    4  A    between atoms: N_11  and  C_12 
ROOT
HETATM    1  N   UNL     1     -41.957 -53.307  14.396  1.00  0.00    -0.341 N 
HETATM    2  C   UNL     1     -40.920 -53.014  13.531  1.00  0.00     0.320 C 
HETATM    3  O   UNL     1     -40.539 -53.809  12.679  1.00  0.00    -0.247 OA
HETATM    4  N   UNL     1     -40.447 -51.737  13.710  1.00  0.00    -0.308 N 
HETATM    5  H   UNL     1     -41.848 -52.948  15.333  1.00  0.00     0.164 HD
HETATM    6  H   UNL     1     -41.029 -51.129  14.267  1.00  0.00     0.170 HD
ENDROOT
BRANCH   1   7
HETATM    7  C   UNL     1     -42.574 -54.618  14.268  1.00  0.00     0.154 C 
BRANCH   7   8
HETATM    8  C   UNL     1     -44.110 -54.579  14.248  1.00  0.00     0.292 C 
BRANCH   8   9
HETATM    9  N   UNL     1     -44.657 -53.207  14.300  1.00  0.00     0.095 N 
HETATM   10  C   UNL     1     -45.685 -53.054  15.358  1.00  0.00     0.309 C 
HETATM   11  C   UNL     1     -46.297 -51.628  15.395  1.00  0.00     0.080 C 
HETATM   12  C   UNL     1     -45.263 -50.580  15.837  1.00  0.00     0.047 C 
HETATM   13  C   UNL     1     -47.462 -51.615  16.394  1.00  0.00     0.047 C 
HETATM   14  O   UNL     1     -46.854 -51.294  14.109  1.00  0.00    -0.377 OA
HETATM   15  C   UNL     1     -45.912 -51.449  13.040  1.00  0.00     0.199 C 
HETATM   16  C   UNL     1     -45.285 -52.852  13.008  1.00  0.00     0.298 C 
ENDBRANCH   8   9
ENDBRANCH   7   8
ENDBRANCH   1   7
BRANCH   4  17
HETATM   17  C   UNL     1     -39.433 -51.129  12.933  1.00  0.00     0.051 A 
HETATM   18  C   UNL     1     -38.070 -51.238  13.213  1.00  0.00     0.032 A 
HETATM   19  C   UNL     1     -37.133 -50.658  12.360  1.00  0.00     0.019 A 
HETATM   20  C   UNL     1     -37.591 -49.965  11.255  1.00  0.00     0.088 A 
HETATM   21  N   UNL     1     -38.899 -49.803  10.963  1.00  0.00    -0.373 N 
HETATM   22  C   UNL     1     -39.784 -50.386  11.809  1.00  0.00     0.117 A 
ATOM     23  HN  UNL     1     -39.205 -49.270  10.149  1.00  0.00     0.164 HD
ENDBRANCH   4  17
TORSDOF 4
ENDMDL
MODEL 7
REMARK VINA RESULT:      -5.5      3.005      6.922
REMARK  4 active torsions:
REMARK  status: ('A' for Active; 'I' for Inactive)
REMARK    1  A    between atoms: N_5  and  C_6 
REMARK    2  A    between atoms: C_6  and  C_7 
REMARK    3  A    between atoms: C_7  and  N_8 
REMARK       I    between atoms: N_8  and  C_9 
REMARK       I    between atoms: C_9  and  N_11 
REMARK    4  A    between atoms: N_11  and  C_12 
ROOT
HETATM    1  N   UNL     1     -41.043 -51.346  11.290  1.00  0.00    -0.341 N 
HETATM    2  C   UNL     1     -41.780 -51.931  12.301  1.00  0.00     0.320 C 
HETATM    3  O   UNL     1     -41.519 -51.751  13.486  1.00  0.00    -0.247 OA
HETATM    4  N   UNL     1     -42.841 -52.653  11.810  1.00  0.00    -0.308 N 
HETATM    5  H   UNL     1     -40.913 -51.917  10.468  1.00  0.00     0.164 HD
HETATM    6  H   UNL     1     -43.068 -52.493  10.840  1.00  0.00     0.170 HD
ENDROOT
BRANCH   1   7
HETATM    7  C   UNL     1     -39.919 -50.513  11.690  1.00  0.00     0.154 C 
BRANCH   7   8
HETATM    8  C   UNL     1     -40.303 -49.054  11.979  1.00  0.00     0.292 C 
BRANCH   8   9
HETATM    9  N   UNL     1     -39.616 -48.496  13.163  1.00  0.00     0.095 N 
HETATM   10  C   UNL     1     -38.541 -49.391  13.659  1.00  0.00     0.309 C 
HETATM   11  C   UNL     1     -37.840 -48.836  14.927  1.00  0.00     0.080 C 
HETATM   12  C   UNL     1     -37.040 -47.560  14.620  1.00  0.00     0.047 C 
HETATM   13  C   UNL     1     -36.872 -49.900  15.464  1.00  0.00     0.047 C 
HETATM   14  O   UNL     1     -38.809 -48.601  15.967  1.00  0.00    -0.377 OA
HETATM   15  C   UNL     1     -39.888 -47.761  15.538  1.00  0.00     0.199 C 
HETATM   16  C   UNL     1     -40.576 -48.292  14.269  1.00  0.00     0.298 C 
ENDBRANCH   8   9
ENDBRANCH   7   8
ENDBRANCH   1   7
BRANCH   4  17
HETATM   17  C   UNL     1     -43.810 -53.314  12.602  1.00  0.00     0.051 A 
HETATM   18  C   UNL     1     -43.516 -54.358  13.479  1.00  0.00     0.032 A 
HETATM   19  C   UNL     1     -44.523 -54.913  14.267  1.00  0.00     0.019 A 
HETATM   20  C   UNL     1     -45.806 -54.416  14.140  1.00  0.00     0.088 A 
HETATM   21  N   UNL     1     -46.145 -53.432  13.281  1.00  0.00    -0.373 N 
HETATM   22  C   UNL     1     -45.141 -52.909  12.534  1.00  0.00     0.117 A 
ATOM     23  HN  UNL     1     -47.106 -53.100  13.197  1.00  0.00     0.164 HD
ENDBRANCH   4  17
TORSDOF 4
ENDMDL
MODEL 8
REMARK VINA RESULT:      -5.4      2.818      8.277
REMARK  4 active torsions:
REMARK  status: ('A' for Active; 'I' for Inactive)
REMARK    1  A    between atoms: N_5  and  C_6 
REMARK    2  A    between atoms: C_6  and  C_7 
REMARK    3  A    between atoms: C_7  and  N_8 
REMARK       I    between atoms: N_8  and  C_9 
REMARK       I    between atoms: C_9  and  N_11 
REMARK    4  A    between atoms: N_11  and  C_12 
ROOT
HETATM    1  N   UNL     1     -43.165 -49.116  12.132  1.00  0.00    -0.341 N 
HETATM    2  C   UNL     1     -43.654 -49.956  13.114  1.00  0.00     0.320 C 
HETATM    3  O   UNL     1     -43.309 -49.856  14.286  1.00  0.00    -0.247 OA
HETATM    4  N   UNL     1     -44.591 -50.831  12.621  1.00  0.00    -0.308 N 
HETATM    5  H   UNL     1     -43.009 -49.550  11.234  1.00  0.00     0.164 HD
HETATM    6  H   UNL     1     -44.948 -50.617  11.701  1.00  0.00     0.170 HD
ENDROOT
BRANCH   1   7
HETATM    7  C   UNL     1     -42.198 -48.109  12.545  1.00  0.00     0.154 C 
BRANCH   7   8
HETATM    8  C   UNL     1     -42.634 -46.670  12.233  1.00  0.00     0.292 C 
BRANCH   8   9
HETATM    9  N   UNL     1     -41.499 -45.768  11.946  1.00  0.00     0.095 N 
HETATM   10  C   UNL     1     -41.896 -44.339  11.982  1.00  0.00     0.309 C 
HETATM   11  C   UNL     1     -40.722 -43.384  11.641  1.00  0.00     0.080 C 
HETATM   12  C   UNL     1     -39.634 -43.414  12.727  1.00  0.00     0.047 C 
HETATM   13  C   UNL     1     -41.263 -41.952  11.533  1.00  0.00     0.047 C 
HETATM   14  O   UNL     1     -40.173 -43.714  10.351  1.00  0.00    -0.377 OA
HETATM   15  C   UNL     1     -39.794 -45.092  10.246  1.00  0.00     0.199 C 
HETATM   16  C   UNL     1     -40.945 -46.047  10.603  1.00  0.00     0.298 C 
ENDBRANCH   8   9
ENDBRANCH   7   8
ENDBRANCH   1   7
BRANCH   4  17
HETATM   17  C   UNL     1     -45.313 -51.769  13.395  1.00  0.00     0.051 A 
HETATM   18  C   UNL     1     -46.333 -51.423  14.282  1.00  0.00     0.032 A 
HETATM   19  C   UNL     1     -47.036 -52.416  14.961  1.00  0.00     0.019 A 
HETATM   20  C   UNL     1     -46.682 -53.735  14.745  1.00  0.00     0.088 A 
HETATM   21  N   UNL     1     -45.681 -54.116  13.925  1.00  0.00    -0.373 N 
HETATM   22  C   UNL     1     -45.022 -53.126  13.274  1.00  0.00     0.117 A 
ATOM     23  HN  UNL     1     -45.432 -55.098  13.802  1.00  0.00     0.164 HD
ENDBRANCH   4  17
TORSDOF 4
ENDMDL
MODEL 9
REMARK VINA RESULT:      -5.4      2.844      6.801
REMARK  4 active torsions:
REMARK  status: ('A' for Active; 'I' for Inactive)
REMARK    1  A    between atoms: N_5  and  C_6 
REMARK    2  A    between atoms: C_6  and  C_7 
REMARK    3  A    between atoms: C_7  and  N_8 
REMARK       I    between atoms: N_8  and  C_9 
REMARK       I    between atoms: C_9  and  N_11 
REMARK    4  A    between atoms: N_11  and  C_12 
ROOT
HETATM    1  N   UNL     1     -41.107 -51.372  11.266  1.00  0.00    -0.341 N 
HETATM    2  C   UNL     1     -42.029 -51.712  12.236  1.00  0.00     0.320 C 
HETATM    3  O   UNL     1     -42.227 -51.008  13.221  1.00  0.00    -0.247 OA
HETATM    4  N   UNL     1     -42.711 -52.861  11.917  1.00  0.00    -0.308 N 
HETATM    5  H   UNL     1     -40.603 -52.149  10.862  1.00  0.00     0.164 HD
HETATM    6  H   UNL     1     -42.616 -53.175  10.963  1.00  0.00     0.170 HD
ENDROOT
BRANCH   1   7
HETATM    7  C   UNL     1     -40.355 -50.143  11.470  1.00  0.00     0.154 C 
BRANCH   7   8
HETATM    8  C   UNL     1     -39.098 -50.324  12.334  1.00  0.00     0.292 C 
BRANCH   8   9
HETATM    9  N   UNL     1     -39.013 -49.354  13.446  1.00  0.00     0.095 N 
HETATM   10  C   UNL     1     -40.022 -48.273  13.323  1.00  0.00     0.309 C 
HETATM   11  C   UNL     1     -39.916 -47.225  14.462  1.00  0.00     0.080 C 
HETATM   12  C   UNL     1     -40.297 -47.828  15.824  1.00  0.00     0.047 C 
HETATM   13  C   UNL     1     -40.873 -46.064  14.159  1.00  0.00     0.047 C 
HETATM   14  O   UNL     1     -38.589 -46.664  14.499  1.00  0.00    -0.377 OA
HETATM   15  C   UNL     1     -37.568 -47.665  14.591  1.00  0.00     0.199 C 
HETATM   16  C   UNL     1     -37.677 -48.720  13.478  1.00  0.00     0.298 C 
ENDBRANCH   8   9
ENDBRANCH   7   8
ENDBRANCH   1   7
BRANCH   4  17
HETATM   17  C   UNL     1     -43.759 -53.423  12.683  1.00  0.00     0.051 A 
HETATM   18  C   UNL     1     -43.571 -54.417  13.644  1.00  0.00     0.032 A 
HETATM   19  C   UNL     1     -44.651 -54.874  14.398  1.00  0.00     0.019 A 
HETATM   20  C   UNL     1     -45.899 -54.332  14.152  1.00  0.00     0.088 A 
HETATM   21  N   UNL     1     -46.136 -53.395  13.210  1.00  0.00    -0.373 N 
HETATM   22  C   UNL     1     -45.062 -52.968  12.499  1.00  0.00     0.117 A 
ATOM     23  HN  UNL     1     -47.072 -53.029  13.041  1.00  0.00     0.164 HD
ENDBRANCH   4  17
TORSDOF 4
ENDMDL
