MODEL 1
REMARK VINA RESULT:      -6.1      0.000      0.000
REMARK  7 active torsions:
REMARK  status: ('A' for Active; 'I' for Inactive)
REMARK    1  A    between atoms: O_1  and  C_2 
REMARK    2  A    between atoms: C_2  and  CA_4 
REMARK    3  A    between atoms: CA_4  and  C_5 
REMARK    4  A    between atoms: CA_4  and  N_16 
REMARK    5  A    between atoms: C_5  and  N_6 
REMARK    6  A    between atoms: C_9  and  C_12 
REMARK    7  A    between atoms: N_16  and  C_17 
ROOT
HETATM    1  C   UNL     1     -42.500 -47.553  11.539  1.00  0.00     0.195 C 
ENDROOT
BRANCH   1   2
HETATM    2  CA  UNL     1     -41.074 -47.758  11.020  1.00  0.00     0.337 C 
BRANCH   2   3
HETATM    3  C   UNL     1     -40.651 -49.216  11.238  1.00  0.00     0.176 C 
HETATM    4  OXT UNL     1     -40.473 -49.700  12.347  1.00  0.00    -0.648 OA
BRANCH   3   5
HETATM    5  O   UNL     1     -40.504 -49.948  10.107  1.00  0.00    -0.775 OA
HETATM    6  H   UNL     1     -40.492 -49.388   9.310  1.00  0.00     0.167 HD
ENDBRANCH   3   5
ENDBRANCH   2   3
BRANCH   2   7
HETATM    7  N   UNL     1     -40.104 -46.774  11.566  1.00  0.00     0.104 N 
HETATM    8  H   UNL     1     -39.132 -46.966  11.334  1.00  0.00     0.317 HD
BRANCH   7   9
HETATM    9  C   UNL     1     -40.498 -45.372  11.426  1.00  0.00     0.222 A 
HETATM   10  C   UNL     1     -39.719 -44.498  10.485  1.00  0.00     0.037 A 
HETATM   11  C   UNL     1     -39.586 -44.309  11.967  1.00  0.00     0.037 A 
ENDBRANCH   7   9
ENDBRANCH   2   7
ENDBRANCH   1   2
BRANCH   1  12
HETATM   12  N   UNL     1     -43.470 -47.336  10.482  1.00  0.00    -0.300 N 
HETATM   13  C   UNL     1     -43.493 -46.311   9.582  1.00  0.00     0.112 A 
HETATM   14  C   UNL     1     -44.648 -46.472   8.853  1.00  0.00     0.054 A 
HETATM   15  C   UNL     1     -45.266 -47.642   9.371  1.00  0.00     0.133 A 
HETATM   16  N   UNL     1     -44.534 -48.147  10.384  1.00  0.00    -0.295 N 
ATOM     17  HN  UNL     1     -44.743 -48.968  10.952  1.00  0.00     0.187 HD
BRANCH  15  18
HETATM   18  C   UNL     1     -46.556 -48.266   8.905  1.00  0.00     0.433 C 
HETATM   19  F   UNL     1     -46.876 -49.363   9.648  1.00  0.00    -0.165 F 
HETATM   20  F   UNL     1     -47.614 -47.418   9.000  1.00  0.00    -0.165 F 
HETATM   21  F   UNL     1     -46.494 -48.690   7.614  1.00  0.00    -0.165 F 
ENDBRANCH  15  18
ENDBRANCH   1  12
TORSDOF 7
ENDMDL
MODEL 2
REMARK VINA RESULT:      -6.0      4.718      6.661
REMARK  7 active torsions:
REMARK  status: ('A' for Active; 'I' for Inactive)
REMARK    1  A    between atoms: O_1  and  C_2 
REMARK    2  A    between atoms: C_2  and  CA_4 
REMARK    3  A    between atoms: CA_4  and  C_5 
REMARK    4  A    between atoms: CA_4  and  N_16 
REMARK    5  A    between atoms: C_5  and  N_6 
REMARK    6  A    between atoms: C_9  and  C_12 
REMARK    7  A    between atoms: N_16  and  C_17 
ROOT
HETATM    1  C   UNL     1     -42.288 -47.405  11.217  1.00  0.00     0.195 C 
ENDROOT
BRANCH   1   2
HETATM    2  CA  UNL     1     -43.079 -47.451   9.906  1.00  0.00     0.337 C 
BRANCH   2   3
HETATM    3  C   UNL     1     -42.986 -46.092   9.200  1.00  0.00     0.176 C 
HETATM    4  OXT UNL     1     -43.135 -45.026   9.781  1.00  0.00    -0.648 OA
BRANCH   3   5
HETATM    5  O   UNL     1     -42.704 -46.150   7.876  1.00  0.00    -0.775 OA
HETATM    6  H   UNL     1     -42.560 -45.265   7.495  1.00  0.00     0.167 HD
ENDBRANCH   3   5
ENDBRANCH   2   3
BRANCH   2   7
HETATM    7  N   UNL     1     -44.474 -47.930  10.080  1.00  0.00     0.104 N 
HETATM    8  H   UNL     1     -44.892 -47.697  10.978  1.00  0.00     0.317 HD
BRANCH   7   9
HETATM    9  C   UNL     1     -45.351 -47.721   8.928  1.00  0.00     0.222 A 
HETATM   10  C   UNL     1     -46.682 -47.060   9.149  1.00  0.00     0.037 A 
HETATM   11  C   UNL     1     -46.615 -48.524   8.827  1.00  0.00     0.037 A 
ENDBRANCH   7   9
ENDBRANCH   2   7
ENDBRANCH   1   2
BRANCH   1  12
HETATM   12  N   UNL     1     -41.398 -48.538  11.390  1.00  0.00    -0.300 N 
HETATM   13  C   UNL     1     -41.749 -49.826  11.673  1.00  0.00     0.112 A 
HETATM   14  C   UNL     1     -40.570 -50.511  11.847  1.00  0.00     0.054 A 
HETATM   15  C   UNL     1     -39.540 -49.557  11.633  1.00  0.00     0.133 A 
HETATM   16  N   UNL     1     -40.071 -48.347  11.371  1.00  0.00    -0.295 N 
ATOM     17  HN  UNL     1     -39.572 -47.474  11.196  1.00  0.00     0.187 HD
BRANCH  15  18
HETATM   18  C   UNL     1     -38.054 -49.802  11.689  1.00  0.00     0.433 C 
HETATM   19  F   UNL     1     -37.772 -51.064  12.119  1.00  0.00    -0.165 F 
HETATM   20  F   UNL     1     -37.453 -49.668  10.477  1.00  0.00    -0.165 F 
HETATM   21  F   UNL     1     -37.418 -48.960  12.548  1.00  0.00    -0.165 F 
ENDBRANCH  15  18
ENDBRANCH   1  12
TORSDOF 7
ENDMDL
MODEL 3
REMARK VINA RESULT:      -5.9      2.899      4.447
REMARK  7 active torsions:
REMARK  status: ('A' for Active; 'I' for Inactive)
REMARK    1  A    between atoms: O_1  and  C_2 
REMARK    2  A    between atoms: C_2  and  CA_4 
REMARK    3  A    between atoms: CA_4  and  C_5 
REMARK    4  A    between atoms: CA_4  and  N_16 
REMARK    5  A    between atoms: C_5  and  N_6 
REMARK    6  A    between atoms: C_9  and  C_12 
REMARK    7  A    between atoms: N_16  and  C_17 
ROOT
HETATM    1  C   UNL     1     -40.596 -49.655  11.434  1.00  0.00     0.195 C 
ENDROOT
BRANCH   1   2
HETATM    2  CA  UNL     1     -41.142 -50.759  12.345  1.00  0.00     0.337 C 
BRANCH   2   3
HETATM    3  C   UNL     1     -40.187 -51.959  12.329  1.00  0.00     0.176 C 
HETATM    4  OXT UNL     1     -39.165 -52.008  13.000  1.00  0.00    -0.648 OA
BRANCH   3   5
HETATM    5  O   UNL     1     -40.564 -52.984  11.528  1.00  0.00    -0.775 OA
HETATM    6  H   UNL     1     -41.480 -53.267  11.704  1.00  0.00     0.167 HD
ENDBRANCH   3   5
ENDBRANCH   2   3
BRANCH   2   7
HETATM    7  N   UNL     1     -42.551 -51.121  12.048  1.00  0.00     0.104 N 
HETATM    8  H   UNL     1     -42.670 -51.727  11.239  1.00  0.00     0.317 HD
BRANCH   7   9
HETATM    9  C   UNL     1     -43.354 -51.497  13.212  1.00  0.00     0.222 A 
HETATM   10  C   UNL     1     -44.771 -51.006  13.296  1.00  0.00     0.037 A 
HETATM   11  C   UNL     1     -43.724 -50.435  14.206  1.00  0.00     0.037 A 
ENDBRANCH   7   9
ENDBRANCH   2   7
ENDBRANCH   1   2
BRANCH   1  12
HETATM   12  N   UNL     1     -41.612 -48.712  11.002  1.00  0.00    -0.300 N 
HETATM   13  C   UNL     1     -42.412 -47.943  11.795  1.00  0.00     0.112 A 
HETATM   14  C   UNL     1     -43.279 -47.298  10.946  1.00  0.00     0.054 A 
HETATM   15  C   UNL     1     -42.921 -47.724   9.639  1.00  0.00     0.133 A 
HETATM   16  N   UNL     1     -41.906 -48.608   9.699  1.00  0.00    -0.295 N 
ATOM     17  HN  UNL     1     -41.457 -49.092   8.920  1.00  0.00     0.187 HD
BRANCH  15  18
HETATM   18  C   UNL     1     -43.556 -47.296   8.341  1.00  0.00     0.433 C 
HETATM   19  F   UNL     1     -43.159 -46.042   7.982  1.00  0.00    -0.165 F 
HETATM   20  F   UNL     1     -43.232 -48.111   7.303  1.00  0.00    -0.165 F 
HETATM   21  F   UNL     1     -44.914 -47.255   8.412  1.00  0.00    -0.165 F 
ENDBRANCH  15  18
ENDBRANCH   1  12
TORSDOF 7
ENDMDL
MODEL 4
REMARK VINA RESULT:      -5.8      3.931      6.000
REMARK  7 active torsions:
REMARK  status: ('A' for Active; 'I' for Inactive)
REMARK    1  A    between atoms: O_1  and  C_2 
REMARK    2  A    between atoms: C_2  and  CA_4 
REMARK    3  A    between atoms: CA_4  and  C_5 
REMARK    4  A    between atoms: CA_4  and  N_16 
REMARK    5  A    between atoms: C_5  and  N_6 
REMARK    6  A    between atoms: C_9  and  C_12 
REMARK    7  A    between atoms: N_16  and  C_17 
ROOT
HETATM    1  C   UNL     1     -43.166 -47.793  10.968  1.00  0.00     0.195 C 
ENDROOT
BRANCH   1   2
HETATM    2  CA  UNL     1     -43.118 -47.401   9.488  1.00  0.00     0.337 C 
BRANCH   2   3
HETATM    3  C   UNL     1     -42.816 -45.902   9.361  1.00  0.00     0.176 C 
HETATM    4  OXT UNL     1     -43.677 -45.066   9.126  1.00  0.00    -0.648 OA
BRANCH   3   5
HETATM    5  O   UNL     1     -41.519 -45.559   9.549  1.00  0.00    -0.775 OA
HETATM    6  H   UNL     1     -40.997 -46.294   9.918  1.00  0.00     0.167 HD
ENDBRANCH   3   5
ENDBRANCH   2   3
BRANCH   2   7
HETATM    7  N   UNL     1     -44.322 -47.826   8.729  1.00  0.00     0.104 N 
HETATM    8  H   UNL     1     -44.178 -48.633   8.126  1.00  0.00     0.317 HD
BRANCH   7   9
HETATM    9  C   UNL     1     -45.563 -47.859   9.502  1.00  0.00     0.222 A 
HETATM   10  C   UNL     1     -46.783 -48.475   8.878  1.00  0.00     0.037 A 
HETATM   11  C   UNL     1     -46.707 -46.989   9.068  1.00  0.00     0.037 A 
ENDBRANCH   7   9
ENDBRANCH   2   7
ENDBRANCH   1   2
BRANCH   1  12
HETATM   12  N   UNL     1     -42.131 -48.737  11.346  1.00  0.00    -0.300 N 
HETATM   13  C   UNL     1     -40.784 -48.587  11.193  1.00  0.00     0.112 A 
HETATM   14  C   UNL     1     -40.222 -49.776  11.595  1.00  0.00     0.054 A 
HETATM   15  C   UNL     1     -41.311 -50.595  11.997  1.00  0.00     0.133 A 
HETATM   16  N   UNL     1     -42.477 -49.943  11.819  1.00  0.00    -0.295 N 
ATOM     17  HN  UNL     1     -43.418 -50.291  12.003  1.00  0.00     0.187 HD
BRANCH  15  18
HETATM   18  C   UNL     1     -41.235 -51.999  12.540  1.00  0.00     0.433 C 
HETATM   19  F   UNL     1     -42.439 -52.411  13.029  1.00  0.00    -0.165 F 
HETATM   20  F   UNL     1     -40.875 -52.908  11.596  1.00  0.00    -0.165 F 
HETATM   21  F   UNL     1     -40.352 -52.114  13.568  1.00  0.00    -0.165 F 
ENDBRANCH  15  18
ENDBRANCH   1  12
TORSDOF 7
ENDMDL
MODEL 5
REMARK VINA RESULT:      -5.7      4.420      5.873
REMARK  7 active torsions:
REMARK  status: ('A' for Active; 'I' for Inactive)
REMARK    1  A    between atoms: O_1  and  C_2 
REMARK    2  A    between atoms: C_2  and  CA_4 
REMARK    3  A    between atoms: CA_4  and  C_5 
REMARK    4  A    between atoms: CA_4  and  N_16 
REMARK    5  A    between atoms: C_5  and  N_6 
REMARK    6  A    between atoms: C_9  and  C_12 
REMARK    7  A    between atoms: N_16  and  C_17 
ROOT
HETATM    1  C   UNL     1     -42.201 -49.894  12.346  1.00  0.00     0.195 C 
ENDROOT
BRANCH   1   2
HETATM    2  CA  UNL     1     -41.080 -50.925  12.181  1.00  0.00     0.337 C 
BRANCH   2   3
HETATM    3  C   UNL     1     -39.932 -50.313  11.368  1.00  0.00     0.176 C 
HETATM    4  OXT UNL     1     -38.789 -50.223  11.792  1.00  0.00    -0.648 OA
BRANCH   3   5
HETATM    5  O   UNL     1     -40.268 -49.891  10.126  1.00  0.00    -0.775 OA
HETATM    6  H   UNL     1     -39.959 -50.505   9.436  1.00  0.00     0.167 HD
ENDBRANCH   3   5
ENDBRANCH   2   3
BRANCH   2   7
HETATM    7  N   UNL     1     -41.555 -52.226  11.645  1.00  0.00     0.104 N 
HETATM    8  H   UNL     1     -41.457 -52.329  10.638  1.00  0.00     0.317 HD
BRANCH   7   9
HETATM    9  C   UNL     1     -41.150 -53.400  12.419  1.00  0.00     0.222 A 
HETATM   10  C   UNL     1     -42.152 -54.031  13.343  1.00  0.00     0.037 A 
HETATM   11  C   UNL     1     -40.991 -53.265  13.905  1.00  0.00     0.037 A 
ENDBRANCH   7   9
ENDBRANCH   2   7
ENDBRANCH   1   2
BRANCH   1  12
HETATM   12  N   UNL     1     -43.236 -50.315  13.272  1.00  0.00    -0.300 N 
HETATM   13  C   UNL     1     -43.127 -50.448  14.625  1.00  0.00     0.112 A 
HETATM   14  C   UNL     1     -44.325 -50.969  15.053  1.00  0.00     0.054 A 
HETATM   15  C   UNL     1     -45.120 -51.107  13.884  1.00  0.00     0.133 A 
HETATM   16  N   UNL     1     -44.424 -50.716  12.798  1.00  0.00    -0.295 N 
ATOM     17  HN  UNL     1     -44.735 -50.723  11.826  1.00  0.00     0.187 HD
BRANCH  15  18
HETATM   18  C   UNL     1     -46.534 -51.621  13.806  1.00  0.00     0.433 C 
HETATM   19  F   UNL     1     -46.583 -52.975  13.958  1.00  0.00    -0.165 F 
HETATM   20  F   UNL     1     -47.337 -51.099  14.772  1.00  0.00    -0.165 F 
HETATM   21  F   UNL     1     -47.122 -51.355  12.608  1.00  0.00    -0.165 F 
ENDBRANCH  15  18
ENDBRANCH   1  12
TORSDOF 7
ENDMDL
MODEL 6
REMARK VINA RESULT:      -5.7      4.618      5.157
REMARK  7 active torsions:
REMARK  status: ('A' for Active; 'I' for Inactive)
REMARK    1  A    between atoms: O_1  and  C_2 
REMARK    2  A    between atoms: C_2  and  CA_4 
REMARK    3  A    between atoms: CA_4  and  C_5 
REMARK    4  A    between atoms: CA_4  and  N_16 
REMARK    5  A    between atoms: C_5  and  N_6 
REMARK    6  A    between atoms: C_9  and  C_12 
REMARK    7  A    between atoms: N_16  and  C_17 
ROOT
HETATM    1  C   UNL     1     -41.498 -50.371  13.254  1.00  0.00     0.195 C 
ENDROOT
BRANCH   1   2
HETATM    2  CA  UNL     1     -41.267 -51.156  11.959  1.00  0.00     0.337 C 
BRANCH   2   3
HETATM    3  C   UNL     1     -41.080 -52.644  12.284  1.00  0.00     0.176 C 
HETATM    4  OXT UNL     1     -41.377 -53.132  13.365  1.00  0.00    -0.648 OA
BRANCH   3   5
HETATM    5  O   UNL     1     -40.576 -53.395  11.276  1.00  0.00    -0.775 OA
HETATM    6  H   UNL     1     -41.239 -54.008  10.911  1.00  0.00     0.167 HD
ENDBRANCH   3   5
ENDBRANCH   2   3
BRANCH   2   7
HETATM    7  N   UNL     1     -40.178 -50.594  11.119  1.00  0.00     0.104 N 
HETATM    8  H   UNL     1     -40.497 -50.107  10.285  1.00  0.00     0.317 HD
BRANCH   7   9
HETATM    9  C   UNL     1     -39.117 -49.908  11.857  1.00  0.00     0.222 A 
HETATM   10  C   UNL     1     -37.764 -49.781  11.217  1.00  0.00     0.037 A 
HETATM   11  C   UNL     1     -37.962 -50.714  12.375  1.00  0.00     0.037 A 
ENDBRANCH   7   9
ENDBRANCH   2   7
ENDBRANCH   1   2
BRANCH   1  12
HETATM   12  N   UNL     1     -42.834 -50.540  13.796  1.00  0.00    -0.300 N 
HETATM   13  C   UNL     1     -43.218 -50.402  15.098  1.00  0.00     0.112 A 
HETATM   14  C   UNL     1     -44.544 -50.762  15.143  1.00  0.00     0.054 A 
HETATM   15  C   UNL     1     -44.894 -51.092  13.806  1.00  0.00     0.133 A 
HETATM   16  N   UNL     1     -43.823 -50.967  12.998  1.00  0.00    -0.295 N 
ATOM     17  HN  UNL     1     -43.775 -51.155  11.996  1.00  0.00     0.187 HD
BRANCH  15  18
HETATM   18  C   UNL     1     -46.245 -51.536  13.308  1.00  0.00     0.433 C 
HETATM   19  F   UNL     1     -47.250 -51.059  14.097  1.00  0.00    -0.165 F 
HETATM   20  F   UNL     1     -46.509 -51.102  12.048  1.00  0.00    -0.165 F 
HETATM   21  F   UNL     1     -46.381 -52.890  13.304  1.00  0.00    -0.165 F 
ENDBRANCH  15  18
ENDBRANCH   1  12
TORSDOF 7
ENDMDL
MODEL 7
REMARK VINA RESULT:      -5.6      2.698      3.811
REMARK  7 active torsions:
REMARK  status: ('A' for Active; 'I' for Inactive)
REMARK    1  A    between atoms: O_1  and  C_2 
REMARK    2  A    between atoms: C_2  and  CA_4 
REMARK    3  A    between atoms: CA_4  and  C_5 
REMARK    4  A    between atoms: CA_4  and  N_16 
REMARK    5  A    between atoms: C_5  and  N_6 
REMARK    6  A    between atoms: C_9  and  C_12 
REMARK    7  A    between atoms: N_16  and  C_17 
ROOT
HETATM    1  C   UNL     1     -41.240 -49.299  12.319  1.00  0.00     0.195 C 
ENDROOT
BRANCH   1   2
HETATM    2  CA  UNL     1     -41.097 -50.698  11.712  1.00  0.00     0.337 C 
BRANCH   2   3
HETATM    3  C   UNL     1     -42.074 -51.660  12.400  1.00  0.00     0.176 C 
HETATM    4  OXT UNL     1     -42.397 -51.556  13.575  1.00  0.00    -0.648 OA
BRANCH   3   5
HETATM    5  O   UNL     1     -42.578 -52.634  11.605  1.00  0.00    -0.775 OA
HETATM    6  H   UNL     1     -43.369 -53.049  11.994  1.00  0.00     0.167 HD
ENDBRANCH   3   5
ENDBRANCH   2   3
BRANCH   2   7
HETATM    7  N   UNL     1     -39.696 -51.191  11.697  1.00  0.00     0.104 N 
HETATM    8  H   UNL     1     -39.434 -51.693  10.852  1.00  0.00     0.317 HD
BRANCH   7   9
HETATM    9  C   UNL     1     -38.697 -50.233  12.170  1.00  0.00     0.222 A 
HETATM   10  C   UNL     1     -37.458 -50.022  11.347  1.00  0.00     0.037 A 
HETATM   11  C   UNL     1     -37.374 -50.750  12.656  1.00  0.00     0.037 A 
ENDBRANCH   7   9
ENDBRANCH   2   7
ENDBRANCH   1   2
BRANCH   1  12
HETATM   12  N   UNL     1     -41.624 -48.289  11.350  1.00  0.00    -0.300 N 
HETATM   13  C   UNL     1     -41.186 -46.999  11.286  1.00  0.00     0.112 A 
HETATM   14  C   UNL     1     -41.903 -46.404  10.275  1.00  0.00     0.054 A 
HETATM   15  C   UNL     1     -42.751 -47.421   9.761  1.00  0.00     0.133 A 
HETATM   16  N   UNL     1     -42.576 -48.567  10.448  1.00  0.00    -0.295 N 
ATOM     17  HN  UNL     1     -43.063 -49.453  10.312  1.00  0.00     0.187 HD
BRANCH  15  18
HETATM   18  C   UNL     1     -43.732 -47.291   8.624  1.00  0.00     0.433 C 
HETATM   19  F   UNL     1     -43.224 -47.802   7.466  1.00  0.00    -0.165 F 
HETATM   20  F   UNL     1     -44.896 -47.954   8.856  1.00  0.00    -0.165 F 
HETATM   21  F   UNL     1     -44.053 -45.997   8.355  1.00  0.00    -0.165 F 
ENDBRANCH  15  18
ENDBRANCH   1  12
TORSDOF 7
ENDMDL
MODEL 8
REMARK VINA RESULT:      -5.6      2.498      3.095
REMARK  7 active torsions:
REMARK  status: ('A' for Active; 'I' for Inactive)
REMARK    1  A    between atoms: O_1  and  C_2 
REMARK    2  A    between atoms: C_2  and  CA_4 
REMARK    3  A    between atoms: CA_4  and  C_5 
REMARK    4  A    between atoms: CA_4  and  N_16 
REMARK    5  A    between atoms: C_5  and  N_6 
REMARK    6  A    between atoms: C_9  and  C_12 
REMARK    7  A    between atoms: N_16  and  C_17 
ROOT
HETATM    1  C   UNL     1     -42.485 -46.906  11.039  1.00  0.00     0.195 C 
ENDROOT
BRANCH   1   2
HETATM    2  CA  UNL     1     -42.423 -45.380  11.162  1.00  0.00     0.337 C 
BRANCH   2   3
HETATM    3  C   UNL     1     -41.010 -44.892  10.822  1.00  0.00     0.176 C 
HETATM    4  OXT UNL     1     -40.375 -44.134  11.542  1.00  0.00    -0.648 OA
BRANCH   3   5
HETATM    5  O   UNL     1     -40.496 -45.377   9.666  1.00  0.00    -0.775 OA
HETATM    6  H   UNL     1     -41.065 -46.063   9.273  1.00  0.00     0.167 HD
ENDBRANCH   3   5
ENDBRANCH   2   3
BRANCH   2   7
HETATM    7  N   UNL     1     -42.925 -44.876  12.466  1.00  0.00     0.104 N 
HETATM    8  H   UNL     1     -43.864 -44.488  12.436  1.00  0.00     0.317 HD
BRANCH   7   9
HETATM    9  C   UNL     1     -42.663 -45.749  13.610  1.00  0.00     0.222 A 
HETATM   10  C   UNL     1     -43.515 -45.598  14.838  1.00  0.00     0.037 A 
HETATM   11  C   UNL     1     -42.083 -45.149  14.858  1.00  0.00     0.037 A 
ENDBRANCH   7   9
ENDBRANCH   2   7
ENDBRANCH   1   2
BRANCH   1  12
HETATM   12  N   UNL     1     -43.348 -47.362   9.965  1.00  0.00    -0.300 N 
HETATM   13  C   UNL     1     -43.028 -47.477   8.644  1.00  0.00     0.112 A 
HETATM   14  C   UNL     1     -44.189 -47.842   8.004  1.00  0.00     0.054 A 
HETATM   15  C   UNL     1     -45.171 -47.945   9.025  1.00  0.00     0.133 A 
HETATM   16  N   UNL     1     -44.637 -47.627  10.221  1.00  0.00    -0.295 N 
ATOM     17  HN  UNL     1     -45.110 -47.597  11.124  1.00  0.00     0.187 HD
BRANCH  15  18
HETATM   18  C   UNL     1     -46.617 -48.334   8.854  1.00  0.00     0.433 C 
HETATM   19  F   UNL     1     -47.447 -47.271   9.049  1.00  0.00    -0.165 F 
HETATM   20  F   UNL     1     -46.890 -48.808   7.609  1.00  0.00    -0.165 F 
HETATM   21  F   UNL     1     -47.010 -49.287   9.742  1.00  0.00    -0.165 F 
ENDBRANCH  15  18
ENDBRANCH   1  12
TORSDOF 7
ENDMDL
MODEL 9
REMARK VINA RESULT:      -5.5      3.547      4.619
REMARK  7 active torsions:
REMARK  status: ('A' for Active; 'I' for Inactive)
REMARK    1  A    between atoms: O_1  and  C_2 
REMARK    2  A    between atoms: C_2  and  CA_4 
REMARK    3  A    between atoms: CA_4  and  C_5 
REMARK    4  A    between atoms: CA_4  and  N_16 
REMARK    5  A    between atoms: C_5  and  N_6 
REMARK    6  A    between atoms: C_9  and  C_12 
REMARK    7  A    between atoms: N_16  and  C_17 
ROOT
HETATM    1  C   UNL     1     -41.791 -50.040  12.641  1.00  0.00     0.195 C 
ENDROOT
BRANCH   1   2
HETATM    2  CA  UNL     1     -40.854 -50.183  11.438  1.00  0.00     0.337 C 
BRANCH   2   3
HETATM    3  C   UNL     1     -39.401 -50.265  11.923  1.00  0.00     0.176 C 
HETATM    4  OXT UNL     1     -38.709 -49.277  12.126  1.00  0.00    -0.648 OA
BRANCH   3   5
HETATM    5  O   UNL     1     -38.934 -51.519  12.132  1.00  0.00    -0.775 OA
HETATM    6  H   UNL     1     -38.075 -51.516  12.591  1.00  0.00     0.167 HD
ENDBRANCH   3   5
ENDBRANCH   2   3
BRANCH   2   7
HETATM    7  N   UNL     1     -41.072 -49.145  10.398  1.00  0.00     0.104 N 
HETATM    8  H   UNL     1     -41.052 -49.495   9.442  1.00  0.00     0.317 HD
BRANCH   7   9
HETATM    9  C   UNL     1     -42.155 -48.203  10.679  1.00  0.00     0.222 A 
HETATM   10  C   UNL     1     -42.910 -47.610   9.524  1.00  0.00     0.037 A 
HETATM   11  C   UNL     1     -41.965 -46.758  10.320  1.00  0.00     0.037 A 
ENDBRANCH   7   9
ENDBRANCH   2   7
ENDBRANCH   1   2
BRANCH   1  12
HETATM   12  N   UNL     1     -42.786 -51.093  12.724  1.00  0.00    -0.300 N 
HETATM   13  C   UNL     1     -42.594 -52.426  12.506  1.00  0.00     0.112 A 
HETATM   14  C   UNL     1     -43.836 -53.008  12.594  1.00  0.00     0.054 A 
HETATM   15  C   UNL     1     -44.734 -51.946  12.888  1.00  0.00     0.133 A 
HETATM   16  N   UNL     1     -44.069 -50.775  12.945  1.00  0.00    -0.295 N 
ATOM     17  HN  UNL     1     -44.458 -49.848  13.119  1.00  0.00     0.187 HD
BRANCH  15  18
HETATM   18  C   UNL     1     -46.222 -52.052  13.102  1.00  0.00     0.433 C 
HETATM   19  F   UNL     1     -46.557 -53.230  13.700  1.00  0.00    -0.165 F 
HETATM   20  F   UNL     1     -46.709 -51.066  13.900  1.00  0.00    -0.165 F 
HETATM   21  F   UNL     1     -46.922 -52.009  11.936  1.00  0.00    -0.165 F 
ENDBRANCH  15  18
ENDBRANCH   1  12
TORSDOF 7
ENDMDL
