MODEL 1
REMARK VINA RESULT:      -6.1      0.000      0.000
REMARK  5 active torsions:
REMARK  status: ('A' for Active; 'I' for Inactive)
REMARK    1  A    between atoms: N_2  and  C_3 
REMARK       I    between atoms: N_2  and  C_21 
REMARK    2  A    between atoms: C_3  and  C_4 
REMARK       I    between atoms: C_4  and  N_6 
REMARK    3  A    between atoms: N_6  and  C_7 
REMARK    4  A    between atoms: C_7  and  C_8 
REMARK    5  A    between atoms: C_14  and  N_15 
ROOT
HETATM    1  C   UNL     1     -44.233 -51.189  13.239  1.00  0.00     0.004 A 
HETATM    2  C   UNL     1     -45.634 -51.231  13.336  1.00  0.00     0.014 A 
HETATM    3  C   UNL     1     -46.293 -52.450  13.398  1.00  0.00     0.018 A 
HETATM    4  C   UNL     1     -45.527 -53.594  13.345  1.00  0.00     0.089 A 
HETATM    5  N   UNL     1     -44.179 -53.594  13.234  1.00  0.00    -0.352 N 
ATOM      6  HN  UNL     1     -43.663 -54.472  13.196  1.00  0.00     0.166 HD
HETATM    7  C   UNL     1     -43.525 -52.409  13.174  1.00  0.00     0.111 A 
ENDROOT
BRANCH   1   8
HETATM    8  C   UNL     1     -43.550 -49.843  13.333  1.00  0.00     0.165 C 
BRANCH   8   9
HETATM    9  N   UNL     1     -43.291 -49.246  12.033  1.00  0.00    -0.355 N 
HETATM   10  C   UNL     1     -42.157 -48.488  11.805  1.00  0.00     0.235 C 
HETATM   11  O   UNL     1     -41.358 -48.205  12.693  1.00  0.00    -0.272 OA
HETATM   12  H   UNL     1     -44.002 -49.334  11.319  1.00  0.00     0.162 HD
BRANCH  10  13
HETATM   13  C   UNL     1     -41.916 -48.108  10.335  1.00  0.00     0.227 C 
BRANCH  13  14
HETATM   14  N   UNL     1     -42.347 -46.747  10.015  1.00  0.00    -0.348 N 
HETATM   15  C   UNL     1     -41.462 -45.666  10.415  1.00  0.00     0.153 C 
HETATM   16  C   UNL     1     -43.448 -46.395   9.263  1.00  0.00     0.215 C 
HETATM   17  O   UNL     1     -43.715 -45.210   9.028  1.00  0.00    -0.274 OA
HETATM   18  C   UNL     1     -44.383 -47.457   8.732  1.00  0.00     0.117 C 
ENDBRANCH  13  14
ENDBRANCH  10  13
ENDBRANCH   8   9
ENDBRANCH   1   8
BRANCH   7  19
HETATM   19  N   UNL     1     -42.151 -52.444  13.169  1.00  0.00    -0.363 N 
HETATM   20  C   UNL     1     -41.431 -53.282  14.135  1.00  0.00     0.150 C 
HETATM   21  C   UNL     1     -40.100 -52.558  14.440  1.00  0.00     0.187 C 
HETATM   22  O   UNL     1     -39.332 -52.286  13.245  1.00  0.00    -0.388 OA
HETATM   23  C   UNL     1     -40.112 -51.532  12.292  1.00  0.00     0.187 C 
HETATM   24  C   UNL     1     -41.386 -52.306  11.927  1.00  0.00     0.150 C 
ENDBRANCH   7  19
TORSDOF 5
ENDMDL
MODEL 2
REMARK VINA RESULT:      -5.8      2.089      6.975
REMARK  5 active torsions:
REMARK  status: ('A' for Active; 'I' for Inactive)
REMARK    1  A    between atoms: N_2  and  C_3 
REMARK       I    between atoms: N_2  and  C_21 
REMARK    2  A    between atoms: C_3  and  C_4 
REMARK       I    between atoms: C_4  and  N_6 
REMARK    3  A    between atoms: N_6  and  C_7 
REMARK    4  A    between atoms: C_7  and  C_8 
REMARK    5  A    between atoms: C_14  and  N_15 
ROOT
HETATM    1  C   UNL     1     -41.904 -47.049  11.058  1.00  0.00     0.004 A 
HETATM    2  C   UNL     1     -41.180 -46.409  12.079  1.00  0.00     0.014 A 
HETATM    3  C   UNL     1     -41.432 -45.080  12.386  1.00  0.00     0.018 A 
HETATM    4  C   UNL     1     -42.394 -44.425  11.647  1.00  0.00     0.089 A 
HETATM    5  N   UNL     1     -43.097 -45.001  10.646  1.00  0.00    -0.352 N 
ATOM      6  HN  UNL     1     -43.795 -44.467  10.130  1.00  0.00     0.166 HD
HETATM    7  C   UNL     1     -42.860 -46.300  10.340  1.00  0.00     0.111 A 
ENDROOT
BRANCH   1   8
HETATM    8  C   UNL     1     -41.707 -48.536  10.867  1.00  0.00     0.165 C 
BRANCH   8   9
HETATM    9  N   UNL     1     -42.690 -49.335  11.581  1.00  0.00    -0.355 N 
HETATM   10  C   UNL     1     -42.380 -49.952  12.779  1.00  0.00     0.235 C 
HETATM   11  O   UNL     1     -41.251 -49.934  13.263  1.00  0.00    -0.272 OA
HETATM   12  H   UNL     1     -43.585 -49.493  11.139  1.00  0.00     0.162 HD
BRANCH  10  13
HETATM   13  C   UNL     1     -43.576 -50.576  13.516  1.00  0.00     0.227 C 
BRANCH  13  14
HETATM   14  N   UNL     1     -43.970 -51.877  12.972  1.00  0.00    -0.348 N 
HETATM   15  C   UNL     1     -42.898 -52.785  12.600  1.00  0.00     0.153 C 
HETATM   16  C   UNL     1     -45.254 -52.373  12.894  1.00  0.00     0.215 C 
HETATM   17  O   UNL     1     -45.481 -53.501  12.437  1.00  0.00    -0.274 OA
HETATM   18  C   UNL     1     -46.428 -51.531  13.336  1.00  0.00     0.117 C 
ENDBRANCH  13  14
ENDBRANCH  10  13
ENDBRANCH   8   9
ENDBRANCH   1   8
BRANCH   7  19
HETATM   19  N   UNL     1     -43.665 -46.883   9.390  1.00  0.00    -0.363 N 
HETATM   20  C   UNL     1     -45.125 -46.828   9.528  1.00  0.00     0.150 C 
HETATM   21  C   UNL     1     -45.677 -48.125   8.895  1.00  0.00     0.187 C 
HETATM   22  O   UNL     1     -45.244 -48.299   7.526  1.00  0.00    -0.388 OA
HETATM   23  C   UNL     1     -43.804 -48.262   7.432  1.00  0.00     0.187 C 
HETATM   24  C   UNL     1     -43.276 -46.928   7.979  1.00  0.00     0.150 C 
ENDBRANCH   7  19
TORSDOF 5
ENDMDL
MODEL 3
REMARK VINA RESULT:      -5.7      2.611      6.386
REMARK  5 active torsions:
REMARK  status: ('A' for Active; 'I' for Inactive)
REMARK    1  A    between atoms: N_2  and  C_3 
REMARK       I    between atoms: N_2  and  C_21 
REMARK    2  A    between atoms: C_3  and  C_4 
REMARK       I    between atoms: C_4  and  N_6 
REMARK    3  A    between atoms: N_6  and  C_7 
REMARK    4  A    between atoms: C_7  and  C_8 
REMARK    5  A    between atoms: C_14  and  N_15 
ROOT
HETATM    1  C   UNL     1     -39.589 -49.694  13.136  1.00  0.00     0.004 A 
HETATM    2  C   UNL     1     -38.567 -50.586  13.505  1.00  0.00     0.014 A 
HETATM    3  C   UNL     1     -37.500 -50.816  12.649  1.00  0.00     0.018 A 
HETATM    4  C   UNL     1     -37.497 -50.156  11.439  1.00  0.00     0.089 A 
HETATM    5  N   UNL     1     -38.471 -49.306  11.043  1.00  0.00    -0.352 N 
ATOM      6  HN  UNL     1     -38.418 -48.847  10.134  1.00  0.00     0.166 HD
HETATM    7  C   UNL     1     -39.517 -49.072  11.871  1.00  0.00     0.111 A 
ENDROOT
BRANCH   1   8
HETATM    8  C   UNL     1     -40.646 -49.356  14.164  1.00  0.00     0.165 C 
BRANCH   8   9
HETATM    9  N   UNL     1     -41.477 -50.495  14.520  1.00  0.00    -0.355 N 
HETATM   10  C   UNL     1     -42.848 -50.465  14.346  1.00  0.00     0.235 C 
HETATM   11  O   UNL     1     -43.448 -49.462  13.969  1.00  0.00    -0.272 OA
HETATM   12  H   UNL     1     -41.034 -51.284  14.971  1.00  0.00     0.162 HD
BRANCH  10  13
HETATM   13  C   UNL     1     -43.559 -51.810  14.563  1.00  0.00     0.227 C 
BRANCH  13  14
HETATM   14  N   UNL     1     -44.200 -52.323  13.351  1.00  0.00    -0.348 N 
HETATM   15  C   UNL     1     -43.370 -53.103  12.448  1.00  0.00     0.153 C 
HETATM   16  C   UNL     1     -45.541 -52.244  13.042  1.00  0.00     0.215 C 
HETATM   17  O   UNL     1     -45.991 -52.732  11.997  1.00  0.00    -0.274 OA
HETATM   18  C   UNL     1     -46.497 -51.524  13.963  1.00  0.00     0.117 C 
ENDBRANCH  13  14
ENDBRANCH  10  13
ENDBRANCH   8   9
ENDBRANCH   1   8
BRANCH   7  19
HETATM   19  N   UNL     1     -40.433 -48.124  11.483  1.00  0.00    -0.363 N 
HETATM   20  C   UNL     1     -40.012 -46.734  11.276  1.00  0.00     0.150 C 
HETATM   21  C   UNL     1     -41.219 -45.846  11.652  1.00  0.00     0.187 C 
HETATM   22  O   UNL     1     -42.411 -46.191  10.911  1.00  0.00    -0.388 OA
HETATM   23  C   UNL     1     -42.737 -47.588  11.080  1.00  0.00     0.187 C 
HETATM   24  C   UNL     1     -41.563 -48.461  10.614  1.00  0.00     0.150 C 
ENDBRANCH   7  19
TORSDOF 5
ENDMDL
MODEL 4
REMARK VINA RESULT:      -5.7      2.387      6.881
REMARK  5 active torsions:
REMARK  status: ('A' for Active; 'I' for Inactive)
REMARK    1  A    between atoms: N_2  and  C_3 
REMARK       I    between atoms: N_2  and  C_21 
REMARK    2  A    between atoms: C_3  and  C_4 
REMARK       I    between atoms: C_4  and  N_6 
REMARK    3  A    between atoms: N_6  and  C_7 
REMARK    4  A    between atoms: C_7  and  C_8 
REMARK    5  A    between atoms: C_14  and  N_15 
ROOT
HETATM    1  C   UNL     1     -41.550 -49.490  12.473  1.00  0.00     0.004 A 
HETATM    2  C   UNL     1     -40.847 -50.531  13.104  1.00  0.00     0.014 A 
HETATM    3  C   UNL     1     -39.548 -50.828  12.723  1.00  0.00     0.018 A 
HETATM    4  C   UNL     1     -38.994 -50.081  11.705  1.00  0.00     0.089 A 
HETATM    5  N   UNL     1     -39.644 -49.085  11.062  1.00  0.00    -0.352 N 
ATOM      6  HN  UNL     1     -39.185 -48.567  10.313  1.00  0.00     0.166 HD
HETATM    7  C   UNL     1     -40.914 -48.786  11.428  1.00  0.00     0.111 A 
ENDROOT
BRANCH   1   8
HETATM    8  C   UNL     1     -42.902 -49.101  13.028  1.00  0.00     0.165 C 
BRANCH   8   9
HETATM    9  N   UNL     1     -43.940 -50.075  12.728  1.00  0.00    -0.355 N 
HETATM   10  C   UNL     1     -44.411 -50.942  13.697  1.00  0.00     0.235 C 
HETATM   11  O   UNL     1     -43.931 -51.002  14.826  1.00  0.00    -0.272 OA
HETATM   12  H   UNL     1     -44.254 -50.154  11.771  1.00  0.00     0.162 HD
BRANCH  10  13
HETATM   13  C   UNL     1     -45.648 -51.757  13.290  1.00  0.00     0.227 C 
BRANCH  13  14
HETATM   14  N   UNL     1     -46.123 -52.649  14.350  1.00  0.00    -0.348 N 
HETATM   15  C   UNL     1     -47.084 -52.099  15.290  1.00  0.00     0.153 C 
HETATM   16  C   UNL     1     -45.842 -53.993  14.471  1.00  0.00     0.215 C 
HETATM   17  O   UNL     1     -46.313 -54.669  15.395  1.00  0.00    -0.274 OA
HETATM   18  C   UNL     1     -44.916 -54.673  13.489  1.00  0.00     0.117 C 
ENDBRANCH  13  14
ENDBRANCH  10  13
ENDBRANCH   8   9
ENDBRANCH   1   8
BRANCH   7  19
HETATM   19  N   UNL     1     -41.506 -47.701  10.827  1.00  0.00    -0.363 N 
HETATM   20  C   UNL     1     -40.788 -46.424  10.739  1.00  0.00     0.150 C 
HETATM   21  C   UNL     1     -41.858 -45.311  10.806  1.00  0.00     0.187 C 
HETATM   22  O   UNL     1     -42.875 -45.459   9.788  1.00  0.00    -0.388 OA
HETATM   23  C   UNL     1     -43.493 -46.761   9.864  1.00  0.00     0.187 C 
HETATM   24  C   UNL     1     -42.430 -47.858   9.702  1.00  0.00     0.150 C 
ENDBRANCH   7  19
TORSDOF 5
ENDMDL
MODEL 5
REMARK VINA RESULT:      -5.7      3.515      6.092
REMARK  5 active torsions:
REMARK  status: ('A' for Active; 'I' for Inactive)
REMARK    1  A    between atoms: N_2  and  C_3 
REMARK       I    between atoms: N_2  and  C_21 
REMARK    2  A    between atoms: C_3  and  C_4 
REMARK       I    between atoms: C_4  and  N_6 
REMARK    3  A    between atoms: N_6  and  C_7 
REMARK    4  A    between atoms: C_7  and  C_8 
REMARK    5  A    between atoms: C_14  and  N_15 
ROOT
HETATM    1  C   UNL     1     -40.324 -53.223  13.539  1.00  0.00     0.004 A 
HETATM    2  C   UNL     1     -40.758 -54.284  14.352  1.00  0.00     0.014 A 
HETATM    3  C   UNL     1     -40.241 -54.440  15.630  1.00  0.00     0.018 A 
HETATM    4  C   UNL     1     -39.290 -53.535  16.050  1.00  0.00     0.089 A 
HETATM    5  N   UNL     1     -38.836 -52.513  15.290  1.00  0.00    -0.352 N 
ATOM      6  HN  UNL     1     -38.128 -51.875  15.652  1.00  0.00     0.166 HD
HETATM    7  C   UNL     1     -39.335 -52.350  14.041  1.00  0.00     0.111 A 
ENDROOT
BRANCH   1   8
HETATM    8  C   UNL     1     -41.028 -53.001  12.219  1.00  0.00     0.165 C 
BRANCH   8   9
HETATM    9  N   UNL     1     -42.421 -53.418  12.242  1.00  0.00    -0.355 N 
HETATM   10  C   UNL     1     -43.424 -52.548  12.629  1.00  0.00     0.235 C 
HETATM   11  O   UNL     1     -43.197 -51.418  13.051  1.00  0.00    -0.272 OA
HETATM   12  H   UNL     1     -42.630 -54.387  12.042  1.00  0.00     0.162 HD
BRANCH  10  13
HETATM   13  C   UNL     1     -44.854 -53.063  12.396  1.00  0.00     0.227 C 
BRANCH  13  14
HETATM   14  N   UNL     1     -45.478 -53.594  13.608  1.00  0.00    -0.348 N 
HETATM   15  C   UNL     1     -45.146 -54.960  13.975  1.00  0.00     0.153 C 
HETATM   16  C   UNL     1     -46.252 -52.886  14.504  1.00  0.00     0.215 C 
HETATM   17  O   UNL     1     -46.717 -53.423  15.517  1.00  0.00    -0.274 OA
HETATM   18  C   UNL     1     -46.581 -51.434  14.249  1.00  0.00     0.117 C 
ENDBRANCH  13  14
ENDBRANCH  10  13
ENDBRANCH   8   9
ENDBRANCH   1   8
BRANCH   7  19
HETATM   19  N   UNL     1     -38.929 -51.242  13.337  1.00  0.00    -0.363 N 
HETATM   20  C   UNL     1     -39.650 -49.971  13.483  1.00  0.00     0.150 C 
HETATM   21  C   UNL     1     -39.549 -49.248  12.121  1.00  0.00     0.187 C 
HETATM   22  O   UNL     1     -38.180 -49.075  11.688  1.00  0.00    -0.388 OA
HETATM   23  C   UNL     1     -37.490 -50.342  11.640  1.00  0.00     0.187 C 
HETATM   24  C   UNL     1     -37.518 -51.007  13.024  1.00  0.00     0.150 C 
ENDBRANCH   7  19
TORSDOF 5
ENDMDL
MODEL 6
REMARK VINA RESULT:      -5.6      2.706      6.003
REMARK  5 active torsions:
REMARK  status: ('A' for Active; 'I' for Inactive)
REMARK    1  A    between atoms: N_2  and  C_3 
REMARK       I    between atoms: N_2  and  C_21 
REMARK    2  A    between atoms: C_3  and  C_4 
REMARK       I    between atoms: C_4  and  N_6 
REMARK    3  A    between atoms: N_6  and  C_7 
REMARK    4  A    between atoms: C_7  and  C_8 
REMARK    5  A    between atoms: C_14  and  N_15 
ROOT
HETATM    1  C   UNL     1     -42.503 -48.730  12.478  1.00  0.00     0.004 A 
HETATM    2  C   UNL     1     -43.259 -47.669  11.951  1.00  0.00     0.014 A 
HETATM    3  C   UNL     1     -43.054 -47.247  10.646  1.00  0.00     0.018 A 
HETATM    4  C   UNL     1     -42.083 -47.892   9.910  1.00  0.00     0.089 A 
HETATM    5  N   UNL     1     -41.324 -48.904  10.389  1.00  0.00    -0.352 N 
ATOM      6  HN  UNL     1     -40.617 -49.343   9.800  1.00  0.00     0.166 HD
HETATM    7  C   UNL     1     -41.517 -49.325  11.662  1.00  0.00     0.111 A 
ENDROOT
BRANCH   1   8
HETATM    8  C   UNL     1     -42.870 -49.257  13.847  1.00  0.00     0.165 C 
BRANCH   8   9
HETATM    9  N   UNL     1     -43.970 -50.208  13.813  1.00  0.00    -0.355 N 
HETATM   10  C   UNL     1     -44.056 -51.238  14.731  1.00  0.00     0.235 C 
HETATM   11  O   UNL     1     -43.181 -51.462  15.563  1.00  0.00    -0.272 OA
HETATM   12  H   UNL     1     -44.630 -50.144  13.050  1.00  0.00     0.162 HD
BRANCH  10  13
HETATM   13  C   UNL     1     -45.377 -52.024  14.702  1.00  0.00     0.227 C 
BRANCH  13  14
HETATM   14  N   UNL     1     -45.206 -53.446  15.001  1.00  0.00    -0.348 N 
HETATM   15  C   UNL     1     -45.661 -53.904  16.303  1.00  0.00     0.153 C 
HETATM   16  C   UNL     1     -44.769 -54.417  14.125  1.00  0.00     0.215 C 
HETATM   17  O   UNL     1     -44.680 -55.603  14.469  1.00  0.00    -0.274 OA
HETATM   18  C   UNL     1     -44.352 -54.048  12.720  1.00  0.00     0.117 C 
ENDBRANCH  13  14
ENDBRANCH  10  13
ENDBRANCH   8   9
ENDBRANCH   1   8
BRANCH   7  19
HETATM   19  N   UNL     1     -40.804 -50.423  12.080  1.00  0.00    -0.363 N 
HETATM   20  C   UNL     1     -41.304 -51.775  11.807  1.00  0.00     0.150 C 
HETATM   21  C   UNL     1     -40.835 -52.664  12.981  1.00  0.00     0.187 C 
HETATM   22  O   UNL     1     -39.402 -52.619  13.170  1.00  0.00    -0.388 OA
HETATM   23  C   UNL     1     -38.948 -51.261  13.351  1.00  0.00     0.187 C 
HETATM   24  C   UNL     1     -39.340 -50.410  12.134  1.00  0.00     0.150 C 
ENDBRANCH   7  19
TORSDOF 5
ENDMDL
MODEL 7
REMARK VINA RESULT:      -5.6      2.852      6.097
REMARK  5 active torsions:
REMARK  status: ('A' for Active; 'I' for Inactive)
REMARK    1  A    between atoms: N_2  and  C_3 
REMARK       I    between atoms: N_2  and  C_21 
REMARK    2  A    between atoms: C_3  and  C_4 
REMARK       I    between atoms: C_4  and  N_6 
REMARK    3  A    between atoms: N_6  and  C_7 
REMARK    4  A    between atoms: C_7  and  C_8 
REMARK    5  A    between atoms: C_14  and  N_15 
ROOT
HETATM    1  C   UNL     1     -41.760 -49.085  12.253  1.00  0.00     0.004 A 
HETATM    2  C   UNL     1     -42.854 -48.508  11.585  1.00  0.00     0.014 A 
HETATM    3  C   UNL     1     -42.656 -47.461  10.697  1.00  0.00     0.018 A 
HETATM    4  C   UNL     1     -41.365 -47.012  10.517  1.00  0.00     0.089 A 
HETATM    5  N   UNL     1     -40.292 -47.529  11.155  1.00  0.00    -0.352 N 
ATOM      6  HN  UNL     1     -39.359 -47.154  10.985  1.00  0.00     0.166 HD
HETATM    7  C   UNL     1     -40.473 -48.553  12.023  1.00  0.00     0.111 A 
ENDROOT
BRANCH   1   8
HETATM    8  C   UNL     1     -42.005 -50.322  13.088  1.00  0.00     0.165 C 
BRANCH   8   9
HETATM    9  N   UNL     1     -42.943 -51.247  12.470  1.00  0.00    -0.355 N 
HETATM   10  C   UNL     1     -43.066 -52.549  12.917  1.00  0.00     0.235 C 
HETATM   11  O   UNL     1     -42.343 -53.023  13.790  1.00  0.00    -0.272 OA
HETATM   12  H   UNL     1     -43.449 -50.934  11.653  1.00  0.00     0.162 HD
BRANCH  10  13
HETATM   13  C   UNL     1     -44.242 -53.334  12.313  1.00  0.00     0.227 C 
BRANCH  13  14
HETATM   14  N   UNL     1     -45.253 -53.707  13.304  1.00  0.00    -0.348 N 
HETATM   15  C   UNL     1     -45.110 -55.010  13.931  1.00  0.00     0.153 C 
HETATM   16  C   UNL     1     -46.255 -52.895  13.791  1.00  0.00     0.215 C 
HETATM   17  O   UNL     1     -47.050 -53.298  14.649  1.00  0.00    -0.274 OA
HETATM   18  C   UNL     1     -46.430 -51.492  13.258  1.00  0.00     0.117 C 
ENDBRANCH  13  14
ENDBRANCH  10  13
ENDBRANCH   8   9
ENDBRANCH   1   8
BRANCH   7  19
HETATM   19  N   UNL     1     -39.350 -49.124  12.573  1.00  0.00    -0.363 N 
HETATM   20  C   UNL     1     -38.275 -49.618  11.706  1.00  0.00     0.150 C 
HETATM   21  C   UNL     1     -37.640 -50.825  12.434  1.00  0.00     0.187 C 
HETATM   22  O   UNL     1     -37.184 -50.489  13.765  1.00  0.00    -0.388 OA
HETATM   23  C   UNL     1     -38.257 -49.930  14.552  1.00  0.00     0.187 C 
HETATM   24  C   UNL     1     -38.816 -48.677  13.862  1.00  0.00     0.150 C 
ENDBRANCH   7  19
TORSDOF 5
ENDMDL
MODEL 8
REMARK VINA RESULT:      -5.5      2.286      6.820
REMARK  5 active torsions:
REMARK  status: ('A' for Active; 'I' for Inactive)
REMARK    1  A    between atoms: N_2  and  C_3 
REMARK       I    between atoms: N_2  and  C_21 
REMARK    2  A    between atoms: C_3  and  C_4 
REMARK       I    between atoms: C_4  and  N_6 
REMARK    3  A    between atoms: N_6  and  C_7 
REMARK    4  A    between atoms: C_7  and  C_8 
REMARK    5  A    between atoms: C_14  and  N_15 
ROOT
HETATM    1  C   UNL     1     -43.360 -47.208  10.830  1.00  0.00     0.004 A 
HETATM    2  C   UNL     1     -44.392 -47.847  10.122  1.00  0.00     0.014 A 
HETATM    3  C   UNL     1     -45.106 -47.157   9.155  1.00  0.00     0.018 A 
HETATM    4  C   UNL     1     -44.774 -45.837   8.935  1.00  0.00     0.089 A 
HETATM    5  N   UNL     1     -43.800 -45.184   9.608  1.00  0.00    -0.352 N 
ATOM      6  HN  UNL     1     -43.599 -44.205   9.406  1.00  0.00     0.166 HD
HETATM    7  C   UNL     1     -43.096 -45.850  10.555  1.00  0.00     0.111 A 
ENDROOT
BRANCH   1   8
HETATM    8  C   UNL     1     -42.509 -48.044  11.760  1.00  0.00     0.165 C 
BRANCH   8   9
HETATM    9  N   UNL     1     -43.247 -49.130  12.384  1.00  0.00    -0.355 N 
HETATM   10  C   UNL     1     -42.616 -50.052  13.199  1.00  0.00     0.235 C 
HETATM   11  O   UNL     1     -41.400 -50.062  13.373  1.00  0.00    -0.272 OA
HETATM   12  H   UNL     1     -44.223 -49.239  12.145  1.00  0.00     0.162 HD
BRANCH  10  13
HETATM   13  C   UNL     1     -43.559 -51.003  13.953  1.00  0.00     0.227 C 
BRANCH  13  14
HETATM   14  N   UNL     1     -44.089 -52.074  13.108  1.00  0.00    -0.348 N 
HETATM   15  C   UNL     1     -43.126 -53.001  12.538  1.00  0.00     0.153 C 
HETATM   16  C   UNL     1     -45.421 -52.365  12.900  1.00  0.00     0.215 C 
HETATM   17  O   UNL     1     -45.769 -53.312  12.183  1.00  0.00    -0.274 OA
HETATM   18  C   UNL     1     -46.498 -51.505  13.521  1.00  0.00     0.117 C 
ENDBRANCH  13  14
ENDBRANCH  10  13
ENDBRANCH   8   9
ENDBRANCH   1   8
BRANCH   7  19
HETATM   19  N   UNL     1     -42.045 -45.188  11.144  1.00  0.00    -0.363 N 
HETATM   20  C   UNL     1     -40.749 -45.104  10.460  1.00  0.00     0.150 C 
HETATM   21  C   UNL     1     -39.668 -45.082  11.563  1.00  0.00     0.187 C 
HETATM   22  O   UNL     1     -39.874 -44.013  12.516  1.00  0.00    -0.388 OA
HETATM   23  C   UNL     1     -41.192 -44.090  13.100  1.00  0.00     0.187 C 
HETATM   24  C   UNL     1     -42.259 -44.017  11.998  1.00  0.00     0.150 C 
ENDBRANCH   7  19
TORSDOF 5
ENDMDL
MODEL 9
REMARK VINA RESULT:      -5.4      2.950      5.086
REMARK  5 active torsions:
REMARK  status: ('A' for Active; 'I' for Inactive)
REMARK    1  A    between atoms: N_2  and  C_3 
REMARK       I    between atoms: N_2  and  C_21 
REMARK    2  A    between atoms: C_3  and  C_4 
REMARK       I    between atoms: C_4  and  N_6 
REMARK    3  A    between atoms: N_6  and  C_7 
REMARK    4  A    between atoms: C_7  and  C_8 
REMARK    5  A    between atoms: C_14  and  N_15 
ROOT
HETATM    1  C   UNL     1     -41.288 -53.301  13.387  1.00  0.00     0.004 A 
HETATM    2  C   UNL     1     -39.896 -53.494  13.391  1.00  0.00     0.014 A 
HETATM    3  C   UNL     1     -39.293 -54.205  14.418  1.00  0.00     0.018 A 
HETATM    4  C   UNL     1     -40.104 -54.690  15.422  1.00  0.00     0.089 A 
HETATM    5  N   UNL     1     -41.444 -54.509  15.461  1.00  0.00    -0.352 N 
ATOM      6  HN  UNL     1     -41.994 -54.888  16.231  1.00  0.00     0.166 HD
HETATM    7  C   UNL     1     -42.043 -53.817  14.462  1.00  0.00     0.111 A 
ENDROOT
BRANCH   1   8
HETATM    8  C   UNL     1     -41.916 -52.659  12.170  1.00  0.00     0.165 C 
BRANCH   8   9
HETATM    9  N   UNL     1     -41.059 -51.660  11.550  1.00  0.00    -0.355 N 
HETATM   10  C   UNL     1     -41.227 -50.312  11.805  1.00  0.00     0.235 C 
HETATM   11  O   UNL     1     -42.148 -49.876  12.491  1.00  0.00    -0.272 OA
HETATM   12  H   UNL     1     -40.385 -51.973  10.864  1.00  0.00     0.162 HD
BRANCH  10  13
HETATM   13  C   UNL     1     -40.118 -49.404  11.251  1.00  0.00     0.227 C 
BRANCH  13  14
HETATM   14  N   UNL     1     -39.289 -48.805  12.299  1.00  0.00    -0.348 N 
HETATM   15  C   UNL     1     -39.780 -47.580  12.906  1.00  0.00     0.153 C 
HETATM   16  C   UNL     1     -38.152 -49.354  12.852  1.00  0.00     0.215 C 
HETATM   17  O   UNL     1     -37.531 -48.777  13.754  1.00  0.00    -0.274 OA
HETATM   18  C   UNL     1     -37.611 -50.669  12.341  1.00  0.00     0.117 C 
ENDBRANCH  13  14
ENDBRANCH  10  13
ENDBRANCH   8   9
ENDBRANCH   1   8
BRANCH   7  19
HETATM   19  N   UNL     1     -43.415 -53.744  14.478  1.00  0.00    -0.363 N 
HETATM   20  C   UNL     1     -44.219 -54.971  14.490  1.00  0.00     0.150 C 
HETATM   21  C   UNL     1     -45.524 -54.651  13.725  1.00  0.00     0.187 C 
HETATM   22  O   UNL     1     -46.223 -53.512  14.278  1.00  0.00    -0.388 OA
HETATM   23  C   UNL     1     -45.364 -52.352  14.322  1.00  0.00     0.187 C 
HETATM   24  C   UNL     1     -44.116 -52.655  15.163  1.00  0.00     0.150 C 
ENDBRANCH   7  19
TORSDOF 5
ENDMDL
