MODEL 1
REMARK VINA RESULT:      -6.9      0.000      0.000
REMARK  3 active torsions:
REMARK  status: ('A' for Active; 'I' for Inactive)
REMARK       I    between atoms: C_2  and  N_3 
REMARK       I    between atoms: C_2  and  N_15 
REMARK    1  A    between atoms: N_3  and  C_4 
REMARK    2  A    between atoms: C_4  and  C_5 
REMARK    3  A    between atoms: N_15  and  C_16 
ROOT
HETATM    1  O   UNL     1     -39.603 -49.114  11.669  1.00  0.00    -0.247 OA
HETATM    2  C   UNL     1     -40.724 -49.211  11.177  1.00  0.00     0.321 C 
HETATM    3  N   UNL     1     -41.472 -50.329  11.282  1.00  0.00    -0.340 N 
HETATM    4  N   UNL     1     -41.246 -48.135  10.545  1.00  0.00    -0.295 N 
HETATM    5  H   UNL     1     -42.403 -50.312  10.873  1.00  0.00     0.164 HD
HETATM    6  H   UNL     1     -40.613 -47.354  10.593  1.00  0.00     0.172 HD
ENDROOT
BRANCH   3   7
HETATM    7  C   UNL     1     -41.003 -51.513  11.985  1.00  0.00     0.158 C 
BRANCH   7   8
HETATM    8  C   UNL     1     -41.065 -51.457  13.540  1.00  0.00     0.167 C 
HETATM    9  C   UNL     1     -42.354 -50.838  14.102  1.00  0.00     0.306 C 
HETATM   10  N   UNL     1     -43.490 -51.567  13.552  1.00  0.00     0.097 N 
HETATM   11  C   UNL     1     -44.786 -51.000  13.902  1.00  0.00     0.273 C 
HETATM   12  C   UNL     1     -43.431 -53.006  13.872  1.00  0.00     0.246 C 
HETATM   13  C   UNL     1     -45.811 -51.591  12.936  1.00  0.00     0.030 C 
HETATM   14  C   UNL     1     -45.800 -53.121  12.955  1.00  0.00     0.004 C 
HETATM   15  C   UNL     1     -44.382 -53.698  12.881  1.00  0.00     0.038 C 
HETATM   16  C   UNL     1     -42.014 -53.647  13.802  1.00  0.00     0.204 C 
HETATM   17  O   UNL     1     -40.925 -52.770  14.133  1.00  0.00    -0.380 OA
ENDBRANCH   7   8
ENDBRANCH   3   7
BRANCH   4  18
HETATM   18  C   UNL     1     -42.455 -47.927   9.886  1.00  0.00     0.108 A 
HETATM   19  C   UNL     1     -43.548 -47.612  10.696  1.00  0.00     0.049 A 
HETATM   20  C   UNL     1     -44.800 -47.407  10.125  1.00  0.00     0.005 A 
HETATM   21  C   UNL     1     -44.924 -47.489   8.746  1.00  0.00     0.017 A 
HETATM   22  C   UNL     1     -43.789 -47.782   8.007  1.00  0.00     0.089 A 
HETATM   23  N   UNL     1     -42.564 -48.020   8.540  1.00  0.00    -0.352 N 
ATOM     24  HN  UNL     1     -41.763 -48.259   7.954  1.00  0.00     0.166 HD
ENDBRANCH   4  18
TORSDOF 3
ENDMDL
MODEL 2
REMARK VINA RESULT:      -6.5      2.067      3.614
REMARK  3 active torsions:
REMARK  status: ('A' for Active; 'I' for Inactive)
REMARK       I    between atoms: C_2  and  N_3 
REMARK       I    between atoms: C_2  and  N_15 
REMARK    1  A    between atoms: N_3  and  C_4 
REMARK    2  A    between atoms: C_4  and  C_5 
REMARK    3  A    between atoms: N_15  and  C_16 
ROOT
HETATM    1  O   UNL     1     -40.454 -53.251  12.148  1.00  0.00    -0.247 OA
HETATM    2  C   UNL     1     -40.862 -52.094  12.223  1.00  0.00     0.321 C 
HETATM    3  N   UNL     1     -41.842 -51.720  13.071  1.00  0.00    -0.340 N 
HETATM    4  N   UNL     1     -40.271 -51.152  11.453  1.00  0.00    -0.295 N 
HETATM    5  H   UNL     1     -42.096 -50.736  13.091  1.00  0.00     0.164 HD
HETATM    6  H   UNL     1     -39.519 -51.552  10.917  1.00  0.00     0.172 HD
ENDROOT
BRANCH   3   7
HETATM    7  C   UNL     1     -42.497 -52.664  13.964  1.00  0.00     0.158 C 
BRANCH   7   8
HETATM    8  C   UNL     1     -43.376 -53.754  13.283  1.00  0.00     0.167 C 
HETATM    9  C   UNL     1     -44.362 -54.457  14.229  1.00  0.00     0.306 C 
HETATM   10  N   UNL     1     -45.184 -53.439  14.873  1.00  0.00     0.097 N 
HETATM   11  C   UNL     1     -46.079 -53.960  15.898  1.00  0.00     0.273 C 
HETATM   12  C   UNL     1     -45.914 -52.616  13.891  1.00  0.00     0.246 C 
HETATM   13  C   UNL     1     -46.533 -52.772  16.744  1.00  0.00     0.030 C 
HETATM   14  C   UNL     1     -47.171 -51.673  15.890  1.00  0.00     0.004 C 
HETATM   15  C   UNL     1     -46.344 -51.345  14.643  1.00  0.00     0.038 C 
HETATM   16  C   UNL     1     -45.116 -52.244  12.607  1.00  0.00     0.204 C 
HETATM   17  O   UNL     1     -44.147 -53.216  12.183  1.00  0.00    -0.380 OA
ENDBRANCH   7   8
ENDBRANCH   3   7
BRANCH   4  18
HETATM   18  C   UNL     1     -40.501 -49.787  11.296  1.00  0.00     0.108 A 
HETATM   19  C   UNL     1     -39.545 -48.936  11.856  1.00  0.00     0.049 A 
HETATM   20  C   UNL     1     -39.704 -47.557  11.763  1.00  0.00     0.005 A 
HETATM   21  C   UNL     1     -40.804 -47.058  11.083  1.00  0.00     0.017 A 
HETATM   22  C   UNL     1     -41.697 -47.965  10.535  1.00  0.00     0.089 A 
HETATM   23  N   UNL     1     -41.584 -49.314  10.638  1.00  0.00    -0.352 N 
ATOM     24  HN  UNL     1     -42.284 -49.941  10.238  1.00  0.00     0.166 HD
ENDBRANCH   4  18
TORSDOF 3
ENDMDL
MODEL 3
REMARK VINA RESULT:      -6.2      2.738      6.791
REMARK  3 active torsions:
REMARK  status: ('A' for Active; 'I' for Inactive)
REMARK       I    between atoms: C_2  and  N_3 
REMARK       I    between atoms: C_2  and  N_15 
REMARK    1  A    between atoms: N_3  and  C_4 
REMARK    2  A    between atoms: C_4  and  C_5 
REMARK    3  A    between atoms: N_15  and  C_16 
ROOT
HETATM    1  O   UNL     1     -40.268 -49.957  10.987  1.00  0.00    -0.247 OA
HETATM    2  C   UNL     1     -41.068 -50.503  11.743  1.00  0.00     0.321 C 
HETATM    3  N   UNL     1     -41.767 -49.827  12.677  1.00  0.00    -0.340 N 
HETATM    4  N   UNL     1     -41.287 -51.830  11.598  1.00  0.00    -0.295 N 
HETATM    5  H   UNL     1     -42.432 -50.352  13.239  1.00  0.00     0.164 HD
HETATM    6  H   UNL     1     -40.751 -52.196  10.829  1.00  0.00     0.172 HD
ENDROOT
BRANCH   3   7
HETATM    7  C   UNL     1     -41.623 -48.391  12.865  1.00  0.00     0.158 C 
BRANCH   7   8
HETATM    8  C   UNL     1     -42.920 -47.544  12.698  1.00  0.00     0.167 C 
HETATM    9  C   UNL     1     -42.787 -46.083  13.154  1.00  0.00     0.306 C 
HETATM   10  N   UNL     1     -41.665 -45.481  12.444  1.00  0.00     0.097 N 
HETATM   11  C   UNL     1     -41.344 -44.128  12.877  1.00  0.00     0.273 C 
HETATM   12  C   UNL     1     -41.839 -45.548  10.981  1.00  0.00     0.246 C 
HETATM   13  C   UNL     1     -39.938 -43.814  12.369  1.00  0.00     0.030 C 
HETATM   14  C   UNL     1     -39.823 -44.003  10.854  1.00  0.00     0.004 C 
HETATM   15  C   UNL     1     -40.441 -45.322  10.379  1.00  0.00     0.038 C 
HETATM   16  C   UNL     1     -42.455 -46.872  10.441  1.00  0.00     0.204 C 
HETATM   17  O   UNL     1     -43.378 -47.526  11.326  1.00  0.00    -0.380 OA
ENDBRANCH   7   8
ENDBRANCH   3   7
BRANCH   4  18
HETATM   18  C   UNL     1     -42.099 -52.728  12.286  1.00  0.00     0.108 A 
HETATM   19  C   UNL     1     -41.489 -53.436  13.324  1.00  0.00     0.049 A 
HETATM   20  C   UNL     1     -42.221 -54.369  14.052  1.00  0.00     0.005 A 
HETATM   21  C   UNL     1     -43.561 -54.550  13.745  1.00  0.00     0.017 A 
HETATM   22  C   UNL     1     -44.101 -53.795  12.717  1.00  0.00     0.089 A 
HETATM   23  N   UNL     1     -43.403 -52.903  11.969  1.00  0.00    -0.352 N 
ATOM     24  HN  UNL     1     -43.841 -52.388  11.204  1.00  0.00     0.166 HD
ENDBRANCH   4  18
TORSDOF 3
ENDMDL
MODEL 4
REMARK VINA RESULT:      -6.2      1.958      2.853
REMARK  3 active torsions:
REMARK  status: ('A' for Active; 'I' for Inactive)
REMARK       I    between atoms: C_2  and  N_3 
REMARK       I    between atoms: C_2  and  N_15 
REMARK    1  A    between atoms: N_3  and  C_4 
REMARK    2  A    between atoms: C_4  and  C_5 
REMARK    3  A    between atoms: N_15  and  C_16 
ROOT
HETATM    1  O   UNL     1     -40.225 -50.834  11.744  1.00  0.00    -0.247 OA
HETATM    2  C   UNL     1     -41.179 -50.101  11.495  1.00  0.00     0.321 C 
HETATM    3  N   UNL     1     -42.397 -50.277  12.047  1.00  0.00    -0.340 N 
HETATM    4  N   UNL     1     -40.985 -49.049  10.667  1.00  0.00    -0.295 N 
HETATM    5  H   UNL     1     -43.122 -49.604  11.811  1.00  0.00     0.164 HD
HETATM    6  H   UNL     1     -40.022 -48.999  10.378  1.00  0.00     0.172 HD
ENDROOT
BRANCH   3   7
HETATM    7  C   UNL     1     -42.677 -51.357  12.982  1.00  0.00     0.158 C 
BRANCH   7   8
HETATM    8  C   UNL     1     -42.875 -52.770  12.358  1.00  0.00     0.167 C 
HETATM    9  C   UNL     1     -42.171 -53.904  13.117  1.00  0.00     0.306 C 
HETATM   10  N   UNL     1     -42.614 -53.871  14.505  1.00  0.00     0.097 N 
HETATM   11  C   UNL     1     -41.923 -54.817  15.372  1.00  0.00     0.273 C 
HETATM   12  C   UNL     1     -44.078 -54.009  14.621  1.00  0.00     0.246 C 
HETATM   13  C   UNL     1     -42.178 -54.375  16.812  1.00  0.00     0.030 C 
HETATM   14  C   UNL     1     -43.674 -54.261  17.119  1.00  0.00     0.004 C 
HETATM   15  C   UNL     1     -44.440 -53.504  16.028  1.00  0.00     0.038 C 
HETATM   16  C   UNL     1     -44.907 -53.251  13.543  1.00  0.00     0.204 C 
HETATM   17  O   UNL     1     -44.275 -53.123  12.259  1.00  0.00    -0.380 OA
ENDBRANCH   7   8
ENDBRANCH   3   7
BRANCH   4  18
HETATM   18  C   UNL     1     -41.841 -48.062  10.185  1.00  0.00     0.108 A 
HETATM   19  C   UNL     1     -41.855 -46.861  10.898  1.00  0.00     0.049 A 
HETATM   20  C   UNL     1     -42.694 -45.826  10.499  1.00  0.00     0.005 A 
HETATM   21  C   UNL     1     -43.481 -46.005   9.371  1.00  0.00     0.017 A 
HETATM   22  C   UNL     1     -43.396 -47.215   8.703  1.00  0.00     0.089 A 
HETATM   23  N   UNL     1     -42.611 -48.254   9.089  1.00  0.00    -0.352 N 
ATOM     24  HN  UNL     1     -42.602 -49.137   8.577  1.00  0.00     0.166 HD
ENDBRANCH   4  18
TORSDOF 3
ENDMDL
MODEL 5
REMARK VINA RESULT:      -6.1      2.295      6.032
REMARK  3 active torsions:
REMARK  status: ('A' for Active; 'I' for Inactive)
REMARK       I    between atoms: C_2  and  N_3 
REMARK       I    between atoms: C_2  and  N_15 
REMARK    1  A    between atoms: N_3  and  C_4 
REMARK    2  A    between atoms: C_4  and  C_5 
REMARK    3  A    between atoms: N_15  and  C_16 
ROOT
HETATM    1  O   UNL     1     -38.733 -53.234  13.616  1.00  0.00    -0.247 OA
HETATM    2  C   UNL     1     -39.940 -53.006  13.626  1.00  0.00     0.321 C 
HETATM    3  N   UNL     1     -40.447 -51.764  13.761  1.00  0.00    -0.340 N 
HETATM    4  N   UNL     1     -40.792 -54.042  13.450  1.00  0.00    -0.295 N 
HETATM    5  H   UNL     1     -41.458 -51.662  13.727  1.00  0.00     0.164 HD
HETATM    6  H   UNL     1     -40.284 -54.897  13.299  1.00  0.00     0.172 HD
ENDROOT
BRANCH   3   7
HETATM    7  C   UNL     1     -39.598 -50.592  13.910  1.00  0.00     0.158 C 
BRANCH   7   8
HETATM    8  C   UNL     1     -38.937 -50.053  12.606  1.00  0.00     0.167 C 
HETATM    9  C   UNL     1     -39.927 -49.750  11.471  1.00  0.00     0.306 C 
HETATM   10  N   UNL     1     -40.934 -48.824  11.977  1.00  0.00     0.097 N 
HETATM   11  C   UNL     1     -42.014 -48.551  11.038  1.00  0.00     0.273 C 
HETATM   12  C   UNL     1     -40.333 -47.575  12.480  1.00  0.00     0.246 C 
HETATM   13  C   UNL     1     -43.161 -47.938  11.839  1.00  0.00     0.030 C 
HETATM   14  C   UNL     1     -42.716 -46.699  12.619  1.00  0.00     0.004 C 
HETATM   15  C   UNL     1     -41.401 -46.923  13.374  1.00  0.00     0.038 C 
HETATM   16  C   UNL     1     -38.998 -47.745  13.265  1.00  0.00     0.204 C 
HETATM   17  O   UNL     1     -38.176 -48.846  12.846  1.00  0.00    -0.380 OA
ENDBRANCH   7   8
ENDBRANCH   3   7
BRANCH   4  18
HETATM   18  C   UNL     1     -42.182 -54.121  13.424  1.00  0.00     0.108 A 
HETATM   19  C   UNL     1     -42.784 -54.716  14.535  1.00  0.00     0.049 A 
HETATM   20  C   UNL     1     -44.167 -54.854  14.585  1.00  0.00     0.005 A 
HETATM   21  C   UNL     1     -44.924 -54.363  13.533  1.00  0.00     0.017 A 
HETATM   22  C   UNL     1     -44.258 -53.765  12.476  1.00  0.00     0.089 A 
HETATM   23  N   UNL     1     -42.908 -53.646  12.385  1.00  0.00    -0.352 N 
ATOM     24  HN  UNL     1     -42.462 -53.220  11.572  1.00  0.00     0.166 HD
ENDBRANCH   4  18
TORSDOF 3
ENDMDL
MODEL 6
REMARK VINA RESULT:      -6.0      2.000      2.483
REMARK  3 active torsions:
REMARK  status: ('A' for Active; 'I' for Inactive)
REMARK       I    between atoms: C_2  and  N_3 
REMARK       I    between atoms: C_2  and  N_15 
REMARK    1  A    between atoms: N_3  and  C_4 
REMARK    2  A    between atoms: C_4  and  C_5 
REMARK    3  A    between atoms: N_15  and  C_16 
ROOT
HETATM    1  O   UNL     1     -38.198 -50.813  11.762  1.00  0.00    -0.247 OA
HETATM    2  C   UNL     1     -39.149 -50.037  11.827  1.00  0.00     0.321 C 
HETATM    3  N   UNL     1     -40.398 -50.439  12.140  1.00  0.00    -0.340 N 
HETATM    4  N   UNL     1     -38.921 -48.721  11.618  1.00  0.00    -0.295 N 
HETATM    5  H   UNL     1     -41.119 -49.725  12.203  1.00  0.00     0.164 HD
HETATM    6  H   UNL     1     -37.942 -48.551  11.457  1.00  0.00     0.172 HD
ENDROOT
BRANCH   3   7
HETATM    7  C   UNL     1     -40.717 -51.830  12.423  1.00  0.00     0.158 C 
BRANCH   7   8
HETATM    8  C   UNL     1     -40.881 -52.204  13.926  1.00  0.00     0.167 C 
HETATM    9  C   UNL     1     -42.092 -51.555  14.614  1.00  0.00     0.306 C 
HETATM   10  N   UNL     1     -43.287 -51.892  13.851  1.00  0.00     0.097 N 
HETATM   11  C   UNL     1     -44.498 -51.231  14.321  1.00  0.00     0.273 C 
HETATM   12  C   UNL     1     -43.480 -53.350  13.742  1.00  0.00     0.246 C 
HETATM   13  C   UNL     1     -45.532 -51.339  13.203  1.00  0.00     0.030 C 
HETATM   14  C   UNL     1     -45.766 -52.791  12.779  1.00  0.00     0.004 C 
HETATM   15  C   UNL     1     -44.457 -53.560  12.572  1.00  0.00     0.038 C 
HETATM   16  C   UNL     1     -42.182 -54.181  13.521  1.00  0.00     0.204 C 
HETATM   17  O   UNL     1     -40.994 -53.635  14.116  1.00  0.00    -0.380 OA
ENDBRANCH   7   8
ENDBRANCH   3   7
BRANCH   4  18
HETATM   18  C   UNL     1     -39.762 -47.611  11.607  1.00  0.00     0.108 A 
HETATM   19  C   UNL     1     -39.752 -46.822  12.759  1.00  0.00     0.049 A 
HETATM   20  C   UNL     1     -40.576 -45.704  12.842  1.00  0.00     0.005 A 
HETATM   21  C   UNL     1     -41.373 -45.382  11.755  1.00  0.00     0.017 A 
HETATM   22  C   UNL     1     -41.312 -46.200  10.638  1.00  0.00     0.089 A 
HETATM   23  N   UNL     1     -40.542 -47.314  10.542  1.00  0.00    -0.352 N 
ATOM     24  HN  UNL     1     -40.552 -47.900   9.706  1.00  0.00     0.166 HD
ENDBRANCH   4  18
TORSDOF 3
ENDMDL
MODEL 7
REMARK VINA RESULT:      -5.8      3.185      6.280
REMARK  3 active torsions:
REMARK  status: ('A' for Active; 'I' for Inactive)
REMARK       I    between atoms: C_2  and  N_3 
REMARK       I    between atoms: C_2  and  N_15 
REMARK    1  A    between atoms: N_3  and  C_4 
REMARK    2  A    between atoms: C_4  and  C_5 
REMARK    3  A    between atoms: N_15  and  C_16 
ROOT
HETATM    1  O   UNL     1     -41.235 -54.170  13.262  1.00  0.00    -0.247 OA
HETATM    2  C   UNL     1     -42.045 -53.304  13.586  1.00  0.00     0.321 C 
HETATM    3  N   UNL     1     -41.685 -52.031  13.850  1.00  0.00    -0.340 N 
HETATM    4  N   UNL     1     -43.356 -53.634  13.633  1.00  0.00    -0.295 N 
HETATM    5  H   UNL     1     -42.424 -51.372  14.079  1.00  0.00     0.164 HD
HETATM    6  H   UNL     1     -43.491 -54.591  13.354  1.00  0.00     0.172 HD
ENDROOT
BRANCH   3   7
HETATM    7  C   UNL     1     -40.302 -51.585  13.777  1.00  0.00     0.158 C 
BRANCH   7   8
HETATM    8  C   UNL     1     -39.766 -51.245  12.355  1.00  0.00     0.167 C 
HETATM    9  C   UNL     1     -39.978 -49.785  11.928  1.00  0.00     0.306 C 
HETATM   10  N   UNL     1     -39.383 -48.920  12.940  1.00  0.00     0.097 N 
HETATM   11  C   UNL     1     -39.626 -47.500  12.726  1.00  0.00     0.273 C 
HETATM   12  C   UNL     1     -37.946 -49.196  13.126  1.00  0.00     0.246 C 
HETATM   13  C   UNL     1     -39.327 -46.788  14.044  1.00  0.00     0.030 C 
HETATM   14  C   UNL     1     -37.911 -47.087  14.545  1.00  0.00     0.004 C 
HETATM   15  C   UNL     1     -37.570 -48.579  14.484  1.00  0.00     0.038 C 
HETATM   16  C   UNL     1     -37.543 -50.699  13.082  1.00  0.00     0.204 C 
HETATM   17  O   UNL     1     -38.351 -51.528  12.231  1.00  0.00    -0.380 OA
ENDBRANCH   7   8
ENDBRANCH   3   7
BRANCH   4  18
HETATM   18  C   UNL     1     -44.496 -52.908  13.968  1.00  0.00     0.108 A 
HETATM   19  C   UNL     1     -45.196 -52.340  12.901  1.00  0.00     0.049 A 
HETATM   20  C   UNL     1     -46.337 -51.582  13.144  1.00  0.00     0.005 A 
HETATM   21  C   UNL     1     -46.772 -51.434  14.452  1.00  0.00     0.017 A 
HETATM   22  C   UNL     1     -46.038 -52.046  15.455  1.00  0.00     0.089 A 
HETATM   23  N   UNL     1     -44.903 -52.763  15.250  1.00  0.00    -0.352 N 
ATOM     24  HN  UNL     1     -44.383 -53.174  16.026  1.00  0.00     0.166 HD
ENDBRANCH   4  18
TORSDOF 3
ENDMDL
MODEL 8
REMARK VINA RESULT:      -5.8      1.893      2.780
REMARK  3 active torsions:
REMARK  status: ('A' for Active; 'I' for Inactive)
REMARK       I    between atoms: C_2  and  N_3 
REMARK       I    between atoms: C_2  and  N_15 
REMARK    1  A    between atoms: N_3  and  C_4 
REMARK    2  A    between atoms: C_4  and  C_5 
REMARK    3  A    between atoms: N_15  and  C_16 
ROOT
HETATM    1  O   UNL     1     -42.659 -46.360  11.797  1.00  0.00    -0.247 OA
HETATM    2  C   UNL     1     -43.202 -47.230  11.122  1.00  0.00     0.321 C 
HETATM    3  N   UNL     1     -43.031 -48.548  11.355  1.00  0.00    -0.340 N 
HETATM    4  N   UNL     1     -44.043 -46.848  10.134  1.00  0.00    -0.295 N 
HETATM    5  H   UNL     1     -43.544 -49.200  10.769  1.00  0.00     0.164 HD
HETATM    6  H   UNL     1     -44.128 -45.846  10.109  1.00  0.00     0.172 HD
ENDROOT
BRANCH   3   7
HETATM    7  C   UNL     1     -42.180 -49.041  12.428  1.00  0.00     0.158 C 
BRANCH   7   8
HETATM    8  C   UNL     1     -42.835 -49.129  13.838  1.00  0.00     0.167 C 
HETATM    9  C   UNL     1     -43.880 -50.246  13.985  1.00  0.00     0.306 C 
HETATM   10  N   UNL     1     -43.257 -51.509  13.610  1.00  0.00     0.097 N 
HETATM   11  C   UNL     1     -44.176 -52.639  13.580  1.00  0.00     0.273 C 
HETATM   12  C   UNL     1     -42.071 -51.805  14.436  1.00  0.00     0.246 C 
HETATM   13  C   UNL     1     -43.495 -53.750  12.783  1.00  0.00     0.030 C 
HETATM   14  C   UNL     1     -42.122 -54.108  13.359  1.00  0.00     0.004 C 
HETATM   15  C   UNL     1     -41.273 -52.869  13.663  1.00  0.00     0.038 C 
HETATM   16  C   UNL     1     -41.165 -50.582  14.767  1.00  0.00     0.204 C 
HETATM   17  O   UNL     1     -41.849 -49.324  14.879  1.00  0.00    -0.380 OA
ENDBRANCH   7   8
ENDBRANCH   3   7
BRANCH   4  18
HETATM   18  C   UNL     1     -44.787 -47.567   9.202  1.00  0.00     0.108 A 
HETATM   19  C   UNL     1     -46.110 -47.842   9.556  1.00  0.00     0.049 A 
HETATM   20  C   UNL     1     -46.922 -48.572   8.693  1.00  0.00     0.005 A 
HETATM   21  C   UNL     1     -46.400 -48.986   7.478  1.00  0.00     0.017 A 
HETATM   22  C   UNL     1     -45.086 -48.656   7.188  1.00  0.00     0.089 A 
HETATM   23  N   UNL     1     -44.261 -47.974   8.024  1.00  0.00    -0.352 N 
ATOM     24  HN  UNL     1     -43.291 -47.777   7.774  1.00  0.00     0.166 HD
ENDBRANCH   4  18
TORSDOF 3
ENDMDL
MODEL 9
REMARK VINA RESULT:      -5.8      3.675      4.911
REMARK  3 active torsions:
REMARK  status: ('A' for Active; 'I' for Inactive)
REMARK       I    between atoms: C_2  and  N_3 
REMARK       I    between atoms: C_2  and  N_15 
REMARK    1  A    between atoms: N_3  and  C_4 
REMARK    2  A    between atoms: C_4  and  C_5 
REMARK    3  A    between atoms: N_15  and  C_16 
ROOT
HETATM    1  O   UNL     1     -39.894 -52.180  16.858  1.00  0.00    -0.247 OA
HETATM    2  C   UNL     1     -39.899 -51.852  15.674  1.00  0.00     0.321 C 
HETATM    3  N   UNL     1     -40.876 -52.220  14.819  1.00  0.00    -0.340 N 
HETATM    4  N   UNL     1     -38.907 -51.052  15.223  1.00  0.00    -0.295 N 
HETATM    5  H   UNL     1     -40.819 -51.877  13.864  1.00  0.00     0.164 HD
HETATM    6  H   UNL     1     -38.284 -50.803  15.973  1.00  0.00     0.172 HD
ENDROOT
BRANCH   3   7
HETATM    7  C   UNL     1     -42.002 -53.042  15.237  1.00  0.00     0.158 C 
BRANCH   7   8
HETATM    8  C   UNL     1     -42.456 -54.144  14.233  1.00  0.00     0.167 C 
HETATM    9  C   UNL     1     -43.893 -54.644  14.446  1.00  0.00     0.306 C 
HETATM   10  N   UNL     1     -44.788 -53.494  14.411  1.00  0.00     0.097 N 
HETATM   11  C   UNL     1     -46.174 -53.810  14.729  1.00  0.00     0.273 C 
HETATM   12  C   UNL     1     -44.685 -52.753  13.139  1.00  0.00     0.246 C 
HETATM   13  C   UNL     1     -46.870 -52.493  15.063  1.00  0.00     0.030 C 
HETATM   14  C   UNL     1     -46.732 -51.470  13.933  1.00  0.00     0.004 C 
HETATM   15  C   UNL     1     -45.296 -51.367  13.407  1.00  0.00     0.038 C 
HETATM   16  C   UNL     1     -43.246 -52.610  12.564  1.00  0.00     0.204 C 
HETATM   17  O   UNL     1     -42.355 -53.697  12.860  1.00  0.00    -0.380 OA
ENDBRANCH   7   8
ENDBRANCH   3   7
BRANCH   4  18
HETATM   18  C   UNL     1     -38.623 -50.524  13.966  1.00  0.00     0.108 A 
HETATM   19  C   UNL     1     -37.657 -51.204  13.220  1.00  0.00     0.049 A 
HETATM   20  C   UNL     1     -37.297 -50.737  11.960  1.00  0.00     0.005 A 
HETATM   21  C   UNL     1     -37.936 -49.613  11.459  1.00  0.00     0.017 A 
HETATM   22  C   UNL     1     -38.900 -49.006  12.248  1.00  0.00     0.089 A 
HETATM   23  N   UNL     1     -39.247 -49.420  13.494  1.00  0.00    -0.352 N 
ATOM     24  HN  UNL     1     -39.946 -48.923  14.047  1.00  0.00     0.166 HD
ENDBRANCH   4  18
TORSDOF 3
ENDMDL
