MODEL 1
REMARK VINA RESULT:      -6.5      0.000      0.000
REMARK  3 active torsions:
REMARK  status: ('A' for Active; 'I' for Inactive)
REMARK    1  A    between atoms: C_2  and  N_3 
REMARK    2  A    between atoms: C_2  and  C_15 
REMARK       I    between atoms: N_3  and  C_4 
REMARK       I    between atoms: C_4  and  N_6 
REMARK    3  A    between atoms: N_6  and  C_7 
ROOT
HETATM    1  N   UNL     1     -40.804 -50.037  10.897  1.00  0.00    -0.336 N 
HETATM    2  C   UNL     1     -41.606 -48.923  11.047  1.00  0.00     0.321 C 
HETATM    3  O   UNL     1     -42.074 -48.576  12.124  1.00  0.00    -0.247 OA
HETATM    4  N   UNL     1     -41.711 -48.230   9.858  1.00  0.00    -0.305 N 
HETATM    5  H   UNL     1     -41.021 -50.587  10.074  1.00  0.00     0.164 HD
HETATM    6  H   UNL     1     -40.879 -48.297   9.290  1.00  0.00     0.171 HD
ENDROOT
BRANCH   1   7
HETATM    7  C   UNL     1     -40.402 -50.817  12.072  1.00  0.00     0.111 C 
HETATM    8  C   UNL     1     -38.883 -50.713  12.221  1.00  0.00     0.035 C 
BRANCH   7   9
HETATM    9  C   UNL     1     -40.916 -52.269  11.988  1.00  0.00     0.143 C 
HETATM   10  C   UNL     1     -42.360 -52.469  12.434  1.00  0.00     0.036 C 
HETATM   11  C   UNL     1     -42.360 -53.808  13.146  1.00  0.00     0.029 C 
HETATM   12  C   UNL     1     -40.935 -54.309  13.021  1.00  0.00     0.168 C 
HETATM   13  O   UNL     1     -40.131 -53.146  12.819  1.00  0.00    -0.384 OA
ENDBRANCH   7   9
ENDBRANCH   1   7
BRANCH   4  14
HETATM   14  C   UNL     1     -42.404 -47.026   9.802  1.00  0.00     0.092 A 
HETATM   15  C   UNL     1     -43.737 -46.738   9.403  1.00  0.00     0.058 A 
HETATM   16  C   UNL     1     -44.776 -47.636   8.847  1.00  0.00     0.072 C 
HETATM   17  N   UNL     1     -44.002 -45.428   9.517  1.00  0.00    -0.263 N 
HETATM   18  O   UNL     1     -42.844 -44.847   9.992  1.00  0.00    -0.240 OA
ATOM     19  HN  UNL     1     -44.880 -44.957   9.298  1.00  0.00     0.194 HD
HETATM   20  C   UNL     1     -41.885 -45.799  10.149  1.00  0.00     0.101 A 
HETATM   21  C   UNL     1     -40.604 -45.339  10.713  1.00  0.00     0.081 C 
ENDBRANCH   4  14
TORSDOF 3
ENDMDL
MODEL 2
REMARK VINA RESULT:      -6.0      3.305      6.305
REMARK  3 active torsions:
REMARK  status: ('A' for Active; 'I' for Inactive)
REMARK    1  A    between atoms: C_2  and  N_3 
REMARK    2  A    between atoms: C_2  and  C_15 
REMARK       I    between atoms: N_3  and  C_4 
REMARK       I    between atoms: C_4  and  N_6 
REMARK    3  A    between atoms: N_6  and  C_7 
ROOT
HETATM    1  N   UNL     1     -41.867 -50.929  11.894  1.00  0.00    -0.336 N 
HETATM    2  C   UNL     1     -42.812 -51.386  12.791  1.00  0.00     0.321 C 
HETATM    3  O   UNL     1     -43.092 -50.794  13.827  1.00  0.00    -0.247 OA
HETATM    4  N   UNL     1     -43.444 -52.513  12.308  1.00  0.00    -0.305 N 
HETATM    5  H   UNL     1     -41.265 -51.658  11.530  1.00  0.00     0.164 HD
HETATM    6  H   UNL     1     -43.521 -52.519  11.301  1.00  0.00     0.171 HD
ENDROOT
BRANCH   1   7
HETATM    7  C   UNL     1     -41.207 -49.638  12.115  1.00  0.00     0.111 C 
HETATM    8  C   UNL     1     -41.345 -48.803  10.840  1.00  0.00     0.035 C 
BRANCH   7   9
HETATM    9  C   UNL     1     -39.747 -49.824  12.576  1.00  0.00     0.143 C 
HETATM   10  C   UNL     1     -38.738 -48.890  11.915  1.00  0.00     0.036 C 
HETATM   11  C   UNL     1     -37.496 -49.739  11.725  1.00  0.00     0.029 C 
HETATM   12  C   UNL     1     -37.853 -51.083  12.329  1.00  0.00     0.168 C 
HETATM   13  O   UNL     1     -39.279 -51.157  12.293  1.00  0.00    -0.384 OA
ENDBRANCH   7   9
ENDBRANCH   1   7
BRANCH   4  14
HETATM   14  C   UNL     1     -44.493 -53.092  13.013  1.00  0.00     0.092 A 
HETATM   15  C   UNL     1     -45.894 -52.865  12.949  1.00  0.00     0.058 A 
HETATM   16  C   UNL     1     -46.659 -51.874  12.156  1.00  0.00     0.072 C 
HETATM   17  N   UNL     1     -46.551 -53.660  13.806  1.00  0.00    -0.263 N 
HETATM   18  O   UNL     1     -45.585 -54.415  14.439  1.00  0.00    -0.240 OA
ATOM     19  HN  UNL     1     -47.559 -53.699  13.959  1.00  0.00     0.194 HD
HETATM   20  C   UNL     1     -44.355 -54.066  13.976  1.00  0.00     0.101 A 
HETATM   21  C   UNL     1     -43.219 -54.836  14.514  1.00  0.00     0.081 C 
ENDBRANCH   4  14
TORSDOF 3
ENDMDL
MODEL 3
REMARK VINA RESULT:      -6.0      1.371      1.577
REMARK  3 active torsions:
REMARK  status: ('A' for Active; 'I' for Inactive)
REMARK    1  A    between atoms: C_2  and  N_3 
REMARK    2  A    between atoms: C_2  and  C_15 
REMARK       I    between atoms: N_3  and  C_4 
REMARK       I    between atoms: C_4  and  N_6 
REMARK    3  A    between atoms: N_6  and  C_7 
ROOT
HETATM    1  N   UNL     1     -41.882 -50.355  11.771  1.00  0.00    -0.336 N 
HETATM    2  C   UNL     1     -42.410 -49.081  11.689  1.00  0.00     0.321 C 
HETATM    3  O   UNL     1     -42.834 -48.470  12.662  1.00  0.00    -0.247 OA
HETATM    4  N   UNL     1     -42.295 -48.583  10.408  1.00  0.00    -0.305 N 
HETATM    5  H   UNL     1     -42.181 -50.969  11.023  1.00  0.00     0.164 HD
HETATM    6  H   UNL     1     -41.475 -48.924   9.926  1.00  0.00     0.171 HD
ENDROOT
BRANCH   1   7
HETATM    7  C   UNL     1     -41.727 -51.004  13.076  1.00  0.00     0.111 C 
HETATM    8  C   UNL     1     -40.354 -51.678  13.118  1.00  0.00     0.035 C 
BRANCH   7   9
HETATM    9  C   UNL     1     -42.896 -51.966  13.369  1.00  0.00     0.143 C 
HETATM   10  C   UNL     1     -42.633 -52.984  14.474  1.00  0.00     0.036 C 
HETATM   11  C   UNL     1     -43.320 -54.250  14.001  1.00  0.00     0.029 C 
HETATM   12  C   UNL     1     -43.971 -53.866  12.686  1.00  0.00     0.168 C 
HETATM   13  O   UNL     1     -43.234 -52.742  12.203  1.00  0.00    -0.384 OA
ENDBRANCH   7   9
ENDBRANCH   1   7
BRANCH   4  14
HETATM   14  C   UNL     1     -42.686 -47.281  10.118  1.00  0.00     0.092 A 
HETATM   15  C   UNL     1     -43.925 -46.764   9.651  1.00  0.00     0.058 A 
HETATM   16  C   UNL     1     -45.161 -47.477   9.252  1.00  0.00     0.072 C 
HETATM   17  N   UNL     1     -43.871 -45.431   9.517  1.00  0.00    -0.263 N 
HETATM   18  O   UNL     1     -42.596 -45.063   9.896  1.00  0.00    -0.240 OA
ATOM     19  HN  UNL     1     -44.619 -44.814   9.200  1.00  0.00     0.194 HD
HETATM   20  C   UNL     1     -41.884 -46.169  10.241  1.00  0.00     0.101 A 
HETATM   21  C   UNL     1     -40.516 -45.929  10.733  1.00  0.00     0.081 C 
ENDBRANCH   4  14
TORSDOF 3
ENDMDL
MODEL 4
REMARK VINA RESULT:      -6.0      1.367      6.555
REMARK  3 active torsions:
REMARK  status: ('A' for Active; 'I' for Inactive)
REMARK    1  A    between atoms: C_2  and  N_3 
REMARK    2  A    between atoms: C_2  and  C_15 
REMARK       I    between atoms: N_3  and  C_4 
REMARK       I    between atoms: C_4  and  N_6 
REMARK    3  A    between atoms: N_6  and  C_7 
ROOT
HETATM    1  N   UNL     1     -41.670 -48.230   9.903  1.00  0.00    -0.336 N 
HETATM    2  C   UNL     1     -41.360 -48.949  11.040  1.00  0.00     0.321 C 
HETATM    3  O   UNL     1     -41.901 -48.754  12.122  1.00  0.00    -0.247 OA
HETATM    4  N   UNL     1     -40.457 -49.952  10.756  1.00  0.00    -0.305 N 
HETATM    5  H   UNL     1     -40.860 -47.962   9.357  1.00  0.00     0.164 HD
HETATM    6  H   UNL     1     -40.563 -50.324   9.823  1.00  0.00     0.171 HD
ENDROOT
BRANCH   1   7
HETATM    7  C   UNL     1     -42.749 -47.237   9.931  1.00  0.00     0.111 C 
HETATM    8  C   UNL     1     -43.486 -47.290   8.591  1.00  0.00     0.035 C 
BRANCH   7   9
HETATM    9  C   UNL     1     -42.216 -45.835  10.288  1.00  0.00     0.143 C 
HETATM   10  C   UNL     1     -40.699 -45.689  10.237  1.00  0.00     0.036 C 
HETATM   11  C   UNL     1     -40.362 -44.768  11.393  1.00  0.00     0.029 C 
HETATM   12  C   UNL     1     -41.703 -44.408  12.001  1.00  0.00     0.168 C 
HETATM   13  O   UNL     1     -42.593 -45.461  11.627  1.00  0.00    -0.384 OA
ENDBRANCH   7   9
ENDBRANCH   1   7
BRANCH   4  14
HETATM   14  C   UNL     1     -40.070 -50.854  11.741  1.00  0.00     0.092 A 
HETATM   15  C   UNL     1     -40.772 -51.936  12.339  1.00  0.00     0.058 A 
HETATM   16  C   UNL     1     -42.171 -52.382  12.144  1.00  0.00     0.072 C 
HETATM   17  N   UNL     1     -40.010 -52.560  13.249  1.00  0.00    -0.263 N 
HETATM   18  O   UNL     1     -38.802 -51.893  13.254  1.00  0.00    -0.240 OA
ATOM     19  HN  UNL     1     -40.269 -53.364  13.820  1.00  0.00     0.194 HD
HETATM   20  C   UNL     1     -38.843 -50.865  12.364  1.00  0.00     0.101 A 
HETATM   21  C   UNL     1     -37.597 -50.094  12.209  1.00  0.00     0.081 C 
ENDBRANCH   4  14
TORSDOF 3
ENDMDL
MODEL 5
REMARK VINA RESULT:      -5.9      2.628      4.242
REMARK  3 active torsions:
REMARK  status: ('A' for Active; 'I' for Inactive)
REMARK    1  A    between atoms: C_2  and  N_3 
REMARK    2  A    between atoms: C_2  and  C_15 
REMARK       I    between atoms: N_3  and  C_4 
REMARK       I    between atoms: C_4  and  N_6 
REMARK    3  A    between atoms: N_6  and  C_7 
ROOT
HETATM    1  N   UNL     1     -42.708 -51.995  12.515  1.00  0.00    -0.336 N 
HETATM    2  C   UNL     1     -42.262 -50.689  12.568  1.00  0.00     0.321 C 
HETATM    3  O   UNL     1     -42.289 -50.014  13.590  1.00  0.00    -0.247 OA
HETATM    4  N   UNL     1     -41.705 -50.311  11.364  1.00  0.00    -0.305 N 
HETATM    5  H   UNL     1     -43.249 -52.207  11.685  1.00  0.00     0.164 HD
HETATM    6  H   UNL     1     -41.260 -51.077  10.879  1.00  0.00     0.171 HD
ENDROOT
BRANCH   1   7
HETATM    7  C   UNL     1     -43.164 -52.666  13.737  1.00  0.00     0.111 C 
HETATM    8  C   UNL     1     -42.539 -54.062  13.780  1.00  0.00     0.035 C 
BRANCH   7   9
HETATM    9  C   UNL     1     -44.704 -52.675  13.833  1.00  0.00     0.143 C 
HETATM   10  C   UNL     1     -45.434 -52.674  12.494  1.00  0.00     0.036 C 
HETATM   11  C   UNL     1     -46.649 -51.796  12.720  1.00  0.00     0.029 C 
HETATM   12  C   UNL     1     -46.564 -51.390  14.178  1.00  0.00     0.168 C 
HETATM   13  O   UNL     1     -45.187 -51.514  14.535  1.00  0.00    -0.384 OA
ENDBRANCH   7   9
ENDBRANCH   1   7
BRANCH   4  14
HETATM   14  C   UNL     1     -41.114 -49.061  11.221  1.00  0.00     0.092 A 
HETATM   15  C   UNL     1     -39.812 -48.603  11.557  1.00  0.00     0.058 A 
HETATM   16  C   UNL     1     -38.705 -49.311  12.243  1.00  0.00     0.072 C 
HETATM   17  N   UNL     1     -39.655 -47.312  11.231  1.00  0.00    -0.263 N 
HETATM   18  O   UNL     1     -40.854 -46.912  10.678  1.00  0.00    -0.240 OA
ATOM     19  HN  UNL     1     -38.820 -46.741  11.365  1.00  0.00     0.194 HD
HETATM   20  C   UNL     1     -41.730 -47.952  10.685  1.00  0.00     0.101 A 
HETATM   21  C   UNL     1     -43.042 -47.696  10.063  1.00  0.00     0.081 C 
ENDBRANCH   4  14
TORSDOF 3
ENDMDL
MODEL 6
REMARK VINA RESULT:      -5.8      2.826      4.003
REMARK  3 active torsions:
REMARK  status: ('A' for Active; 'I' for Inactive)
REMARK    1  A    between atoms: C_2  and  N_3 
REMARK    2  A    between atoms: C_2  and  C_15 
REMARK       I    between atoms: N_3  and  C_4 
REMARK       I    between atoms: C_4  and  N_6 
REMARK    3  A    between atoms: N_6  and  C_7 
ROOT
HETATM    1  N   UNL     1     -42.777 -51.907  12.504  1.00  0.00    -0.336 N 
HETATM    2  C   UNL     1     -42.359 -50.591  12.506  1.00  0.00     0.321 C 
HETATM    3  O   UNL     1     -42.524 -49.840  13.460  1.00  0.00    -0.247 OA
HETATM    4  N   UNL     1     -41.663 -50.294  11.353  1.00  0.00    -0.305 N 
HETATM    5  H   UNL     1     -43.207 -52.197  11.633  1.00  0.00     0.164 HD
HETATM    6  H   UNL     1     -41.149 -51.085  10.990  1.00  0.00     0.171 HD
ENDROOT
BRANCH   1   7
HETATM    7  C   UNL     1     -43.372 -52.493  13.709  1.00  0.00     0.111 C 
HETATM    8  C   UNL     1     -42.742 -53.869  13.937  1.00  0.00     0.035 C 
BRANCH   7   9
HETATM    9  C   UNL     1     -44.911 -52.525  13.619  1.00  0.00     0.143 C 
HETATM   10  C   UNL     1     -45.611 -51.248  14.070  1.00  0.00     0.036 C 
HETATM   11  C   UNL     1     -46.866 -51.725  14.774  1.00  0.00     0.029 C 
HETATM   12  C   UNL     1     -46.830 -53.235  14.642  1.00  0.00     0.168 C 
HETATM   13  O   UNL     1     -45.457 -53.574  14.443  1.00  0.00    -0.384 OA
ENDBRANCH   7   9
ENDBRANCH   1   7
BRANCH   4  14
HETATM   14  C   UNL     1     -41.077 -49.045  11.184  1.00  0.00     0.092 A 
HETATM   15  C   UNL     1     -41.535 -47.887  10.500  1.00  0.00     0.058 A 
HETATM   16  C   UNL     1     -42.757 -47.688   9.685  1.00  0.00     0.072 C 
HETATM   17  N   UNL     1     -40.649 -46.886  10.599  1.00  0.00    -0.263 N 
HETATM   18  O   UNL     1     -39.602 -47.379  11.350  1.00  0.00    -0.240 OA
ATOM     19  HN  UNL     1     -40.732 -45.950  10.201  1.00  0.00     0.194 HD
HETATM   20  C   UNL     1     -39.851 -48.673  11.687  1.00  0.00     0.101 A 
HETATM   21  C   UNL     1     -38.846 -49.321  12.549  1.00  0.00     0.081 C 
ENDBRANCH   4  14
TORSDOF 3
ENDMDL
MODEL 7
REMARK VINA RESULT:      -5.7      2.818      3.689
REMARK  3 active torsions:
REMARK  status: ('A' for Active; 'I' for Inactive)
REMARK    1  A    between atoms: C_2  and  N_3 
REMARK    2  A    between atoms: C_2  and  C_15 
REMARK       I    between atoms: N_3  and  C_4 
REMARK       I    between atoms: C_4  and  N_6 
REMARK    3  A    between atoms: N_6  and  C_7 
ROOT
HETATM    1  N   UNL     1     -43.367 -50.390  12.520  1.00  0.00    -0.336 N 
HETATM    2  C   UNL     1     -43.083 -49.059  12.283  1.00  0.00     0.321 C 
HETATM    3  O   UNL     1     -43.209 -48.187  13.134  1.00  0.00    -0.247 OA
HETATM    4  N   UNL     1     -42.555 -48.886  11.020  1.00  0.00    -0.305 N 
HETATM    5  H   UNL     1     -43.864 -50.841  11.761  1.00  0.00     0.164 HD
HETATM    6  H   UNL     1     -42.012 -49.679  10.709  1.00  0.00     0.171 HD
ENDROOT
BRANCH   1   7
HETATM    7  C   UNL     1     -43.759 -50.831  13.862  1.00  0.00     0.111 C 
HETATM    8  C   UNL     1     -42.511 -51.344  14.583  1.00  0.00     0.035 C 
BRANCH   7   9
HETATM    9  C   UNL     1     -44.906 -51.861  13.804  1.00  0.00     0.143 C 
HETATM   10  C   UNL     1     -46.274 -51.327  14.214  1.00  0.00     0.036 C 
HETATM   11  C   UNL     1     -46.924 -52.474  14.964  1.00  0.00     0.029 C 
HETATM   12  C   UNL     1     -45.913 -53.601  14.894  1.00  0.00     0.168 C 
HETATM   13  O   UNL     1     -44.647 -52.974  14.683  1.00  0.00    -0.384 OA
ENDBRANCH   7   9
ENDBRANCH   1   7
BRANCH   4  14
HETATM   14  C   UNL     1     -42.118 -47.635  10.603  1.00  0.00     0.092 A 
HETATM   15  C   UNL     1     -40.890 -46.956  10.828  1.00  0.00     0.058 A 
HETATM   16  C   UNL     1     -39.723 -47.353  11.650  1.00  0.00     0.072 C 
HETATM   17  N   UNL     1     -40.883 -45.758  10.224  1.00  0.00    -0.263 N 
HETATM   18  O   UNL     1     -42.108 -45.643   9.598  1.00  0.00    -0.240 OA
ATOM     19  HN  UNL     1     -40.128 -45.073  10.227  1.00  0.00     0.194 HD
HETATM   20  C   UNL     1     -42.850 -46.757   9.836  1.00  0.00     0.101 A 
HETATM   21  C   UNL     1     -44.167 -46.809   9.176  1.00  0.00     0.081 C 
ENDBRANCH   4  14
TORSDOF 3
ENDMDL
MODEL 8
REMARK VINA RESULT:      -5.6      1.302      6.939
REMARK  3 active torsions:
REMARK  status: ('A' for Active; 'I' for Inactive)
REMARK    1  A    between atoms: C_2  and  N_3 
REMARK    2  A    between atoms: C_2  and  C_15 
REMARK       I    between atoms: N_3  and  C_4 
REMARK       I    between atoms: C_4  and  N_6 
REMARK    3  A    between atoms: N_6  and  C_7 
ROOT
HETATM    1  N   UNL     1     -41.519 -48.432  10.073  1.00  0.00    -0.336 N 
HETATM    2  C   UNL     1     -41.260 -49.111  11.248  1.00  0.00     0.321 C 
HETATM    3  O   UNL     1     -41.770 -48.809  12.320  1.00  0.00    -0.247 OA
HETATM    4  N   UNL     1     -40.450 -50.203  11.016  1.00  0.00    -0.305 N 
HETATM    5  H   UNL     1     -40.695 -48.267   9.508  1.00  0.00     0.164 HD
HETATM    6  H   UNL     1     -40.597 -50.616  10.106  1.00  0.00     0.171 HD
ENDROOT
BRANCH   1   7
HETATM    7  C   UNL     1     -42.509 -47.351  10.051  1.00  0.00     0.111 C 
HETATM    8  C   UNL     1     -43.410 -47.548   8.830  1.00  0.00     0.035 C 
BRANCH   7   9
HETATM    9  C   UNL     1     -41.831 -45.966  10.101  1.00  0.00     0.143 C 
HETATM   10  C   UNL     1     -40.392 -45.970  10.606  1.00  0.00     0.036 C 
HETATM   11  C   UNL     1     -40.269 -44.700  11.425  1.00  0.00     0.029 C 
HETATM   12  C   UNL     1     -41.622 -44.028  11.299  1.00  0.00     0.168 C 
HETATM   13  O   UNL     1     -42.544 -45.071  10.978  1.00  0.00    -0.384 OA
ENDBRANCH   7   9
ENDBRANCH   1   7
BRANCH   4  14
HETATM   14  C   UNL     1     -40.132 -51.078  12.049  1.00  0.00     0.092 A 
HETATM   15  C   UNL     1     -38.968 -51.178  12.858  1.00  0.00     0.058 A 
HETATM   16  C   UNL     1     -37.696 -50.420  12.789  1.00  0.00     0.072 C 
HETATM   17  N   UNL     1     -39.087 -52.169  13.754  1.00  0.00    -0.263 N 
HETATM   18  O   UNL     1     -40.331 -52.726  13.539  1.00  0.00    -0.240 OA
ATOM     19  HN  UNL     1     -38.399 -52.452  14.451  1.00  0.00     0.194 HD
HETATM   20  C   UNL     1     -40.949 -52.084  12.512  1.00  0.00     0.101 A 
HETATM   21  C   UNL     1     -42.321 -52.527  12.205  1.00  0.00     0.081 C 
ENDBRANCH   4  14
TORSDOF 3
ENDMDL
MODEL 9
REMARK VINA RESULT:      -5.4      3.228      6.779
REMARK  3 active torsions:
REMARK  status: ('A' for Active; 'I' for Inactive)
REMARK    1  A    between atoms: C_2  and  N_3 
REMARK    2  A    between atoms: C_2  and  C_15 
REMARK       I    between atoms: N_3  and  C_4 
REMARK       I    between atoms: C_4  and  N_6 
REMARK    3  A    between atoms: N_6  and  C_7 
ROOT
HETATM    1  N   UNL     1     -41.458 -51.170  13.192  1.00  0.00    -0.336 N 
HETATM    2  C   UNL     1     -42.462 -52.098  12.996  1.00  0.00     0.321 C 
HETATM    3  O   UNL     1     -42.499 -52.848  12.029  1.00  0.00    -0.247 OA
HETATM    4  N   UNL     1     -43.327 -52.119  14.070  1.00  0.00    -0.305 N 
HETATM    5  H   UNL     1     -41.793 -50.270  13.516  1.00  0.00     0.164 HD
HETATM    6  H   UNL     1     -42.872 -51.905  14.946  1.00  0.00     0.171 HD
ENDROOT
BRANCH   1   7
HETATM    7  C   UNL     1     -40.323 -51.108  12.266  1.00  0.00     0.111 C 
HETATM    8  C   UNL     1     -39.032 -51.219  13.079  1.00  0.00     0.035 C 
BRANCH   7   9
HETATM    9  C   UNL     1     -40.387 -49.847  11.379  1.00  0.00     0.143 C 
HETATM   10  C   UNL     1     -39.447 -48.720  11.792  1.00  0.00     0.036 C 
HETATM   11  C   UNL     1     -40.233 -47.449  11.531  1.00  0.00     0.029 C 
HETATM   12  C   UNL     1     -41.547 -47.924  10.943  1.00  0.00     0.168 C 
HETATM   13  O   UNL     1     -41.708 -49.271  11.392  1.00  0.00    -0.384 OA
ENDBRANCH   7   9
ENDBRANCH   1   7
BRANCH   4  14
HETATM   14  C   UNL     1     -44.366 -53.042  14.122  1.00  0.00     0.092 A 
HETATM   15  C   UNL     1     -45.731 -52.928  13.746  1.00  0.00     0.058 A 
HETATM   16  C   UNL     1     -46.484 -51.751  13.253  1.00  0.00     0.072 C 
HETATM   17  N   UNL     1     -46.387 -54.080  13.955  1.00  0.00    -0.263 N 
HETATM   18  O   UNL     1     -45.455 -54.958  14.469  1.00  0.00    -0.240 OA
ATOM     19  HN  UNL     1     -47.372 -54.268  13.770  1.00  0.00     0.194 HD
HETATM   20  C   UNL     1     -44.252 -54.334  14.582  1.00  0.00     0.101 A 
HETATM   21  C   UNL     1     -43.135 -55.168  15.060  1.00  0.00     0.081 C 
ENDBRANCH   4  14
TORSDOF 3
ENDMDL
