MODEL 1
REMARK VINA RESULT:      -5.5      0.000      0.000
REMARK  3 active torsions:
REMARK  status: ('A' for Active; 'I' for Inactive)
REMARK    1  A    between atoms: C_9  and  C_10 
REMARK    2  A    between atoms: C_10  and  C_11 
REMARK    3  A    between atoms: C_11  and  N_12 
REMARK       I    between atoms: N_12  and  C_13 
REMARK       I    between atoms: C_13  and  N_15 
ROOT
HETATM    1  C   UNL     1     -39.854 -47.497  12.398  1.00  0.00     0.062 C 
ENDROOT
BRANCH   1   2
HETATM    2  C   UNL     1     -40.082 -48.966  12.200  1.00  0.00    -0.009 A 
HETATM    3  C   UNL     1     -39.130 -49.948  11.804  1.00  0.00     0.030 A 
HETATM    4  C   UNL     1     -37.689 -49.774  11.492  1.00  0.00     0.070 C 
HETATM    5  N   UNL     1     -39.670 -51.169  11.739  1.00  0.00    -0.303 N 
HETATM    6  N   UNL     1     -40.950 -50.988  12.094  1.00  0.00    -0.300 N 
ATOM      7  HN  UNL     1     -39.212 -52.042  11.478  1.00  0.00     0.186 HD
HETATM    8  C   UNL     1     -41.825 -52.137  12.148  1.00  0.00     0.177 C 
HETATM    9  C   UNL     1     -41.254 -49.682  12.388  1.00  0.00     0.032 A 
HETATM   10  C   UNL     1     -42.601 -49.228  12.824  1.00  0.00     0.070 C 
ENDBRANCH   1   2
BRANCH   1  11
HETATM   11  C   UNL     1     -39.910 -46.693  11.095  1.00  0.00     0.129 C 
BRANCH  11  12
HETATM   12  N   UNL     1     -41.141 -46.915  10.352  1.00  0.00    -0.343 N 
HETATM   13  C   UNL     1     -41.994 -45.881  10.054  1.00  0.00     0.318 C 
HETATM   14  O   UNL     1     -41.740 -44.708  10.306  1.00  0.00    -0.247 OA
HETATM   15  N   UNL     1     -43.139 -46.276   9.409  1.00  0.00    -0.334 N 
HETATM   16  C   UNL     1     -44.280 -45.411   9.103  1.00  0.00     0.129 C 
HETATM   17  C   UNL     1     -44.006 -47.410   9.719  1.00  0.00     0.129 C 
HETATM   18  C   UNL     1     -45.040 -46.714   8.821  1.00  0.00     0.040 C 
HETATM   19  H   UNL     1     -41.455 -47.851  10.151  1.00  0.00     0.164 HD
ENDBRANCH  11  12
ENDBRANCH   1  11
TORSDOF 3
ENDMDL
MODEL 2
REMARK VINA RESULT:      -5.1      2.125      3.278
REMARK  3 active torsions:
REMARK  status: ('A' for Active; 'I' for Inactive)
REMARK    1  A    between atoms: C_9  and  C_10 
REMARK    2  A    between atoms: C_10  and  C_11 
REMARK    3  A    between atoms: C_11  and  N_12 
REMARK       I    between atoms: N_12  and  C_13 
REMARK       I    between atoms: C_13  and  N_15 
ROOT
HETATM    1  C   UNL     1     -41.410 -50.278  12.865  1.00  0.00     0.062 C 
ENDROOT
BRANCH   1   2
HETATM    2  C   UNL     1     -41.092 -51.721  13.120  1.00  0.00    -0.009 A 
HETATM    3  C   UNL     1     -41.951 -52.844  12.947  1.00  0.00     0.030 A 
HETATM    4  C   UNL     1     -43.358 -52.875  12.477  1.00  0.00     0.070 C 
HETATM    5  N   UNL     1     -41.339 -53.991  13.254  1.00  0.00    -0.303 N 
HETATM    6  N   UNL     1     -40.100 -53.625  13.613  1.00  0.00    -0.300 N 
ATOM      7  HN  UNL     1     -41.727 -54.934  13.223  1.00  0.00     0.186 HD
HETATM    8  C   UNL     1     -39.155 -54.650  13.991  1.00  0.00     0.177 C 
HETATM    9  C   UNL     1     -39.893 -52.269  13.546  1.00  0.00     0.032 A 
HETATM   10  C   UNL     1     -38.598 -51.618  13.875  1.00  0.00     0.070 C 
ENDBRANCH   1   2
BRANCH   1  11
HETATM   11  C   UNL     1     -40.887 -49.770  11.518  1.00  0.00     0.129 C 
BRANCH  11  12
HETATM   12  N   UNL     1     -41.921 -49.125  10.722  1.00  0.00    -0.343 N 
HETATM   13  C   UNL     1     -41.843 -47.796  10.388  1.00  0.00     0.318 C 
HETATM   14  O   UNL     1     -40.873 -47.094  10.652  1.00  0.00    -0.247 OA
HETATM   15  N   UNL     1     -42.934 -47.334   9.695  1.00  0.00    -0.334 N 
HETATM   16  C   UNL     1     -43.182 -45.936   9.341  1.00  0.00     0.129 C 
HETATM   17  C   UNL     1     -44.348 -47.578   9.967  1.00  0.00     0.129 C 
HETATM   18  C   UNL     1     -44.612 -46.394   9.025  1.00  0.00     0.040 C 
HETATM   19  H   UNL     1     -42.778 -49.610  10.508  1.00  0.00     0.164 HD
ENDBRANCH  11  12
ENDBRANCH   1  11
TORSDOF 3
ENDMDL
MODEL 3
REMARK VINA RESULT:      -5.0      4.299      6.797
REMARK  3 active torsions:
REMARK  status: ('A' for Active; 'I' for Inactive)
REMARK    1  A    between atoms: C_9  and  C_10 
REMARK    2  A    between atoms: C_10  and  C_11 
REMARK    3  A    between atoms: C_11  and  N_12 
REMARK       I    between atoms: N_12  and  C_13 
REMARK       I    between atoms: C_13  and  N_15 
ROOT
HETATM    1  C   UNL     1     -44.605 -53.986  12.876  1.00  0.00     0.062 C 
ENDROOT
BRANCH   1   2
HETATM    2  C   UNL     1     -45.362 -52.977  13.687  1.00  0.00    -0.009 A 
HETATM    3  C   UNL     1     -46.319 -52.030  13.224  1.00  0.00     0.030 A 
HETATM    4  C   UNL     1     -46.808 -51.802  11.841  1.00  0.00     0.070 C 
HETATM    5  N   UNL     1     -46.812 -51.291  14.222  1.00  0.00    -0.303 N 
HETATM    6  N   UNL     1     -46.194 -51.753  15.318  1.00  0.00    -0.300 N 
ATOM      7  HN  UNL     1     -47.503 -50.543  14.163  1.00  0.00     0.186 HD
HETATM    8  C   UNL     1     -46.523 -51.170  16.599  1.00  0.00     0.177 C 
HETATM    9  C   UNL     1     -45.313 -52.773  15.057  1.00  0.00     0.032 A 
HETATM   10  C   UNL     1     -44.519 -53.463  16.107  1.00  0.00     0.070 C 
ENDBRANCH   1   2
BRANCH   1  11
HETATM   11  C   UNL     1     -43.098 -53.719  12.827  1.00  0.00     0.129 C 
BRANCH  11  12
HETATM   12  N   UNL     1     -42.778 -52.404  12.293  1.00  0.00    -0.343 N 
HETATM   13  C   UNL     1     -41.480 -52.020  12.064  1.00  0.00     0.318 C 
HETATM   14  O   UNL     1     -40.523 -52.774  12.202  1.00  0.00    -0.247 OA
HETATM   15  N   UNL     1     -41.355 -50.726  11.625  1.00  0.00    -0.334 N 
HETATM   16  C   UNL     1     -40.090 -50.013  11.441  1.00  0.00     0.129 C 
HETATM   17  C   UNL     1     -42.024 -49.531  12.131  1.00  0.00     0.129 C 
HETATM   18  C   UNL     1     -40.953 -48.747  11.357  1.00  0.00     0.040 C 
HETATM   19  H   UNL     1     -43.496 -51.703  12.199  1.00  0.00     0.164 HD
ENDBRANCH  11  12
ENDBRANCH   1  11
TORSDOF 3
ENDMDL
MODEL 4
REMARK VINA RESULT:      -5.0      2.430      3.348
REMARK  3 active torsions:
REMARK  status: ('A' for Active; 'I' for Inactive)
REMARK    1  A    between atoms: C_9  and  C_10 
REMARK    2  A    between atoms: C_10  and  C_11 
REMARK    3  A    between atoms: C_11  and  N_12 
REMARK       I    between atoms: N_12  and  C_13 
REMARK       I    between atoms: C_13  and  N_15 
ROOT
HETATM    1  C   UNL     1     -41.073 -51.430  11.877  1.00  0.00     0.062 C 
ENDROOT
BRANCH   1   2
HETATM    2  C   UNL     1     -41.313 -52.506  12.894  1.00  0.00    -0.009 A 
HETATM    3  C   UNL     1     -40.393 -53.013  13.856  1.00  0.00     0.030 A 
HETATM    4  C   UNL     1     -38.985 -52.614  14.097  1.00  0.00     0.070 C 
HETATM    5  N   UNL     1     -40.943 -53.963  14.618  1.00  0.00    -0.303 N 
HETATM    6  N   UNL     1     -42.201 -54.068  14.167  1.00  0.00    -0.300 N 
ATOM      7  HN  UNL     1     -40.504 -54.490  15.373  1.00  0.00     0.186 HD
HETATM    8  C   UNL     1     -43.091 -55.012  14.804  1.00  0.00     0.177 C 
HETATM    9  C   UNL     1     -42.482 -53.210  13.132  1.00  0.00     0.032 A 
HETATM   10  C   UNL     1     -43.811 -53.123  12.473  1.00  0.00     0.070 C 
ENDBRANCH   1   2
BRANCH   1  11
HETATM   11  C   UNL     1     -41.536 -50.044  12.338  1.00  0.00     0.129 C 
BRANCH  11  12
HETATM   12  N   UNL     1     -42.376 -49.378  11.355  1.00  0.00    -0.343 N 
HETATM   13  C   UNL     1     -41.994 -48.196  10.769  1.00  0.00     0.318 C 
HETATM   14  O   UNL     1     -40.900 -47.676  10.960  1.00  0.00    -0.247 OA
HETATM   15  N   UNL     1     -42.932 -47.670   9.918  1.00  0.00    -0.334 N 
HETATM   16  C   UNL     1     -42.853 -46.358   9.275  1.00  0.00     0.129 C 
HETATM   17  C   UNL     1     -44.373 -47.546  10.126  1.00  0.00     0.129 C 
HETATM   18  C   UNL     1     -44.339 -46.559   8.950  1.00  0.00     0.040 C 
HETATM   19  H   UNL     1     -43.312 -49.705  11.177  1.00  0.00     0.164 HD
ENDBRANCH  11  12
ENDBRANCH   1  11
TORSDOF 3
ENDMDL
MODEL 5
REMARK VINA RESULT:      -5.0      4.714      7.084
REMARK  3 active torsions:
REMARK  status: ('A' for Active; 'I' for Inactive)
REMARK    1  A    between atoms: C_9  and  C_10 
REMARK    2  A    between atoms: C_10  and  C_11 
REMARK    3  A    between atoms: C_11  and  N_12 
REMARK       I    between atoms: N_12  and  C_13 
REMARK       I    between atoms: C_13  and  N_15 
ROOT
HETATM    1  C   UNL     1     -41.399 -54.224  14.390  1.00  0.00     0.062 C 
ENDROOT
BRANCH   1   2
HETATM    2  C   UNL     1     -41.365 -53.082  13.418  1.00  0.00    -0.009 A 
HETATM    3  C   UNL     1     -42.370 -52.709  12.480  1.00  0.00     0.030 A 
HETATM    4  C   UNL     1     -43.689 -53.342  12.228  1.00  0.00     0.070 C 
HETATM    5  N   UNL     1     -42.019 -51.628  11.777  1.00  0.00    -0.303 N 
HETATM    6  N   UNL     1     -40.810 -51.297  12.253  1.00  0.00    -0.300 N 
ATOM      7  HN  UNL     1     -42.551 -51.160  11.043  1.00  0.00     0.186 HD
HETATM    8  C   UNL     1     -40.144 -50.135  11.709  1.00  0.00     0.177 C 
HETATM    9  C   UNL     1     -40.368 -52.135  13.247  1.00  0.00     0.032 A 
HETATM   10  C   UNL     1     -39.068 -51.967  13.946  1.00  0.00     0.070 C 
ENDBRANCH   1   2
BRANCH   1  11
HETATM   11  C   UNL     1     -41.851 -53.813  15.794  1.00  0.00     0.129 C 
BRANCH  11  12
HETATM   12  N   UNL     1     -43.044 -52.980  15.777  1.00  0.00    -0.343 N 
HETATM   13  C   UNL     1     -44.300 -53.528  15.687  1.00  0.00     0.318 C 
HETATM   14  O   UNL     1     -44.506 -54.737  15.706  1.00  0.00    -0.247 OA
HETATM   15  N   UNL     1     -45.306 -52.599  15.614  1.00  0.00    -0.334 N 
HETATM   16  C   UNL     1     -46.718 -52.897  15.367  1.00  0.00     0.129 C 
HETATM   17  C   UNL     1     -45.360 -51.385  14.803  1.00  0.00     0.129 C 
HETATM   18  C   UNL     1     -46.866 -51.393  15.103  1.00  0.00     0.040 C 
HETATM   19  H   UNL     1     -42.967 -51.978  15.704  1.00  0.00     0.164 HD
ENDBRANCH  11  12
ENDBRANCH   1  11
TORSDOF 3
ENDMDL
MODEL 6
REMARK VINA RESULT:      -4.9      3.867      5.251
REMARK  3 active torsions:
REMARK  status: ('A' for Active; 'I' for Inactive)
REMARK    1  A    between atoms: C_9  and  C_10 
REMARK    2  A    between atoms: C_10  and  C_11 
REMARK    3  A    between atoms: C_11  and  N_12 
REMARK       I    between atoms: N_12  and  C_13 
REMARK       I    between atoms: C_13  and  N_15 
ROOT
HETATM    1  C   UNL     1     -43.589 -50.989  13.571  1.00  0.00     0.062 C 
ENDROOT
BRANCH   1   2
HETATM    2  C   UNL     1     -44.871 -51.074  14.346  1.00  0.00    -0.009 A 
HETATM    3  C   UNL     1     -46.169 -51.386  13.847  1.00  0.00     0.030 A 
HETATM    4  C   UNL     1     -46.579 -51.703  12.457  1.00  0.00     0.070 C 
HETATM    5  N   UNL     1     -47.087 -51.390  14.817  1.00  0.00    -0.303 N 
HETATM    6  N   UNL     1     -46.401 -51.093  15.930  1.00  0.00    -0.300 N 
ATOM      7  HN  UNL     1     -48.087 -51.575  14.730  1.00  0.00     0.186 HD
HETATM    8  C   UNL     1     -47.109 -51.036  17.188  1.00  0.00     0.177 C 
HETATM    9  C   UNL     1     -45.060 -50.898  15.707  1.00  0.00     0.032 A 
HETATM   10  C   UNL     1     -44.086 -50.576  16.782  1.00  0.00     0.070 C 
ENDBRANCH   1   2
BRANCH   1  11
HETATM   11  C   UNL     1     -43.107 -49.552  13.353  1.00  0.00     0.129 C 
BRANCH  11  12
HETATM   12  N   UNL     1     -43.425 -49.049  12.025  1.00  0.00    -0.343 N 
HETATM   13  C   UNL     1     -42.841 -47.909  11.532  1.00  0.00     0.318 C 
HETATM   14  O   UNL     1     -41.960 -47.296  12.124  1.00  0.00    -0.247 OA
HETATM   15  N   UNL     1     -43.305 -47.540  10.294  1.00  0.00    -0.334 N 
HETATM   16  C   UNL     1     -42.966 -46.297   9.599  1.00  0.00     0.129 C 
HETATM   17  C   UNL     1     -44.686 -47.497   9.822  1.00  0.00     0.129 C 
HETATM   18  C   UNL     1     -44.143 -46.634   8.673  1.00  0.00     0.040 C 
HETATM   19  H   UNL     1     -44.175 -49.458  11.490  1.00  0.00     0.164 HD
ENDBRANCH  11  12
ENDBRANCH   1  11
TORSDOF 3
ENDMDL
MODEL 7
REMARK VINA RESULT:      -4.9      2.154      2.748
REMARK  3 active torsions:
REMARK  status: ('A' for Active; 'I' for Inactive)
REMARK    1  A    between atoms: C_9  and  C_10 
REMARK    2  A    between atoms: C_10  and  C_11 
REMARK    3  A    between atoms: C_11  and  N_12 
REMARK       I    between atoms: N_12  and  C_13 
REMARK       I    between atoms: C_13  and  N_15 
ROOT
HETATM    1  C   UNL     1     -40.594 -50.722  11.609  1.00  0.00     0.062 C 
ENDROOT
BRANCH   1   2
HETATM    2  C   UNL     1     -39.944 -51.539  12.686  1.00  0.00    -0.009 A 
HETATM    3  C   UNL     1     -38.762 -51.228  13.418  1.00  0.00     0.030 A 
HETATM    4  C   UNL     1     -37.885 -50.036  13.307  1.00  0.00     0.070 C 
HETATM    5  N   UNL     1     -38.471 -52.173  14.317  1.00  0.00    -0.303 N 
HETATM    6  N   UNL     1     -39.449 -53.079  14.180  1.00  0.00    -0.300 N 
ATOM      7  HN  UNL     1     -37.682 -52.199  14.963  1.00  0.00     0.186 HD
HETATM    8  C   UNL     1     -39.444 -54.242  15.038  1.00  0.00     0.177 C 
HETATM    9  C   UNL     1     -40.368 -52.747  13.215  1.00  0.00     0.032 A 
HETATM   10  C   UNL     1     -41.554 -53.580  12.887  1.00  0.00     0.070 C 
ENDBRANCH   1   2
BRANCH   1  11
HETATM   11  C   UNL     1     -41.389 -49.529  12.147  1.00  0.00     0.129 C 
BRANCH  11  12
HETATM   12  N   UNL     1     -42.367 -49.030  11.194  1.00  0.00    -0.343 N 
HETATM   13  C   UNL     1     -42.161 -47.864  10.498  1.00  0.00     0.318 C 
HETATM   14  O   UNL     1     -41.119 -47.222  10.561  1.00  0.00    -0.247 OA
HETATM   15  N   UNL     1     -43.213 -47.505   9.694  1.00  0.00    -0.334 N 
HETATM   16  C   UNL     1     -43.324 -46.245   8.957  1.00  0.00     0.129 C 
HETATM   17  C   UNL     1     -44.638 -47.514  10.012  1.00  0.00     0.129 C 
HETATM   18  C   UNL     1     -44.800 -46.622   8.772  1.00  0.00     0.040 C 
HETATM   19  H   UNL     1     -43.274 -49.464  11.117  1.00  0.00     0.164 HD
ENDBRANCH  11  12
ENDBRANCH   1  11
TORSDOF 3
ENDMDL
MODEL 8
REMARK VINA RESULT:      -4.9      4.103      6.419
REMARK  3 active torsions:
REMARK  status: ('A' for Active; 'I' for Inactive)
REMARK    1  A    between atoms: C_9  and  C_10 
REMARK    2  A    between atoms: C_10  and  C_11 
REMARK    3  A    between atoms: C_11  and  N_12 
REMARK       I    between atoms: N_12  and  C_13 
REMARK       I    between atoms: C_13  and  N_15 
ROOT
HETATM    1  C   UNL     1     -44.058 -53.712  12.513  1.00  0.00     0.062 C 
ENDROOT
BRANCH   1   2
HETATM    2  C   UNL     1     -44.805 -53.296  13.745  1.00  0.00    -0.009 A 
HETATM    3  C   UNL     1     -44.579 -53.725  15.085  1.00  0.00     0.030 A 
HETATM    4  C   UNL     1     -43.563 -54.678  15.597  1.00  0.00     0.070 C 
HETATM    5  N   UNL     1     -45.420 -53.142  15.943  1.00  0.00    -0.303 N 
HETATM    6  N   UNL     1     -46.177 -52.341  15.180  1.00  0.00    -0.300 N 
ATOM      7  HN  UNL     1     -45.476 -53.277  16.953  1.00  0.00     0.186 HD
HETATM    8  C   UNL     1     -47.194 -51.534  15.814  1.00  0.00     0.177 C 
HETATM    9  C   UNL     1     -45.847 -52.389  13.847  1.00  0.00     0.032 A 
HETATM   10  C   UNL     1     -46.526 -51.579  12.802  1.00  0.00     0.070 C 
ENDBRANCH   1   2
BRANCH   1  11
HETATM   11  C   UNL     1     -42.575 -53.333  12.545  1.00  0.00     0.129 C 
BRANCH  11  12
HETATM   12  N   UNL     1     -42.324 -52.001  12.017  1.00  0.00    -0.343 N 
HETATM   13  C   UNL     1     -41.064 -51.458  12.009  1.00  0.00     0.318 C 
HETATM   14  O   UNL     1     -40.064 -52.079  12.354  1.00  0.00    -0.247 OA
HETATM   15  N   UNL     1     -41.017 -50.169  11.541  1.00  0.00    -0.334 N 
HETATM   16  C   UNL     1     -39.838 -49.303  11.557  1.00  0.00     0.129 C 
HETATM   17  C   UNL     1     -41.910 -49.058  11.862  1.00  0.00     0.129 C 
HETATM   18  C   UNL     1     -40.818 -48.162  11.259  1.00  0.00     0.040 C 
HETATM   19  H   UNL     1     -43.092 -51.399  11.762  1.00  0.00     0.164 HD
ENDBRANCH  11  12
ENDBRANCH   1  11
TORSDOF 3
ENDMDL
MODEL 9
REMARK VINA RESULT:      -4.8      2.936      6.357
REMARK  3 active torsions:
REMARK  status: ('A' for Active; 'I' for Inactive)
REMARK    1  A    between atoms: C_9  and  C_10 
REMARK    2  A    between atoms: C_10  and  C_11 
REMARK    3  A    between atoms: C_11  and  N_12 
REMARK       I    between atoms: N_12  and  C_13 
REMARK       I    between atoms: C_13  and  N_15 
ROOT
HETATM    1  C   UNL     1     -42.424 -48.709  12.570  1.00  0.00     0.062 C 
ENDROOT
BRANCH   1   2
HETATM    2  C   UNL     1     -41.913 -47.654  11.634  1.00  0.00    -0.009 A 
HETATM    3  C   UNL     1     -42.567 -47.117  10.488  1.00  0.00     0.030 A 
HETATM    4  C   UNL     1     -43.902 -47.457   9.935  1.00  0.00     0.070 C 
HETATM    5  N   UNL     1     -41.830 -46.178   9.889  1.00  0.00    -0.303 N 
HETATM    6  N   UNL     1     -40.719 -46.097  10.633  1.00  0.00    -0.300 N 
ATOM      7  HN  UNL     1     -42.061 -45.643   9.051  1.00  0.00     0.186 HD
HETATM    8  C   UNL     1     -39.702 -45.140  10.262  1.00  0.00     0.177 C 
HETATM    9  C   UNL     1     -40.716 -46.960  11.702  1.00  0.00     0.032 A 
HETATM   10  C   UNL     1     -39.605 -47.047  12.686  1.00  0.00     0.070 C 
ENDBRANCH   1   2
BRANCH   1  11
HETATM   11  C   UNL     1     -41.987 -50.125  12.185  1.00  0.00     0.129 C 
BRANCH  11  12
HETATM   12  N   UNL     1     -42.983 -51.131  12.522  1.00  0.00    -0.343 N 
HETATM   13  C   UNL     1     -42.714 -52.134  13.419  1.00  0.00     0.318 C 
HETATM   14  O   UNL     1     -41.668 -52.200  14.057  1.00  0.00    -0.247 OA
HETATM   15  N   UNL     1     -43.738 -53.034  13.568  1.00  0.00    -0.334 N 
HETATM   16  C   UNL     1     -43.671 -54.274  14.344  1.00  0.00     0.129 C 
HETATM   17  C   UNL     1     -44.551 -53.660  12.528  1.00  0.00     0.129 C 
HETATM   18  C   UNL     1     -44.967 -54.659  13.619  1.00  0.00     0.040 C 
HETATM   19  H   UNL     1     -43.849 -51.185  12.008  1.00  0.00     0.164 HD
ENDBRANCH  11  12
ENDBRANCH   1  11
TORSDOF 3
ENDMDL
