MODEL 1
REMARK VINA RESULT:      -6.4      0.000      0.000
REMARK  5 active torsions:
REMARK  status: ('A' for Active; 'I' for Inactive)
REMARK       I    between atoms: N_2  and  C_3 
REMARK    1  A    between atoms: C_3  and  C_5 
REMARK    2  A    between atoms: C_5  and  C_6 
REMARK    3  A    between atoms: C_6  and  N_7 
REMARK       I    between atoms: N_7  and  C_8 
REMARK       I    between atoms: C_8  and  N_10 
REMARK    4  A    between atoms: N_10  and  C_11 
REMARK    5  A    between atoms: C_17  and  N_18 
ROOT
HETATM    1  N   UNL     1     -41.765 -49.305  11.003  1.00  0.00    -0.342 N 
HETATM    2  C   UNL     1     -41.868 -50.119  12.112  1.00  0.00     0.320 C 
HETATM    3  O   UNL     1     -41.780 -49.680  13.252  1.00  0.00    -0.247 OA
HETATM    4  N   UNL     1     -42.018 -51.442  11.766  1.00  0.00    -0.306 N 
HETATM    5  H   UNL     1     -42.076 -49.659  10.106  1.00  0.00     0.164 HD
HETATM    6  H   UNL     1     -41.750 -51.683  10.832  1.00  0.00     0.171 HD
ENDROOT
BRANCH   4   7
HETATM    7  C   UNL     1     -42.022 -52.496  12.712  1.00  0.00     0.080 A 
HETATM    8  C   UNL     1     -40.827 -53.215  12.897  1.00  0.00     0.035 A 
HETATM    9  C   UNL     1     -40.744 -54.200  13.868  1.00  0.00     0.019 A 
HETATM   10  C   UNL     1     -41.867 -54.438  14.621  1.00  0.00     0.090 A 
HETATM   11  N   UNL     1     -43.028 -53.762  14.475  1.00  0.00    -0.351 N 
HETATM   12  C   UNL     1     -43.142 -52.794  13.524  1.00  0.00     0.130 A 
ATOM     13  HN  UNL     1     -43.822 -53.977  15.078  1.00  0.00     0.166 HD
BRANCH  12  14
HETATM   14  N   UNL     1     -44.386 -52.204  13.427  1.00  0.00    -0.365 N 
HETATM   15  C   UNL     1     -45.536 -52.637  12.650  1.00  0.00     0.124 C 
HETATM   16  C   UNL     1     -46.723 -51.840  13.186  1.00  0.00     0.021 C 
HETATM   17  C   UNL     1     -46.287 -51.383  14.563  1.00  0.00     0.021 C 
HETATM   18  C   UNL     1     -44.778 -51.212  14.430  1.00  0.00     0.124 C 
ENDBRANCH  12  14
ENDBRANCH   4   7
BRANCH   1  19
HETATM   19  C   UNL     1     -41.603 -47.874  11.181  1.00  0.00     0.133 C 
BRANCH  19  20
HETATM   20  C   UNL     1     -42.898 -47.084  11.067  1.00  0.00     0.122 C 
BRANCH  20  21
HETATM   21  C   UNL     1     -43.661 -47.474   9.826  1.00  0.00     0.218 C 
HETATM   22  N   UNL     1     -45.030 -47.526   9.977  1.00  0.00    -0.365 N 
HETATM   23  C   UNL     1     -45.883 -47.900   8.876  1.00  0.00     0.149 C 
HETATM   24  H   UNL     1     -45.449 -47.343  10.876  1.00  0.00     0.161 HD
HETATM   25  O   UNL     1     -43.082 -47.757   8.780  1.00  0.00    -0.274 OA
ENDBRANCH  20  21
ENDBRANCH  19  20
ENDBRANCH   1  19
TORSDOF 5
ENDMDL
MODEL 2
REMARK VINA RESULT:      -6.3      2.034      3.085
REMARK  5 active torsions:
REMARK  status: ('A' for Active; 'I' for Inactive)
REMARK       I    between atoms: N_2  and  C_3 
REMARK    1  A    between atoms: C_3  and  C_5 
REMARK    2  A    between atoms: C_5  and  C_6 
REMARK    3  A    between atoms: C_6  and  N_7 
REMARK       I    between atoms: N_7  and  C_8 
REMARK       I    between atoms: C_8  and  N_10 
REMARK    4  A    between atoms: N_10  and  C_11 
REMARK    5  A    between atoms: C_17  and  N_18 
ROOT
HETATM    1  N   UNL     1     -41.996 -47.529   9.850  1.00  0.00    -0.342 N 
HETATM    2  C   UNL     1     -41.342 -48.093  10.925  1.00  0.00     0.320 C 
HETATM    3  O   UNL     1     -41.259 -47.526  12.008  1.00  0.00    -0.247 OA
HETATM    4  N   UNL     1     -40.770 -49.302  10.602  1.00  0.00    -0.306 N 
HETATM    5  H   UNL     1     -42.244 -48.118   9.064  1.00  0.00     0.164 HD
HETATM    6  H   UNL     1     -40.641 -49.478   9.625  1.00  0.00     0.171 HD
ENDROOT
BRANCH   4   7
HETATM    7  C   UNL     1     -39.936 -50.028  11.487  1.00  0.00     0.080 A 
HETATM    8  C   UNL     1     -38.561 -49.729  11.486  1.00  0.00     0.035 A 
HETATM    9  C   UNL     1     -37.709 -50.345  12.388  1.00  0.00     0.019 A 
HETATM   10  C   UNL     1     -38.263 -51.248  13.263  1.00  0.00     0.090 A 
HETATM   11  N   UNL     1     -39.579 -51.552  13.296  1.00  0.00    -0.351 N 
HETATM   12  C   UNL     1     -40.439 -50.969  12.417  1.00  0.00     0.130 A 
ATOM     13  HN  UNL     1     -39.930 -52.221  13.982  1.00  0.00     0.166 HD
BRANCH  12  14
HETATM   14  N   UNL     1     -41.751 -51.391  12.505  1.00  0.00    -0.365 N 
HETATM   15  C   UNL     1     -42.315 -52.679  12.135  1.00  0.00     0.124 C 
HETATM   16  C   UNL     1     -43.705 -52.720  12.768  1.00  0.00     0.021 C 
HETATM   17  C   UNL     1     -43.653 -51.686  13.874  1.00  0.00     0.021 C 
HETATM   18  C   UNL     1     -42.681 -50.636  13.347  1.00  0.00     0.124 C 
ENDBRANCH  12  14
ENDBRANCH   4   7
BRANCH   1  19
HETATM   19  C   UNL     1     -42.661 -46.249  10.012  1.00  0.00     0.133 C 
BRANCH  19  20
HETATM   20  C   UNL     1     -43.593 -45.884   8.867  1.00  0.00     0.122 C 
BRANCH  20  21
HETATM   21  C   UNL     1     -44.668 -46.927   8.692  1.00  0.00     0.218 C 
HETATM   22  N   UNL     1     -45.895 -46.593   9.222  1.00  0.00    -0.365 N 
HETATM   23  C   UNL     1     -47.010 -47.504   9.141  1.00  0.00     0.149 C 
HETATM   24  H   UNL     1     -46.015 -45.720   9.714  1.00  0.00     0.161 HD
HETATM   25  O   UNL     1     -44.434 -48.003   8.147  1.00  0.00    -0.274 OA
ENDBRANCH  20  21
ENDBRANCH  19  20
ENDBRANCH   1  19
TORSDOF 5
ENDMDL
MODEL 3
REMARK VINA RESULT:      -6.2      3.040      5.084
REMARK  5 active torsions:
REMARK  status: ('A' for Active; 'I' for Inactive)
REMARK       I    between atoms: N_2  and  C_3 
REMARK    1  A    between atoms: C_3  and  C_5 
REMARK    2  A    between atoms: C_5  and  C_6 
REMARK    3  A    between atoms: C_6  and  N_7 
REMARK       I    between atoms: N_7  and  C_8 
REMARK       I    between atoms: C_8  and  N_10 
REMARK    4  A    between atoms: N_10  and  C_11 
REMARK    5  A    between atoms: C_17  and  N_18 
ROOT
HETATM    1  N   UNL     1     -40.730 -50.912  11.212  1.00  0.00    -0.342 N 
HETATM    2  C   UNL     1     -41.609 -51.333  12.188  1.00  0.00     0.320 C 
HETATM    3  O   UNL     1     -41.722 -50.748  13.258  1.00  0.00    -0.247 OA
HETATM    4  N   UNL     1     -42.265 -52.487  11.826  1.00  0.00    -0.306 N 
HETATM    5  H   UNL     1     -40.836 -51.271  10.270  1.00  0.00     0.164 HD
HETATM    6  H   UNL     1     -41.842 -53.017  11.089  1.00  0.00     0.171 HD
ENDROOT
BRANCH   4   7
HETATM    7  C   UNL     1     -43.126 -53.197  12.698  1.00  0.00     0.080 A 
HETATM    8  C   UNL     1     -44.503 -53.184  12.413  1.00  0.00     0.035 A 
HETATM    9  C   UNL     1     -45.385 -53.928  13.179  1.00  0.00     0.019 A 
HETATM   10  C   UNL     1     -44.857 -54.661  14.214  1.00  0.00     0.090 A 
HETATM   11  N   UNL     1     -43.539 -54.701  14.511  1.00  0.00    -0.351 N 
HETATM   12  C   UNL     1     -42.650 -53.974  13.781  1.00  0.00     0.130 A 
ATOM     13  HN  UNL     1     -43.209 -55.279  15.285  1.00  0.00     0.166 HD
BRANCH  12  14
HETATM   14  N   UNL     1     -41.337 -54.049  14.202  1.00  0.00    -0.365 N 
HETATM   15  C   UNL     1     -40.171 -54.489  13.455  1.00  0.00     0.124 C 
HETATM   16  C   UNL     1     -38.961 -54.033  14.268  1.00  0.00     0.021 C 
HETATM   17  C   UNL     1     -39.492 -52.926  15.154  1.00  0.00     0.021 C 
HETATM   18  C   UNL     1     -40.940 -53.326  15.411  1.00  0.00     0.124 C 
ENDBRANCH  12  14
ENDBRANCH   4   7
BRANCH   1  19
HETATM   19  C   UNL     1     -39.952 -49.705  11.425  1.00  0.00     0.133 C 
BRANCH  19  20
HETATM   20  C   UNL     1     -38.721 -49.905  12.293  1.00  0.00     0.122 C 
BRANCH  20  21
HETATM   21  C   UNL     1     -37.584 -50.493  11.493  1.00  0.00     0.218 C 
HETATM   22  N   UNL     1     -37.412 -49.945  10.240  1.00  0.00    -0.365 N 
HETATM   23  C   UNL     1     -36.374 -50.422   9.360  1.00  0.00     0.149 C 
HETATM   24  H   UNL     1     -38.041 -49.230   9.906  1.00  0.00     0.161 HD
HETATM   25  O   UNL     1     -36.903 -51.415  11.930  1.00  0.00    -0.274 OA
ENDBRANCH  20  21
ENDBRANCH  19  20
ENDBRANCH   1  19
TORSDOF 5
ENDMDL
MODEL 4
REMARK VINA RESULT:      -6.2      2.597      6.480
REMARK  5 active torsions:
REMARK  status: ('A' for Active; 'I' for Inactive)
REMARK       I    between atoms: N_2  and  C_3 
REMARK    1  A    between atoms: C_3  and  C_5 
REMARK    2  A    between atoms: C_5  and  C_6 
REMARK    3  A    between atoms: C_6  and  N_7 
REMARK       I    between atoms: N_7  and  C_8 
REMARK       I    between atoms: C_8  and  N_10 
REMARK    4  A    between atoms: N_10  and  C_11 
REMARK    5  A    between atoms: C_17  and  N_18 
ROOT
HETATM    1  N   UNL     1     -41.882 -52.529  11.881  1.00  0.00    -0.342 N 
HETATM    2  C   UNL     1     -41.705 -51.188  12.151  1.00  0.00     0.320 C 
HETATM    3  O   UNL     1     -42.155 -50.661  13.161  1.00  0.00    -0.247 OA
HETATM    4  N   UNL     1     -41.034 -50.544  11.137  1.00  0.00    -0.306 N 
HETATM    5  H   UNL     1     -41.305 -52.966  11.173  1.00  0.00     0.164 HD
HETATM    6  H   UNL     1     -41.020 -51.016  10.253  1.00  0.00     0.171 HD
ENDROOT
BRANCH   4   7
HETATM    7  C   UNL     1     -40.833 -49.143  11.105  1.00  0.00     0.080 A 
HETATM    8  C   UNL     1     -41.794 -48.357  10.444  1.00  0.00     0.035 A 
HETATM    9  C   UNL     1     -41.697 -46.975  10.453  1.00  0.00     0.019 A 
HETATM   10  C   UNL     1     -40.633 -46.422  11.123  1.00  0.00     0.090 A 
HETATM   11  N   UNL     1     -39.696 -47.147  11.774  1.00  0.00    -0.351 N 
HETATM   12  C   UNL     1     -39.761 -48.506  11.776  1.00  0.00     0.130 A 
ATOM     13  HN  UNL     1     -38.938 -46.674  12.266  1.00  0.00     0.166 HD
BRANCH  12  14
HETATM   14  N   UNL     1     -38.726 -49.147  12.428  1.00  0.00    -0.365 N 
HETATM   15  C   UNL     1     -38.672 -49.610  13.805  1.00  0.00     0.124 C 
HETATM   16  C   UNL     1     -37.467 -50.545  13.881  1.00  0.00     0.021 C 
HETATM   17  C   UNL     1     -37.212 -50.959  12.447  1.00  0.00     0.021 C 
HETATM   18  C   UNL     1     -37.654 -49.748  11.633  1.00  0.00     0.124 C 
ENDBRANCH  12  14
ENDBRANCH   4   7
BRANCH   1  19
HETATM   19  C   UNL     1     -42.572 -53.365  12.847  1.00  0.00     0.133 C 
BRANCH  19  20
HETATM   20  C   UNL     1     -43.926 -53.870  12.377  1.00  0.00     0.122 C 
BRANCH  20  21
HETATM   21  C   UNL     1     -45.023 -52.904  12.753  1.00  0.00     0.218 C 
HETATM   22  N   UNL     1     -44.809 -52.207  13.922  1.00  0.00    -0.365 N 
HETATM   23  C   UNL     1     -45.783 -51.262  14.410  1.00  0.00     0.149 C 
HETATM   24  H   UNL     1     -43.983 -52.383  14.474  1.00  0.00     0.161 HD
HETATM   25  O   UNL     1     -46.040 -52.793  12.073  1.00  0.00    -0.274 OA
ENDBRANCH  20  21
ENDBRANCH  19  20
ENDBRANCH   1  19
TORSDOF 5
ENDMDL
MODEL 5
REMARK VINA RESULT:      -5.8      2.147      3.782
REMARK  5 active torsions:
REMARK  status: ('A' for Active; 'I' for Inactive)
REMARK       I    between atoms: N_2  and  C_3 
REMARK    1  A    between atoms: C_3  and  C_5 
REMARK    2  A    between atoms: C_5  and  C_6 
REMARK    3  A    between atoms: C_6  and  N_7 
REMARK       I    between atoms: N_7  and  C_8 
REMARK       I    between atoms: C_8  and  N_10 
REMARK    4  A    between atoms: N_10  and  C_11 
REMARK    5  A    between atoms: C_17  and  N_18 
ROOT
HETATM    1  N   UNL     1     -42.372 -48.652  10.864  1.00  0.00    -0.342 N 
HETATM    2  C   UNL     1     -42.378 -49.561  11.901  1.00  0.00     0.320 C 
HETATM    3  O   UNL     1     -42.830 -49.285  13.006  1.00  0.00    -0.247 OA
HETATM    4  N   UNL     1     -41.775 -50.747  11.549  1.00  0.00    -0.306 N 
HETATM    5  H   UNL     1     -42.213 -48.987   9.921  1.00  0.00     0.164 HD
HETATM    6  H   UNL     1     -41.177 -50.712  10.747  1.00  0.00     0.171 HD
ENDROOT
BRANCH   4   7
HETATM    7  C   UNL     1     -41.537 -51.799  12.466  1.00  0.00     0.080 A 
HETATM    8  C   UNL     1     -42.482 -52.839  12.530  1.00  0.00     0.035 A 
HETATM    9  C   UNL     1     -42.263 -53.937  13.346  1.00  0.00     0.019 A 
HETATM   10  C   UNL     1     -41.100 -53.956  14.078  1.00  0.00     0.090 A 
HETATM   11  N   UNL     1     -40.169 -52.978  14.034  1.00  0.00    -0.351 N 
HETATM   12  C   UNL     1     -40.361 -51.884  13.249  1.00  0.00     0.130 A 
ATOM     13  HN  UNL     1     -39.318 -53.060  14.592  1.00  0.00     0.166 HD
BRANCH  12  14
HETATM   14  N   UNL     1     -39.371 -50.924  13.319  1.00  0.00    -0.365 N 
HETATM   15  C   UNL     1     -38.322 -50.633  12.356  1.00  0.00     0.124 C 
HETATM   16  C   UNL     1     -37.752 -49.275  12.761  1.00  0.00     0.021 C 
HETATM   17  C   UNL     1     -38.836 -48.642  13.607  1.00  0.00     0.021 C 
HETATM   18  C   UNL     1     -39.514 -49.829  14.281  1.00  0.00     0.124 C 
ENDBRANCH  12  14
ENDBRANCH   4   7
BRANCH   1  19
HETATM   19  C   UNL     1     -42.970 -47.344  11.058  1.00  0.00     0.133 C 
BRANCH  19  20
HETATM   20  C   UNL     1     -43.290 -46.609   9.766  1.00  0.00     0.122 C 
BRANCH  20  21
HETATM   21  C   UNL     1     -44.099 -47.479   8.836  1.00  0.00     0.218 C 
HETATM   22  N   UNL     1     -45.395 -47.714   9.240  1.00  0.00    -0.365 N 
HETATM   23  C   UNL     1     -46.277 -48.542   8.455  1.00  0.00     0.149 C 
HETATM   24  H   UNL     1     -45.730 -47.343  10.117  1.00  0.00     0.161 HD
HETATM   25  O   UNL     1     -43.606 -47.961   7.820  1.00  0.00    -0.274 OA
ENDBRANCH  20  21
ENDBRANCH  19  20
ENDBRANCH   1  19
TORSDOF 5
ENDMDL
MODEL 6
REMARK VINA RESULT:      -5.7      1.883      3.022
REMARK  5 active torsions:
REMARK  status: ('A' for Active; 'I' for Inactive)
REMARK       I    between atoms: N_2  and  C_3 
REMARK    1  A    between atoms: C_3  and  C_5 
REMARK    2  A    between atoms: C_5  and  C_6 
REMARK    3  A    between atoms: C_6  and  N_7 
REMARK       I    between atoms: N_7  and  C_8 
REMARK       I    between atoms: C_8  and  N_10 
REMARK    4  A    between atoms: N_10  and  C_11 
REMARK    5  A    between atoms: C_17  and  N_18 
ROOT
HETATM    1  N   UNL     1     -42.360 -49.354  11.405  1.00  0.00    -0.342 N 
HETATM    2  C   UNL     1     -42.229 -50.231  12.461  1.00  0.00     0.320 C 
HETATM    3  O   UNL     1     -41.885 -49.862  13.577  1.00  0.00    -0.247 OA
HETATM    4  N   UNL     1     -42.471 -51.532  12.080  1.00  0.00    -0.306 N 
HETATM    5  H   UNL     1     -42.866 -49.653  10.580  1.00  0.00     0.164 HD
HETATM    6  H   UNL     1     -42.419 -51.717  11.098  1.00  0.00     0.171 HD
ENDROOT
BRANCH   4   7
HETATM    7  C   UNL     1     -42.282 -52.640  12.941  1.00  0.00     0.080 A 
HETATM    8  C   UNL     1     -41.001 -53.218  12.995  1.00  0.00     0.035 A 
HETATM    9  C   UNL     1     -40.732 -54.249  13.880  1.00  0.00     0.019 A 
HETATM   10  C   UNL     1     -41.763 -54.674  14.684  1.00  0.00     0.090 A 
HETATM   11  N   UNL     1     -43.003 -54.137  14.663  1.00  0.00    -0.351 N 
HETATM   12  C   UNL     1     -43.298 -53.128  13.798  1.00  0.00     0.130 A 
ATOM     13  HN  UNL     1     -43.720 -54.489  15.297  1.00  0.00     0.166 HD
BRANCH  12  14
HETATM   14  N   UNL     1     -44.607 -52.689  13.826  1.00  0.00    -0.365 N 
HETATM   15  C   UNL     1     -45.186 -51.620  14.622  1.00  0.00     0.124 C 
HETATM   16  C   UNL     1     -46.552 -51.335  14.002  1.00  0.00     0.021 C 
HETATM   17  C   UNL     1     -46.459 -51.892  12.597  1.00  0.00     0.021 C 
HETATM   18  C   UNL     1     -45.504 -53.073  12.735  1.00  0.00     0.124 C 
ENDBRANCH  12  14
ENDBRANCH   4   7
BRANCH   1  19
HETATM   19  C   UNL     1     -42.142 -47.936  11.626  1.00  0.00     0.133 C 
BRANCH  19  20
HETATM   20  C   UNL     1     -40.851 -47.405  11.023  1.00  0.00     0.122 C 
BRANCH  20  21
HETATM   21  C   UNL     1     -39.652 -47.900  11.793  1.00  0.00     0.218 C 
HETATM   22  N   UNL     1     -38.979 -48.950  11.207  1.00  0.00    -0.365 N 
HETATM   23  C   UNL     1     -37.822 -49.534  11.841  1.00  0.00     0.149 C 
HETATM   24  H   UNL     1     -39.314 -49.352  10.344  1.00  0.00     0.161 HD
HETATM   25  O   UNL     1     -39.341 -47.414  12.877  1.00  0.00    -0.274 OA
ENDBRANCH  20  21
ENDBRANCH  19  20
ENDBRANCH   1  19
TORSDOF 5
ENDMDL
MODEL 7
REMARK VINA RESULT:      -5.7      1.628      3.614
REMARK  5 active torsions:
REMARK  status: ('A' for Active; 'I' for Inactive)
REMARK       I    between atoms: N_2  and  C_3 
REMARK    1  A    between atoms: C_3  and  C_5 
REMARK    2  A    between atoms: C_5  and  C_6 
REMARK    3  A    between atoms: C_6  and  N_7 
REMARK       I    between atoms: N_7  and  C_8 
REMARK       I    between atoms: C_8  and  N_10 
REMARK    4  A    between atoms: N_10  and  C_11 
REMARK    5  A    between atoms: C_17  and  N_18 
ROOT
HETATM    1  N   UNL     1     -42.173 -49.970  11.875  1.00  0.00    -0.342 N 
HETATM    2  C   UNL     1     -43.003 -50.170  12.958  1.00  0.00     0.320 C 
HETATM    3  O   UNL     1     -42.929 -49.484  13.971  1.00  0.00    -0.247 OA
HETATM    4  N   UNL     1     -43.846 -51.241  12.769  1.00  0.00    -0.306 N 
HETATM    5  H   UNL     1     -42.420 -50.389  10.986  1.00  0.00     0.164 HD
HETATM    6  H   UNL     1     -43.576 -51.889  12.056  1.00  0.00     0.171 HD
ENDROOT
BRANCH   4   7
HETATM    7  C   UNL     1     -44.709 -51.737  13.777  1.00  0.00     0.080 A 
HETATM    8  C   UNL     1     -46.049 -51.308  13.762  1.00  0.00     0.035 A 
HETATM    9  C   UNL     1     -46.960 -51.824  14.669  1.00  0.00     0.019 A 
HETATM   10  C   UNL     1     -46.497 -52.753  15.569  1.00  0.00     0.090 A 
HETATM   11  N   UNL     1     -45.219 -53.192  15.606  1.00  0.00    -0.351 N 
HETATM   12  C   UNL     1     -44.300 -52.698  14.733  1.00  0.00     0.130 A 
ATOM     13  HN  UNL     1     -44.943 -53.896  16.290  1.00  0.00     0.166 HD
BRANCH  12  14
HETATM   14  N   UNL     1     -43.015 -53.178  14.892  1.00  0.00    -0.365 N 
HETATM   15  C   UNL     1     -41.919 -52.595  15.648  1.00  0.00     0.124 C 
HETATM   16  C   UNL     1     -40.871 -53.699  15.777  1.00  0.00     0.021 C 
HETATM   17  C   UNL     1     -41.637 -54.983  15.537  1.00  0.00     0.021 C 
HETATM   18  C   UNL     1     -42.737 -54.577  14.563  1.00  0.00     0.124 C 
ENDBRANCH  12  14
ENDBRANCH   4   7
BRANCH   1  19
HETATM   19  C   UNL     1     -41.218 -48.878  11.901  1.00  0.00     0.133 C 
BRANCH  19  20
HETATM   20  C   UNL     1     -41.209 -48.031  10.638  1.00  0.00     0.122 C 
BRANCH  20  21
HETATM   21  C   UNL     1     -42.611 -47.802  10.131  1.00  0.00     0.218 C 
HETATM   22  N   UNL     1     -42.770 -47.959   8.771  1.00  0.00    -0.365 N 
HETATM   23  C   UNL     1     -44.054 -47.755   8.147  1.00  0.00     0.149 C 
HETATM   24  H   UNL     1     -41.976 -48.177   8.188  1.00  0.00     0.161 HD
HETATM   25  O   UNL     1     -43.519 -47.465  10.886  1.00  0.00    -0.274 OA
ENDBRANCH  20  21
ENDBRANCH  19  20
ENDBRANCH   1  19
TORSDOF 5
ENDMDL
MODEL 8
REMARK VINA RESULT:      -5.5      2.147      2.765
REMARK  5 active torsions:
REMARK  status: ('A' for Active; 'I' for Inactive)
REMARK       I    between atoms: N_2  and  C_3 
REMARK    1  A    between atoms: C_3  and  C_5 
REMARK    2  A    between atoms: C_5  and  C_6 
REMARK    3  A    between atoms: C_6  and  N_7 
REMARK       I    between atoms: N_7  and  C_8 
REMARK       I    between atoms: C_8  and  N_10 
REMARK    4  A    between atoms: N_10  and  C_11 
REMARK    5  A    between atoms: C_17  and  N_18 
ROOT
HETATM    1  N   UNL     1     -40.577 -50.777  11.236  1.00  0.00    -0.342 N 
HETATM    2  C   UNL     1     -40.610 -51.366  12.482  1.00  0.00     0.320 C 
HETATM    3  O   UNL     1     -40.405 -50.731  13.510  1.00  0.00    -0.247 OA
HETATM    4  N   UNL     1     -40.836 -52.722  12.404  1.00  0.00    -0.306 N 
HETATM    5  H   UNL     1     -40.979 -51.273  10.449  1.00  0.00     0.164 HD
HETATM    6  H   UNL     1     -40.661 -53.143  11.513  1.00  0.00     0.171 HD
ENDROOT
BRANCH   4   7
HETATM    7  C   UNL     1     -40.792 -53.583  13.527  1.00  0.00     0.080 A 
HETATM    8  C   UNL     1     -39.553 -54.154  13.867  1.00  0.00     0.035 A 
HETATM    9  C   UNL     1     -39.429 -54.936  15.005  1.00  0.00     0.019 A 
HETATM   10  C   UNL     1     -40.558 -55.125  15.765  1.00  0.00     0.090 A 
HETATM   11  N   UNL     1     -41.761 -54.585  15.471  1.00  0.00    -0.351 N 
HETATM   12  C   UNL     1     -41.915 -53.820  14.357  1.00  0.00     0.130 A 
ATOM     13  HN  UNL     1     -42.558 -54.752  16.086  1.00  0.00     0.166 HD
BRANCH  12  14
HETATM   14  N   UNL     1     -43.197 -53.362  14.126  1.00  0.00    -0.365 N 
HETATM   15  C   UNL     1     -43.759 -52.055  14.425  1.00  0.00     0.124 C 
HETATM   16  C   UNL     1     -45.071 -51.980  13.647  1.00  0.00     0.021 C 
HETATM   17  C   UNL     1     -44.931 -53.024  12.559  1.00  0.00     0.021 C 
HETATM   18  C   UNL     1     -44.053 -54.097  13.193  1.00  0.00     0.124 C 
ENDBRANCH  12  14
ENDBRANCH   4   7
BRANCH   1  19
HETATM   19  C   UNL     1     -40.351 -49.347  11.130  1.00  0.00     0.133 C 
BRANCH  19  20
HETATM   20  C   UNL     1     -41.578 -48.554  10.709  1.00  0.00     0.122 C 
BRANCH  20  21
HETATM   21  C   UNL     1     -41.380 -47.079  10.958  1.00  0.00     0.218 C 
HETATM   22  N   UNL     1     -40.255 -46.537  10.373  1.00  0.00    -0.365 N 
HETATM   23  C   UNL     1     -39.933 -45.142  10.541  1.00  0.00     0.149 C 
HETATM   24  H   UNL     1     -39.619 -47.124   9.854  1.00  0.00     0.161 HD
HETATM   25  O   UNL     1     -42.154 -46.438  11.663  1.00  0.00    -0.274 OA
ENDBRANCH  20  21
ENDBRANCH  19  20
ENDBRANCH   1  19
TORSDOF 5
ENDMDL
MODEL 9
REMARK VINA RESULT:      -5.5      2.037      6.567
REMARK  5 active torsions:
REMARK  status: ('A' for Active; 'I' for Inactive)
REMARK       I    between atoms: N_2  and  C_3 
REMARK    1  A    between atoms: C_3  and  C_5 
REMARK    2  A    between atoms: C_5  and  C_6 
REMARK    3  A    between atoms: C_6  and  N_7 
REMARK       I    between atoms: N_7  and  C_8 
REMARK       I    between atoms: C_8  and  N_10 
REMARK    4  A    between atoms: N_10  and  C_11 
REMARK    5  A    between atoms: C_17  and  N_18 
ROOT
HETATM    1  N   UNL     1     -42.516 -51.750  12.023  1.00  0.00    -0.342 N 
HETATM    2  C   UNL     1     -42.172 -50.433  12.243  1.00  0.00     0.320 C 
HETATM    3  O   UNL     1     -42.536 -49.822  13.240  1.00  0.00    -0.247 OA
HETATM    4  N   UNL     1     -41.445 -49.910  11.198  1.00  0.00    -0.306 N 
HETATM    5  H   UNL     1     -42.009 -52.278  11.323  1.00  0.00     0.164 HD
HETATM    6  H   UNL     1     -41.504 -50.409  10.331  1.00  0.00     0.171 HD
ENDROOT
BRANCH   4   7
HETATM    7  C   UNL     1     -41.076 -48.546  11.115  1.00  0.00     0.080 A 
HETATM    8  C   UNL     1     -39.823 -48.173  11.635  1.00  0.00     0.035 A 
HETATM    9  C   UNL     1     -39.370 -46.870  11.507  1.00  0.00     0.019 A 
HETATM   10  C   UNL     1     -40.192 -45.977  10.864  1.00  0.00     0.090 A 
HETATM   11  N   UNL     1     -41.397 -46.304  10.346  1.00  0.00    -0.351 N 
HETATM   12  C   UNL     1     -41.872 -47.573  10.463  1.00  0.00     0.130 A 
ATOM     13  HN  UNL     1     -41.953 -45.596   9.865  1.00  0.00     0.166 HD
BRANCH  12  14
HETATM   14  N   UNL     1     -43.134 -47.784   9.943  1.00  0.00    -0.365 N 
HETATM   15  C   UNL     1     -44.408 -47.804  10.642  1.00  0.00     0.124 C 
HETATM   16  C   UNL     1     -45.478 -47.718   9.556  1.00  0.00     0.021 C 
HETATM   17  C   UNL     1     -44.758 -47.141   8.355  1.00  0.00     0.021 C 
HETATM   18  C   UNL     1     -43.333 -47.662   8.498  1.00  0.00     0.124 C 
ENDBRANCH  12  14
ENDBRANCH   4   7
BRANCH   1  19
HETATM   19  C   UNL     1     -43.284 -52.464  13.027  1.00  0.00     0.133 C 
BRANCH  19  20
HETATM   20  C   UNL     1     -42.661 -53.778  13.468  1.00  0.00     0.122 C 
BRANCH  20  21
HETATM   21  C   UNL     1     -41.157 -53.670  13.526  1.00  0.00     0.218 C 
HETATM   22  N   UNL     1     -40.637 -53.466  14.786  1.00  0.00    -0.365 N 
HETATM   23  C   UNL     1     -39.216 -53.328  14.987  1.00  0.00     0.149 C 
HETATM   24  H   UNL     1     -41.252 -53.367  15.580  1.00  0.00     0.161 HD
HETATM   25  O   UNL     1     -40.471 -53.725  12.509  1.00  0.00    -0.274 OA
ENDBRANCH  20  21
ENDBRANCH  19  20
ENDBRANCH   1  19
TORSDOF 5
ENDMDL
