MODEL 1
REMARK VINA RESULT:      -7.1      0.000      0.000
REMARK  5 active torsions:
REMARK  status: ('A' for Active; 'I' for Inactive)
REMARK    1  A    between atoms: C_2  and  N_3 
REMARK    2  A    between atoms: C_2  and  C_20 
REMARK       I    between atoms: N_3  and  C_4 
REMARK       I    between atoms: C_4  and  N_6 
REMARK    3  A    between atoms: N_6  and  C_7 
REMARK    4  A    between atoms: C_13  and  N_14 
REMARK       I    between atoms: C_20  and  N_22 
REMARK    5  A    between atoms: N_22  and  C_23 
ROOT
HETATM    1  N   UNL     1     -41.820 -51.393  11.698  1.00  0.00    -0.330 N 
HETATM    2  C   UNL     1     -41.806 -50.035  11.897  1.00  0.00     0.321 C 
HETATM    3  O   UNL     1     -42.222 -49.547  12.941  1.00  0.00    -0.247 OA
HETATM    4  N   UNL     1     -41.235 -49.346  10.851  1.00  0.00    -0.306 N 
HETATM    5  H   UNL     1     -41.997 -51.695  10.750  1.00  0.00     0.165 HD
HETATM    6  H   UNL     1     -40.509 -49.820  10.330  1.00  0.00     0.171 HD
ENDROOT
BRANCH   4   7
HETATM    7  C   UNL     1     -41.096 -47.932  10.910  1.00  0.00     0.075 A 
HETATM    8  C   UNL     1     -40.089 -47.380  11.709  1.00  0.00     0.034 A 
HETATM    9  C   UNL     1     -39.928 -46.006  11.775  1.00  0.00     0.019 A 
HETATM   10  C   UNL     1     -40.789 -45.227  11.032  1.00  0.00     0.089 A 
HETATM   11  N   UNL     1     -41.801 -45.719  10.283  1.00  0.00    -0.355 N 
HETATM   12  C   UNL     1     -41.979 -47.064  10.227  1.00  0.00     0.109 A 
ATOM     13  HN  UNL     1     -42.420 -45.092   9.770  1.00  0.00     0.166 HD
BRANCH  12  14
HETATM   14  N   UNL     1     -43.110 -47.561   9.547  1.00  0.00    -0.267 NA
HETATM   15  C   UNL     1     -44.378 -47.158  10.187  1.00  0.00     0.097 C 
HETATM   16  C   UNL     1     -45.482 -48.085   9.683  1.00  0.00     0.015 C 
HETATM   17  C   UNL     1     -45.562 -48.093   8.157  1.00  0.00     0.002 C 
HETATM   18  C   UNL     1     -44.185 -48.284   7.513  1.00  0.00     0.015 C 
HETATM   19  C   UNL     1     -43.149 -47.315   8.099  1.00  0.00     0.097 C 
ENDBRANCH  12  14
ENDBRANCH   4   7
BRANCH   1  20
HETATM   20  C   UNL     1     -42.249 -52.280  12.784  1.00  0.00     0.174 C 
HETATM   21  C   UNL     1     -41.395 -53.546  12.778  1.00  0.00     0.042 C 
BRANCH  20  22
HETATM   22  C   UNL     1     -43.752 -52.663  12.731  1.00  0.00     0.240 C 
HETATM   23  O   UNL     1     -44.136 -53.655  12.117  1.00  0.00    -0.271 OA
HETATM   24  N   UNL     1     -44.604 -51.877  13.487  1.00  0.00    -0.351 N 
HETATM   25  H   UNL     1     -44.166 -51.155  14.067  1.00  0.00     0.163 HD
BRANCH  24  26
HETATM   26  C   UNL     1     -46.039 -52.167  13.673  1.00  0.00     0.022 C 
HETATM   27  C   UNL     1     -46.252 -53.632  14.094  1.00  0.00     0.037 C 
HETATM   28  C   UNL     1     -46.604 -51.268  14.789  1.00  0.00     0.037 C 
HETATM   29  C   UNL     1     -46.831 -51.868  12.388  1.00  0.00     0.037 C 
ENDBRANCH  24  26
ENDBRANCH  20  22
ENDBRANCH   1  20
TORSDOF 5
ENDMDL
MODEL 2
REMARK VINA RESULT:      -6.8      2.442      6.706
REMARK  5 active torsions:
REMARK  status: ('A' for Active; 'I' for Inactive)
REMARK    1  A    between atoms: C_2  and  N_3 
REMARK    2  A    between atoms: C_2  and  C_20 
REMARK       I    between atoms: N_3  and  C_4 
REMARK       I    between atoms: C_4  and  N_6 
REMARK    3  A    between atoms: N_6  and  C_7 
REMARK    4  A    between atoms: C_13  and  N_14 
REMARK       I    between atoms: C_20  and  N_22 
REMARK    5  A    between atoms: N_22  and  C_23 
ROOT
HETATM    1  N   UNL     1     -41.908 -48.263   9.750  1.00  0.00    -0.330 N 
HETATM    2  C   UNL     1     -41.186 -48.634  10.856  1.00  0.00     0.321 C 
HETATM    3  O   UNL     1     -41.260 -47.995  11.900  1.00  0.00    -0.247 OA
HETATM    4  N   UNL     1     -40.464 -49.790  10.663  1.00  0.00    -0.306 N 
HETATM    5  H   UNL     1     -41.457 -48.422   8.859  1.00  0.00     0.165 HD
HETATM    6  H   UNL     1     -40.847 -50.468  10.019  1.00  0.00     0.171 HD
ENDROOT
BRANCH   4   7
HETATM    7  C   UNL     1     -39.694 -50.345  11.722  1.00  0.00     0.075 A 
HETATM    8  C   UNL     1     -38.301 -50.228  11.683  1.00  0.00     0.034 A 
HETATM    9  C   UNL     1     -37.530 -50.753  12.707  1.00  0.00     0.019 A 
HETATM   10  C   UNL     1     -38.188 -51.381  13.743  1.00  0.00     0.089 A 
HETATM   11  N   UNL     1     -39.528 -51.553  13.796  1.00  0.00    -0.355 N 
HETATM   12  C   UNL     1     -40.291 -51.059  12.787  1.00  0.00     0.109 A 
ATOM     13  HN  UNL     1     -39.958 -52.044  14.579  1.00  0.00     0.166 HD
BRANCH  12  14
HETATM   14  N   UNL     1     -41.670 -51.351  12.786  1.00  0.00    -0.267 NA
HETATM   15  C   UNL     1     -41.941 -52.802  12.803  1.00  0.00     0.097 C 
HETATM   16  C   UNL     1     -43.382 -53.024  12.348  1.00  0.00     0.015 C 
HETATM   17  C   UNL     1     -44.372 -52.223  13.193  1.00  0.00     0.002 C 
HETATM   18  C   UNL     1     -43.940 -50.762  13.351  1.00  0.00     0.015 C 
HETATM   19  C   UNL     1     -42.476 -50.653  13.799  1.00  0.00     0.097 C 
ENDBRANCH  12  14
ENDBRANCH   4   7
BRANCH   1  20
HETATM   20  C   UNL     1     -42.851 -47.145   9.841  1.00  0.00     0.174 C 
HETATM   21  C   UNL     1     -43.543 -46.947   8.494  1.00  0.00     0.042 C 
BRANCH  20  22
HETATM   22  C   UNL     1     -42.208 -45.809  10.299  1.00  0.00     0.240 C 
HETATM   23  O   UNL     1     -41.359 -45.243   9.616  1.00  0.00    -0.271 OA
HETATM   24  N   UNL     1     -42.714 -45.261  11.466  1.00  0.00    -0.351 N 
HETATM   25  H   UNL     1     -43.511 -45.745  11.889  1.00  0.00     0.163 HD
BRANCH  24  26
HETATM   26  C   UNL     1     -42.328 -43.934  11.983  1.00  0.00     0.022 C 
HETATM   27  C   UNL     1     -42.982 -42.812  11.157  1.00  0.00     0.037 C 
HETATM   28  C   UNL     1     -42.811 -43.791  13.439  1.00  0.00     0.037 C 
HETATM   29  C   UNL     1     -40.798 -43.767  11.980  1.00  0.00     0.037 C 
ENDBRANCH  24  26
ENDBRANCH  20  22
ENDBRANCH   1  20
TORSDOF 5
ENDMDL
MODEL 3
REMARK VINA RESULT:      -6.7      1.983      7.027
REMARK  5 active torsions:
REMARK  status: ('A' for Active; 'I' for Inactive)
REMARK    1  A    between atoms: C_2  and  N_3 
REMARK    2  A    between atoms: C_2  and  C_20 
REMARK       I    between atoms: N_3  and  C_4 
REMARK       I    between atoms: C_4  and  N_6 
REMARK    3  A    between atoms: N_6  and  C_7 
REMARK    4  A    between atoms: C_13  and  N_14 
REMARK       I    between atoms: C_20  and  N_22 
REMARK    5  A    between atoms: N_22  and  C_23 
ROOT
HETATM    1  N   UNL     1     -42.494 -48.576  10.581  1.00  0.00    -0.330 N 
HETATM    2  C   UNL     1     -41.928 -49.131  11.701  1.00  0.00     0.321 C 
HETATM    3  O   UNL     1     -41.911 -48.525  12.765  1.00  0.00    -0.247 OA
HETATM    4  N   UNL     1     -41.468 -50.412  11.491  1.00  0.00    -0.306 N 
HETATM    5  H   UNL     1     -42.046 -48.804   9.704  1.00  0.00     0.165 HD
HETATM    6  H   UNL     1     -41.958 -50.969  10.804  1.00  0.00     0.171 HD
ENDROOT
BRANCH   4   7
HETATM    7  C   UNL     1     -40.893 -51.155  12.557  1.00  0.00     0.075 A 
HETATM    8  C   UNL     1     -39.502 -51.157  12.712  1.00  0.00     0.034 A 
HETATM    9  C   UNL     1     -38.919 -51.866  13.748  1.00  0.00     0.019 A 
HETATM   10  C   UNL     1     -39.755 -52.554  14.601  1.00  0.00     0.089 A 
HETATM   11  N   UNL     1     -41.099 -52.613  14.459  1.00  0.00    -0.355 N 
HETATM   12  C   UNL     1     -41.678 -51.937  13.435  1.00  0.00     0.109 A 
ATOM     13  HN  UNL     1     -41.666 -53.156  15.110  1.00  0.00     0.166 HD
BRANCH  12  14
HETATM   14  N   UNL     1     -43.062 -52.106  13.220  1.00  0.00    -0.267 NA
HETATM   15  C   UNL     1     -43.476 -53.521  13.277  1.00  0.00     0.097 C 
HETATM   16  C   UNL     1     -44.838 -53.648  12.600  1.00  0.00     0.015 C 
HETATM   17  C   UNL     1     -45.868 -52.703  13.219  1.00  0.00     0.002 C 
HETATM   18  C   UNL     1     -45.323 -51.277  13.362  1.00  0.00     0.015 C 
HETATM   19  C   UNL     1     -43.947 -51.266  14.041  1.00  0.00     0.097 C 
ENDBRANCH  12  14
ENDBRANCH   4   7
BRANCH   1  20
HETATM   20  C   UNL     1     -43.174 -47.281  10.678  1.00  0.00     0.174 C 
HETATM   21  C   UNL     1     -44.378 -47.262   9.739  1.00  0.00     0.042 C 
BRANCH  20  22
HETATM   22  C   UNL     1     -42.259 -46.063  10.379  1.00  0.00     0.240 C 
HETATM   23  O   UNL     1     -42.525 -45.273   9.478  1.00  0.00    -0.271 OA
HETATM   24  N   UNL     1     -41.192 -45.880  11.243  1.00  0.00    -0.351 N 
HETATM   25  H   UNL     1     -41.136 -46.520  12.041  1.00  0.00     0.163 HD
BRANCH  24  26
HETATM   26  C   UNL     1     -40.298 -44.707  11.204  1.00  0.00     0.022 C 
HETATM   27  C   UNL     1     -41.106 -43.398  11.269  1.00  0.00     0.037 C 
HETATM   28  C   UNL     1     -39.355 -44.741  12.421  1.00  0.00     0.037 C 
HETATM   29  C   UNL     1     -39.425 -44.724   9.937  1.00  0.00     0.037 C 
ENDBRANCH  24  26
ENDBRANCH  20  22
ENDBRANCH   1  20
TORSDOF 5
ENDMDL
MODEL 4
REMARK VINA RESULT:      -6.6      1.937      7.034
REMARK  5 active torsions:
REMARK  status: ('A' for Active; 'I' for Inactive)
REMARK    1  A    between atoms: C_2  and  N_3 
REMARK    2  A    between atoms: C_2  and  C_20 
REMARK       I    between atoms: N_3  and  C_4 
REMARK       I    between atoms: C_4  and  N_6 
REMARK    3  A    between atoms: N_6  and  C_7 
REMARK    4  A    between atoms: C_13  and  N_14 
REMARK       I    between atoms: C_20  and  N_22 
REMARK    5  A    between atoms: N_22  and  C_23 
ROOT
HETATM    1  N   UNL     1     -42.382 -49.850  11.792  1.00  0.00    -0.330 N 
HETATM    2  C   UNL     1     -41.895 -50.669  12.779  1.00  0.00     0.321 C 
HETATM    3  O   UNL     1     -41.203 -50.221  13.685  1.00  0.00    -0.247 OA
HETATM    4  N   UNL     1     -42.321 -51.973  12.653  1.00  0.00    -0.306 N 
HETATM    5  H   UNL     1     -42.447 -50.263  10.872  1.00  0.00     0.165 HD
HETATM    6  H   UNL     1     -43.227 -52.121  12.230  1.00  0.00     0.171 HD
ENDROOT
BRANCH   4   7
HETATM    7  C   UNL     1     -41.948 -52.949  13.617  1.00  0.00     0.075 A 
HETATM    8  C   UNL     1     -40.680 -53.535  13.536  1.00  0.00     0.034 A 
HETATM    9  C   UNL     1     -40.290 -54.481  14.468  1.00  0.00     0.019 A 
HETATM   10  C   UNL     1     -41.192 -54.812  15.457  1.00  0.00     0.089 A 
HETATM   11  N   UNL     1     -42.442 -54.302  15.543  1.00  0.00    -0.355 N 
HETATM   12  C   UNL     1     -42.840 -53.387  14.623  1.00  0.00     0.109 A 
ATOM     13  HN  UNL     1     -43.074 -54.600  16.286  1.00  0.00     0.166 HD
BRANCH  12  14
HETATM   14  N   UNL     1     -44.182 -52.956  14.645  1.00  0.00    -0.267 NA
HETATM   15  C   UNL     1     -45.118 -54.038  15.009  1.00  0.00     0.097 C 
HETATM   16  C   UNL     1     -46.521 -53.623  14.571  1.00  0.00     0.015 C 
HETATM   17  C   UNL     1     -46.920 -52.269  15.157  1.00  0.00     0.002 C 
HETATM   18  C   UNL     1     -45.822 -51.217  14.965  1.00  0.00     0.015 C 
HETATM   19  C   UNL     1     -44.454 -51.740  15.424  1.00  0.00     0.097 C 
ENDBRANCH  12  14
ENDBRANCH   4   7
BRANCH   1  20
HETATM   20  C   UNL     1     -42.153 -48.404  11.871  1.00  0.00     0.174 C 
HETATM   21  C   UNL     1     -42.859 -47.840  13.103  1.00  0.00     0.042 C 
BRANCH  20  22
HETATM   22  C   UNL     1     -42.602 -47.622  10.608  1.00  0.00     0.240 C 
HETATM   23  O   UNL     1     -41.849 -46.831  10.047  1.00  0.00    -0.271 OA
HETATM   24  N   UNL     1     -43.856 -47.939  10.113  1.00  0.00    -0.351 N 
HETATM   25  H   UNL     1     -44.350 -48.707  10.579  1.00  0.00     0.163 HD
BRANCH  24  26
HETATM   26  C   UNL     1     -44.397 -47.405   8.849  1.00  0.00     0.022 C 
HETATM   27  C   UNL     1     -43.572 -47.898   7.647  1.00  0.00     0.037 C 
HETATM   28  C   UNL     1     -45.845 -47.897   8.662  1.00  0.00     0.037 C 
HETATM   29  C   UNL     1     -44.427 -45.867   8.871  1.00  0.00     0.037 C 
ENDBRANCH  24  26
ENDBRANCH  20  22
ENDBRANCH   1  20
TORSDOF 5
ENDMDL
MODEL 5
REMARK VINA RESULT:      -6.5      1.924      4.066
REMARK  5 active torsions:
REMARK  status: ('A' for Active; 'I' for Inactive)
REMARK    1  A    between atoms: C_2  and  N_3 
REMARK    2  A    between atoms: C_2  and  C_20 
REMARK       I    between atoms: N_3  and  C_4 
REMARK       I    between atoms: C_4  and  N_6 
REMARK    3  A    between atoms: N_6  and  C_7 
REMARK    4  A    between atoms: C_13  and  N_14 
REMARK       I    between atoms: C_20  and  N_22 
REMARK    5  A    between atoms: N_22  and  C_23 
ROOT
HETATM    1  N   UNL     1     -40.356 -50.016  11.459  1.00  0.00    -0.330 N 
HETATM    2  C   UNL     1     -41.429 -49.180  11.279  1.00  0.00     0.321 C 
HETATM    3  O   UNL     1     -42.334 -49.131  12.104  1.00  0.00    -0.247 OA
HETATM    4  N   UNL     1     -41.320 -48.403  10.148  1.00  0.00    -0.306 N 
HETATM    5  H   UNL     1     -39.969 -50.420  10.617  1.00  0.00     0.165 HD
HETATM    6  H   UNL     1     -40.386 -48.152   9.851  1.00  0.00     0.171 HD
ENDROOT
BRANCH   4   7
HETATM    7  C   UNL     1     -42.322 -47.446   9.832  1.00  0.00     0.075 A 
HETATM    8  C   UNL     1     -43.262 -47.747   8.841  1.00  0.00     0.034 A 
HETATM    9  C   UNL     1     -44.253 -46.835   8.521  1.00  0.00     0.019 A 
HETATM   10  C   UNL     1     -44.268 -45.641   9.211  1.00  0.00     0.089 A 
HETATM   11  N   UNL     1     -43.351 -45.294  10.143  1.00  0.00    -0.355 N 
HETATM   12  C   UNL     1     -42.365 -46.174  10.450  1.00  0.00     0.109 A 
ATOM     13  HN  UNL     1     -43.401 -44.387  10.607  1.00  0.00     0.166 HD
BRANCH  12  14
HETATM   14  N   UNL     1     -41.344 -45.756  11.328  1.00  0.00    -0.267 NA
HETATM   15  C   UNL     1     -40.728 -44.480  10.914  1.00  0.00     0.097 C 
HETATM   16  C   UNL     1     -39.382 -44.347  11.622  1.00  0.00     0.015 C 
HETATM   17  C   UNL     1     -39.526 -44.473  13.139  1.00  0.00     0.002 C 
HETATM   18  C   UNL     1     -40.371 -45.689  13.534  1.00  0.00     0.015 C 
HETATM   19  C   UNL     1     -41.693 -45.733  12.755  1.00  0.00     0.097 C 
ENDBRANCH  12  14
ENDBRANCH   4   7
BRANCH   1  20
HETATM   20  C   UNL     1     -40.242 -50.793  12.697  1.00  0.00     0.174 C 
HETATM   21  C   UNL     1     -38.774 -51.125  12.960  1.00  0.00     0.042 C 
BRANCH  20  22
HETATM   22  C   UNL     1     -41.082 -52.098  12.706  1.00  0.00     0.240 C 
HETATM   23  O   UNL     1     -40.690 -53.112  12.135  1.00  0.00    -0.271 OA
HETATM   24  N   UNL     1     -42.240 -52.068  13.464  1.00  0.00    -0.351 N 
HETATM   25  H   UNL     1     -42.408 -51.215  14.007  1.00  0.00     0.163 HD
BRANCH  24  26
HETATM   26  C   UNL     1     -43.092 -53.247  13.705  1.00  0.00     0.022 C 
HETATM   27  C   UNL     1     -42.253 -54.441  14.194  1.00  0.00     0.037 C 
HETATM   28  C   UNL     1     -44.126 -52.918  14.799  1.00  0.00     0.037 C 
HETATM   29  C   UNL     1     -43.867 -53.635  12.433  1.00  0.00     0.037 C 
ENDBRANCH  24  26
ENDBRANCH  20  22
ENDBRANCH   1  20
TORSDOF 5
ENDMDL
MODEL 6
REMARK VINA RESULT:      -6.5      2.437      7.653
REMARK  5 active torsions:
REMARK  status: ('A' for Active; 'I' for Inactive)
REMARK    1  A    between atoms: C_2  and  N_3 
REMARK    2  A    between atoms: C_2  and  C_20 
REMARK       I    between atoms: N_3  and  C_4 
REMARK       I    between atoms: C_4  and  N_6 
REMARK    3  A    between atoms: N_6  and  C_7 
REMARK    4  A    between atoms: C_13  and  N_14 
REMARK       I    between atoms: C_20  and  N_22 
REMARK    5  A    between atoms: N_22  and  C_23 
ROOT
HETATM    1  N   UNL     1     -42.452 -49.748  11.678  1.00  0.00    -0.330 N 
HETATM    2  C   UNL     1     -43.150 -50.093  12.808  1.00  0.00     0.321 C 
HETATM    3  O   UNL     1     -43.169 -49.355  13.786  1.00  0.00    -0.247 OA
HETATM    4  N   UNL     1     -43.839 -51.277  12.673  1.00  0.00    -0.306 N 
HETATM    5  H   UNL     1     -42.025 -50.515  11.176  1.00  0.00     0.165 HD
HETATM    6  H   UNL     1     -44.164 -51.516  11.746  1.00  0.00     0.171 HD
ENDROOT
BRANCH   4   7
HETATM    7  C   UNL     1     -44.653 -51.762  13.732  1.00  0.00     0.075 A 
HETATM    8  C   UNL     1     -45.970 -51.303  13.842  1.00  0.00     0.034 A 
HETATM    9  C   UNL     1     -46.786 -51.768  14.860  1.00  0.00     0.019 A 
HETATM   10  C   UNL     1     -46.249 -52.683  15.740  1.00  0.00     0.089 A 
HETATM   11  N   UNL     1     -44.969 -53.117  15.694  1.00  0.00    -0.355 N 
HETATM   12  C   UNL     1     -44.157 -52.653  14.712  1.00  0.00     0.109 A 
ATOM     13  HN  UNL     1     -44.622 -53.781  16.386  1.00  0.00     0.166 HD
BRANCH  12  14
HETATM   14  N   UNL     1     -42.793 -53.012  14.746  1.00  0.00    -0.267 NA
HETATM   15  C   UNL     1     -42.250 -53.042  16.118  1.00  0.00     0.097 C 
HETATM   16  C   UNL     1     -40.727 -52.983  16.029  1.00  0.00     0.015 C 
HETATM   17  C   UNL     1     -40.167 -54.096  15.144  1.00  0.00     0.002 C 
HETATM   18  C   UNL     1     -40.910 -54.192  13.807  1.00  0.00     0.015 C 
HETATM   19  C   UNL     1     -42.431 -54.232  14.010  1.00  0.00     0.097 C 
ENDBRANCH  12  14
ENDBRANCH   4   7
BRANCH   1  20
HETATM   20  C   UNL     1     -41.797 -48.439  11.601  1.00  0.00     0.174 C 
HETATM   21  C   UNL     1     -42.168 -47.757  10.286  1.00  0.00     0.042 C 
BRANCH  20  22
HETATM   22  C   UNL     1     -40.252 -48.496  11.742  1.00  0.00     0.240 C 
HETATM   23  O   UNL     1     -39.554 -47.514  11.506  1.00  0.00    -0.271 OA
HETATM   24  N   UNL     1     -39.731 -49.681  12.233  1.00  0.00    -0.351 N 
HETATM   25  H   UNL     1     -40.410 -50.392  12.524  1.00  0.00     0.163 HD
BRANCH  24  26
HETATM   26  C   UNL     1     -38.307 -49.875  12.566  1.00  0.00     0.022 C 
HETATM   27  C   UNL     1     -37.816 -48.785  13.535  1.00  0.00     0.037 C 
HETATM   28  C   UNL     1     -38.123 -51.239  13.257  1.00  0.00     0.037 C 
HETATM   29  C   UNL     1     -37.441 -49.877  11.293  1.00  0.00     0.037 C 
ENDBRANCH  24  26
ENDBRANCH  20  22
ENDBRANCH   1  20
TORSDOF 5
ENDMDL
MODEL 7
REMARK VINA RESULT:      -6.4      2.525      7.525
REMARK  5 active torsions:
REMARK  status: ('A' for Active; 'I' for Inactive)
REMARK    1  A    between atoms: C_2  and  N_3 
REMARK    2  A    between atoms: C_2  and  C_20 
REMARK       I    between atoms: N_3  and  C_4 
REMARK       I    between atoms: C_4  and  N_6 
REMARK    3  A    between atoms: N_6  and  C_7 
REMARK    4  A    between atoms: C_13  and  N_14 
REMARK       I    between atoms: C_20  and  N_22 
REMARK    5  A    between atoms: N_22  and  C_23 
ROOT
HETATM    1  N   UNL     1     -42.309 -48.599  10.638  1.00  0.00    -0.330 N 
HETATM    2  C   UNL     1     -42.197 -49.444  11.713  1.00  0.00     0.321 C 
HETATM    3  O   UNL     1     -42.639 -49.129  12.812  1.00  0.00    -0.247 OA
HETATM    4  N   UNL     1     -41.614 -50.649  11.390  1.00  0.00    -0.306 N 
HETATM    5  H   UNL     1     -41.538 -48.617   9.985  1.00  0.00     0.165 HD
HETATM    6  H   UNL     1     -41.759 -50.991  10.449  1.00  0.00     0.171 HD
ENDROOT
BRANCH   4   7
HETATM    7  C   UNL     1     -41.462 -51.663  12.374  1.00  0.00     0.075 A 
HETATM    8  C   UNL     1     -42.412 -52.688  12.448  1.00  0.00     0.034 A 
HETATM    9  C   UNL     1     -42.279 -53.692  13.392  1.00  0.00     0.019 A 
HETATM   10  C   UNL     1     -41.191 -53.634  14.237  1.00  0.00     0.089 A 
HETATM   11  N   UNL     1     -40.276 -52.639  14.226  1.00  0.00    -0.355 N 
HETATM   12  C   UNL     1     -40.408 -51.640  13.317  1.00  0.00     0.109 A 
ATOM     13  HN  UNL     1     -39.502 -52.638  14.890  1.00  0.00     0.166 HD
BRANCH  12  14
HETATM   14  N   UNL     1     -39.525 -50.543  13.395  1.00  0.00    -0.267 NA
HETATM   15  C   UNL     1     -39.663 -49.793  14.659  1.00  0.00     0.097 C 
HETATM   16  C   UNL     1     -39.033 -48.416  14.468  1.00  0.00     0.015 C 
HETATM   17  C   UNL     1     -37.584 -48.517  13.993  1.00  0.00     0.002 C 
HETATM   18  C   UNL     1     -37.434 -49.488  12.817  1.00  0.00     0.015 C 
HETATM   19  C   UNL     1     -38.113 -50.834  13.108  1.00  0.00     0.097 C 
ENDBRANCH  12  14
ENDBRANCH   4   7
BRANCH   1  20
HETATM   20  C   UNL     1     -43.050 -47.342  10.779  1.00  0.00     0.174 C 
HETATM   21  C   UNL     1     -44.290 -47.375   9.888  1.00  0.00     0.042 C 
BRANCH  20  22
HETATM   22  C   UNL     1     -42.212 -46.075  10.461  1.00  0.00     0.240 C 
HETATM   23  O   UNL     1     -42.597 -45.245   9.641  1.00  0.00    -0.271 OA
HETATM   24  N   UNL     1     -41.066 -45.900  11.218  1.00  0.00    -0.351 N 
HETATM   25  H   UNL     1     -40.904 -46.582  11.965  1.00  0.00     0.163 HD
BRANCH  24  26
HETATM   26  C   UNL     1     -40.219 -44.694  11.156  1.00  0.00     0.022 C 
HETATM   27  C   UNL     1     -41.078 -43.417  11.195  1.00  0.00     0.037 C 
HETATM   28  C   UNL     1     -39.277 -44.665  12.375  1.00  0.00     0.037 C 
HETATM   29  C   UNL     1     -39.343 -44.700   9.891  1.00  0.00     0.037 C 
ENDBRANCH  24  26
ENDBRANCH  20  22
ENDBRANCH   1  20
TORSDOF 5
ENDMDL
MODEL 8
REMARK VINA RESULT:      -6.2      2.098      7.515
REMARK  5 active torsions:
REMARK  status: ('A' for Active; 'I' for Inactive)
REMARK    1  A    between atoms: C_2  and  N_3 
REMARK    2  A    between atoms: C_2  and  C_20 
REMARK       I    between atoms: N_3  and  C_4 
REMARK       I    between atoms: C_4  and  N_6 
REMARK    3  A    between atoms: N_6  and  C_7 
REMARK    4  A    between atoms: C_13  and  N_14 
REMARK       I    between atoms: C_20  and  N_22 
REMARK    5  A    between atoms: N_22  and  C_23 
ROOT
HETATM    1  N   UNL     1     -40.739 -50.506  11.203  1.00  0.00    -0.330 N 
HETATM    2  C   UNL     1     -41.638 -51.038  12.094  1.00  0.00     0.321 C 
HETATM    3  O   UNL     1     -42.169 -50.337  12.948  1.00  0.00    -0.247 OA
HETATM    4  N   UNL     1     -41.896 -52.371  11.865  1.00  0.00    -0.306 N 
HETATM    5  H   UNL     1     -39.982 -51.117  10.928  1.00  0.00     0.165 HD
HETATM    6  H   UNL     1     -41.830 -52.694  10.909  1.00  0.00     0.171 HD
ENDROOT
BRANCH   4   7
HETATM    7  C   UNL     1     -42.839 -53.070  12.666  1.00  0.00     0.075 A 
HETATM    8  C   UNL     1     -44.170 -53.142  12.242  1.00  0.00     0.034 A 
HETATM    9  C   UNL     1     -45.106 -53.826  13.000  1.00  0.00     0.019 A 
HETATM   10  C   UNL     1     -44.672 -54.418  14.167  1.00  0.00     0.089 A 
HETATM   11  N   UNL     1     -43.405 -54.335  14.633  1.00  0.00    -0.355 N 
HETATM   12  C   UNL     1     -42.485 -53.650  13.906  1.00  0.00     0.109 A 
ATOM     13  HN  UNL     1     -43.146 -54.777  15.514  1.00  0.00     0.166 HD
BRANCH  12  14
HETATM   14  N   UNL     1     -41.202 -53.461  14.459  1.00  0.00    -0.267 NA
HETATM   15  C   UNL     1     -41.179 -52.405  15.490  1.00  0.00     0.097 C 
HETATM   16  C   UNL     1     -39.731 -51.964  15.690  1.00  0.00     0.015 C 
HETATM   17  C   UNL     1     -38.821 -53.144  16.028  1.00  0.00     0.002 C 
HETATM   18  C   UNL     1     -39.033 -54.323  15.072  1.00  0.00     0.015 C 
HETATM   19  C   UNL     1     -40.521 -54.675  14.934  1.00  0.00     0.097 C 
ENDBRANCH  12  14
ENDBRANCH   4   7
BRANCH   1  20
HETATM   20  C   UNL     1     -40.479 -49.064  11.210  1.00  0.00     0.174 C 
HETATM   21  C   UNL     1     -39.902 -48.654  12.564  1.00  0.00     0.042 C 
BRANCH  20  22
HETATM   22  C   UNL     1     -41.723 -48.194  10.888  1.00  0.00     0.240 C 
HETATM   23  O   UNL     1     -42.146 -47.365  11.689  1.00  0.00    -0.271 OA
HETATM   24  N   UNL     1     -42.259 -48.349   9.621  1.00  0.00    -0.351 N 
HETATM   25  H   UNL     1     -41.752 -48.970   8.984  1.00  0.00     0.163 HD
BRANCH  24  26
HETATM   26  C   UNL     1     -43.351 -47.515   9.085  1.00  0.00     0.022 C 
HETATM   27  C   UNL     1     -42.970 -46.024   9.117  1.00  0.00     0.037 C 
HETATM   28  C   UNL     1     -43.620 -47.902   7.619  1.00  0.00     0.037 C 
HETATM   29  C   UNL     1     -44.653 -47.741   9.874  1.00  0.00     0.037 C 
ENDBRANCH  24  26
ENDBRANCH  20  22
ENDBRANCH   1  20
TORSDOF 5
ENDMDL
MODEL 9
REMARK VINA RESULT:      -6.1      2.146      4.287
REMARK  5 active torsions:
REMARK  status: ('A' for Active; 'I' for Inactive)
REMARK    1  A    between atoms: C_2  and  N_3 
REMARK    2  A    between atoms: C_2  and  C_20 
REMARK       I    between atoms: N_3  and  C_4 
REMARK       I    between atoms: C_4  and  N_6 
REMARK    3  A    between atoms: N_6  and  C_7 
REMARK    4  A    between atoms: C_13  and  N_14 
REMARK       I    between atoms: C_20  and  N_22 
REMARK    5  A    between atoms: N_22  and  C_23 
ROOT
HETATM    1  N   UNL     1     -42.440 -51.775  12.141  1.00  0.00    -0.330 N 
HETATM    2  C   UNL     1     -42.094 -50.456  12.297  1.00  0.00     0.321 C 
HETATM    3  O   UNL     1     -42.159 -49.913  13.394  1.00  0.00    -0.247 OA
HETATM    4  N   UNL     1     -41.629 -49.882  11.136  1.00  0.00    -0.306 N 
HETATM    5  H   UNL     1     -42.879 -52.011  11.261  1.00  0.00     0.165 HD
HETATM    6  H   UNL     1     -41.153 -50.489  10.482  1.00  0.00     0.171 HD
ENDROOT
BRANCH   4   7
HETATM    7  C   UNL     1     -41.183 -48.532  11.127  1.00  0.00     0.075 A 
HETATM    8  C   UNL     1     -41.898 -47.584  10.387  1.00  0.00     0.034 A 
HETATM    9  C   UNL     1     -41.488 -46.261  10.370  1.00  0.00     0.019 A 
HETATM   10  C   UNL     1     -40.367 -45.932  11.101  1.00  0.00     0.089 A 
HETATM   11  N   UNL     1     -39.624 -46.826  11.793  1.00  0.00    -0.355 N 
HETATM   12  C   UNL     1     -40.006 -48.128  11.799  1.00  0.00     0.109 A 
ATOM     13  HN  UNL     1     -38.791 -46.527  12.299  1.00  0.00     0.166 HD
BRANCH  12  14
HETATM   14  N   UNL     1     -39.159 -49.071  12.416  1.00  0.00    -0.267 NA
HETATM   15  C   UNL     1     -37.993 -49.417  11.579  1.00  0.00     0.097 C 
HETATM   16  C   UNL     1     -37.409 -50.730  12.095  1.00  0.00     0.015 C 
HETATM   17  C   UNL     1     -37.070 -50.653  13.584  1.00  0.00     0.002 C 
HETATM   18  C   UNL     1     -38.225 -50.069  14.404  1.00  0.00     0.015 C 
HETATM   19  C   UNL     1     -38.746 -48.761  13.792  1.00  0.00     0.097 C 
ENDBRANCH  12  14
ENDBRANCH   4   7
BRANCH   1  20
HETATM   20  C   UNL     1     -42.802 -52.573  13.315  1.00  0.00     0.174 C 
HETATM   21  C   UNL     1     -42.266 -53.995  13.153  1.00  0.00     0.042 C 
BRANCH  20  22
HETATM   22  C   UNL     1     -44.326 -52.620  13.604  1.00  0.00     0.240 C 
HETATM   23  O   UNL     1     -45.143 -52.739  12.696  1.00  0.00    -0.271 OA
HETATM   24  N   UNL     1     -44.690 -52.610  14.940  1.00  0.00    -0.351 N 
HETATM   25  H   UNL     1     -43.926 -52.642  15.621  1.00  0.00     0.163 HD
BRANCH  24  26
HETATM   26  C   UNL     1     -46.077 -52.787  15.413  1.00  0.00     0.022 C 
HETATM   27  C   UNL     1     -46.130 -52.831  16.950  1.00  0.00     0.037 C 
HETATM   28  C   UNL     1     -46.934 -51.595  14.945  1.00  0.00     0.037 C 
HETATM   29  C   UNL     1     -46.698 -54.067  14.827  1.00  0.00     0.037 C 
ENDBRANCH  24  26
ENDBRANCH  20  22
ENDBRANCH   1  20
TORSDOF 5
ENDMDL
