MODEL 1
REMARK VINA RESULT:      -5.3      0.000      0.000
REMARK  4 active torsions:
REMARK  status: ('A' for Active; 'I' for Inactive)
REMARK    1  A    between atoms: C_2  and  N_3 
REMARK    2  A    between atoms: C_2  and  C_15 
REMARK       I    between atoms: N_3  and  C_4 
REMARK    3  A    between atoms: C_4  and  C_6 
REMARK    4  A    between atoms: C_6  and  C_7 
ROOT
HETATM    1  N   UNL     1     -45.021 -52.509  12.509  1.00  0.00    -0.356 N 
HETATM    2  C   UNL     1     -44.478 -53.757  12.739  1.00  0.00     0.222 C 
HETATM    3  O   UNL     1     -45.150 -54.742  13.037  1.00  0.00    -0.273 OA
HETATM    4  H   UNL     1     -44.411 -51.710  12.418  1.00  0.00     0.162 HD
ENDROOT
BRANCH   2   5
HETATM    5  C   UNL     1     -42.967 -53.835  12.593  1.00  0.00     0.146 C 
BRANCH   5   6
HETATM    6  C   UNL     1     -42.251 -53.377  13.816  1.00  0.00     0.006 A 
HETATM    7  C   UNL     1     -42.102 -54.035  15.073  1.00  0.00     0.038 A 
HETATM    8  C   UNL     1     -42.610 -55.357  15.516  1.00  0.00     0.071 C 
HETATM    9  N   UNL     1     -41.395 -53.292  15.932  1.00  0.00    -0.265 N 
HETATM   10  O   UNL     1     -41.091 -52.127  15.266  1.00  0.00    -0.242 OA
ATOM     11  HN  UNL     1     -41.134 -53.539  16.886  1.00  0.00     0.194 HD
HETATM   12  C   UNL     1     -41.608 -52.170  14.012  1.00  0.00     0.081 A 
HETATM   13  C   UNL     1     -41.393 -50.969  13.183  1.00  0.00     0.079 C 
ENDBRANCH   5   6
ENDBRANCH   2   5
BRANCH   1  14
HETATM   14  C   UNL     1     -46.441 -52.260  12.688  1.00  0.00     0.084 C 
HETATM   15  C   UNL     1     -47.045 -51.664  11.419  1.00  0.00     0.032 C 
BRANCH  14  16
HETATM   16  C   UNL     1     -46.725 -51.382  13.884  1.00  0.00     0.008 A 
HETATM   17  C   UNL     1     -45.748 -51.247  15.032  1.00  0.00     0.007 A 
HETATM   18  C   UNL     1     -47.080 -51.904  15.262  1.00  0.00     0.007 A 
ENDBRANCH  14  16
ENDBRANCH   1  14
TORSDOF 4
ENDMDL
MODEL 2
REMARK VINA RESULT:      -5.3      0.496      2.028
REMARK  4 active torsions:
REMARK  status: ('A' for Active; 'I' for Inactive)
REMARK    1  A    between atoms: C_2  and  N_3 
REMARK    2  A    between atoms: C_2  and  C_15 
REMARK       I    between atoms: N_3  and  C_4 
REMARK    3  A    between atoms: C_4  and  C_6 
REMARK    4  A    between atoms: C_6  and  C_7 
ROOT
HETATM    1  N   UNL     1     -45.012 -52.509  12.530  1.00  0.00    -0.356 N 
HETATM    2  C   UNL     1     -44.476 -53.763  12.744  1.00  0.00     0.222 C 
HETATM    3  O   UNL     1     -45.154 -54.746  13.032  1.00  0.00    -0.273 OA
HETATM    4  H   UNL     1     -44.396 -51.712  12.448  1.00  0.00     0.162 HD
ENDROOT
BRANCH   2   5
HETATM    5  C   UNL     1     -42.966 -53.849  12.595  1.00  0.00     0.146 C 
BRANCH   5   6
HETATM    6  C   UNL     1     -42.245 -53.411  13.822  1.00  0.00     0.006 A 
HETATM    7  C   UNL     1     -41.459 -52.240  14.036  1.00  0.00     0.038 A 
HETATM    8  C   UNL     1     -41.143 -51.128  13.105  1.00  0.00     0.071 C 
HETATM    9  N   UNL     1     -40.962 -52.205  15.277  1.00  0.00    -0.265 N 
HETATM   10  O   UNL     1     -41.388 -53.362  15.890  1.00  0.00    -0.242 OA
ATOM     11  HN  UNL     1     -40.384 -51.471  15.687  1.00  0.00     0.194 HD
HETATM   12  C   UNL     1     -42.142 -54.085  15.023  1.00  0.00     0.081 A 
HETATM   13  C   UNL     1     -42.644 -55.377  15.527  1.00  0.00     0.079 C 
ENDBRANCH   5   6
ENDBRANCH   2   5
BRANCH   1  14
HETATM   14  C   UNL     1     -46.430 -52.253  12.715  1.00  0.00     0.084 C 
HETATM   15  C   UNL     1     -47.037 -51.661  11.446  1.00  0.00     0.032 C 
BRANCH  14  16
HETATM   16  C   UNL     1     -46.704 -51.367  13.907  1.00  0.00     0.008 A 
HETATM   17  C   UNL     1     -45.737 -51.258  15.066  1.00  0.00     0.007 A 
HETATM   18  C   UNL     1     -47.088 -51.878  15.281  1.00  0.00     0.007 A 
ENDBRANCH  14  16
ENDBRANCH   1  14
TORSDOF 4
ENDMDL
MODEL 3
REMARK VINA RESULT:      -5.0      2.097      2.930
REMARK  4 active torsions:
REMARK  status: ('A' for Active; 'I' for Inactive)
REMARK    1  A    between atoms: C_2  and  N_3 
REMARK    2  A    between atoms: C_2  and  C_15 
REMARK       I    between atoms: N_3  and  C_4 
REMARK    3  A    between atoms: C_4  and  C_6 
REMARK    4  A    between atoms: C_6  and  C_7 
ROOT
HETATM    1  N   UNL     1     -44.563 -51.602  14.971  1.00  0.00    -0.356 N 
HETATM    2  C   UNL     1     -43.514 -50.883  14.435  1.00  0.00     0.222 C 
HETATM    3  O   UNL     1     -43.668 -49.884  13.737  1.00  0.00    -0.273 OA
HETATM    4  H   UNL     1     -44.383 -52.496  15.406  1.00  0.00     0.162 HD
ENDROOT
BRANCH   2   5
HETATM    5  C   UNL     1     -42.132 -51.417  14.774  1.00  0.00     0.146 C 
BRANCH   5   6
HETATM    6  C   UNL     1     -41.605 -52.340  13.730  1.00  0.00     0.006 A 
HETATM    7  C   UNL     1     -41.813 -53.742  13.580  1.00  0.00     0.038 A 
HETATM    8  C   UNL     1     -42.614 -54.676  14.410  1.00  0.00     0.071 C 
HETATM    9  N   UNL     1     -41.158 -54.222  12.517  1.00  0.00    -0.265 N 
HETATM   10  O   UNL     1     -40.489 -53.151  11.968  1.00  0.00    -0.242 OA
ATOM     11  HN  UNL     1     -41.155 -55.185  12.180  1.00  0.00     0.194 HD
HETATM   12  C   UNL     1     -40.744 -52.034  12.695  1.00  0.00     0.081 A 
HETATM   13  C   UNL     1     -40.064 -50.804  12.247  1.00  0.00     0.079 C 
ENDBRANCH   5   6
ENDBRANCH   2   5
BRANCH   1  14
HETATM   14  C   UNL     1     -45.943 -51.262  14.670  1.00  0.00     0.084 C 
HETATM   15  C   UNL     1     -46.794 -51.303  15.938  1.00  0.00     0.032 C 
BRANCH  14  16
HETATM   16  C   UNL     1     -46.533 -52.145  13.597  1.00  0.00     0.008 A 
HETATM   17  C   UNL     1     -45.686 -52.748  12.497  1.00  0.00     0.007 A 
HETATM   18  C   UNL     1     -46.730 -51.722  12.155  1.00  0.00     0.007 A 
ENDBRANCH  14  16
ENDBRANCH   1  14
TORSDOF 4
ENDMDL
MODEL 4
REMARK VINA RESULT:      -4.9      6.091      8.470
REMARK  4 active torsions:
REMARK  status: ('A' for Active; 'I' for Inactive)
REMARK    1  A    between atoms: C_2  and  N_3 
REMARK    2  A    between atoms: C_2  and  C_15 
REMARK       I    between atoms: N_3  and  C_4 
REMARK    3  A    between atoms: C_4  and  C_6 
REMARK    4  A    between atoms: C_6  and  C_7 
ROOT
HETATM    1  N   UNL     1     -39.870 -48.412  11.519  1.00  0.00    -0.356 N 
HETATM    2  C   UNL     1     -41.250 -48.415  11.498  1.00  0.00     0.222 C 
HETATM    3  O   UNL     1     -41.940 -48.561  12.504  1.00  0.00    -0.273 OA
HETATM    4  H   UNL     1     -39.359 -48.441  10.649  1.00  0.00     0.162 HD
ENDROOT
BRANCH   2   5
HETATM    5  C   UNL     1     -41.870 -48.219  10.124  1.00  0.00     0.146 C 
BRANCH   5   6
HETATM    6  C   UNL     1     -42.543 -46.896   9.985  1.00  0.00     0.006 A 
HETATM    7  C   UNL     1     -43.871 -46.602   9.556  1.00  0.00     0.038 A 
HETATM    8  C   UNL     1     -44.956 -47.521   9.135  1.00  0.00     0.071 C 
HETATM    9  N   UNL     1     -44.101 -45.284   9.553  1.00  0.00    -0.265 N 
HETATM   10  O   UNL     1     -42.925 -44.691   9.952  1.00  0.00    -0.242 OA
ATOM     11  HN  UNL     1     -44.972 -44.814   9.305  1.00  0.00     0.194 HD
HETATM   12  C   UNL     1     -41.994 -45.647  10.198  1.00  0.00     0.081 A 
HETATM   13  C   UNL     1     -40.661 -45.162  10.603  1.00  0.00     0.079 C 
ENDBRANCH   5   6
ENDBRANCH   2   5
BRANCH   1  14
HETATM   14  C   UNL     1     -39.134 -48.667  12.746  1.00  0.00     0.084 C 
HETATM   15  C   UNL     1     -38.993 -47.385  13.563  1.00  0.00     0.032 C 
BRANCH  14  16
HETATM   16  C   UNL     1     -37.784 -49.292  12.486  1.00  0.00     0.008 A 
HETATM   17  C   UNL     1     -37.482 -50.056  11.215  1.00  0.00     0.007 A 
HETATM   18  C   UNL     1     -37.509 -50.782  12.530  1.00  0.00     0.007 A 
ENDBRANCH  14  16
ENDBRANCH   1  14
TORSDOF 4
ENDMDL
MODEL 5
REMARK VINA RESULT:      -4.9      2.090      3.360
REMARK  4 active torsions:
REMARK  status: ('A' for Active; 'I' for Inactive)
REMARK    1  A    between atoms: C_2  and  N_3 
REMARK    2  A    between atoms: C_2  and  C_15 
REMARK       I    between atoms: N_3  and  C_4 
REMARK    3  A    between atoms: C_4  and  C_6 
REMARK    4  A    between atoms: C_6  and  C_7 
ROOT
HETATM    1  N   UNL     1     -44.084 -52.859  14.391  1.00  0.00    -0.356 N 
HETATM    2  C   UNL     1     -43.151 -52.738  15.400  1.00  0.00     0.222 C 
HETATM    3  O   UNL     1     -43.257 -53.296  16.489  1.00  0.00    -0.273 OA
HETATM    4  H   UNL     1     -44.023 -52.260  13.581  1.00  0.00     0.162 HD
ENDROOT
BRANCH   2   5
HETATM    5  C   UNL     1     -41.959 -51.854  15.068  1.00  0.00     0.146 C 
BRANCH   5   6
HETATM    6  C   UNL     1     -41.475 -52.049  13.672  1.00  0.00     0.006 A 
HETATM    7  C   UNL     1     -41.684 -51.230  12.524  1.00  0.00     0.038 A 
HETATM    8  C   UNL     1     -42.433 -49.956  12.392  1.00  0.00     0.071 C 
HETATM    9  N   UNL     1     -41.095 -51.749  11.441  1.00  0.00    -0.265 N 
HETATM   10  O   UNL     1     -40.514 -52.927  11.852  1.00  0.00    -0.242 OA
ATOM     11  HN  UNL     1     -41.079 -51.353  10.501  1.00  0.00     0.194 HD
HETATM   12  C   UNL     1     -40.748 -53.113  13.176  1.00  0.00     0.081 A 
HETATM   13  C   UNL     1     -40.214 -54.358  13.758  1.00  0.00     0.079 C 
ENDBRANCH   5   6
ENDBRANCH   2   5
BRANCH   1  14
HETATM   14  C   UNL     1     -45.315 -53.606  14.589  1.00  0.00     0.084 C 
HETATM   15  C   UNL     1     -45.294 -54.898  13.775  1.00  0.00     0.032 C 
BRANCH  14  16
HETATM   16  C   UNL     1     -46.543 -52.787  14.268  1.00  0.00     0.008 A 
HETATM   17  C   UNL     1     -46.455 -51.446  13.573  1.00  0.00     0.007 A 
HETATM   18  C   UNL     1     -46.936 -51.517  14.994  1.00  0.00     0.007 A 
ENDBRANCH  14  16
ENDBRANCH   1  14
TORSDOF 4
ENDMDL
MODEL 6
REMARK VINA RESULT:      -4.9      3.118      4.511
REMARK  4 active torsions:
REMARK  status: ('A' for Active; 'I' for Inactive)
REMARK    1  A    between atoms: C_2  and  N_3 
REMARK    2  A    between atoms: C_2  and  C_15 
REMARK       I    between atoms: N_3  and  C_4 
REMARK    3  A    between atoms: C_4  and  C_6 
REMARK    4  A    between atoms: C_6  and  C_7 
ROOT
HETATM    1  N   UNL     1     -44.193 -50.943  13.040  1.00  0.00    -0.356 N 
HETATM    2  C   UNL     1     -43.350 -50.247  13.883  1.00  0.00     0.222 C 
HETATM    3  O   UNL     1     -42.920 -50.707  14.938  1.00  0.00    -0.273 OA
HETATM    4  H   UNL     1     -44.634 -50.462  12.269  1.00  0.00     0.162 HD
ENDROOT
BRANCH   2   5
HETATM    5  C   UNL     1     -42.980 -48.851  13.409  1.00  0.00     0.146 C 
BRANCH   5   6
HETATM    6  C   UNL     1     -42.298 -48.859  12.085  1.00  0.00     0.006 A 
HETATM    7  C   UNL     1     -41.081 -49.496  11.702  1.00  0.00     0.038 A 
HETATM    8  C   UNL     1     -40.155 -50.331  12.506  1.00  0.00     0.071 C 
HETATM    9  N   UNL     1     -40.789 -49.260  10.418  1.00  0.00    -0.265 N 
HETATM   10  O   UNL     1     -41.792 -48.445   9.944  1.00  0.00    -0.242 OA
ATOM     11  HN  UNL     1     -39.987 -49.612   9.896  1.00  0.00     0.194 HD
HETATM   12  C   UNL     1     -42.684 -48.196  10.936  1.00  0.00     0.081 A 
HETATM   13  C   UNL     1     -43.804 -47.302  10.588  1.00  0.00     0.079 C 
ENDBRANCH   5   6
ENDBRANCH   2   5
BRANCH   1  14
HETATM   14  C   UNL     1     -44.698 -52.258  13.396  1.00  0.00     0.084 C 
HETATM   15  C   UNL     1     -44.291 -53.290  12.347  1.00  0.00     0.032 C 
BRANCH  14  16
HETATM   16  C   UNL     1     -46.193 -52.263  13.605  1.00  0.00     0.008 A 
HETATM   17  C   UNL     1     -46.863 -51.382  14.637  1.00  0.00     0.007 A 
HETATM   18  C   UNL     1     -46.886 -52.875  14.806  1.00  0.00     0.007 A 
ENDBRANCH  14  16
ENDBRANCH   1  14
TORSDOF 4
ENDMDL
MODEL 7
REMARK VINA RESULT:      -4.8      2.080      5.074
REMARK  4 active torsions:
REMARK  status: ('A' for Active; 'I' for Inactive)
REMARK    1  A    between atoms: C_2  and  N_3 
REMARK    2  A    between atoms: C_2  and  C_15 
REMARK       I    between atoms: N_3  and  C_4 
REMARK    3  A    between atoms: C_4  and  C_6 
REMARK    4  A    between atoms: C_6  and  C_7 
ROOT
HETATM    1  N   UNL     1     -42.579 -50.685  11.993  1.00  0.00    -0.356 N 
HETATM    2  C   UNL     1     -42.657 -51.664  12.962  1.00  0.00     0.222 C 
HETATM    3  O   UNL     1     -42.372 -51.471  14.142  1.00  0.00    -0.273 OA
HETATM    4  H   UNL     1     -42.677 -50.938  11.020  1.00  0.00     0.162 HD
ENDROOT
BRANCH   2   5
HETATM    5  C   UNL     1     -43.128 -53.022  12.465  1.00  0.00     0.146 C 
BRANCH   5   6
HETATM    6  C   UNL     1     -44.265 -53.559  13.265  1.00  0.00     0.006 A 
HETATM    7  C   UNL     1     -45.651 -53.231  13.193  1.00  0.00     0.038 A 
HETATM    8  C   UNL     1     -46.353 -52.273  12.304  1.00  0.00     0.071 C 
HETATM    9  N   UNL     1     -46.363 -53.922  14.090  1.00  0.00    -0.265 N 
HETATM   10  O   UNL     1     -45.457 -54.694  14.781  1.00  0.00    -0.242 OA
ATOM     11  HN  UNL     1     -47.372 -53.886  14.231  1.00  0.00     0.194 HD
HETATM   12  C   UNL     1     -44.208 -54.471  14.300  1.00  0.00     0.081 A 
HETATM   13  C   UNL     1     -43.118 -55.204  14.970  1.00  0.00     0.079 C 
ENDBRANCH   5   6
ENDBRANCH   2   5
BRANCH   1  14
HETATM   14  C   UNL     1     -42.069 -49.359  12.299  1.00  0.00     0.084 C 
HETATM   15  C   UNL     1     -43.117 -48.295  11.980  1.00  0.00     0.032 C 
BRANCH  14  16
HETATM   16  C   UNL     1     -40.769 -49.065  11.590  1.00  0.00     0.008 A 
HETATM   17  C   UNL     1     -39.608 -50.036  11.603  1.00  0.00     0.007 A 
HETATM   18  C   UNL     1     -39.474 -48.708  12.292  1.00  0.00     0.007 A 
ENDBRANCH  14  16
ENDBRANCH   1  14
TORSDOF 4
ENDMDL
MODEL 8
REMARK VINA RESULT:      -4.6     15.027     16.257
REMARK  4 active torsions:
REMARK  status: ('A' for Active; 'I' for Inactive)
REMARK    1  A    between atoms: C_2  and  N_3 
REMARK    2  A    between atoms: C_2  and  C_15 
REMARK       I    between atoms: N_3  and  C_4 
REMARK    3  A    between atoms: C_4  and  C_6 
REMARK    4  A    between atoms: C_6  and  C_7 
ROOT
HETATM    1  N   UNL     1     -50.680 -51.140  -0.822  1.00  0.00    -0.356 N 
HETATM    2  C   UNL     1     -50.351 -50.207   0.140  1.00  0.00     0.222 C 
HETATM    3  O   UNL     1     -49.903 -50.505   1.245  1.00  0.00    -0.273 OA
HETATM    4  H   UNL     1     -51.184 -50.849  -1.647  1.00  0.00     0.162 HD
ENDROOT
BRANCH   2   5
HETATM    5  C   UNL     1     -50.582 -48.760  -0.265  1.00  0.00     0.146 C 
BRANCH   5   6
HETATM    6  C   UNL     1     -51.307 -47.983   0.779  1.00  0.00     0.006 A 
HETATM    7  C   UNL     1     -52.695 -47.990   1.105  1.00  0.00     0.038 A 
HETATM    8  C   UNL     1     -53.805 -48.772   0.508  1.00  0.00     0.071 C 
HETATM    9  N   UNL     1     -52.965 -47.140   2.103  1.00  0.00    -0.265 N 
HETATM   10  O   UNL     1     -51.769 -46.543   2.429  1.00  0.00    -0.242 OA
ATOM     11  HN  UNL     1     -53.874 -46.970   2.534  1.00  0.00     0.194 HD
HETATM   12  C   UNL     1     -50.784 -47.034   1.635  1.00  0.00     0.081 A 
HETATM   13  C   UNL     1     -49.441 -46.460   1.843  1.00  0.00     0.079 C 
ENDBRANCH   5   6
ENDBRANCH   2   5
BRANCH   1  14
HETATM   14  C   UNL     1     -50.590 -52.565  -0.552  1.00  0.00     0.084 C 
HETATM   15  C   UNL     1     -49.229 -53.107  -0.982  1.00  0.00     0.032 C 
BRANCH  14  16
HETATM   16  C   UNL     1     -51.710 -53.345  -1.200  1.00  0.00     0.008 A 
HETATM   17  C   UNL     1     -53.143 -52.861  -1.179  1.00  0.00     0.007 A 
HETATM   18  C   UNL     1     -52.770 -54.112  -0.435  1.00  0.00     0.007 A 
ENDBRANCH  14  16
ENDBRANCH   1  14
TORSDOF 4
ENDMDL
MODEL 9
REMARK VINA RESULT:      -4.6      2.014      5.549
REMARK  4 active torsions:
REMARK  status: ('A' for Active; 'I' for Inactive)
REMARK    1  A    between atoms: C_2  and  N_3 
REMARK    2  A    between atoms: C_2  and  C_15 
REMARK       I    between atoms: N_3  and  C_4 
REMARK    3  A    between atoms: C_4  and  C_6 
REMARK    4  A    between atoms: C_6  and  C_7 
ROOT
HETATM    1  N   UNL     1     -40.979 -52.730  13.097  1.00  0.00    -0.356 N 
HETATM    2  C   UNL     1     -42.284 -52.353  13.339  1.00  0.00     0.222 C 
HETATM    3  O   UNL     1     -42.599 -51.496  14.161  1.00  0.00    -0.273 OA
HETATM    4  H   UNL     1     -40.792 -53.541  12.525  1.00  0.00     0.162 HD
ENDROOT
BRANCH   2   5
HETATM    5  C   UNL     1     -43.326 -53.079  12.503  1.00  0.00     0.146 C 
BRANCH   5   6
HETATM    6  C   UNL     1     -44.465 -53.582  13.321  1.00  0.00     0.006 A 
HETATM    7  C   UNL     1     -45.831 -53.172  13.311  1.00  0.00     0.038 A 
HETATM    8  C   UNL     1     -46.505 -52.140  12.485  1.00  0.00     0.071 C 
HETATM    9  N   UNL     1     -46.552 -53.857  14.205  1.00  0.00    -0.265 N 
HETATM   10  O   UNL     1     -45.671 -54.707  14.834  1.00  0.00    -0.242 OA
ATOM     11  HN  UNL     1     -47.552 -53.768  14.384  1.00  0.00     0.194 HD
HETATM   12  C   UNL     1     -44.427 -54.536  14.318  1.00  0.00     0.081 A 
HETATM   13  C   UNL     1     -43.361 -55.358  14.920  1.00  0.00     0.079 C 
ENDBRANCH   5   6
ENDBRANCH   2   5
BRANCH   1  14
HETATM   14  C   UNL     1     -39.880 -52.182  13.874  1.00  0.00     0.084 C 
HETATM   15  C   UNL     1     -39.091 -51.169  13.047  1.00  0.00     0.032 C 
BRANCH  14  16
HETATM   16  C   UNL     1     -38.970 -53.257  14.420  1.00  0.00     0.008 A 
HETATM   17  C   UNL     1     -39.458 -54.664  14.688  1.00  0.00     0.007 A 
HETATM   18  C   UNL     1     -39.033 -53.792  15.836  1.00  0.00     0.007 A 
ENDBRANCH  14  16
ENDBRANCH   1  14
TORSDOF 4
ENDMDL
