MODEL 1
REMARK VINA RESULT:      -5.6      0.000      0.000
REMARK  6 active torsions:
REMARK  status: ('A' for Active; 'I' for Inactive)
REMARK    1  A    between atoms: C_2  and  O_3 
REMARK    2  A    between atoms: C_2  and  C_8 
REMARK    3  A    between atoms: O_3  and  C_4 
REMARK    4  A    between atoms: C_4  and  C_5 
REMARK       I    between atoms: C_8  and  N_10 
REMARK    5  A    between atoms: N_10  and  C_11 
REMARK    6  A    between atoms: C_17  and  O_18 
ROOT
HETATM    1  C   UNL     1     -43.147 -53.786  13.429  1.00  0.00     0.252 C 
HETATM    2  O   UNL     1     -43.005 -53.758  14.648  1.00  0.00    -0.270 OA
HETATM    3  N   UNL     1     -42.171 -53.441  12.503  1.00  0.00    -0.309 N 
HETATM    4  H   UNL     1     -42.100 -54.011  11.673  1.00  0.00     0.170 HD
ENDROOT
BRANCH   3   5
HETATM    5  C   UNL     1     -40.950 -52.879  12.884  1.00  0.00     0.141 A 
HETATM    6  N   UNL     1     -40.294 -53.574  13.839  1.00  0.00    -0.350 N 
HETATM    7  C   UNL     1     -39.147 -53.030  14.300  1.00  0.00     0.090 A 
ATOM      8  HN  UNL     1     -40.646 -54.463  14.193  1.00  0.00     0.166 HD
HETATM    9  C   UNL     1     -38.593 -51.854  13.817  1.00  0.00     0.020 A 
HETATM   10  C   UNL     1     -39.243 -51.195  12.779  1.00  0.00     0.041 A 
HETATM   11  C   UNL     1     -40.439 -51.717  12.297  1.00  0.00     0.110 A 
BRANCH  11  12
HETATM   12  O   UNL     1     -41.028 -51.155  11.199  1.00  0.00    -0.357 OA
HETATM   13  H   UNL     1     -41.943 -51.471  11.138  1.00  0.00     0.218 HD
ENDBRANCH  11  12
ENDBRANCH   3   5
BRANCH   1  14
HETATM   14  C   UNL     1     -44.468 -54.220  12.758  1.00  0.00     0.209 C 
HETATM   15  C   UNL     1     -45.289 -55.030  13.755  1.00  0.00     0.050 C 
BRANCH  14  16
HETATM   16  O   UNL     1     -45.263 -53.112  12.333  1.00  0.00    -0.376 OA
BRANCH  16  17
HETATM   17  C   UNL     1     -46.440 -52.943  13.119  1.00  0.00     0.173 C 
BRANCH  17  18
HETATM   18  C   UNL     1     -46.444 -51.565  13.696  1.00  0.00     0.009 A 
HETATM   19  C   UNL     1     -45.462 -51.155  14.761  1.00  0.00     0.007 A 
HETATM   20  C   UNL     1     -46.911 -51.343  15.113  1.00  0.00     0.007 A 
ENDBRANCH  17  18
ENDBRANCH  16  17
ENDBRANCH  14  16
ENDBRANCH   1  14
TORSDOF 6
ENDMDL
MODEL 2
REMARK VINA RESULT:      -5.5      1.514      2.067
REMARK  6 active torsions:
REMARK  status: ('A' for Active; 'I' for Inactive)
REMARK    1  A    between atoms: C_2  and  O_3 
REMARK    2  A    between atoms: C_2  and  C_8 
REMARK    3  A    between atoms: O_3  and  C_4 
REMARK    4  A    between atoms: C_4  and  C_5 
REMARK       I    between atoms: C_8  and  N_10 
REMARK    5  A    between atoms: N_10  and  C_11 
REMARK    6  A    between atoms: C_17  and  O_18 
ROOT
HETATM    1  C   UNL     1     -43.028 -52.782  12.920  1.00  0.00     0.252 C 
HETATM    2  O   UNL     1     -42.776 -52.463  14.079  1.00  0.00    -0.270 OA
HETATM    3  N   UNL     1     -42.310 -52.370  11.805  1.00  0.00    -0.309 N 
HETATM    4  H   UNL     1     -42.152 -53.054  11.080  1.00  0.00     0.170 HD
ENDROOT
BRANCH   3   5
HETATM    5  C   UNL     1     -41.292 -51.416  11.886  1.00  0.00     0.141 A 
HETATM    6  N   UNL     1     -41.638 -50.197  11.418  1.00  0.00    -0.350 N 
HETATM    7  C   UNL     1     -40.666 -49.260  11.398  1.00  0.00     0.090 A 
ATOM      8  HN  UNL     1     -42.585 -49.994  11.097  1.00  0.00     0.166 HD
HETATM    9  C   UNL     1     -39.378 -49.465  11.873  1.00  0.00     0.020 A 
HETATM   10  C   UNL     1     -39.065 -50.703  12.423  1.00  0.00     0.041 A 
HETATM   11  C   UNL     1     -40.038 -51.696  12.438  1.00  0.00     0.110 A 
BRANCH  11  12
HETATM   12  O   UNL     1     -39.790 -52.876  13.082  1.00  0.00    -0.357 OA
HETATM   13  H   UNL     1     -38.832 -52.970  13.205  1.00  0.00     0.218 HD
ENDBRANCH  11  12
ENDBRANCH   3   5
BRANCH   1  14
HETATM   14  C   UNL     1     -44.210 -53.703  12.552  1.00  0.00     0.209 C 
HETATM   15  C   UNL     1     -44.459 -54.676  13.700  1.00  0.00     0.050 C 
BRANCH  14  16
HETATM   16  O   UNL     1     -45.422 -52.984  12.318  1.00  0.00    -0.376 OA
BRANCH  16  17
HETATM   17  C   UNL     1     -46.317 -53.033  13.427  1.00  0.00     0.173 C 
BRANCH  17  18
HETATM   18  C   UNL     1     -46.519 -51.648  13.949  1.00  0.00     0.009 A 
HETATM   19  C   UNL     1     -45.681 -51.102  15.075  1.00  0.00     0.007 A 
HETATM   20  C   UNL     1     -47.126 -51.439  15.315  1.00  0.00     0.007 A 
ENDBRANCH  17  18
ENDBRANCH  16  17
ENDBRANCH  14  16
ENDBRANCH   1  14
TORSDOF 6
ENDMDL
MODEL 3
REMARK VINA RESULT:      -5.4      1.755      2.311
REMARK  6 active torsions:
REMARK  status: ('A' for Active; 'I' for Inactive)
REMARK    1  A    between atoms: C_2  and  O_3 
REMARK    2  A    between atoms: C_2  and  C_8 
REMARK    3  A    between atoms: O_3  and  C_4 
REMARK    4  A    between atoms: C_4  and  C_5 
REMARK       I    between atoms: C_8  and  N_10 
REMARK    5  A    between atoms: N_10  and  C_11 
REMARK    6  A    between atoms: C_17  and  O_18 
ROOT
HETATM    1  C   UNL     1     -41.013 -53.146  12.827  1.00  0.00     0.252 C 
HETATM    2  O   UNL     1     -39.974 -53.762  13.050  1.00  0.00    -0.270 OA
HETATM    3  N   UNL     1     -41.088 -51.796  12.510  1.00  0.00    -0.309 N 
HETATM    4  H   UNL     1     -41.755 -51.524  11.804  1.00  0.00     0.170 HD
ENDROOT
BRANCH   3   5
HETATM    5  C   UNL     1     -39.971 -50.957  12.557  1.00  0.00     0.141 A 
HETATM    6  N   UNL     1     -39.202 -51.120  13.656  1.00  0.00    -0.350 N 
HETATM    7  C   UNL     1     -38.155 -50.278  13.790  1.00  0.00     0.090 A 
ATOM      8  HN  UNL     1     -39.403 -51.841  14.350  1.00  0.00     0.166 HD
HETATM    9  C   UNL     1     -37.805 -49.316  12.853  1.00  0.00     0.020 A 
HETATM   10  C   UNL     1     -38.562 -49.219  11.691  1.00  0.00     0.041 A 
HETATM   11  C   UNL     1     -39.661 -50.057  11.533  1.00  0.00     0.110 A 
BRANCH  11  12
HETATM   12  O   UNL     1     -40.343 -50.061  10.349  1.00  0.00    -0.357 OA
HETATM   13  H   UNL     1     -40.415 -49.149  10.025  1.00  0.00     0.218 HD
ENDBRANCH  11  12
ENDBRANCH   3   5
BRANCH   1  14
HETATM   14  C   UNL     1     -42.402 -53.818  12.874  1.00  0.00     0.209 C 
HETATM   15  C   UNL     1     -42.746 -54.145  14.323  1.00  0.00     0.050 C 
BRANCH  14  16
HETATM   16  O   UNL     1     -43.438 -52.984  12.356  1.00  0.00    -0.376 OA
BRANCH  16  17
HETATM   17  C   UNL     1     -44.655 -53.092  13.092  1.00  0.00     0.173 C 
BRANCH  17  18
HETATM   18  C   UNL     1     -45.328 -51.758  13.115  1.00  0.00     0.009 A 
HETATM   19  C   UNL     1     -46.536 -51.502  13.976  1.00  0.00     0.007 A 
HETATM   20  C   UNL     1     -46.687 -51.590  12.483  1.00  0.00     0.007 A 
ENDBRANCH  17  18
ENDBRANCH  16  17
ENDBRANCH  14  16
ENDBRANCH   1  14
TORSDOF 6
ENDMDL
MODEL 4
REMARK VINA RESULT:      -5.1      2.761      6.125
REMARK  6 active torsions:
REMARK  status: ('A' for Active; 'I' for Inactive)
REMARK    1  A    between atoms: C_2  and  O_3 
REMARK    2  A    between atoms: C_2  and  C_8 
REMARK    3  A    between atoms: O_3  and  C_4 
REMARK    4  A    between atoms: C_4  and  C_5 
REMARK       I    between atoms: C_8  and  N_10 
REMARK    5  A    between atoms: N_10  and  C_11 
REMARK    6  A    between atoms: C_17  and  O_18 
ROOT
HETATM    1  C   UNL     1     -41.637 -50.070  11.800  1.00  0.00     0.252 C 
HETATM    2  O   UNL     1     -42.429 -49.715  12.668  1.00  0.00    -0.270 OA
HETATM    3  N   UNL     1     -41.382 -51.388  11.443  1.00  0.00    -0.309 N 
HETATM    4  H   UNL     1     -41.261 -51.585  10.461  1.00  0.00     0.170 HD
ENDROOT
BRANCH   3   5
HETATM    5  C   UNL     1     -41.912 -52.467  12.155  1.00  0.00     0.141 A 
HETATM    6  N   UNL     1     -43.252 -52.600  12.044  1.00  0.00    -0.350 N 
HETATM    7  C   UNL     1     -43.824 -53.578  12.777  1.00  0.00     0.090 A 
ATOM      8  HN  UNL     1     -43.803 -51.991  11.438  1.00  0.00     0.166 HD
HETATM    9  C   UNL     1     -43.119 -54.468  13.575  1.00  0.00     0.020 A 
HETATM   10  C   UNL     1     -41.733 -54.364  13.614  1.00  0.00     0.041 A 
HETATM   11  C   UNL     1     -41.114 -53.352  12.887  1.00  0.00     0.110 A 
BRANCH  11  12
HETATM   12  O   UNL     1     -39.750 -53.310  12.815  1.00  0.00    -0.357 OA
HETATM   13  H   UNL     1     -39.488 -53.217  11.885  1.00  0.00     0.218 HD
ENDBRANCH  11  12
ENDBRANCH   3   5
BRANCH   1  14
HETATM   14  C   UNL     1     -40.802 -49.066  10.977  1.00  0.00     0.209 C 
HETATM   15  C   UNL     1     -41.732 -48.012  10.387  1.00  0.00     0.050 C 
BRANCH  14  16
HETATM   16  O   UNL     1     -39.817 -48.391  11.760  1.00  0.00    -0.376 OA
BRANCH  16  17
HETATM   17  C   UNL     1     -39.239 -49.225  12.762  1.00  0.00     0.173 C 
BRANCH  17  18
HETATM   18  C   UNL     1     -37.797 -49.443  12.438  1.00  0.00     0.009 A 
HETATM   19  C   UNL     1     -37.366 -50.027  11.119  1.00  0.00     0.007 A 
HETATM   20  C   UNL     1     -37.243 -50.845  12.374  1.00  0.00     0.007 A 
ENDBRANCH  17  18
ENDBRANCH  16  17
ENDBRANCH  14  16
ENDBRANCH   1  14
TORSDOF 6
ENDMDL
MODEL 5
REMARK VINA RESULT:      -5.0      3.696      5.593
REMARK  6 active torsions:
REMARK  status: ('A' for Active; 'I' for Inactive)
REMARK    1  A    between atoms: C_2  and  O_3 
REMARK    2  A    between atoms: C_2  and  C_8 
REMARK    3  A    between atoms: O_3  and  C_4 
REMARK    4  A    between atoms: C_4  and  C_5 
REMARK       I    between atoms: C_8  and  N_10 
REMARK    5  A    between atoms: N_10  and  C_11 
REMARK    6  A    between atoms: C_17  and  O_18 
ROOT
HETATM    1  C   UNL     1     -42.072 -49.712  12.207  1.00  0.00     0.252 C 
HETATM    2  O   UNL     1     -42.973 -49.466  13.004  1.00  0.00    -0.270 OA
HETATM    3  N   UNL     1     -41.708 -50.983  11.782  1.00  0.00    -0.309 N 
HETATM    4  H   UNL     1     -41.470 -51.094  10.808  1.00  0.00     0.170 HD
ENDROOT
BRANCH   3   5
HETATM    5  C   UNL     1     -42.251 -52.141  12.346  1.00  0.00     0.141 A 
HETATM    6  N   UNL     1     -43.598 -52.212  12.273  1.00  0.00    -0.350 N 
HETATM    7  C   UNL     1     -44.180 -53.272  12.875  1.00  0.00     0.090 A 
ATOM      8  HN  UNL     1     -44.148 -51.502  11.788  1.00  0.00     0.166 HD
HETATM    9  C   UNL     1     -43.479 -54.294  13.499  1.00  0.00     0.020 A 
HETATM   10  C   UNL     1     -42.090 -54.241  13.495  1.00  0.00     0.041 A 
HETATM   11  C   UNL     1     -41.461 -53.151  12.903  1.00  0.00     0.110 A 
BRANCH  11  12
HETATM   12  O   UNL     1     -40.100 -53.141  12.780  1.00  0.00    -0.357 OA
HETATM   13  H   UNL     1     -39.807 -52.232  12.605  1.00  0.00     0.218 HD
ENDBRANCH  11  12
ENDBRANCH   3   5
BRANCH   1  14
HETATM   14  C   UNL     1     -41.210 -48.607  11.562  1.00  0.00     0.209 C 
HETATM   15  C   UNL     1     -39.762 -49.080  11.497  1.00  0.00     0.050 C 
BRANCH  14  16
HETATM   16  O   UNL     1     -41.625 -48.283  10.234  1.00  0.00    -0.376 OA
BRANCH  16  17
HETATM   17  C   UNL     1     -42.384 -47.078  10.170  1.00  0.00     0.173 C 
BRANCH  17  18
HETATM   18  C   UNL     1     -43.766 -47.400   9.704  1.00  0.00     0.009 A 
HETATM   19  C   UNL     1     -44.066 -47.661   8.252  1.00  0.00     0.007 A 
HETATM   20  C   UNL     1     -44.543 -46.390   8.896  1.00  0.00     0.007 A 
ENDBRANCH  17  18
ENDBRANCH  16  17
ENDBRANCH  14  16
ENDBRANCH   1  14
TORSDOF 6
ENDMDL
MODEL 6
REMARK VINA RESULT:      -5.0      5.403      6.995
REMARK  6 active torsions:
REMARK  status: ('A' for Active; 'I' for Inactive)
REMARK    1  A    between atoms: C_2  and  O_3 
REMARK    2  A    between atoms: C_2  and  C_8 
REMARK    3  A    between atoms: O_3  and  C_4 
REMARK    4  A    between atoms: C_4  and  C_5 
REMARK       I    between atoms: C_8  and  N_10 
REMARK    5  A    between atoms: N_10  and  C_11 
REMARK    6  A    between atoms: C_17  and  O_18 
ROOT
HETATM    1  C   UNL     1     -40.729 -46.388  11.615  1.00  0.00     0.252 C 
HETATM    2  O   UNL     1     -41.392 -46.526  12.639  1.00  0.00    -0.270 OA
HETATM    3  N   UNL     1     -39.797 -47.300  11.139  1.00  0.00    -0.309 N 
HETATM    4  H   UNL     1     -39.769 -47.454  10.143  1.00  0.00     0.170 HD
ENDROOT
BRANCH   3   5
HETATM    5  C   UNL     1     -39.412 -48.424  11.875  1.00  0.00     0.141 A 
HETATM    6  N   UNL     1     -38.817 -48.137  13.054  1.00  0.00    -0.350 N 
HETATM    7  C   UNL     1     -38.353 -49.185  13.767  1.00  0.00     0.090 A 
ATOM      8  HN  UNL     1     -38.723 -47.177  13.388  1.00  0.00     0.166 HD
HETATM    9  C   UNL     1     -38.502 -50.511  13.388  1.00  0.00     0.020 A 
HETATM   10  C   UNL     1     -39.187 -50.789  12.211  1.00  0.00     0.041 A 
HETATM   11  C   UNL     1     -39.658 -49.730  11.442  1.00  0.00     0.110 A 
BRANCH  11  12
HETATM   12  O   UNL     1     -40.437 -49.984  10.348  1.00  0.00    -0.357 OA
HETATM   13  H   UNL     1     -39.905 -50.452   9.685  1.00  0.00     0.218 HD
ENDBRANCH  11  12
ENDBRANCH   3   5
BRANCH   1  14
HETATM   14  C   UNL     1     -40.854 -45.146  10.707  1.00  0.00     0.209 C 
HETATM   15  C   UNL     1     -39.503 -44.867  10.058  1.00  0.00     0.050 C 
BRANCH  14  16
HETATM   16  O   UNL     1     -41.814 -45.317   9.663  1.00  0.00    -0.376 OA
BRANCH  16  17
HETATM   17  C   UNL     1     -42.598 -46.497   9.821  1.00  0.00     0.173 C 
BRANCH  17  18
HETATM   18  C   UNL     1     -43.564 -46.593   8.686  1.00  0.00     0.009 A 
HETATM   19  C   UNL     1     -44.723 -47.554   8.718  1.00  0.00     0.007 A 
HETATM   20  C   UNL     1     -43.564 -47.812   7.797  1.00  0.00     0.007 A 
ENDBRANCH  17  18
ENDBRANCH  16  17
ENDBRANCH  14  16
ENDBRANCH   1  14
TORSDOF 6
ENDMDL
MODEL 7
REMARK VINA RESULT:      -4.8      4.655      6.509
REMARK  6 active torsions:
REMARK  status: ('A' for Active; 'I' for Inactive)
REMARK    1  A    between atoms: C_2  and  O_3 
REMARK    2  A    between atoms: C_2  and  C_8 
REMARK    3  A    between atoms: O_3  and  C_4 
REMARK    4  A    between atoms: C_4  and  C_5 
REMARK       I    between atoms: C_8  and  N_10 
REMARK    5  A    between atoms: N_10  and  C_11 
REMARK    6  A    between atoms: C_17  and  O_18 
ROOT
HETATM    1  C   UNL     1     -41.889 -48.682  11.707  1.00  0.00     0.252 C 
HETATM    2  O   UNL     1     -42.611 -48.295  12.620  1.00  0.00    -0.270 OA
HETATM    3  N   UNL     1     -42.015 -48.304  10.376  1.00  0.00    -0.309 N 
HETATM    4  H   UNL     1     -41.164 -48.132   9.862  1.00  0.00     0.170 HD
ENDROOT
BRANCH   3   5
HETATM    5  C   UNL     1     -43.092 -47.541   9.917  1.00  0.00     0.141 A 
HETATM    6  N   UNL     1     -44.299 -48.121  10.100  1.00  0.00    -0.350 N 
HETATM    7  C   UNL     1     -45.367 -47.462   9.602  1.00  0.00     0.090 A 
ATOM      8  HN  UNL     1     -44.398 -49.011  10.590  1.00  0.00     0.166 HD
HETATM    9  C   UNL     1     -45.296 -46.225   8.977  1.00  0.00     0.020 A 
HETATM   10  C   UNL     1     -44.054 -45.609   8.869  1.00  0.00     0.041 A 
HETATM   11  C   UNL     1     -42.931 -46.272   9.353  1.00  0.00     0.110 A 
BRANCH  11  12
HETATM   12  O   UNL     1     -41.723 -45.633   9.367  1.00  0.00    -0.357 OA
HETATM   13  H   UNL     1     -41.460 -45.440   8.453  1.00  0.00     0.218 HD
ENDBRANCH  11  12
ENDBRANCH   3   5
BRANCH   1  14
HETATM   14  C   UNL     1     -40.719 -49.663  11.931  1.00  0.00     0.209 C 
HETATM   15  C   UNL     1     -40.434 -49.763  13.426  1.00  0.00     0.050 C 
BRANCH  14  16
HETATM   16  O   UNL     1     -41.000 -50.979  11.451  1.00  0.00    -0.376 OA
BRANCH  16  17
HETATM   17  C   UNL     1     -41.232 -51.913  12.503  1.00  0.00     0.173 C 
BRANCH  17  18
HETATM   18  C   UNL     1     -42.606 -52.479  12.354  1.00  0.00     0.009 A 
HETATM   19  C   UNL     1     -43.771 -51.932  13.137  1.00  0.00     0.007 A 
HETATM   20  C   UNL     1     -43.214 -53.287  13.475  1.00  0.00     0.007 A 
ENDBRANCH  17  18
ENDBRANCH  16  17
ENDBRANCH  14  16
ENDBRANCH   1  14
TORSDOF 6
ENDMDL
MODEL 8
REMARK VINA RESULT:      -4.8      5.381      6.918
REMARK  6 active torsions:
REMARK  status: ('A' for Active; 'I' for Inactive)
REMARK    1  A    between atoms: C_2  and  O_3 
REMARK    2  A    between atoms: C_2  and  C_8 
REMARK    3  A    between atoms: O_3  and  C_4 
REMARK    4  A    between atoms: C_4  and  C_5 
REMARK       I    between atoms: C_8  and  N_10 
REMARK    5  A    between atoms: N_10  and  C_11 
REMARK    6  A    between atoms: C_17  and  O_18 
ROOT
HETATM    1  C   UNL     1     -40.973 -48.277  11.196  1.00  0.00     0.252 C 
HETATM    2  O   UNL     1     -41.698 -49.217  11.506  1.00  0.00    -0.270 OA
HETATM    3  N   UNL     1     -39.600 -48.226  11.399  1.00  0.00    -0.309 N 
HETATM    4  H   UNL     1     -39.040 -47.818  10.666  1.00  0.00     0.170 HD
ENDROOT
BRANCH   3   5
HETATM    5  C   UNL     1     -38.919 -49.208  12.124  1.00  0.00     0.141 A 
HETATM    6  N   UNL     1     -39.355 -49.361  13.393  1.00  0.00    -0.350 N 
HETATM    7  C   UNL     1     -38.677 -50.240  14.162  1.00  0.00     0.090 A 
ATOM      8  HN  UNL     1     -40.155 -48.840  13.753  1.00  0.00     0.166 HD
HETATM    9  C   UNL     1     -37.618 -51.014  13.710  1.00  0.00     0.020 A 
HETATM   10  C   UNL     1     -37.235 -50.899  12.379  1.00  0.00     0.041 A 
HETATM   11  C   UNL     1     -37.899 -49.986  11.566  1.00  0.00     0.110 A 
BRANCH  11  12
HETATM   12  O   UNL     1     -37.622 -49.945  10.229  1.00  0.00    -0.357 OA
HETATM   13  H   UNL     1     -36.696 -49.680  10.109  1.00  0.00     0.218 HD
ENDBRANCH  11  12
ENDBRANCH   3   5
BRANCH   1  14
HETATM   14  C   UNL     1     -41.515 -46.997  10.524  1.00  0.00     0.209 C 
HETATM   15  C   UNL     1     -42.638 -46.424  11.381  1.00  0.00     0.050 C 
BRANCH  14  16
HETATM   16  O   UNL     1     -40.519 -45.985  10.374  1.00  0.00    -0.376 OA
BRANCH  16  17
HETATM   17  C   UNL     1     -40.797 -44.818  11.144  1.00  0.00     0.173 C 
BRANCH  17  18
HETATM   18  C   UNL     1     -39.552 -44.401  11.857  1.00  0.00     0.009 A 
HETATM   19  C   UNL     1     -39.186 -44.974  13.200  1.00  0.00     0.007 A 
HETATM   20  C   UNL     1     -39.645 -43.547  13.098  1.00  0.00     0.007 A 
ENDBRANCH  17  18
ENDBRANCH  16  17
ENDBRANCH  14  16
ENDBRANCH   1  14
TORSDOF 6
ENDMDL
MODEL 9
REMARK VINA RESULT:      -4.7      2.170      3.268
REMARK  6 active torsions:
REMARK  status: ('A' for Active; 'I' for Inactive)
REMARK    1  A    between atoms: C_2  and  O_3 
REMARK    2  A    between atoms: C_2  and  C_8 
REMARK    3  A    between atoms: O_3  and  C_4 
REMARK    4  A    between atoms: C_4  and  C_5 
REMARK       I    between atoms: C_8  and  N_10 
REMARK    5  A    between atoms: N_10  and  C_11 
REMARK    6  A    between atoms: C_17  and  O_18 
ROOT
HETATM    1  C   UNL     1     -40.268 -53.715  13.917  1.00  0.00     0.252 C 
HETATM    2  O   UNL     1     -39.276 -54.312  13.508  1.00  0.00    -0.270 OA
HETATM    3  N   UNL     1     -40.542 -52.372  13.690  1.00  0.00    -0.309 N 
HETATM    4  H   UNL     1     -41.499 -52.124  13.493  1.00  0.00     0.170 HD
ENDROOT
BRANCH   3   5
HETATM    5  C   UNL     1     -39.620 -51.518  13.080  1.00  0.00     0.141 A 
HETATM    6  N   UNL     1     -38.363 -51.622  13.566  1.00  0.00    -0.350 N 
HETATM    7  C   UNL     1     -37.451 -50.761  13.067  1.00  0.00     0.090 A 
ATOM      8  HN  UNL     1     -38.117 -52.315  14.273  1.00  0.00     0.166 HD
HETATM    9  C   UNL     1     -37.717 -49.837  12.067  1.00  0.00     0.020 A 
HETATM   10  C   UNL     1     -38.997 -49.799  11.525  1.00  0.00     0.041 A 
HETATM   11  C   UNL     1     -39.966 -50.658  12.033  1.00  0.00     0.110 A 
BRANCH  11  12
HETATM   12  O   UNL     1     -41.193 -50.723  11.434  1.00  0.00    -0.357 OA
HETATM   13  H   UNL     1     -41.534 -51.627  11.515  1.00  0.00     0.218 HD
ENDBRANCH  11  12
ENDBRANCH   3   5
BRANCH   1  14
HETATM   14  C   UNL     1     -41.363 -54.404  14.759  1.00  0.00     0.209 C 
HETATM   15  C   UNL     1     -40.726 -55.003  16.008  1.00  0.00     0.050 C 
BRANCH  14  16
HETATM   16  O   UNL     1     -42.388 -53.504  15.179  1.00  0.00    -0.376 OA
BRANCH  16  17
HETATM   17  C   UNL     1     -43.620 -54.163  15.464  1.00  0.00     0.173 C 
BRANCH  17  18
HETATM   18  C   UNL     1     -44.056 -54.921  14.253  1.00  0.00     0.009 A 
HETATM   19  C   UNL     1     -44.600 -54.217  13.038  1.00  0.00     0.007 A 
HETATM   20  C   UNL     1     -45.522 -55.019  13.913  1.00  0.00     0.007 A 
ENDBRANCH  17  18
ENDBRANCH  16  17
ENDBRANCH  14  16
ENDBRANCH   1  14
TORSDOF 6
ENDMDL
