MODEL 1
REMARK VINA RESULT:      -7.1      0.000      0.000
REMARK  7 active torsions:
REMARK  status: ('A' for Active; 'I' for Inactive)
REMARK    1  A    between atoms: N_2  and  C_13 
REMARK    2  A    between atoms: C_3  and  N_7 
REMARK    3  A    between atoms: N_7  and  C_16 
REMARK    4  A    between atoms: N_7  and  C_17 
REMARK    5  A    between atoms: C_13  and  C_15 
REMARK    6  A    between atoms: C_15  and  O_23 
REMARK    7  A    between atoms: C_16  and  C_20 
ROOT
HETATM    1  C   UNL     1     -42.047 -49.118  12.957  1.00  0.00     0.117 A 
HETATM    2  N   UNL     1     -41.184 -47.108  12.790  1.00  0.00    -0.324 N 
HETATM    3  C   UNL     1     -42.110 -50.504  12.655  1.00  0.00     0.115 A 
HETATM    4  C   UNL     1     -41.096 -48.368  12.272  1.00  0.00     0.140 A 
HETATM    5  N   UNL     1     -42.730 -48.301  13.841  1.00  0.00    -0.346 N 
ATOM      6  HN  UNL     1     -43.471 -48.575  14.486  1.00  0.00     0.167 HD
HETATM    7  C   UNL     1     -42.224 -47.096  13.676  1.00  0.00     0.185 A 
HETATM    8  N   UNL     1     -41.234 -50.949  11.689  1.00  0.00    -0.341 N 
ATOM      9  HN  UNL     1     -41.227 -51.935  11.427  1.00  0.00     0.167 HD
HETATM   10  N   UNL     1     -40.233 -48.782  11.332  1.00  0.00    -0.336 N 
ATOM     11  HN  UNL     1     -39.553 -48.182  10.864  1.00  0.00     0.168 HD
HETATM   12  C   UNL     1     -40.387 -50.091  11.089  1.00  0.00     0.183 A 
ENDROOT
BRANCH   3  13
HETATM   13  N   UNL     1     -42.967 -51.439  13.279  1.00  0.00    -0.260 NA
BRANCH  13  14
HETATM   14  C   UNL     1     -42.962 -52.723  12.530  1.00  0.00     0.129 C 
BRANCH  14  15
HETATM   15  C   UNL     1     -42.624 -53.979  13.362  1.00  0.00     0.135 C 
HETATM   16  O   UNL     1     -43.501 -54.213  14.477  1.00  0.00    -0.385 OA
HETATM   17  C   UNL     1     -42.797 -55.138  15.316  1.00  0.00     0.168 C 
HETATM   18  C   UNL     1     -41.366 -54.655  15.298  1.00  0.00     0.029 C 
HETATM   19  C   UNL     1     -41.199 -54.086  13.898  1.00  0.00     0.035 C 
ENDBRANCH  14  15
ENDBRANCH  13  14
BRANCH  13  20
HETATM   20  C   UNL     1     -44.327 -50.912  13.575  1.00  0.00     0.065 C 
HETATM   21  C   UNL     1     -44.755 -50.859  15.059  1.00  0.00     0.020 C 
HETATM   22  C   UNL     1     -46.180 -51.399  15.117  1.00  0.00     0.002 C 
HETATM   23  C   UNL     1     -46.685 -51.387  13.683  1.00  0.00     0.002 C 
HETATM   24  C   UNL     1     -45.445 -51.664  12.848  1.00  0.00     0.020 C 
ENDBRANCH  13  20
ENDBRANCH   3  13
BRANCH   2  25
HETATM   25  C   UNL     1     -40.322 -45.992  12.453  1.00  0.00     0.169 C 
BRANCH  25  26
HETATM   26  C   UNL     1     -40.493 -45.466  11.003  1.00  0.00     0.078 C 
HETATM   27  C   UNL     1     -39.965 -44.021  10.918  1.00  0.00     0.066 C 
HETATM   28  C   UNL     1     -40.968 -43.012  11.454  1.00  0.00     0.170 C 
HETATM   29  O   UNL     1     -42.196 -43.121  10.743  1.00  0.00    -0.391 OA
HETATM   30  C   UNL     1     -42.819 -44.388  10.934  1.00  0.00     0.170 C 
HETATM   31  C   UNL     1     -41.925 -45.519  10.438  1.00  0.00     0.066 C 
BRANCH  26  32
HETATM   32  O   UNL     1     -39.638 -46.258  10.156  1.00  0.00    -0.388 OA
HETATM   33  H   UNL     1     -38.716 -45.971  10.294  1.00  0.00     0.210 HD
ENDBRANCH  26  32
ENDBRANCH  25  26
ENDBRANCH   2  25
TORSDOF 7
ENDMDL
MODEL 2
REMARK VINA RESULT:      -6.9      2.289      7.197
REMARK  7 active torsions:
REMARK  status: ('A' for Active; 'I' for Inactive)
REMARK    1  A    between atoms: N_2  and  C_13 
REMARK    2  A    between atoms: C_3  and  N_7 
REMARK    3  A    between atoms: N_7  and  C_16 
REMARK    4  A    between atoms: N_7  and  C_17 
REMARK    5  A    between atoms: C_13  and  C_15 
REMARK    6  A    between atoms: C_15  and  O_23 
REMARK    7  A    between atoms: C_16  and  C_20 
ROOT
HETATM    1  C   UNL     1     -41.675 -50.335  12.298  1.00  0.00     0.117 A 
HETATM    2  N   UNL     1     -42.592 -52.175  13.062  1.00  0.00    -0.324 N 
HETATM    3  C   UNL     1     -41.435 -48.936  12.305  1.00  0.00     0.115 A 
HETATM    4  C   UNL     1     -42.602 -50.819  13.215  1.00  0.00     0.140 A 
HETATM    5  N   UNL     1     -41.151 -51.390  11.570  1.00  0.00    -0.346 N 
ATOM      6  HN  UNL     1     -40.441 -51.342  10.840  1.00  0.00     0.167 HD
HETATM    7  C   UNL     1     -41.761 -52.468  12.017  1.00  0.00     0.185 A 
HETATM    8  N   UNL     1     -42.175 -48.204  13.208  1.00  0.00    -0.341 N 
ATOM      9  HN  UNL     1     -42.050 -47.193  13.264  1.00  0.00     0.167 HD
HETATM   10  N   UNL     1     -43.331 -50.125  14.103  1.00  0.00    -0.336 N 
ATOM     11  HN  UNL     1     -43.997 -50.538  14.755  1.00  0.00     0.168 HD
HETATM   12  C   UNL     1     -43.064 -48.814  14.015  1.00  0.00     0.183 A 
ENDROOT
BRANCH   3  13
HETATM   13  N   UNL     1     -40.495 -48.262  11.492  1.00  0.00    -0.260 NA
BRANCH  13  14
HETATM   14  C   UNL     1     -39.345 -47.797  12.310  1.00  0.00     0.129 C 
BRANCH  14  15
HETATM   15  C   UNL     1     -38.217 -48.831  12.522  1.00  0.00     0.135 C 
HETATM   16  O   UNL     1     -38.190 -49.895  11.554  1.00  0.00    -0.385 OA
HETATM   17  C   UNL     1     -37.375 -50.915  12.147  1.00  0.00     0.168 C 
HETATM   18  C   UNL     1     -37.793 -50.940  13.598  1.00  0.00     0.029 C 
HETATM   19  C   UNL     1     -38.137 -49.489  13.896  1.00  0.00     0.035 C 
ENDBRANCH  14  15
ENDBRANCH  13  14
BRANCH  13  20
HETATM   20  C   UNL     1     -41.089 -47.210  10.623  1.00  0.00     0.065 C 
HETATM   21  C   UNL     1     -41.152 -45.775  11.195  1.00  0.00     0.020 C 
HETATM   22  C   UNL     1     -42.542 -45.241  10.869  1.00  0.00     0.002 C 
HETATM   23  C   UNL     1     -43.108 -46.178   9.814  1.00  0.00     0.002 C 
HETATM   24  C   UNL     1     -42.511 -47.533  10.158  1.00  0.00     0.020 C 
ENDBRANCH  13  20
ENDBRANCH   3  13
BRANCH   2  25
HETATM   25  C   UNL     1     -43.333 -53.124  13.870  1.00  0.00     0.169 C 
BRANCH  25  26
HETATM   26  C   UNL     1     -44.575 -53.732  13.165  1.00  0.00     0.078 C 
HETATM   27  C   UNL     1     -45.552 -52.602  12.787  1.00  0.00     0.066 C 
HETATM   28  C   UNL     1     -46.387 -52.146  13.973  1.00  0.00     0.170 C 
HETATM   29  O   UNL     1     -47.108 -53.248  14.514  1.00  0.00    -0.391 OA
HETATM   30  C   UNL     1     -46.244 -54.250  15.042  1.00  0.00     0.170 C 
HETATM   31  C   UNL     1     -45.331 -54.814  13.960  1.00  0.00     0.066 C 
BRANCH  26  32
HETATM   32  O   UNL     1     -44.125 -54.307  11.923  1.00  0.00    -0.388 OA
HETATM   33  H   UNL     1     -44.772 -54.981  11.644  1.00  0.00     0.210 HD
ENDBRANCH  26  32
ENDBRANCH  25  26
ENDBRANCH   2  25
TORSDOF 7
ENDMDL
MODEL 3
REMARK VINA RESULT:      -6.9      2.068      7.587
REMARK  7 active torsions:
REMARK  status: ('A' for Active; 'I' for Inactive)
REMARK    1  A    between atoms: N_2  and  C_13 
REMARK    2  A    between atoms: C_3  and  N_7 
REMARK    3  A    between atoms: N_7  and  C_16 
REMARK    4  A    between atoms: N_7  and  C_17 
REMARK    5  A    between atoms: C_13  and  C_15 
REMARK    6  A    between atoms: C_15  and  O_23 
REMARK    7  A    between atoms: C_16  and  C_20 
ROOT
HETATM    1  C   UNL     1     -42.081 -49.112  12.801  1.00  0.00     0.117 A 
HETATM    2  N   UNL     1     -42.916 -50.902  13.754  1.00  0.00    -0.324 N 
HETATM    3  C   UNL     1     -41.244 -48.439  11.873  1.00  0.00     0.115 A 
HETATM    4  C   UNL     1     -41.967 -50.497  12.861  1.00  0.00     0.140 A 
HETATM    5  N   UNL     1     -43.058 -48.690  13.686  1.00  0.00    -0.346 N 
ATOM      6  HN  UNL     1     -43.371 -47.733  13.847  1.00  0.00     0.167 HD
HETATM    7  C   UNL     1     -43.498 -49.781  14.278  1.00  0.00     0.185 A 
HETATM    8  N   UNL     1     -40.383 -49.237  11.151  1.00  0.00    -0.341 N 
ATOM      9  HN  UNL     1     -39.756 -48.815  10.466  1.00  0.00     0.167 HD
HETATM   10  N   UNL     1     -41.139 -51.292  12.167  1.00  0.00    -0.336 N 
ATOM     11  HN  UNL     1     -41.102 -52.308  12.254  1.00  0.00     0.168 HD
HETATM   12  C   UNL     1     -40.366 -50.570  11.344  1.00  0.00     0.183 A 
ENDROOT
BRANCH   3  13
HETATM   13  N   UNL     1     -41.249 -47.047  11.625  1.00  0.00    -0.260 NA
BRANCH  13  14
HETATM   14  C   UNL     1     -41.668 -46.775  10.225  1.00  0.00     0.129 C 
BRANCH  14  15
HETATM   15  C   UNL     1     -42.907 -47.555   9.736  1.00  0.00     0.135 C 
HETATM   16  O   UNL     1     -43.124 -47.508   8.316  1.00  0.00    -0.385 OA
HETATM   17  C   UNL     1     -44.485 -47.921   8.134  1.00  0.00     0.168 C 
HETATM   18  C   UNL     1     -45.241 -47.239   9.249  1.00  0.00     0.029 C 
HETATM   19  C   UNL     1     -44.240 -47.208  10.393  1.00  0.00     0.035 C 
ENDBRANCH  14  15
ENDBRANCH  13  14
BRANCH  13  20
HETATM   20  C   UNL     1     -39.997 -46.353  12.032  1.00  0.00     0.065 C 
HETATM   21  C   UNL     1     -39.513 -46.566  13.484  1.00  0.00     0.020 C 
HETATM   22  C   UNL     1     -39.111 -45.194  14.012  1.00  0.00     0.002 C 
HETATM   23  C   UNL     1     -38.995 -44.299  12.788  1.00  0.00     0.002 C 
HETATM   24  C   UNL     1     -40.046 -44.837  11.830  1.00  0.00     0.020 C 
ENDBRANCH  13  20
ENDBRANCH   3  13
BRANCH   2  25
HETATM   25  C   UNL     1     -43.240 -52.277  14.081  1.00  0.00     0.169 C 
BRANCH  25  26
HETATM   26  C   UNL     1     -44.291 -52.927  13.141  1.00  0.00     0.078 C 
HETATM   27  C   UNL     1     -45.493 -51.976  12.985  1.00  0.00     0.066 C 
HETATM   28  C   UNL     1     -46.439 -52.048  14.173  1.00  0.00     0.170 C 
HETATM   29  O   UNL     1     -46.898 -53.383  14.351  1.00  0.00    -0.391 OA
HETATM   30  C   UNL     1     -45.839 -54.279  14.675  1.00  0.00     0.170 C 
HETATM   31  C   UNL     1     -44.795 -54.320  13.566  1.00  0.00     0.066 C 
BRANCH  26  32
HETATM   32  O   UNL     1     -43.692 -53.035  11.836  1.00  0.00    -0.388 OA
HETATM   33  H   UNL     1     -44.185 -52.460  11.222  1.00  0.00     0.210 HD
ENDBRANCH  26  32
ENDBRANCH  25  26
ENDBRANCH   2  25
TORSDOF 7
ENDMDL
MODEL 4
REMARK VINA RESULT:      -6.8      1.643      2.394
REMARK  7 active torsions:
REMARK  status: ('A' for Active; 'I' for Inactive)
REMARK    1  A    between atoms: N_2  and  C_13 
REMARK    2  A    between atoms: C_3  and  N_7 
REMARK    3  A    between atoms: N_7  and  C_16 
REMARK    4  A    between atoms: N_7  and  C_17 
REMARK    5  A    between atoms: C_13  and  C_15 
REMARK    6  A    between atoms: C_15  and  O_23 
REMARK    7  A    between atoms: C_16  and  C_20 
ROOT
HETATM    1  C   UNL     1     -42.378 -51.058  13.612  1.00  0.00     0.117 A 
HETATM    2  N   UNL     1     -41.363 -49.231  12.946  1.00  0.00    -0.324 N 
HETATM    3  C   UNL     1     -42.663 -52.448  13.554  1.00  0.00     0.115 A 
HETATM    4  C   UNL     1     -41.540 -50.547  12.627  1.00  0.00     0.140 A 
HETATM    5  N   UNL     1     -42.738 -50.046  14.484  1.00  0.00    -0.346 N 
ATOM      6  HN  UNL     1     -43.331 -50.126  15.311  1.00  0.00     0.167 HD
HETATM    7  C   UNL     1     -42.156 -48.957  14.025  1.00  0.00     0.185 A 
HETATM    8  N   UNL     1     -42.095 -53.134  12.503  1.00  0.00    -0.341 N 
ATOM      9  HN  UNL     1     -42.259 -54.136  12.404  1.00  0.00     0.167 HD
HETATM   10  N   UNL     1     -40.975 -51.197  11.598  1.00  0.00    -0.336 N 
ATOM     11  HN  UNL     1     -40.363 -50.765  10.905  1.00  0.00     0.168 HD
HETATM   12  C   UNL     1     -41.325 -52.491  11.605  1.00  0.00     0.183 A 
ENDROOT
BRANCH   3  13
HETATM   13  N   UNL     1     -43.445 -53.163  14.489  1.00  0.00    -0.260 NA
BRANCH  13  14
HETATM   14  C   UNL     1     -42.970 -54.568  14.591  1.00  0.00     0.129 C 
BRANCH  14  15
HETATM   15  C   UNL     1     -41.952 -54.847  15.719  1.00  0.00     0.135 C 
HETATM   16  O   UNL     1     -40.578 -54.863  15.296  1.00  0.00    -0.385 OA
HETATM   17  C   UNL     1     -39.871 -55.520  16.357  1.00  0.00     0.168 C 
HETATM   18  C   UNL     1     -40.771 -56.663  16.763  1.00  0.00     0.029 C 
HETATM   19  C   UNL     1     -42.171 -56.112  16.545  1.00  0.00     0.035 C 
ENDBRANCH  14  15
ENDBRANCH  13  14
BRANCH  13  20
HETATM   20  C   UNL     1     -44.913 -53.030  14.281  1.00  0.00     0.065 C 
HETATM   21  C   UNL     1     -45.394 -52.685  12.853  1.00  0.00     0.020 C 
HETATM   22  C   UNL     1     -46.456 -51.601  13.006  1.00  0.00     0.002 C 
HETATM   23  C   UNL     1     -46.848 -51.611  14.475  1.00  0.00     0.002 C 
HETATM   24  C   UNL     1     -45.569 -51.998  15.200  1.00  0.00     0.020 C 
ENDBRANCH  13  20
ENDBRANCH   3  13
BRANCH   2  25
HETATM   25  C   UNL     1     -40.488 -48.302  12.258  1.00  0.00     0.169 C 
BRANCH  25  26
HETATM   26  C   UNL     1     -41.175 -47.500  11.121  1.00  0.00     0.078 C 
HETATM   27  C   UNL     1     -40.234 -46.374  10.650  1.00  0.00     0.066 C 
HETATM   28  C   UNL     1     -40.265 -45.174  11.582  1.00  0.00     0.170 C 
HETATM   29  O   UNL     1     -41.594 -44.678  11.694  1.00  0.00    -0.391 OA
HETATM   30  C   UNL     1     -42.474 -45.625  12.292  1.00  0.00     0.170 C 
HETATM   31  C   UNL     1     -42.553 -46.901  11.464  1.00  0.00     0.066 C 
BRANCH  26  32
HETATM   32  O   UNL     1     -41.330 -48.391   9.999  1.00  0.00    -0.388 OA
HETATM   33  H   UNL     1     -40.786 -49.184  10.159  1.00  0.00     0.210 HD
ENDBRANCH  26  32
ENDBRANCH  25  26
ENDBRANCH   2  25
TORSDOF 7
ENDMDL
MODEL 5
REMARK VINA RESULT:      -6.7      2.560      7.733
REMARK  7 active torsions:
REMARK  status: ('A' for Active; 'I' for Inactive)
REMARK    1  A    between atoms: N_2  and  C_13 
REMARK    2  A    between atoms: C_3  and  N_7 
REMARK    3  A    between atoms: N_7  and  C_16 
REMARK    4  A    between atoms: N_7  and  C_17 
REMARK    5  A    between atoms: C_13  and  C_15 
REMARK    6  A    between atoms: C_15  and  O_23 
REMARK    7  A    between atoms: C_16  and  C_20 
ROOT
HETATM    1  C   UNL     1     -41.870 -50.449  13.264  1.00  0.00     0.117 A 
HETATM    2  N   UNL     1     -43.798 -51.489  13.377  1.00  0.00    -0.324 N 
HETATM    3  C   UNL     1     -40.576 -50.224  12.724  1.00  0.00     0.115 A 
HETATM    4  C   UNL     1     -42.578 -51.538  12.765  1.00  0.00     0.140 A 
HETATM    5  N   UNL     1     -42.642 -49.785  14.200  1.00  0.00    -0.346 N 
ATOM      6  HN  UNL     1     -42.392 -48.943  14.720  1.00  0.00     0.167 HD
HETATM    7  C   UNL     1     -43.767 -50.465  14.282  1.00  0.00     0.185 A 
HETATM    8  N   UNL     1     -40.153 -51.134  11.779  1.00  0.00    -0.341 N 
ATOM      9  HN  UNL     1     -39.233 -51.028  11.351  1.00  0.00     0.167 HD
HETATM   10  N   UNL     1     -42.186 -52.433  11.846  1.00  0.00    -0.336 N 
ATOM     11  HN  UNL     1     -42.755 -53.214  11.518  1.00  0.00     0.168 HD
HETATM   12  C   UNL     1     -40.945 -52.162  11.419  1.00  0.00     0.183 A 
ENDROOT
BRANCH   3  13
HETATM   13  N   UNL     1     -39.726 -49.146  13.058  1.00  0.00    -0.260 NA
BRANCH  13  14
HETATM   14  C   UNL     1     -39.563 -48.238  11.893  1.00  0.00     0.129 C 
BRANCH  14  15
HETATM   15  C   UNL     1     -40.784 -47.352  11.562  1.00  0.00     0.135 C 
HETATM   16  O   UNL     1     -41.624 -47.044  12.688  1.00  0.00    -0.385 OA
HETATM   17  C   UNL     1     -42.858 -46.589  12.118  1.00  0.00     0.168 C 
HETATM   18  C   UNL     1     -43.105 -47.521  10.955  1.00  0.00     0.029 C 
HETATM   19  C   UNL     1     -41.707 -47.841  10.450  1.00  0.00     0.035 C 
ENDBRANCH  14  15
ENDBRANCH  13  14
BRANCH  13  20
HETATM   20  C   UNL     1     -38.445 -49.558  13.693  1.00  0.00     0.065 C 
HETATM   21  C   UNL     1     -38.520 -50.630  14.804  1.00  0.00     0.020 C 
HETATM   22  C   UNL     1     -37.621 -50.145  15.935  1.00  0.00     0.002 C 
HETATM   23  C   UNL     1     -36.761 -49.044  15.335  1.00  0.00     0.002 C 
HETATM   24  C   UNL     1     -37.659 -48.391  14.297  1.00  0.00     0.020 C 
ENDBRANCH  13  20
ENDBRANCH   3  13
BRANCH   2  25
HETATM   25  C   UNL     1     -44.917 -52.371  13.106  1.00  0.00     0.169 C 
BRANCH  25  26
HETATM   26  C   UNL     1     -44.661 -53.859  13.464  1.00  0.00     0.078 C 
HETATM   27  C   UNL     1     -45.989 -54.520  13.880  1.00  0.00     0.066 C 
HETATM   28  C   UNL     1     -46.368 -54.190  15.315  1.00  0.00     0.170 C 
HETATM   29  O   UNL     1     -45.328 -54.594  16.199  1.00  0.00    -0.391 OA
HETATM   30  C   UNL     1     -44.117 -53.878  15.970  1.00  0.00     0.170 C 
HETATM   31  C   UNL     1     -43.602 -54.110  14.555  1.00  0.00     0.066 C 
BRANCH  26  32
HETATM   32  O   UNL     1     -44.241 -54.524  12.257  1.00  0.00    -0.388 OA
HETATM   33  H   UNL     1     -44.921 -54.380  11.573  1.00  0.00     0.210 HD
ENDBRANCH  26  32
ENDBRANCH  25  26
ENDBRANCH   2  25
TORSDOF 7
ENDMDL
MODEL 6
REMARK VINA RESULT:      -6.5      1.604      3.789
REMARK  7 active torsions:
REMARK  status: ('A' for Active; 'I' for Inactive)
REMARK    1  A    between atoms: N_2  and  C_13 
REMARK    2  A    between atoms: C_3  and  N_7 
REMARK    3  A    between atoms: N_7  and  C_16 
REMARK    4  A    between atoms: N_7  and  C_17 
REMARK    5  A    between atoms: C_13  and  C_15 
REMARK    6  A    between atoms: C_15  and  O_23 
REMARK    7  A    between atoms: C_16  and  C_20 
ROOT
HETATM    1  C   UNL     1     -41.894 -49.293  12.475  1.00  0.00     0.117 A 
HETATM    2  N   UNL     1     -41.701 -47.268  11.654  1.00  0.00    -0.324 N 
HETATM    3  C   UNL     1     -42.111 -50.224  13.525  1.00  0.00     0.115 A 
HETATM    4  C   UNL     1     -41.835 -47.949  12.829  1.00  0.00     0.140 A 
HETATM    5  N   UNL     1     -41.748 -49.416  11.104  1.00  0.00    -0.346 N 
ATOM      6  HN  UNL     1     -41.765 -50.277  10.558  1.00  0.00     0.167 HD
HETATM    7  C   UNL     1     -41.581 -48.190  10.652  1.00  0.00     0.185 A 
HETATM    8  N   UNL     1     -42.211 -49.689  14.791  1.00  0.00    -0.341 N 
ATOM      9  HN  UNL     1     -42.368 -50.304  15.589  1.00  0.00     0.167 HD
HETATM   10  N   UNL     1     -41.932 -47.408  14.053  1.00  0.00    -0.336 N 
ATOM     11  HN  UNL     1     -41.883 -46.408  14.251  1.00  0.00     0.168 HD
HETATM   12  C   UNL     1     -42.101 -48.361  14.981  1.00  0.00     0.183 A 
ENDROOT
BRANCH   3  13
HETATM   13  N   UNL     1     -42.255 -51.621  13.363  1.00  0.00    -0.260 NA
BRANCH  13  14
HETATM   14  C   UNL     1     -43.075 -52.185  14.467  1.00  0.00     0.129 C 
BRANCH  14  15
HETATM   15  C   UNL     1     -44.539 -52.516  14.107  1.00  0.00     0.135 C 
HETATM   16  O   UNL     1     -44.816 -52.557  12.696  1.00  0.00    -0.385 OA
HETATM   17  C   UNL     1     -46.243 -52.469  12.595  1.00  0.00     0.168 C 
HETATM   18  C   UNL     1     -46.635 -51.438  13.627  1.00  0.00     0.029 C 
HETATM   19  C   UNL     1     -45.617 -51.640  14.738  1.00  0.00     0.035 C 
ENDBRANCH  14  15
ENDBRANCH  13  14
BRANCH  13  20
HETATM   20  C   UNL     1     -40.973 -52.339  13.126  1.00  0.00     0.065 C 
HETATM   21  C   UNL     1     -41.036 -53.880  13.027  1.00  0.00     0.020 C 
HETATM   22  C   UNL     1     -39.878 -54.414  13.863  1.00  0.00     0.002 C 
HETATM   23  C   UNL     1     -38.960 -53.227  14.102  1.00  0.00     0.002 C 
HETATM   24  C   UNL     1     -39.900 -52.035  14.175  1.00  0.00     0.020 C 
ENDBRANCH  13  20
ENDBRANCH   3  13
BRANCH   2  25
HETATM   25  C   UNL     1     -41.690 -45.825  11.507  1.00  0.00     0.169 C 
BRANCH  25  26
HETATM   26  C   UNL     1     -40.283 -45.218  11.265  1.00  0.00     0.078 C 
HETATM   27  C   UNL     1     -39.372 -45.544  12.464  1.00  0.00     0.066 C 
HETATM   28  C   UNL     1     -39.623 -44.617  13.643  1.00  0.00     0.170 C 
HETATM   29  O   UNL     1     -39.435 -43.263  13.247  1.00  0.00    -0.391 OA
HETATM   30  C   UNL     1     -40.376 -42.855  12.258  1.00  0.00     0.170 C 
HETATM   31  C   UNL     1     -40.248 -43.700  10.997  1.00  0.00     0.066 C 
BRANCH  26  32
HETATM   32  O   UNL     1     -39.711 -45.896  10.129  1.00  0.00    -0.388 OA
HETATM   33  H   UNL     1     -40.352 -45.860   9.394  1.00  0.00     0.210 HD
ENDBRANCH  26  32
ENDBRANCH  25  26
ENDBRANCH   2  25
TORSDOF 7
ENDMDL
MODEL 7
REMARK VINA RESULT:      -6.4      2.396      7.559
REMARK  7 active torsions:
REMARK  status: ('A' for Active; 'I' for Inactive)
REMARK    1  A    between atoms: N_2  and  C_13 
REMARK    2  A    between atoms: C_3  and  N_7 
REMARK    3  A    between atoms: N_7  and  C_16 
REMARK    4  A    between atoms: N_7  and  C_17 
REMARK    5  A    between atoms: C_13  and  C_15 
REMARK    6  A    between atoms: C_15  and  O_23 
REMARK    7  A    between atoms: C_16  and  C_20 
ROOT
HETATM    1  C   UNL     1     -41.584 -49.665  11.995  1.00  0.00     0.117 A 
HETATM    2  N   UNL     1     -41.343 -51.768  12.569  1.00  0.00    -0.324 N 
HETATM    3  C   UNL     1     -41.127 -48.433  11.457  1.00  0.00     0.115 A 
HETATM    4  C   UNL     1     -40.648 -50.688  12.108  1.00  0.00     0.140 A 
HETATM    5  N   UNL     1     -42.817 -50.118  12.429  1.00  0.00    -0.346 N 
ATOM      6  HN  UNL     1     -43.694 -49.596  12.447  1.00  0.00     0.167 HD
HETATM    7  C   UNL     1     -42.625 -51.362  12.815  1.00  0.00     0.185 A 
HETATM    8  N   UNL     1     -39.788 -48.379  11.132  1.00  0.00    -0.341 N 
ATOM      9  HN  UNL     1     -39.397 -47.523  10.739  1.00  0.00     0.167 HD
HETATM   10  N   UNL     1     -39.343 -50.657  11.796  1.00  0.00    -0.336 N 
ATOM     11  HN  UNL     1     -38.703 -51.445  11.900  1.00  0.00     0.168 HD
HETATM   12  C   UNL     1     -38.995 -49.449  11.329  1.00  0.00     0.183 A 
ENDROOT
BRANCH   3  13
HETATM   13  N   UNL     1     -41.932 -47.298  11.212  1.00  0.00    -0.260 NA
BRANCH  13  14
HETATM   14  C   UNL     1     -42.597 -46.858  12.467  1.00  0.00     0.129 C 
BRANCH  14  15
HETATM   15  C   UNL     1     -42.173 -45.470  12.994  1.00  0.00     0.135 C 
HETATM   16  O   UNL     1     -42.805 -45.077  14.225  1.00  0.00    -0.385 OA
HETATM   17  C   UNL     1     -42.601 -43.661  14.311  1.00  0.00     0.168 C 
HETATM   18  C   UNL     1     -42.827 -43.157  12.905  1.00  0.00     0.029 C 
HETATM   19  C   UNL     1     -42.321 -44.294  12.032  1.00  0.00     0.035 C 
ENDBRANCH  14  15
ENDBRANCH  13  14
BRANCH  13  20
HETATM   20  C   UNL     1     -42.854 -47.446  10.053  1.00  0.00     0.065 C 
HETATM   21  C   UNL     1     -42.944 -46.260   9.067  1.00  0.00     0.020 C 
HETATM   22  C   UNL     1     -44.426 -46.051   8.778  1.00  0.00     0.002 C 
HETATM   23  C   UNL     1     -45.124 -47.311   9.263  1.00  0.00     0.002 C 
HETATM   24  C   UNL     1     -44.297 -47.760  10.457  1.00  0.00     0.020 C 
ENDBRANCH  13  20
ENDBRANCH   3  13
BRANCH   2  25
HETATM   25  C   UNL     1     -40.807 -53.103  12.757  1.00  0.00     0.169 C 
BRANCH  25  26
HETATM   26  C   UNL     1     -39.855 -53.244  13.974  1.00  0.00     0.078 C 
HETATM   27  C   UNL     1     -39.994 -54.657  14.571  1.00  0.00     0.066 C 
HETATM   28  C   UNL     1     -41.222 -54.787  15.456  1.00  0.00     0.170 C 
HETATM   29  O   UNL     1     -41.174 -53.823  16.502  1.00  0.00    -0.391 OA
HETATM   30  C   UNL     1     -41.223 -52.488  16.008  1.00  0.00     0.170 C 
HETATM   31  C   UNL     1     -40.040 -52.199  15.092  1.00  0.00     0.066 C 
BRANCH  26  32
HETATM   32  O   UNL     1     -38.506 -53.147  13.477  1.00  0.00    -0.388 OA
HETATM   33  H   UNL     1     -38.298 -53.966  12.990  1.00  0.00     0.210 HD
ENDBRANCH  26  32
ENDBRANCH  25  26
ENDBRANCH   2  25
TORSDOF 7
ENDMDL
MODEL 8
REMARK VINA RESULT:      -6.4      3.039      7.319
REMARK  7 active torsions:
REMARK  status: ('A' for Active; 'I' for Inactive)
REMARK    1  A    between atoms: N_2  and  C_13 
REMARK    2  A    between atoms: C_3  and  N_7 
REMARK    3  A    between atoms: N_7  and  C_16 
REMARK    4  A    between atoms: N_7  and  C_17 
REMARK    5  A    between atoms: C_13  and  C_15 
REMARK    6  A    between atoms: C_15  and  O_23 
REMARK    7  A    between atoms: C_16  and  C_20 
ROOT
HETATM    1  C   UNL     1     -42.578 -51.514  12.734  1.00  0.00     0.117 A 
HETATM    2  N   UNL     1     -44.429 -52.613  13.154  1.00  0.00    -0.324 N 
HETATM    3  C   UNL     1     -41.631 -50.482  12.967  1.00  0.00     0.115 A 
HETATM    4  C   UNL     1     -43.733 -51.494  13.509  1.00  0.00     0.140 A 
HETATM    5  N   UNL     1     -42.607 -52.610  11.890  1.00  0.00    -0.346 N 
ATOM      6  HN  UNL     1     -41.890 -52.891  11.220  1.00  0.00     0.167 HD
HETATM    7  C   UNL     1     -43.752 -53.215  12.130  1.00  0.00     0.185 A 
HETATM    8  N   UNL     1     -41.979 -49.551  13.922  1.00  0.00    -0.341 N 
ATOM      9  HN  UNL     1     -41.342 -48.785  14.138  1.00  0.00     0.167 HD
HETATM   10  N   UNL     1     -44.090 -50.601  14.444  1.00  0.00    -0.336 N 
ATOM     11  HN  UNL     1     -44.954 -50.640  14.984  1.00  0.00     0.168 HD
HETATM   12  C   UNL     1     -43.155 -49.648  14.572  1.00  0.00     0.183 A 
ENDROOT
BRANCH   3  13
HETATM   13  N   UNL     1     -40.378 -50.360  12.324  1.00  0.00    -0.260 NA
BRANCH  13  14
HETATM   14  C   UNL     1     -39.276 -50.517  13.309  1.00  0.00     0.129 C 
BRANCH  14  15
HETATM   15  C   UNL     1     -39.038 -51.956  13.818  1.00  0.00     0.135 C 
HETATM   16  O   UNL     1     -39.569 -52.988  12.969  1.00  0.00    -0.385 OA
HETATM   17  C   UNL     1     -39.606 -54.162  13.791  1.00  0.00     0.168 C 
HETATM   18  C   UNL     1     -40.092 -53.671  15.134  1.00  0.00     0.029 C 
HETATM   19  C   UNL     1     -39.508 -52.270  15.235  1.00  0.00     0.035 C 
ENDBRANCH  14  15
ENDBRANCH  13  14
BRANCH  13  20
HETATM   20  C   UNL     1     -40.255 -49.155  11.459  1.00  0.00     0.065 C 
HETATM   21  C   UNL     1     -39.505 -47.938  12.047  1.00  0.00     0.020 C 
HETATM   22  C   UNL     1     -40.341 -46.710  11.707  1.00  0.00     0.002 C 
HETATM   23  C   UNL     1     -41.317 -47.160  10.632  1.00  0.00     0.002 C 
HETATM   24  C   UNL     1     -41.600 -48.615  10.968  1.00  0.00     0.020 C 
ENDBRANCH  13  20
ENDBRANCH   3  13
BRANCH   2  25
HETATM   25  C   UNL     1     -45.662 -53.073  13.762  1.00  0.00     0.169 C 
BRANCH  25  26
HETATM   26  C   UNL     1     -45.506 -54.335  14.652  1.00  0.00     0.078 C 
HETATM   27  C   UNL     1     -46.446 -54.222  15.867  1.00  0.00     0.066 C 
HETATM   28  C   UNL     1     -45.873 -53.326  16.954  1.00  0.00     0.170 C 
HETATM   29  O   UNL     1     -44.602 -53.814  17.368  1.00  0.00    -0.391 OA
HETATM   30  C   UNL     1     -43.640 -53.772  16.318  1.00  0.00     0.170 C 
HETATM   31  C   UNL     1     -44.076 -54.634  15.140  1.00  0.00     0.066 C 
BRANCH  26  32
HETATM   32  O   UNL     1     -45.973 -55.461  13.885  1.00  0.00    -0.388 OA
HETATM   33  H   UNL     1     -45.404 -56.227  14.085  1.00  0.00     0.210 HD
ENDBRANCH  26  32
ENDBRANCH  25  26
ENDBRANCH   2  25
TORSDOF 7
ENDMDL
MODEL 9
REMARK VINA RESULT:      -6.4      1.816      2.329
REMARK  7 active torsions:
REMARK  status: ('A' for Active; 'I' for Inactive)
REMARK    1  A    between atoms: N_2  and  C_13 
REMARK    2  A    between atoms: C_3  and  N_7 
REMARK    3  A    between atoms: N_7  and  C_16 
REMARK    4  A    between atoms: N_7  and  C_17 
REMARK    5  A    between atoms: C_13  and  C_15 
REMARK    6  A    between atoms: C_15  and  O_23 
REMARK    7  A    between atoms: C_16  and  C_20 
ROOT
HETATM    1  C   UNL     1     -42.656 -47.662  12.766  1.00  0.00     0.117 A 
HETATM    2  N   UNL     1     -42.575 -45.496  12.426  1.00  0.00    -0.324 N 
HETATM    3  C   UNL     1     -42.473 -49.017  12.383  1.00  0.00     0.115 A 
HETATM    4  C   UNL     1     -42.407 -46.696  11.796  1.00  0.00     0.140 A 
HETATM    5  N   UNL     1     -43.016 -47.045  13.951  1.00  0.00    -0.346 N 
ATOM      6  HN  UNL     1     -43.241 -47.497  14.837  1.00  0.00     0.167 HD
HETATM    7  C   UNL     1     -43.009 -45.753  13.696  1.00  0.00     0.185 A 
HETATM    8  N   UNL     1     -42.094 -49.226  11.074  1.00  0.00    -0.341 N 
ATOM      9  HN  UNL     1     -41.944 -50.176  10.736  1.00  0.00     0.167 HD
HETATM   10  N   UNL     1     -42.036 -46.877  10.520  1.00  0.00    -0.336 N 
ATOM     11  HN  UNL     1     -41.865 -46.124   9.853  1.00  0.00     0.168 HD
HETATM   12  C   UNL     1     -41.920 -48.183  10.240  1.00  0.00     0.183 A 
ENDROOT
BRANCH   3  13
HETATM   13  N   UNL     1     -42.621 -50.135  13.235  1.00  0.00    -0.260 NA
BRANCH  13  14
HETATM   14  C   UNL     1     -42.104 -51.361  12.571  1.00  0.00     0.129 C 
BRANCH  14  15
HETATM   15  C   UNL     1     -41.052 -52.158  13.373  1.00  0.00     0.135 C 
HETATM   16  O   UNL     1     -40.402 -53.206  12.633  1.00  0.00    -0.385 OA
HETATM   17  C   UNL     1     -39.803 -54.046  13.628  1.00  0.00     0.168 C 
HETATM   18  C   UNL     1     -40.838 -54.136  14.725  1.00  0.00     0.029 C 
HETATM   19  C   UNL     1     -41.514 -52.774  14.690  1.00  0.00     0.035 C 
ENDBRANCH  14  15
ENDBRANCH  13  14
BRANCH  13  20
HETATM   20  C   UNL     1     -43.987 -50.284  13.808  1.00  0.00     0.065 C 
HETATM   21  C   UNL     1     -44.106 -50.314  15.348  1.00  0.00     0.020 C 
HETATM   22  C   UNL     1     -45.064 -51.451  15.685  1.00  0.00     0.002 C 
HETATM   23  C   UNL     1     -45.770 -51.796  14.383  1.00  0.00     0.002 C 
HETATM   24  C   UNL     1     -44.726 -51.528  13.311  1.00  0.00     0.020 C 
ENDBRANCH  13  20
ENDBRANCH   3  13
BRANCH   2  25
HETATM   25  C   UNL     1     -42.332 -44.192  11.842  1.00  0.00     0.169 C 
BRANCH  25  26
HETATM   26  C   UNL     1     -40.832 -43.856  11.627  1.00  0.00     0.078 C 
HETATM   27  C   UNL     1     -39.986 -44.600  12.678  1.00  0.00     0.066 C 
HETATM   28  C   UNL     1     -40.000 -43.897  14.026  1.00  0.00     0.170 C 
HETATM   29  O   UNL     1     -39.530 -42.561  13.884  1.00  0.00    -0.391 OA
HETATM   30  C   UNL     1     -40.382 -41.775  13.056  1.00  0.00     0.170 C 
HETATM   31  C   UNL     1     -40.473 -42.358  11.651  1.00  0.00     0.066 C 
BRANCH  26  32
HETATM   32  O   UNL     1     -40.450 -44.397  10.347  1.00  0.00    -0.388 OA
HETATM   33  H   UNL     1     -39.551 -44.083  10.136  1.00  0.00     0.210 HD
ENDBRANCH  26  32
ENDBRANCH  25  26
ENDBRANCH   2  25
TORSDOF 7
ENDMDL
