MODEL 1
REMARK VINA RESULT:      -6.3      0.000      0.000
REMARK  7 active torsions:
REMARK  status: ('A' for Active; 'I' for Inactive)
REMARK    1  A    between atoms: C_2  and  N_3 
REMARK    2  A    between atoms: C_2  and  C_15 
REMARK    3  A    between atoms: N_3  and  C_4 
REMARK    4  A    between atoms: C_4  and  C_5 
REMARK       I    between atoms: C_5  and  N_7 
REMARK    5  A    between atoms: N_7  and  C_8 
REMARK    6  A    between atoms: C_8  and  C_12 
REMARK    7  A    between atoms: C_15  and  N_17 
ROOT
HETATM    1  C   UNL     1     -45.283 -52.161  13.291  1.00  0.00     0.122 C 
HETATM    2  C   UNL     1     -46.525 -51.572  12.605  1.00  0.00     0.055 C 
HETATM    3  C   UNL     1     -45.239 -53.641  13.116  1.00  0.00     0.091 C 
HETATM    4  N   UNL     1     -45.216 -54.797  13.016  1.00  0.00    -0.195 NA
ENDROOT
BRANCH   1   5
HETATM    5  N   UNL     1     -44.065 -51.531  12.808  1.00  0.00    -0.338 N 
HETATM    6  C   UNL     1     -42.799 -51.956  13.138  1.00  0.00     0.247 C 
HETATM    7  O   UNL     1     -42.561 -52.894  13.888  1.00  0.00    -0.272 OA
HETATM    8  H   UNL     1     -44.098 -50.746  12.164  1.00  0.00     0.164 HD
BRANCH   6   9
HETATM    9  C   UNL     1     -41.687 -51.114  12.500  1.00  0.00     0.372 C 
BRANCH   9  10
HETATM   10  N   UNL     1     -42.288 -50.010  11.723  1.00  0.00     0.098 N 
HETATM   11  H   UNL     1     -42.714 -50.409  10.883  1.00  0.00     0.317 HD
BRANCH  10  12
HETATM   12  C   UNL     1     -41.333 -48.957  11.298  1.00  0.00     0.241 C 
HETATM   13  C   UNL     1     -40.180 -48.865  12.312  1.00  0.00     0.045 C 
BRANCH  12  14
HETATM   14  C   UNL     1     -41.967 -47.566  10.988  1.00  0.00     0.136 C 
HETATM   15  C   UNL     1     -40.920 -46.501  10.631  1.00  0.00     0.036 C 
BRANCH  14  16
HETATM   16  N   UNL     1     -42.976 -47.638   9.927  1.00  0.00    -0.297 N 
HETATM   17  C   UNL     1     -44.314 -47.384  10.062  1.00  0.00     0.112 A 
HETATM   18  C   UNL     1     -44.857 -47.503   8.806  1.00  0.00     0.037 A 
HETATM   19  C   UNL     1     -43.765 -47.812   7.975  1.00  0.00     0.108 A 
HETATM   20  N   UNL     1     -42.617 -47.895   8.651  1.00  0.00    -0.310 N 
ATOM     21  HN  UNL     1     -41.686 -48.102   8.289  1.00  0.00     0.186 HD
ENDBRANCH  14  16
ENDBRANCH  12  14
ENDBRANCH  10  12
ENDBRANCH   9  10
ENDBRANCH   6   9
ENDBRANCH   1   5
BRANCH   1  22
HETATM   22  C   UNL     1     -45.433 -52.012  14.809  1.00  0.00     0.028 A 
HETATM   23  C   UNL     1     -46.612 -51.281  15.418  1.00  0.00     0.009 A 
HETATM   24  C   UNL     1     -45.227 -50.726  15.591  1.00  0.00     0.009 A 
ENDBRANCH   1  22
TORSDOF 7
ENDMDL
MODEL 2
REMARK VINA RESULT:      -6.2      2.440      6.820
REMARK  7 active torsions:
REMARK  status: ('A' for Active; 'I' for Inactive)
REMARK    1  A    between atoms: C_2  and  N_3 
REMARK    2  A    between atoms: C_2  and  C_15 
REMARK    3  A    between atoms: N_3  and  C_4 
REMARK    4  A    between atoms: C_4  and  C_5 
REMARK       I    between atoms: C_5  and  N_7 
REMARK    5  A    between atoms: N_7  and  C_8 
REMARK    6  A    between atoms: C_8  and  C_12 
REMARK    7  A    between atoms: C_15  and  N_17 
ROOT
HETATM    1  C   UNL     1     -42.406 -47.291  10.287  1.00  0.00     0.122 C 
HETATM    2  C   UNL     1     -43.408 -47.265  11.452  1.00  0.00     0.055 C 
HETATM    3  C   UNL     1     -41.561 -46.063  10.295  1.00  0.00     0.091 C 
HETATM    4  N   UNL     1     -40.924 -45.093  10.271  1.00  0.00    -0.195 NA
ENDROOT
BRANCH   1   5
HETATM    5  N   UNL     1     -41.595 -48.497  10.316  1.00  0.00    -0.338 N 
HETATM    6  C   UNL     1     -40.720 -48.807  11.331  1.00  0.00     0.247 C 
HETATM    7  O   UNL     1     -40.515 -48.094  12.305  1.00  0.00    -0.272 OA
HETATM    8  H   UNL     1     -41.663 -49.196   9.582  1.00  0.00     0.164 HD
BRANCH   6   9
HETATM    9  C   UNL     1     -39.981 -50.134  11.115  1.00  0.00     0.372 C 
BRANCH   9  10
HETATM   10  N   UNL     1     -40.905 -51.259  11.367  1.00  0.00     0.098 N 
HETATM   11  H   UNL     1     -41.862 -50.903  11.303  1.00  0.00     0.317 HD
BRANCH  10  12
HETATM   12  C   UNL     1     -40.745 -51.911  12.690  1.00  0.00     0.241 C 
HETATM   13  C   UNL     1     -39.413 -51.475  13.323  1.00  0.00     0.045 C 
BRANCH  12  14
HETATM   14  C   UNL     1     -40.930 -53.460  12.699  1.00  0.00     0.136 C 
HETATM   15  C   UNL     1     -39.927 -54.175  13.617  1.00  0.00     0.036 C 
BRANCH  14  16
HETATM   16  N   UNL     1     -42.294 -53.855  13.059  1.00  0.00    -0.297 N 
HETATM   17  C   UNL     1     -42.690 -54.417  14.243  1.00  0.00     0.112 A 
HETATM   18  C   UNL     1     -44.055 -54.553  14.168  1.00  0.00     0.037 A 
HETATM   19  C   UNL     1     -44.395 -54.027  12.909  1.00  0.00     0.108 A 
HETATM   20  N   UNL     1     -43.328 -53.600  12.230  1.00  0.00    -0.310 N 
ATOM     21  HN  UNL     1     -43.301 -53.178  11.301  1.00  0.00     0.186 HD
ENDBRANCH  14  16
ENDBRANCH  12  14
ENDBRANCH  10  12
ENDBRANCH   9  10
ENDBRANCH   6   9
ENDBRANCH   1   5
BRANCH   1  22
HETATM   22  C   UNL     1     -43.173 -47.156   8.967  1.00  0.00     0.028 A 
HETATM   23  C   UNL     1     -44.310 -46.167   8.811  1.00  0.00     0.009 A 
HETATM   24  C   UNL     1     -44.593 -47.640   8.721  1.00  0.00     0.009 A 
ENDBRANCH   1  22
TORSDOF 7
ENDMDL
MODEL 3
REMARK VINA RESULT:      -6.1      1.217      1.639
REMARK  7 active torsions:
REMARK  status: ('A' for Active; 'I' for Inactive)
REMARK    1  A    between atoms: C_2  and  N_3 
REMARK    2  A    between atoms: C_2  and  C_15 
REMARK    3  A    between atoms: N_3  and  C_4 
REMARK    4  A    between atoms: C_4  and  C_5 
REMARK       I    between atoms: C_5  and  N_7 
REMARK    5  A    between atoms: N_7  and  C_8 
REMARK    6  A    between atoms: C_8  and  C_12 
REMARK    7  A    between atoms: C_15  and  N_17 
ROOT
HETATM    1  C   UNL     1     -44.102 -52.457  13.512  1.00  0.00     0.122 C 
HETATM    2  C   UNL     1     -44.405 -53.800  12.829  1.00  0.00     0.055 C 
HETATM    3  C   UNL     1     -43.685 -52.671  14.927  1.00  0.00     0.091 C 
HETATM    4  N   UNL     1     -43.396 -52.825  16.041  1.00  0.00    -0.195 NA
ENDROOT
BRANCH   1   5
HETATM    5  N   UNL     1     -43.105 -51.702  12.771  1.00  0.00    -0.338 N 
HETATM    6  C   UNL     1     -41.786 -52.077  12.660  1.00  0.00     0.247 C 
HETATM    7  O   UNL     1     -41.306 -53.072  13.189  1.00  0.00    -0.272 OA
HETATM    8  H   UNL     1     -43.354 -50.858  12.265  1.00  0.00     0.164 HD
BRANCH   6   9
HETATM    9  C   UNL     1     -40.943 -51.103  11.829  1.00  0.00     0.372 C 
BRANCH   9  10
HETATM   10  N   UNL     1     -41.779 -49.959  11.410  1.00  0.00     0.098 N 
HETATM   11  H   UNL     1     -42.339 -50.255  10.606  1.00  0.00     0.317 HD
BRANCH  10  12
HETATM   12  C   UNL     1     -41.022 -48.744  11.022  1.00  0.00     0.241 C 
HETATM   13  C   UNL     1     -39.824 -48.557  11.967  1.00  0.00     0.045 C 
BRANCH  12  14
HETATM   14  C   UNL     1     -41.874 -47.445  10.874  1.00  0.00     0.136 C 
HETATM   15  C   UNL     1     -41.021 -46.208  10.555  1.00  0.00     0.036 C 
BRANCH  14  16
HETATM   16  N   UNL     1     -42.932 -47.584   9.869  1.00  0.00    -0.297 N 
HETATM   17  C   UNL     1     -44.265 -47.333  10.055  1.00  0.00     0.112 A 
HETATM   18  C   UNL     1     -44.866 -47.527   8.835  1.00  0.00     0.037 A 
HETATM   19  C   UNL     1     -43.813 -47.875   7.971  1.00  0.00     0.108 A 
HETATM   20  N   UNL     1     -42.632 -47.910   8.594  1.00  0.00    -0.310 N 
ATOM     21  HN  UNL     1     -41.718 -48.131   8.199  1.00  0.00     0.186 HD
ENDBRANCH  14  16
ENDBRANCH  12  14
ENDBRANCH  10  12
ENDBRANCH   9  10
ENDBRANCH   6   9
ENDBRANCH   1   5
BRANCH   1  22
HETATM   22  C   UNL     1     -45.409 -51.671  13.667  1.00  0.00     0.028 A 
HETATM   23  C   UNL     1     -46.726 -52.372  13.929  1.00  0.00     0.009 A 
HETATM   24  C   UNL     1     -46.530 -51.619  12.643  1.00  0.00     0.009 A 
ENDBRANCH   1  22
TORSDOF 7
ENDMDL
MODEL 4
REMARK VINA RESULT:      -6.0      2.350      3.798
REMARK  7 active torsions:
REMARK  status: ('A' for Active; 'I' for Inactive)
REMARK    1  A    between atoms: C_2  and  N_3 
REMARK    2  A    between atoms: C_2  and  C_15 
REMARK    3  A    between atoms: N_3  and  C_4 
REMARK    4  A    between atoms: C_4  and  C_5 
REMARK       I    between atoms: C_5  and  N_7 
REMARK    5  A    between atoms: N_7  and  C_8 
REMARK    6  A    between atoms: C_8  and  C_12 
REMARK    7  A    between atoms: C_15  and  N_17 
ROOT
HETATM    1  C   UNL     1     -45.119 -53.698  14.188  1.00  0.00     0.122 C 
HETATM    2  C   UNL     1     -45.410 -55.139  13.740  1.00  0.00     0.055 C 
HETATM    3  C   UNL     1     -44.894 -53.641  15.660  1.00  0.00     0.091 C 
HETATM    4  N   UNL     1     -44.755 -53.582  16.811  1.00  0.00    -0.195 NA
ENDROOT
BRANCH   1   5
HETATM    5  N   UNL     1     -43.997 -53.134  13.455  1.00  0.00    -0.338 N 
HETATM    6  C   UNL     1     -42.717 -53.633  13.512  1.00  0.00     0.247 C 
HETATM    7  O   UNL     1     -42.380 -54.589  14.200  1.00  0.00    -0.272 OA
HETATM    8  H   UNL     1     -44.120 -52.345  12.829  1.00  0.00     0.164 HD
BRANCH   6   9
HETATM    9  C   UNL     1     -41.718 -52.852  12.650  1.00  0.00     0.372 C 
BRANCH   9  10
HETATM   10  N   UNL     1     -42.413 -51.733  11.981  1.00  0.00     0.098 N 
HETATM   11  H   UNL     1     -42.272 -51.831  10.972  1.00  0.00     0.317 HD
BRANCH  10  12
HETATM   12  C   UNL     1     -41.947 -50.383  12.381  1.00  0.00     0.241 C 
HETATM   13  C   UNL     1     -43.152 -49.524  12.802  1.00  0.00     0.045 C 
BRANCH  12  14
HETATM   14  C   UNL     1     -41.030 -49.659  11.347  1.00  0.00     0.136 C 
HETATM   15  C   UNL     1     -41.442 -48.199  11.107  1.00  0.00     0.036 C 
BRANCH  14  16
HETATM   16  N   UNL     1     -39.615 -49.715  11.723  1.00  0.00    -0.297 N 
HETATM   17  C   UNL     1     -39.104 -49.554  12.982  1.00  0.00     0.112 A 
HETATM   18  C   UNL     1     -37.749 -49.756  12.876  1.00  0.00     0.037 A 
HETATM   19  C   UNL     1     -37.540 -50.053  11.518  1.00  0.00     0.108 A 
HETATM   20  N   UNL     1     -38.672 -50.031  10.810  1.00  0.00    -0.310 N 
ATOM     21  HN  UNL     1     -38.795 -50.211   9.814  1.00  0.00     0.186 HD
ENDBRANCH  14  16
ENDBRANCH  12  14
ENDBRANCH  10  12
ENDBRANCH   9  10
ENDBRANCH   6   9
ENDBRANCH   1   5
BRANCH   1  22
HETATM   22  C   UNL     1     -46.389 -52.857  14.014  1.00  0.00     0.028 A 
HETATM   23  C   UNL     1     -46.495 -51.800  12.934  1.00  0.00     0.009 A 
HETATM   24  C   UNL     1     -46.527 -51.388  14.379  1.00  0.00     0.009 A 
ENDBRANCH   1  22
TORSDOF 7
ENDMDL
MODEL 5
REMARK VINA RESULT:      -6.0      1.471      2.288
REMARK  7 active torsions:
REMARK  status: ('A' for Active; 'I' for Inactive)
REMARK    1  A    between atoms: C_2  and  N_3 
REMARK    2  A    between atoms: C_2  and  C_15 
REMARK    3  A    between atoms: N_3  and  C_4 
REMARK    4  A    between atoms: C_4  and  C_5 
REMARK       I    between atoms: C_5  and  N_7 
REMARK    5  A    between atoms: N_7  and  C_8 
REMARK    6  A    between atoms: C_8  and  C_12 
REMARK    7  A    between atoms: C_15  and  N_17 
ROOT
HETATM    1  C   UNL     1     -44.987 -53.089  13.231  1.00  0.00     0.122 C 
HETATM    2  C   UNL     1     -46.013 -52.473  12.266  1.00  0.00     0.055 C 
HETATM    3  C   UNL     1     -45.368 -54.487  13.580  1.00  0.00     0.091 C 
HETATM    4  N   UNL     1     -45.677 -55.563  13.887  1.00  0.00    -0.195 NA
ENDROOT
BRANCH   1   5
HETATM    5  N   UNL     1     -43.642 -53.025  12.681  1.00  0.00    -0.338 N 
HETATM    6  C   UNL     1     -42.533 -53.547  13.306  1.00  0.00     0.247 C 
HETATM    7  O   UNL     1     -42.555 -54.102  14.398  1.00  0.00    -0.272 OA
HETATM    8  H   UNL     1     -43.464 -52.606  11.774  1.00  0.00     0.164 HD
BRANCH   6   9
HETATM    9  C   UNL     1     -41.234 -53.339  12.518  1.00  0.00     0.372 C 
BRANCH   9  10
HETATM   10  N   UNL     1     -41.449 -52.315  11.475  1.00  0.00     0.098 N 
HETATM   11  H   UNL     1     -41.061 -52.672  10.597  1.00  0.00     0.317 HD
BRANCH  10  12
HETATM   12  C   UNL     1     -40.819 -51.001  11.754  1.00  0.00     0.241 C 
HETATM   13  C   UNL     1     -39.548 -51.206  12.595  1.00  0.00     0.045 C 
BRANCH  12  14
HETATM   14  C   UNL     1     -41.769 -49.922  12.361  1.00  0.00     0.136 C 
HETATM   15  C   UNL     1     -41.442 -49.597  13.826  1.00  0.00     0.036 C 
BRANCH  14  16
HETATM   16  N   UNL     1     -41.780 -48.685  11.574  1.00  0.00    -0.297 N 
HETATM   17  C   UNL     1     -40.914 -47.633  11.706  1.00  0.00     0.112 A 
HETATM   18  C   UNL     1     -41.251 -46.733  10.724  1.00  0.00     0.037 A 
HETATM   19  C   UNL     1     -42.319 -47.338  10.038  1.00  0.00     0.108 A 
HETATM   20  N   UNL     1     -42.645 -48.528  10.550  1.00  0.00    -0.310 N 
ATOM     21  HN  UNL     1     -43.376 -49.168  10.240  1.00  0.00     0.186 HD
ENDBRANCH  14  16
ENDBRANCH  12  14
ENDBRANCH  10  12
ENDBRANCH   9  10
ENDBRANCH   6   9
ENDBRANCH   1   5
BRANCH   1  22
HETATM   22  C   UNL     1     -45.081 -52.373  14.583  1.00  0.00     0.028 A 
HETATM   23  C   UNL     1     -46.181 -51.372  14.871  1.00  0.00     0.009 A 
HETATM   24  C   UNL     1     -44.751 -50.910  14.827  1.00  0.00     0.009 A 
ENDBRANCH   1  22
TORSDOF 7
ENDMDL
MODEL 6
REMARK VINA RESULT:      -5.7      2.532      3.914
REMARK  7 active torsions:
REMARK  status: ('A' for Active; 'I' for Inactive)
REMARK    1  A    between atoms: C_2  and  N_3 
REMARK    2  A    between atoms: C_2  and  C_15 
REMARK    3  A    between atoms: N_3  and  C_4 
REMARK    4  A    between atoms: C_4  and  C_5 
REMARK       I    between atoms: C_5  and  N_7 
REMARK    5  A    between atoms: N_7  and  C_8 
REMARK    6  A    between atoms: C_8  and  C_12 
REMARK    7  A    between atoms: C_15  and  N_17 
ROOT
HETATM    1  C   UNL     1     -45.509 -51.820  12.984  1.00  0.00     0.122 C 
HETATM    2  C   UNL     1     -46.830 -51.668  12.212  1.00  0.00     0.055 C 
HETATM    3  C   UNL     1     -44.859 -53.121  12.660  1.00  0.00     0.091 C 
HETATM    4  N   UNL     1     -44.364 -54.149  12.443  1.00  0.00    -0.195 NA
ENDROOT
BRANCH   1   5
HETATM    5  N   UNL     1     -44.618 -50.700  12.728  1.00  0.00    -0.338 N 
HETATM    6  C   UNL     1     -43.396 -50.538  13.339  1.00  0.00     0.247 C 
HETATM    7  O   UNL     1     -42.938 -51.305  14.177  1.00  0.00    -0.272 OA
HETATM    8  H   UNL     1     -44.852 -49.986  12.046  1.00  0.00     0.164 HD
BRANCH   6   9
HETATM    9  C   UNL     1     -42.656 -49.269  12.898  1.00  0.00     0.372 C 
BRANCH   9  10
HETATM   10  N   UNL     1     -41.301 -49.258  13.489  1.00  0.00     0.098 N 
HETATM   11  H   UNL     1     -41.301 -48.592  14.266  1.00  0.00     0.317 HD
BRANCH  10  12
HETATM   12  C   UNL     1     -40.218 -48.872  12.552  1.00  0.00     0.241 C 
HETATM   13  C   UNL     1     -40.703 -47.731  11.642  1.00  0.00     0.045 C 
BRANCH  12  14
HETATM   14  C   UNL     1     -39.581 -50.048  11.747  1.00  0.00     0.136 C 
HETATM   15  C   UNL     1     -38.073 -49.865  11.521  1.00  0.00     0.036 C 
BRANCH  14  16
HETATM   16  N   UNL     1     -39.831 -51.349  12.371  1.00  0.00    -0.297 N 
HETATM   17  C   UNL     1     -39.300 -51.799  13.550  1.00  0.00     0.112 A 
HETATM   18  C   UNL     1     -39.861 -53.031  13.780  1.00  0.00     0.037 A 
HETATM   19  C   UNL     1     -40.734 -53.232  12.695  1.00  0.00     0.108 A 
HETATM   20  N   UNL     1     -40.721 -52.211  11.834  1.00  0.00    -0.310 N 
ATOM     21  HN  UNL     1     -41.258 -52.107  10.973  1.00  0.00     0.186 HD
ENDBRANCH  14  16
ENDBRANCH  12  14
ENDBRANCH  10  12
ENDBRANCH   9  10
ENDBRANCH   6   9
ENDBRANCH   1   5
BRANCH   1  22
HETATM   22  C   UNL     1     -45.819 -51.967  14.477  1.00  0.00     0.028 A 
HETATM   23  C   UNL     1     -46.994 -52.791  14.963  1.00  0.00     0.009 A 
HETATM   24  C   UNL     1     -46.980 -51.308  15.204  1.00  0.00     0.009 A 
ENDBRANCH   1  22
TORSDOF 7
ENDMDL
MODEL 7
REMARK VINA RESULT:      -5.6      2.107      3.766
REMARK  7 active torsions:
REMARK  status: ('A' for Active; 'I' for Inactive)
REMARK    1  A    between atoms: C_2  and  N_3 
REMARK    2  A    between atoms: C_2  and  C_15 
REMARK    3  A    between atoms: N_3  and  C_4 
REMARK    4  A    between atoms: C_4  and  C_5 
REMARK       I    between atoms: C_5  and  N_7 
REMARK    5  A    between atoms: N_7  and  C_8 
REMARK    6  A    between atoms: C_8  and  C_12 
REMARK    7  A    between atoms: C_15  and  N_17 
ROOT
HETATM    1  C   UNL     1     -45.687 -52.261  13.070  1.00  0.00     0.122 C 
HETATM    2  C   UNL     1     -46.046 -51.387  14.283  1.00  0.00     0.055 C 
HETATM    3  C   UNL     1     -46.628 -52.005  11.943  1.00  0.00     0.091 C 
HETATM    4  N   UNL     1     -47.379 -51.840  11.073  1.00  0.00    -0.195 NA
ENDROOT
BRANCH   1   5
HETATM    5  N   UNL     1     -44.305 -52.060  12.667  1.00  0.00    -0.338 N 
HETATM    6  C   UNL     1     -43.279 -51.807  13.547  1.00  0.00     0.247 C 
HETATM    7  O   UNL     1     -43.421 -51.704  14.759  1.00  0.00    -0.272 OA
HETATM    8  H   UNL     1     -44.025 -52.130  11.693  1.00  0.00     0.164 HD
BRANCH   6   9
HETATM    9  C   UNL     1     -41.918 -51.628  12.863  1.00  0.00     0.372 C 
BRANCH   9  10
HETATM   10  N   UNL     1     -42.052 -50.680  11.738  1.00  0.00     0.098 N 
HETATM   11  H   UNL     1     -41.377 -50.946  11.017  1.00  0.00     0.317 HD
BRANCH  10  12
HETATM   12  C   UNL     1     -41.812 -49.259  12.091  1.00  0.00     0.241 C 
HETATM   13  C   UNL     1     -43.122 -48.464  11.953  1.00  0.00     0.045 C 
BRANCH  12  14
HETATM   14  C   UNL     1     -40.620 -48.579  11.348  1.00  0.00     0.136 C 
HETATM   15  C   UNL     1     -40.600 -47.053  11.528  1.00  0.00     0.036 C 
BRANCH  14  16
HETATM   16  N   UNL     1     -39.326 -49.138  11.745  1.00  0.00    -0.297 N 
HETATM   17  C   UNL     1     -38.767 -49.082  12.993  1.00  0.00     0.112 A 
HETATM   18  C   UNL     1     -37.593 -49.792  12.921  1.00  0.00     0.037 A 
HETATM   19  C   UNL     1     -37.538 -50.254  11.594  1.00  0.00     0.108 A 
HETATM   20  N   UNL     1     -38.591 -49.861  10.873  1.00  0.00    -0.310 N 
ATOM     21  HN  UNL     1     -38.792 -50.060   9.893  1.00  0.00     0.186 HD
ENDBRANCH  14  16
ENDBRANCH  12  14
ENDBRANCH  10  12
ENDBRANCH   9  10
ENDBRANCH   6   9
ENDBRANCH   1   5
BRANCH   1  22
HETATM   22  C   UNL     1     -45.971 -53.727  13.412  1.00  0.00     0.028 A 
HETATM   23  C   UNL     1     -45.967 -54.220  14.845  1.00  0.00     0.009 A 
HETATM   24  C   UNL     1     -44.937 -54.737  13.881  1.00  0.00     0.009 A 
ENDBRANCH   1  22
TORSDOF 7
ENDMDL
MODEL 8
REMARK VINA RESULT:      -5.4      1.869      2.759
REMARK  7 active torsions:
REMARK  status: ('A' for Active; 'I' for Inactive)
REMARK    1  A    between atoms: C_2  and  N_3 
REMARK    2  A    between atoms: C_2  and  C_15 
REMARK    3  A    between atoms: N_3  and  C_4 
REMARK    4  A    between atoms: C_4  and  C_5 
REMARK       I    between atoms: C_5  and  N_7 
REMARK    5  A    between atoms: N_7  and  C_8 
REMARK    6  A    between atoms: C_8  and  C_12 
REMARK    7  A    between atoms: C_15  and  N_17 
ROOT
HETATM    1  C   UNL     1     -45.336 -52.225  15.310  1.00  0.00     0.122 C 
HETATM    2  C   UNL     1     -46.578 -51.533  14.726  1.00  0.00     0.055 C 
HETATM    3  C   UNL     1     -45.714 -53.503  15.979  1.00  0.00     0.091 C 
HETATM    4  N   UNL     1     -46.003 -54.480  16.534  1.00  0.00    -0.195 NA
ENDROOT
BRANCH   1   5
HETATM    5  N   UNL     1     -44.322 -52.436  14.291  1.00  0.00    -0.338 N 
HETATM    6  C   UNL     1     -44.487 -53.265  13.205  1.00  0.00     0.247 C 
HETATM    7  O   UNL     1     -45.495 -53.927  12.992  1.00  0.00    -0.272 OA
HETATM    8  H   UNL     1     -43.434 -51.945  14.321  1.00  0.00     0.164 HD
BRANCH   6   9
HETATM    9  C   UNL     1     -43.263 -53.316  12.284  1.00  0.00     0.372 C 
BRANCH   9  10
HETATM   10  N   UNL     1     -42.820 -51.940  11.975  1.00  0.00     0.098 N 
HETATM   11  H   UNL     1     -43.194 -51.686  11.056  1.00  0.00     0.317 HD
BRANCH  10  12
HETATM   12  C   UNL     1     -41.349 -51.753  11.940  1.00  0.00     0.241 C 
HETATM   13  C   UNL     1     -40.670 -52.834  12.798  1.00  0.00     0.045 C 
BRANCH  12  14
HETATM   14  C   UNL     1     -40.850 -50.316  12.285  1.00  0.00     0.136 C 
HETATM   15  C   UNL     1     -39.359 -50.113  11.974  1.00  0.00     0.036 C 
BRANCH  14  16
HETATM   16  N   UNL     1     -41.638 -49.277  11.617  1.00  0.00    -0.297 N 
HETATM   17  C   UNL     1     -42.619 -48.511  12.186  1.00  0.00     0.112 A 
HETATM   18  C   UNL     1     -43.030 -47.630  11.216  1.00  0.00     0.037 A 
HETATM   19  C   UNL     1     -42.226 -47.928  10.101  1.00  0.00     0.108 A 
HETATM   20  N   UNL     1     -41.375 -48.929  10.339  1.00  0.00    -0.310 N 
ATOM     21  HN  UNL     1     -40.688 -49.336   9.704  1.00  0.00     0.186 HD
ENDBRANCH  14  16
ENDBRANCH  12  14
ENDBRANCH  10  12
ENDBRANCH   9  10
ENDBRANCH   6   9
ENDBRANCH   1   5
BRANCH   1  22
HETATM   22  C   UNL     1     -44.802 -51.387  16.476  1.00  0.00     0.028 A 
HETATM   23  C   UNL     1     -45.616 -50.259  17.077  1.00  0.00     0.009 A 
HETATM   24  C   UNL     1     -44.323 -49.948  16.378  1.00  0.00     0.009 A 
ENDBRANCH   1  22
TORSDOF 7
ENDMDL
MODEL 9
REMARK VINA RESULT:      -5.4      1.877      2.556
REMARK  7 active torsions:
REMARK  status: ('A' for Active; 'I' for Inactive)
REMARK    1  A    between atoms: C_2  and  N_3 
REMARK    2  A    between atoms: C_2  and  C_15 
REMARK    3  A    between atoms: N_3  and  C_4 
REMARK    4  A    between atoms: C_4  and  C_5 
REMARK       I    between atoms: C_5  and  N_7 
REMARK    5  A    between atoms: N_7  and  C_8 
REMARK    6  A    between atoms: C_8  and  C_12 
REMARK    7  A    between atoms: C_15  and  N_17 
ROOT
HETATM    1  C   UNL     1     -45.079 -52.388  13.471  1.00  0.00     0.122 C 
HETATM    2  C   UNL     1     -46.237 -51.642  12.789  1.00  0.00     0.055 C 
HETATM    3  C   UNL     1     -45.274 -53.862  13.373  1.00  0.00     0.091 C 
HETATM    4  N   UNL     1     -45.437 -55.011  13.334  1.00  0.00    -0.195 NA
ENDROOT
BRANCH   1   5
HETATM    5  N   UNL     1     -43.795 -51.982  12.923  1.00  0.00    -0.338 N 
HETATM    6  C   UNL     1     -43.276 -50.714  13.045  1.00  0.00     0.247 C 
HETATM    7  O   UNL     1     -43.846 -49.788  13.609  1.00  0.00    -0.272 OA
HETATM    8  H   UNL     1     -43.197 -52.644  12.439  1.00  0.00     0.164 HD
BRANCH   6   9
HETATM    9  C   UNL     1     -41.909 -50.547  12.371  1.00  0.00     0.372 C 
BRANCH   9  10
HETATM   10  N   UNL     1     -42.011 -49.543  11.291  1.00  0.00     0.098 N 
HETATM   11  H   UNL     1     -41.687 -49.978  10.423  1.00  0.00     0.317 HD
BRANCH  10  12
HETATM   12  C   UNL     1     -41.217 -48.309  11.511  1.00  0.00     0.241 C 
HETATM   13  C   UNL     1     -40.450 -48.419  12.840  1.00  0.00     0.045 C 
BRANCH  12  14
HETATM   14  C   UNL     1     -42.012 -46.972  11.390  1.00  0.00     0.136 C 
HETATM   15  C   UNL     1     -42.788 -46.624  12.668  1.00  0.00     0.036 C 
BRANCH  14  16
HETATM   16  N   UNL     1     -41.154 -45.847  11.013  1.00  0.00    -0.297 N 
HETATM   17  C   UNL     1     -41.239 -44.566  11.491  1.00  0.00     0.112 A 
HETATM   18  C   UNL     1     -40.199 -43.873  10.921  1.00  0.00     0.037 A 
HETATM   19  C   UNL     1     -39.530 -44.824  10.129  1.00  0.00     0.108 A 
HETATM   20  N   UNL     1     -40.105 -46.027  10.182  1.00  0.00    -0.310 N 
ATOM     21  HN  UNL     1     -39.819 -46.883   9.706  1.00  0.00     0.186 HD
ENDBRANCH  14  16
ENDBRANCH  12  14
ENDBRANCH  10  12
ENDBRANCH   9  10
ENDBRANCH   6   9
ENDBRANCH   1   5
BRANCH   1  22
HETATM   22  C   UNL     1     -45.152 -52.144  14.983  1.00  0.00     0.028 A 
HETATM   23  C   UNL     1     -46.336 -52.615  15.802  1.00  0.00     0.009 A 
HETATM   24  C   UNL     1     -46.066 -51.143  15.669  1.00  0.00     0.009 A 
ENDBRANCH   1  22
TORSDOF 7
ENDMDL
