MODEL 1
REMARK VINA RESULT:      -5.5      0.000      0.000
REMARK  6 active torsions:
REMARK  status: ('A' for Active; 'I' for Inactive)
REMARK    1  A    between atoms: C_5  and  O_6 
REMARK    2  A    between atoms: O_6  and  C_7 
REMARK    3  A    between atoms: C_7  and  C_8 
REMARK    4  A    between atoms: C_8  and  O_9 
REMARK    5  A    between atoms: C_8  and  C_10 
REMARK    6  A    between atoms: C_10  and  N_11 
ROOT
HETATM    1  C   UNL     1     -42.204 -52.618  12.138  1.00  0.00     0.160 C 
ENDROOT
BRANCH   1   2
HETATM    2  C   UNL     1     -42.061 -51.314  12.950  1.00  0.00     0.209 C 
BRANCH   2   3
HETATM    3  O   UNL     1     -43.234 -50.523  12.750  1.00  0.00    -0.349 OA
BRANCH   3   4
HETATM    4  C   UNL     1     -44.245 -50.676  13.660  1.00  0.00     0.068 A 
HETATM    5  C   UNL     1     -45.427 -51.207  13.143  1.00  0.00     0.037 A 
HETATM    6  C   UNL     1     -46.519 -51.466  13.977  1.00  0.00     0.009 A 
HETATM    7  C   UNL     1     -46.436 -51.209  15.349  1.00  0.00    -0.062 A 
HETATM    8  C   UNL     1     -47.576 -51.537  16.265  1.00  0.00     0.048 C 
HETATM    9  C   UNL     1     -45.247 -50.674  15.866  1.00  0.00     0.009 A 
HETATM   10  C   UNL     1     -44.158 -50.407  15.027  1.00  0.00     0.037 A 
ENDBRANCH   3   4
ENDBRANCH   2   3
ENDBRANCH   1   2
BRANCH   1  11
HETATM   11  O   UNL     1     -41.205 -52.695  11.112  1.00  0.00    -0.392 OA
HETATM   12  H   UNL     1     -40.496 -52.057  11.303  1.00  0.00     0.210 HD
ENDBRANCH   1  11
BRANCH   1  13
HETATM   13  C   UNL     1     -42.067 -53.833  13.061  1.00  0.00     0.164 C 
BRANCH  13  14
HETATM   14  N   UNL     1     -43.245 -54.066  13.876  1.00  0.00    -0.339 N 
HETATM   15  C   UNL     1     -44.424 -54.583  13.412  1.00  0.00     0.184 A 
HETATM   16  N   UNL     1     -45.290 -54.772  14.381  1.00  0.00    -0.350 N 
HETATM   17  C   UNL     1     -44.654 -54.336  15.516  1.00  0.00     0.060 A 
ATOM     18  HN  UNL     1     -46.231 -55.158  14.307  1.00  0.00     0.166 HD
HETATM   19  C   UNL     1     -45.123 -54.300  16.838  1.00  0.00     0.032 A 
HETATM   20  C   UNL     1     -43.365 -53.886  15.232  1.00  0.00     0.062 A 
HETATM   21  C   UNL     1     -44.280 -53.808  17.840  1.00  0.00     0.002 A 
HETATM   22  C   UNL     1     -42.994 -53.360  17.532  1.00  0.00     0.002 A 
HETATM   23  C   UNL     1     -42.506 -53.388  16.220  1.00  0.00     0.032 A 
ENDBRANCH  13  14
ENDBRANCH   1  13
TORSDOF 6
ENDMDL
MODEL 2
REMARK VINA RESULT:      -5.5      1.515      2.509
REMARK  6 active torsions:
REMARK  status: ('A' for Active; 'I' for Inactive)
REMARK    1  A    between atoms: C_5  and  O_6 
REMARK    2  A    between atoms: O_6  and  C_7 
REMARK    3  A    between atoms: C_7  and  C_8 
REMARK    4  A    between atoms: C_8  and  O_9 
REMARK    5  A    between atoms: C_8  and  C_10 
REMARK    6  A    between atoms: C_10  and  N_11 
ROOT
HETATM    1  C   UNL     1     -41.382 -51.349  12.044  1.00  0.00     0.160 C 
ENDROOT
BRANCH   1   2
HETATM    2  C   UNL     1     -41.513 -50.338  13.202  1.00  0.00     0.209 C 
BRANCH   2   3
HETATM    3  O   UNL     1     -42.766 -49.663  13.076  1.00  0.00    -0.349 OA
BRANCH   3   4
HETATM    4  C   UNL     1     -43.851 -50.260  13.660  1.00  0.00     0.068 A 
HETATM    5  C   UNL     1     -43.820 -50.302  15.054  1.00  0.00     0.037 A 
HETATM    6  C   UNL     1     -44.892 -50.833  15.777  1.00  0.00     0.009 A 
HETATM    7  C   UNL     1     -46.022 -51.318  15.110  1.00  0.00    -0.062 A 
HETATM    8  C   UNL     1     -47.204 -51.836  15.873  1.00  0.00     0.048 C 
HETATM    9  C   UNL     1     -46.050 -51.275  13.709  1.00  0.00     0.009 A 
HETATM   10  C   UNL     1     -44.971 -50.751  12.986  1.00  0.00     0.037 A 
ENDBRANCH   3   4
ENDBRANCH   2   3
ENDBRANCH   1   2
BRANCH   1  11
HETATM   11  O   UNL     1     -40.525 -50.838  11.013  1.00  0.00    -0.392 OA
HETATM   12  H   UNL     1     -41.052 -50.655  10.217  1.00  0.00     0.210 HD
ENDBRANCH   1  11
BRANCH   1  13
HETATM   13  C   UNL     1     -40.809 -52.672  12.560  1.00  0.00     0.164 C 
BRANCH  13  14
HETATM   14  N   UNL     1     -41.544 -53.210  13.690  1.00  0.00    -0.339 N 
HETATM   15  C   UNL     1     -41.101 -53.196  14.986  1.00  0.00     0.184 A 
HETATM   16  N   UNL     1     -42.004 -53.666  15.815  1.00  0.00    -0.350 N 
HETATM   17  C   UNL     1     -43.065 -54.022  15.022  1.00  0.00     0.060 A 
ATOM     18  HN  UNL     1     -41.932 -53.750  16.829  1.00  0.00     0.166 HD
HETATM   19  C   UNL     1     -44.296 -54.588  15.387  1.00  0.00     0.032 A 
HETATM   20  C   UNL     1     -42.807 -53.748  13.679  1.00  0.00     0.062 A 
HETATM   21  C   UNL     1     -45.235 -54.864  14.388  1.00  0.00     0.002 A 
HETATM   22  C   UNL     1     -44.954 -54.583  13.050  1.00  0.00     0.002 A 
HETATM   23  C   UNL     1     -43.732 -54.018  12.663  1.00  0.00     0.032 A 
ENDBRANCH  13  14
ENDBRANCH   1  13
TORSDOF 6
ENDMDL
MODEL 3
REMARK VINA RESULT:      -5.4      4.438      7.329
REMARK  6 active torsions:
REMARK  status: ('A' for Active; 'I' for Inactive)
REMARK    1  A    between atoms: C_5  and  O_6 
REMARK    2  A    between atoms: O_6  and  C_7 
REMARK    3  A    between atoms: C_7  and  C_8 
REMARK    4  A    between atoms: C_8  and  O_9 
REMARK    5  A    between atoms: C_8  and  C_10 
REMARK    6  A    between atoms: C_10  and  N_11 
ROOT
HETATM    1  C   UNL     1     -40.279 -49.430  11.541  1.00  0.00     0.160 C 
ENDROOT
BRANCH   1   2
HETATM    2  C   UNL     1     -39.893 -50.420  12.659  1.00  0.00     0.209 C 
BRANCH   2   3
HETATM    3  O   UNL     1     -39.935 -51.745  12.128  1.00  0.00    -0.349 OA
BRANCH   3   4
HETATM    4  C   UNL     1     -40.767 -52.635  12.752  1.00  0.00     0.068 A 
HETATM    5  C   UNL     1     -40.178 -53.372  13.779  1.00  0.00     0.037 A 
HETATM    6  C   UNL     1     -40.931 -54.276  14.534  1.00  0.00     0.009 A 
HETATM    7  C   UNL     1     -42.296 -54.442  14.279  1.00  0.00    -0.062 A 
HETATM    8  C   UNL     1     -43.130 -55.362  15.119  1.00  0.00     0.048 C 
HETATM    9  C   UNL     1     -42.887 -53.701  13.246  1.00  0.00     0.009 A 
HETATM   10  C   UNL     1     -42.127 -52.803  12.484  1.00  0.00     0.037 A 
ENDBRANCH   3   4
ENDBRANCH   2   3
ENDBRANCH   1   2
BRANCH   1  11
HETATM   11  O   UNL     1     -40.258 -50.073  10.258  1.00  0.00    -0.392 OA
HETATM   12  H   UNL     1     -41.018 -50.675  10.186  1.00  0.00     0.210 HD
ENDBRANCH   1  11
BRANCH   1  13
HETATM   13  C   UNL     1     -41.681 -48.867  11.795  1.00  0.00     0.164 C 
BRANCH  13  14
HETATM   14  N   UNL     1     -41.966 -47.674  11.019  1.00  0.00    -0.339 N 
HETATM   15  C   UNL     1     -41.055 -46.693  10.734  1.00  0.00     0.184 A 
HETATM   16  N   UNL     1     -41.558 -45.775   9.941  1.00  0.00    -0.350 N 
HETATM   17  C   UNL     1     -42.855 -46.165   9.723  1.00  0.00     0.060 A 
ATOM     18  HN  UNL     1     -41.086 -44.951   9.568  1.00  0.00     0.166 HD
HETATM   19  C   UNL     1     -43.852 -45.542   8.957  1.00  0.00     0.032 A 
HETATM   20  C   UNL     1     -43.143 -47.356  10.388  1.00  0.00     0.062 A 
HETATM   21  C   UNL     1     -45.115 -46.137   8.882  1.00  0.00     0.002 A 
HETATM   22  C   UNL     1     -45.382 -47.329   9.558  1.00  0.00     0.002 A 
HETATM   23  C   UNL     1     -44.402 -47.968  10.328  1.00  0.00     0.032 A 
ENDBRANCH  13  14
ENDBRANCH   1  13
TORSDOF 6
ENDMDL
MODEL 4
REMARK VINA RESULT:      -5.3      1.803      2.808
REMARK  6 active torsions:
REMARK  status: ('A' for Active; 'I' for Inactive)
REMARK    1  A    between atoms: C_5  and  O_6 
REMARK    2  A    between atoms: O_6  and  C_7 
REMARK    3  A    between atoms: C_7  and  C_8 
REMARK    4  A    between atoms: C_8  and  O_9 
REMARK    5  A    between atoms: C_8  and  C_10 
REMARK    6  A    between atoms: C_10  and  N_11 
ROOT
HETATM    1  C   UNL     1     -42.147 -53.925  13.057  1.00  0.00     0.160 C 
ENDROOT
BRANCH   1   2
HETATM    2  C   UNL     1     -43.230 -53.221  12.213  1.00  0.00     0.209 C 
BRANCH   2   3
HETATM    3  O   UNL     1     -44.487 -53.847  12.474  1.00  0.00    -0.349 OA
BRANCH   3   4
HETATM    4  C   UNL     1     -45.333 -53.202  13.335  1.00  0.00     0.068 A 
HETATM    5  C   UNL     1     -45.668 -53.923  14.482  1.00  0.00     0.037 A 
HETATM    6  C   UNL     1     -46.479 -53.357  15.470  1.00  0.00     0.009 A 
HETATM    7  C   UNL     1     -46.955 -52.050  15.329  1.00  0.00    -0.062 A 
HETATM    8  C   UNL     1     -47.776 -51.409  16.407  1.00  0.00     0.048 C 
HETATM    9  C   UNL     1     -46.618 -51.328  14.175  1.00  0.00     0.009 A 
HETATM   10  C   UNL     1     -45.813 -51.900  13.182  1.00  0.00     0.037 A 
ENDBRANCH   3   4
ENDBRANCH   2   3
ENDBRANCH   1   2
BRANCH   1  11
HETATM   11  O   UNL     1     -41.105 -54.447  12.221  1.00  0.00    -0.392 OA
HETATM   12  H   UNL     1     -41.406 -54.454  11.296  1.00  0.00     0.210 HD
ENDBRANCH   1  11
BRANCH   1  13
HETATM   13  C   UNL     1     -41.537 -52.941  14.060  1.00  0.00     0.164 C 
BRANCH  13  14
HETATM   14  N   UNL     1     -42.313 -52.814  15.279  1.00  0.00    -0.339 N 
HETATM   15  C   UNL     1     -42.457 -53.799  16.218  1.00  0.00     0.184 A 
HETATM   16  N   UNL     1     -43.137 -53.384  17.262  1.00  0.00    -0.350 N 
HETATM   17  C   UNL     1     -43.467 -52.084  16.977  1.00  0.00     0.060 A 
ATOM     18  HN  UNL     1     -43.370 -53.913  18.102  1.00  0.00     0.166 HD
HETATM   19  C   UNL     1     -44.201 -51.166  17.743  1.00  0.00     0.032 A 
HETATM   20  C   UNL     1     -42.963 -51.694  15.736  1.00  0.00     0.062 A 
HETATM   21  C   UNL     1     -44.409 -49.878  17.237  1.00  0.00     0.002 A 
HETATM   22  C   UNL     1     -43.897 -49.511  15.992  1.00  0.00     0.002 A 
HETATM   23  C   UNL     1     -43.162 -50.411  15.211  1.00  0.00     0.032 A 
ENDBRANCH  13  14
ENDBRANCH   1  13
TORSDOF 6
ENDMDL
MODEL 5
REMARK VINA RESULT:      -5.3      2.791      5.191
REMARK  6 active torsions:
REMARK  status: ('A' for Active; 'I' for Inactive)
REMARK    1  A    between atoms: C_5  and  O_6 
REMARK    2  A    between atoms: O_6  and  C_7 
REMARK    3  A    between atoms: C_7  and  C_8 
REMARK    4  A    between atoms: C_8  and  O_9 
REMARK    5  A    between atoms: C_8  and  C_10 
REMARK    6  A    between atoms: C_10  and  N_11 
ROOT
HETATM    1  C   UNL     1     -41.137 -52.982  12.487  1.00  0.00     0.160 C 
ENDROOT
BRANCH   1   2
HETATM    2  C   UNL     1     -42.439 -53.621  13.014  1.00  0.00     0.209 C 
BRANCH   2   3
HETATM    3  O   UNL     1     -43.549 -52.935  12.432  1.00  0.00    -0.349 OA
BRANCH   3   4
HETATM    4  C   UNL     1     -44.558 -52.562  13.278  1.00  0.00     0.068 A 
HETATM    5  C   UNL     1     -44.388 -52.956  14.606  1.00  0.00     0.037 A 
HETATM    6  C   UNL     1     -45.317 -52.591  15.584  1.00  0.00     0.009 A 
HETATM    7  C   UNL     1     -46.427 -51.811  15.247  1.00  0.00    -0.062 A 
HETATM    8  C   UNL     1     -47.401 -51.362  16.295  1.00  0.00     0.048 C 
HETATM    9  C   UNL     1     -46.597 -51.417  13.912  1.00  0.00     0.009 A 
HETATM   10  C   UNL     1     -45.669 -51.792  12.932  1.00  0.00     0.037 A 
ENDBRANCH   3   4
ENDBRANCH   2   3
ENDBRANCH   1   2
BRANCH   1  11
HETATM   11  O   UNL     1     -41.278 -52.586  11.116  1.00  0.00    -0.392 OA
HETATM   12  H   UNL     1     -40.455 -52.166  10.815  1.00  0.00     0.210 HD
ENDBRANCH   1  11
BRANCH   1  13
HETATM   13  C   UNL     1     -40.774 -51.754  13.328  1.00  0.00     0.164 C 
BRANCH  13  14
HETATM   14  N   UNL     1     -40.505 -50.574  12.528  1.00  0.00    -0.339 N 
HETATM   15  C   UNL     1     -39.299 -50.281  11.951  1.00  0.00     0.184 A 
HETATM   16  N   UNL     1     -39.362 -49.199  11.210  1.00  0.00    -0.350 N 
HETATM   17  C   UNL     1     -40.655 -48.759  11.332  1.00  0.00     0.060 A 
ATOM     18  HN  UNL     1     -38.612 -48.777  10.662  1.00  0.00     0.166 HD
HETATM   19  C   UNL     1     -41.269 -47.636  10.758  1.00  0.00     0.032 A 
HETATM   20  C   UNL     1     -41.401 -49.603  12.156  1.00  0.00     0.062 A 
HETATM   21  C   UNL     1     -42.619 -47.390  11.030  1.00  0.00     0.002 A 
HETATM   22  C   UNL     1     -43.345 -48.247  11.859  1.00  0.00     0.002 A 
HETATM   23  C   UNL     1     -42.753 -49.374  12.443  1.00  0.00     0.032 A 
ENDBRANCH  13  14
ENDBRANCH   1  13
TORSDOF 6
ENDMDL
MODEL 6
REMARK VINA RESULT:      -5.2      2.280      3.217
REMARK  6 active torsions:
REMARK  status: ('A' for Active; 'I' for Inactive)
REMARK    1  A    between atoms: C_5  and  O_6 
REMARK    2  A    between atoms: O_6  and  C_7 
REMARK    3  A    between atoms: C_7  and  C_8 
REMARK    4  A    between atoms: C_8  and  O_9 
REMARK    5  A    between atoms: C_8  and  C_10 
REMARK    6  A    between atoms: C_10  and  N_11 
ROOT
HETATM    1  C   UNL     1     -39.499 -52.188  15.119  1.00  0.00     0.160 C 
ENDROOT
BRANCH   1   2
HETATM    2  C   UNL     1     -40.368 -50.940  14.856  1.00  0.00     0.209 C 
BRANCH   2   3
HETATM    3  O   UNL     1     -41.250 -50.759  15.966  1.00  0.00    -0.349 OA
BRANCH   3   4
HETATM    4  C   UNL     1     -42.588 -50.911  15.722  1.00  0.00     0.068 A 
HETATM    5  C   UNL     1     -43.035 -50.354  14.524  1.00  0.00     0.037 A 
HETATM    6  C   UNL     1     -44.369 -50.486  14.127  1.00  0.00     0.009 A 
HETATM    7  C   UNL     1     -45.275 -51.195  14.922  1.00  0.00    -0.062 A 
HETATM    8  C   UNL     1     -46.693 -51.398  14.483  1.00  0.00     0.048 C 
HETATM    9  C   UNL     1     -44.823 -51.754  16.127  1.00  0.00     0.009 A 
HETATM   10  C   UNL     1     -43.488 -51.612  16.527  1.00  0.00     0.037 A 
ENDBRANCH   3   4
ENDBRANCH   2   3
ENDBRANCH   1   2
BRANCH   1  11
HETATM   11  O   UNL     1     -39.911 -52.856  16.320  1.00  0.00    -0.392 OA
HETATM   12  H   UNL     1     -39.882 -53.817  16.180  1.00  0.00     0.210 HD
ENDBRANCH   1  11
BRANCH   1  13
HETATM   13  C   UNL     1     -39.606 -53.163  13.942  1.00  0.00     0.164 C 
BRANCH  13  14
HETATM   14  N   UNL     1     -40.891 -53.108  13.270  1.00  0.00    -0.339 N 
HETATM   15  C   UNL     1     -41.130 -52.444  12.097  1.00  0.00     0.184 A 
HETATM   16  N   UNL     1     -42.356 -52.636  11.668  1.00  0.00    -0.350 N 
HETATM   17  C   UNL     1     -42.943 -53.436  12.615  1.00  0.00     0.060 A 
ATOM     18  HN  UNL     1     -42.781 -52.269  10.816  1.00  0.00     0.166 HD
HETATM   19  C   UNL     1     -44.252 -53.940  12.664  1.00  0.00     0.032 A 
HETATM   20  C   UNL     1     -42.047 -53.751  13.637  1.00  0.00     0.062 A 
HETATM   21  C   UNL     1     -44.624 -54.748  13.744  1.00  0.00     0.002 A 
HETATM   22  C   UNL     1     -43.711 -55.048  14.756  1.00  0.00     0.002 A 
HETATM   23  C   UNL     1     -42.400 -54.557  14.727  1.00  0.00     0.032 A 
ENDBRANCH  13  14
ENDBRANCH   1  13
TORSDOF 6
ENDMDL
MODEL 7
REMARK VINA RESULT:      -5.2      2.549      3.397
REMARK  6 active torsions:
REMARK  status: ('A' for Active; 'I' for Inactive)
REMARK    1  A    between atoms: C_5  and  O_6 
REMARK    2  A    between atoms: O_6  and  C_7 
REMARK    3  A    between atoms: C_7  and  C_8 
REMARK    4  A    between atoms: C_8  and  O_9 
REMARK    5  A    between atoms: C_8  and  C_10 
REMARK    6  A    between atoms: C_10  and  N_11 
ROOT
HETATM    1  C   UNL     1     -41.638 -53.474  12.633  1.00  0.00     0.160 C 
ENDROOT
BRANCH   1   2
HETATM    2  C   UNL     1     -42.906 -52.655  12.316  1.00  0.00     0.209 C 
BRANCH   2   3
HETATM    3  O   UNL     1     -44.051 -53.462  12.597  1.00  0.00    -0.349 OA
BRANCH   3   4
HETATM    4  C   UNL     1     -44.989 -52.931  13.440  1.00  0.00     0.068 A 
HETATM    5  C   UNL     1     -45.036 -53.511  14.709  1.00  0.00     0.037 A 
HETATM    6  C   UNL     1     -45.911 -53.026  15.685  1.00  0.00     0.009 A 
HETATM    7  C   UNL     1     -46.744 -51.937  15.407  1.00  0.00    -0.062 A 
HETATM    8  C   UNL     1     -47.645 -51.367  16.461  1.00  0.00     0.048 C 
HETATM    9  C   UNL     1     -46.696 -51.357  14.132  1.00  0.00     0.009 A 
HETATM   10  C   UNL     1     -45.825 -51.851  13.152  1.00  0.00     0.037 A 
ENDBRANCH   3   4
ENDBRANCH   2   3
ENDBRANCH   1   2
BRANCH   1  11
HETATM   11  O   UNL     1     -40.667 -53.342  11.586  1.00  0.00    -0.392 OA
HETATM   12  H   UNL     1     -40.610 -52.410  11.314  1.00  0.00     0.210 HD
ENDBRANCH   1  11
BRANCH   1  13
HETATM   13  C   UNL     1     -41.019 -53.000  13.952  1.00  0.00     0.164 C 
BRANCH  13  14
HETATM   14  N   UNL     1     -40.259 -54.033  14.630  1.00  0.00    -0.339 N 
HETATM   15  C   UNL     1     -38.926 -54.274  14.436  1.00  0.00     0.184 A 
HETATM   16  N   UNL     1     -38.475 -55.206  15.245  1.00  0.00    -0.350 N 
HETATM   17  C   UNL     1     -39.567 -55.601  15.975  1.00  0.00     0.060 A 
ATOM     18  HN  UNL     1     -37.521 -55.559  15.314  1.00  0.00     0.166 HD
HETATM   19  C   UNL     1     -39.657 -56.577  16.979  1.00  0.00     0.032 A 
HETATM   20  C   UNL     1     -40.705 -54.882  15.613  1.00  0.00     0.062 A 
HETATM   21  C   UNL     1     -40.895 -56.804  17.590  1.00  0.00     0.002 A 
HETATM   22  C   UNL     1     -42.021 -56.074  17.209  1.00  0.00     0.002 A 
HETATM   23  C   UNL     1     -41.954 -55.095  16.211  1.00  0.00     0.032 A 
ENDBRANCH  13  14
ENDBRANCH   1  13
TORSDOF 6
ENDMDL
MODEL 8
REMARK VINA RESULT:      -5.2      3.137      5.401
REMARK  6 active torsions:
REMARK  status: ('A' for Active; 'I' for Inactive)
REMARK    1  A    between atoms: C_5  and  O_6 
REMARK    2  A    between atoms: O_6  and  C_7 
REMARK    3  A    between atoms: C_7  and  C_8 
REMARK    4  A    between atoms: C_8  and  O_9 
REMARK    5  A    between atoms: C_8  and  C_10 
REMARK    6  A    between atoms: C_10  and  N_11 
ROOT
HETATM    1  C   UNL     1     -40.885 -53.052  12.780  1.00  0.00     0.160 C 
ENDROOT
BRANCH   1   2
HETATM    2  C   UNL     1     -39.810 -53.449  13.812  1.00  0.00     0.209 C 
BRANCH   2   3
HETATM    3  O   UNL     1     -38.556 -52.903  13.396  1.00  0.00    -0.349 OA
BRANCH   3   4
HETATM    4  C   UNL     1     -38.300 -51.606  13.748  1.00  0.00     0.068 A 
HETATM    5  C   UNL     1     -37.932 -50.771  12.692  1.00  0.00     0.037 A 
HETATM    6  C   UNL     1     -37.697 -49.410  12.905  1.00  0.00     0.009 A 
HETATM    7  C   UNL     1     -37.843 -48.860  14.182  1.00  0.00    -0.062 A 
HETATM    8  C   UNL     1     -37.653 -47.392  14.415  1.00  0.00     0.048 C 
HETATM    9  C   UNL     1     -38.212 -49.701  15.242  1.00  0.00     0.009 A 
HETATM   10  C   UNL     1     -38.438 -51.066  15.028  1.00  0.00     0.037 A 
ENDBRANCH   3   4
ENDBRANCH   2   3
ENDBRANCH   1   2
BRANCH   1  11
HETATM   11  O   UNL     1     -40.526 -53.505  11.467  1.00  0.00    -0.392 OA
HETATM   12  H   UNL     1     -40.909 -52.907  10.803  1.00  0.00     0.210 HD
ENDBRANCH   1  11
BRANCH   1  13
HETATM   13  C   UNL     1     -42.237 -53.659  13.166  1.00  0.00     0.164 C 
BRANCH  13  14
HETATM   14  N   UNL     1     -43.281 -52.665  13.338  1.00  0.00    -0.339 N 
HETATM   15  C   UNL     1     -43.222 -51.383  12.862  1.00  0.00     0.184 A 
HETATM   16  N   UNL     1     -44.340 -50.729  13.081  1.00  0.00    -0.350 N 
HETATM   17  C   UNL     1     -45.146 -51.616  13.748  1.00  0.00     0.060 A 
ATOM     18  HN  UNL     1     -44.560 -49.770  12.814  1.00  0.00     0.166 HD
HETATM   19  C   UNL     1     -46.450 -51.438  14.234  1.00  0.00     0.032 A 
HETATM   20  C   UNL     1     -44.509 -52.844  13.925  1.00  0.00     0.062 A 
HETATM   21  C   UNL     1     -47.077 -52.504  14.888  1.00  0.00     0.002 A 
HETATM   22  C   UNL     1     -46.420 -53.723  15.056  1.00  0.00     0.002 A 
HETATM   23  C   UNL     1     -45.118 -53.923  14.579  1.00  0.00     0.032 A 
ENDBRANCH  13  14
ENDBRANCH   1  13
TORSDOF 6
ENDMDL
MODEL 9
REMARK VINA RESULT:      -5.1      2.143      4.604
REMARK  6 active torsions:
REMARK  status: ('A' for Active; 'I' for Inactive)
REMARK    1  A    between atoms: C_5  and  O_6 
REMARK    2  A    between atoms: O_6  and  C_7 
REMARK    3  A    between atoms: C_7  and  C_8 
REMARK    4  A    between atoms: C_8  and  O_9 
REMARK    5  A    between atoms: C_8  and  C_10 
REMARK    6  A    between atoms: C_10  and  N_11 
ROOT
HETATM    1  C   UNL     1     -41.014 -50.954  11.940  1.00  0.00     0.160 C 
ENDROOT
BRANCH   1   2
HETATM    2  C   UNL     1     -41.394 -52.440  11.772  1.00  0.00     0.209 C 
BRANCH   2   3
HETATM    3  O   UNL     1     -40.478 -53.231  12.532  1.00  0.00    -0.349 OA
BRANCH   3   4
HETATM    4  C   UNL     1     -40.992 -53.921  13.596  1.00  0.00     0.068 A 
HETATM    5  C   UNL     1     -40.056 -54.310  14.554  1.00  0.00     0.037 A 
HETATM    6  C   UNL     1     -40.456 -54.973  15.718  1.00  0.00     0.009 A 
HETATM    7  C   UNL     1     -41.809 -55.242  15.947  1.00  0.00    -0.062 A 
HETATM    8  C   UNL     1     -42.260 -55.898  17.217  1.00  0.00     0.048 C 
HETATM    9  C   UNL     1     -42.749 -54.851  14.982  1.00  0.00     0.009 A 
HETATM   10  C   UNL     1     -42.344 -54.196  13.812  1.00  0.00     0.037 A 
ENDBRANCH   3   4
ENDBRANCH   2   3
ENDBRANCH   1   2
BRANCH   1  11
HETATM   11  O   UNL     1     -40.473 -50.423  10.722  1.00  0.00    -0.392 OA
HETATM   12  H   UNL     1     -40.907 -50.848   9.964  1.00  0.00     0.210 HD
ENDBRANCH   1  11
BRANCH   1  13
HETATM   13  C   UNL     1     -42.246 -50.136  12.339  1.00  0.00     0.164 C 
BRANCH  13  14
HETATM   14  N   UNL     1     -42.822 -50.552  13.604  1.00  0.00    -0.339 N 
HETATM   15  C   UNL     1     -42.156 -50.557  14.800  1.00  0.00     0.184 A 
HETATM   16  N   UNL     1     -42.943 -50.893  15.796  1.00  0.00    -0.350 N 
HETATM   17  C   UNL     1     -44.162 -51.140  15.219  1.00  0.00     0.060 A 
ATOM     18  HN  UNL     1     -42.700 -50.958  16.785  1.00  0.00     0.166 HD
HETATM   19  C   UNL     1     -45.364 -51.544  15.820  1.00  0.00     0.032 A 
HETATM   20  C   UNL     1     -44.120 -50.934  13.840  1.00  0.00     0.062 A 
HETATM   21  C   UNL     1     -46.492 -51.732  15.014  1.00  0.00     0.002 A 
HETATM   22  C   UNL     1     -46.425 -51.522  13.636  1.00  0.00     0.002 A 
HETATM   23  C   UNL     1     -45.237 -51.118  13.016  1.00  0.00     0.032 A 
ENDBRANCH  13  14
ENDBRANCH   1  13
TORSDOF 6
ENDMDL
