MODEL 1
REMARK VINA RESULT:      -6.1      0.000      0.000
REMARK  4 active torsions:
REMARK  status: ('A' for Active; 'I' for Inactive)
REMARK    1  A    between atoms: C_2  and  N_4 
REMARK    2  A    between atoms: C_7  and  C_8 
REMARK    3  A    between atoms: C_8  and  N_9 
REMARK       I    between atoms: N_9  and  C_10 
REMARK       I    between atoms: C_10  and  N_12 
REMARK    4  A    between atoms: N_12  and  C_13 
ROOT
HETATM    1  N   UNL     1     -41.577 -53.290  12.419  1.00  0.00    -0.342 N 
HETATM    2  C   UNL     1     -41.252 -51.987  12.610  1.00  0.00     0.321 C 
HETATM    3  O   UNL     1     -41.219 -51.423  13.690  1.00  0.00    -0.247 OA
HETATM    4  N   UNL     1     -40.932 -51.340  11.387  1.00  0.00    -0.293 N 
HETATM    5  H   UNL     1     -41.777 -53.677  11.499  1.00  0.00     0.164 HD
HETATM    6  H   UNL     1     -40.947 -51.882  10.541  1.00  0.00     0.172 HD
ENDROOT
BRANCH   1   7
HETATM    7  C   UNL     1     -42.003 -54.074  13.562  1.00  0.00     0.130 C 
BRANCH   7   8
HETATM    8  C   UNL     1     -43.501 -54.399  13.601  1.00  0.00     0.033 C 
HETATM    9  C   UNL     1     -44.274 -53.722  12.475  1.00  0.00     0.038 C 
HETATM   10  C   UNL     1     -44.902 -52.484  13.107  1.00  0.00     0.273 C 
HETATM   11  N   UNL     1     -44.445 -52.458  14.515  1.00  0.00     0.092 N 
HETATM   12  C   UNL     1     -44.193 -53.873  14.852  1.00  0.00     0.279 C 
BRANCH  11  13
HETATM   13  C   UNL     1     -45.445 -51.828  15.407  1.00  0.00     0.215 C 
HETATM   14  C   UNL     1     -44.903 -50.566  16.094  1.00  0.00     0.042 C 
HETATM   15  C   UNL     1     -46.702 -51.438  14.615  1.00  0.00     0.042 C 
ENDBRANCH  11  13
ENDBRANCH   7   8
ENDBRANCH   1   7
BRANCH   4  16
HETATM   16  C   UNL     1     -40.555 -49.997  11.329  1.00  0.00     0.127 A 
HETATM   17  C   UNL     1     -41.354 -48.902  11.090  1.00  0.00     0.076 A 
HETATM   18  C   UNL     1     -40.510 -47.776  11.169  1.00  0.00     0.025 A 
HETATM   19  C   UNL     1     -40.897 -46.353  11.015  1.00  0.00     0.070 C 
HETATM   20  N   UNL     1     -39.245 -48.129  11.418  1.00  0.00    -0.302 N 
HETATM   21  N   UNL     1     -39.292 -49.475  11.504  1.00  0.00    -0.281 N 
ATOM     22  HN  UNL     1     -38.432 -47.521  11.520  1.00  0.00     0.186 HD
HETATM   23  C   UNL     1     -38.073 -50.195  11.778  1.00  0.00     0.179 C 
ENDBRANCH   4  16
TORSDOF 4
ENDMDL
MODEL 2
REMARK VINA RESULT:      -5.9      2.176      6.748
REMARK  4 active torsions:
REMARK  status: ('A' for Active; 'I' for Inactive)
REMARK    1  A    between atoms: C_2  and  N_4 
REMARK    2  A    between atoms: C_7  and  C_8 
REMARK    3  A    between atoms: C_8  and  N_9 
REMARK       I    between atoms: N_9  and  C_10 
REMARK       I    between atoms: C_10  and  N_12 
REMARK    4  A    between atoms: N_12  and  C_13 
ROOT
HETATM    1  N   UNL     1     -40.529 -50.932  11.284  1.00  0.00    -0.342 N 
HETATM    2  C   UNL     1     -41.393 -51.419  12.209  1.00  0.00     0.321 C 
HETATM    3  O   UNL     1     -41.884 -50.773  13.119  1.00  0.00    -0.247 OA
HETATM    4  N   UNL     1     -41.681 -52.792  11.989  1.00  0.00    -0.293 N 
HETATM    5  H   UNL     1     -39.996 -51.534  10.660  1.00  0.00     0.164 HD
HETATM    6  H   UNL     1     -41.265 -53.247  11.195  1.00  0.00     0.172 HD
ENDROOT
BRANCH   1   7
HETATM    7  C   UNL     1     -40.072 -49.562  11.413  1.00  0.00     0.130 C 
BRANCH   7   8
HETATM    8  C   UNL     1     -38.573 -49.403  11.693  1.00  0.00     0.033 C 
HETATM    9  C   UNL     1     -37.896 -50.730  12.017  1.00  0.00     0.038 C 
HETATM   10  C   UNL     1     -37.802 -50.771  13.539  1.00  0.00     0.273 C 
HETATM   11  N   UNL     1     -38.450 -49.534  14.030  1.00  0.00     0.092 N 
HETATM   12  C   UNL     1     -38.284 -48.564  12.931  1.00  0.00     0.279 C 
BRANCH  11  13
HETATM   13  C   UNL     1     -37.852 -49.066  15.302  1.00  0.00     0.215 C 
HETATM   14  C   UNL     1     -36.979 -50.141  15.967  1.00  0.00     0.042 C 
HETATM   15  C   UNL     1     -36.980 -47.824  15.060  1.00  0.00     0.042 C 
ENDBRANCH  11  13
ENDBRANCH   7   8
ENDBRANCH   1   7
BRANCH   4  16
HETATM   16  C   UNL     1     -42.555 -53.512  12.805  1.00  0.00     0.127 A 
HETATM   17  C   UNL     1     -43.903 -53.726  12.625  1.00  0.00     0.076 A 
HETATM   18  C   UNL     1     -44.319 -54.537  13.698  1.00  0.00     0.025 A 
HETATM   19  C   UNL     1     -45.681 -55.072  13.943  1.00  0.00     0.070 C 
HETATM   20  N   UNL     1     -43.307 -54.809  14.528  1.00  0.00    -0.302 N 
HETATM   21  N   UNL     1     -42.252 -54.175  13.975  1.00  0.00    -0.281 N 
ATOM     22  HN  UNL     1     -43.327 -55.367  15.382  1.00  0.00     0.186 HD
HETATM   23  C   UNL     1     -40.969 -54.267  14.626  1.00  0.00     0.179 C 
ENDBRANCH   4  16
TORSDOF 4
ENDMDL
MODEL 3
REMARK VINA RESULT:      -5.7      2.276      6.749
REMARK  4 active torsions:
REMARK  status: ('A' for Active; 'I' for Inactive)
REMARK    1  A    between atoms: C_2  and  N_4 
REMARK    2  A    between atoms: C_7  and  C_8 
REMARK    3  A    between atoms: C_8  and  N_9 
REMARK       I    between atoms: N_9  and  C_10 
REMARK       I    between atoms: C_10  and  N_12 
REMARK    4  A    between atoms: N_12  and  C_13 
ROOT
HETATM    1  N   UNL     1     -41.670 -50.081  11.631  1.00  0.00    -0.342 N 
HETATM    2  C   UNL     1     -42.242 -50.898  12.550  1.00  0.00     0.321 C 
HETATM    3  O   UNL     1     -42.442 -50.609  13.717  1.00  0.00    -0.247 OA
HETATM    4  N   UNL     1     -42.603 -52.151  11.987  1.00  0.00    -0.293 N 
HETATM    5  H   UNL     1     -41.347 -50.414  10.725  1.00  0.00     0.164 HD
HETATM    6  H   UNL     1     -42.438 -52.300  11.007  1.00  0.00     0.172 HD
ENDROOT
BRANCH   1   7
HETATM    7  C   UNL     1     -41.174 -48.789  12.064  1.00  0.00     0.130 C 
BRANCH   7   8
HETATM    8  C   UNL     1     -41.033 -47.743  10.951  1.00  0.00     0.033 C 
HETATM    9  C   UNL     1     -41.318 -46.329  11.442  1.00  0.00     0.038 C 
HETATM   10  C   UNL     1     -42.757 -46.041  11.026  1.00  0.00     0.273 C 
HETATM   11  N   UNL     1     -43.257 -47.274  10.377  1.00  0.00     0.092 N 
HETATM   12  C   UNL     1     -42.050 -47.924   9.831  1.00  0.00     0.279 C 
BRANCH  11  13
HETATM   13  C   UNL     1     -44.267 -46.977   9.335  1.00  0.00     0.215 C 
HETATM   14  C   UNL     1     -44.329 -45.482   8.991  1.00  0.00     0.042 C 
HETATM   15  C   UNL     1     -43.953 -47.752   8.046  1.00  0.00     0.042 C 
ENDBRANCH  11  13
ENDBRANCH   7   8
ENDBRANCH   1   7
BRANCH   4  16
HETATM   16  C   UNL     1     -43.219 -53.156  12.735  1.00  0.00     0.127 A 
HETATM   17  C   UNL     1     -44.552 -53.499  12.759  1.00  0.00     0.076 A 
HETATM   18  C   UNL     1     -44.660 -54.592  13.641  1.00  0.00     0.025 A 
HETATM   19  C   UNL     1     -45.888 -55.348  13.987  1.00  0.00     0.070 C 
HETATM   20  N   UNL     1     -43.474 -54.916  14.167  1.00  0.00    -0.302 N 
HETATM   21  N   UNL     1     -42.619 -54.032  13.613  1.00  0.00    -0.281 N 
ATOM     22  HN  UNL     1     -43.264 -55.659  14.834  1.00  0.00     0.186 HD
HETATM   23  C   UNL     1     -41.222 -54.103  13.967  1.00  0.00     0.179 C 
ENDBRANCH   4  16
TORSDOF 4
ENDMDL
MODEL 4
REMARK VINA RESULT:      -5.7      2.219      3.807
REMARK  4 active torsions:
REMARK  status: ('A' for Active; 'I' for Inactive)
REMARK    1  A    between atoms: C_2  and  N_4 
REMARK    2  A    between atoms: C_7  and  C_8 
REMARK    3  A    between atoms: C_8  and  N_9 
REMARK       I    between atoms: N_9  and  C_10 
REMARK       I    between atoms: C_10  and  N_12 
REMARK    4  A    between atoms: N_12  and  C_13 
ROOT
HETATM    1  N   UNL     1     -40.664 -50.798  11.155  1.00  0.00    -0.342 N 
HETATM    2  C   UNL     1     -40.977 -49.534  11.535  1.00  0.00     0.321 C 
HETATM    3  O   UNL     1     -41.019 -49.138  12.688  1.00  0.00    -0.247 OA
HETATM    4  N   UNL     1     -41.244 -48.699  10.418  1.00  0.00    -0.293 N 
HETATM    5  H   UNL     1     -40.822 -51.142  10.210  1.00  0.00     0.164 HD
HETATM    6  H   UNL     1     -41.154 -49.090   9.496  1.00  0.00     0.172 HD
ENDROOT
BRANCH   1   7
HETATM    7  C   UNL     1     -40.438 -51.796  12.181  1.00  0.00     0.130 C 
BRANCH   7   8
HETATM    8  C   UNL     1     -41.446 -52.951  12.194  1.00  0.00     0.033 C 
HETATM    9  C   UNL     1     -42.862 -52.485  12.513  1.00  0.00     0.038 C 
HETATM   10  C   UNL     1     -43.059 -52.783  13.996  1.00  0.00     0.273 C 
HETATM   11  N   UNL     1     -41.777 -53.344  14.481  1.00  0.00     0.092 N 
HETATM   12  C   UNL     1     -41.170 -53.971  13.291  1.00  0.00     0.279 C 
BRANCH  11  13
HETATM   13  C   UNL     1     -41.981 -54.303  15.591  1.00  0.00     0.215 C 
HETATM   14  C   UNL     1     -43.078 -55.332  15.280  1.00  0.00     0.042 C 
HETATM   15  C   UNL     1     -40.681 -55.066  15.888  1.00  0.00     0.042 C 
ENDBRANCH  11  13
ENDBRANCH   7   8
ENDBRANCH   1   7
BRANCH   4  16
HETATM   16  C   UNL     1     -41.579 -47.351  10.556  1.00  0.00     0.127 A 
HETATM   17  C   UNL     1     -40.740 -46.291  10.814  1.00  0.00     0.076 A 
HETATM   18  C   UNL     1     -41.552 -45.140  10.825  1.00  0.00     0.025 A 
HETATM   19  C   UNL     1     -41.117 -43.737  11.030  1.00  0.00     0.070 C 
HETATM   20  N   UNL     1     -42.836 -45.445  10.610  1.00  0.00    -0.302 N 
HETATM   21  N   UNL     1     -42.832 -46.786  10.457  1.00  0.00    -0.281 N 
ATOM     22  HN  UNL     1     -43.634 -44.811  10.571  1.00  0.00     0.186 HD
HETATM   23  C   UNL     1     -44.082 -47.458  10.199  1.00  0.00     0.179 C 
ENDBRANCH   4  16
TORSDOF 4
ENDMDL
MODEL 5
REMARK VINA RESULT:      -5.7      2.037      7.076
REMARK  4 active torsions:
REMARK  status: ('A' for Active; 'I' for Inactive)
REMARK    1  A    between atoms: C_2  and  N_4 
REMARK    2  A    between atoms: C_7  and  C_8 
REMARK    3  A    between atoms: C_8  and  N_9 
REMARK       I    between atoms: N_9  and  C_10 
REMARK       I    between atoms: C_10  and  N_12 
REMARK    4  A    between atoms: N_12  and  C_13 
ROOT
HETATM    1  N   UNL     1     -41.099 -50.456  11.257  1.00  0.00    -0.342 N 
HETATM    2  C   UNL     1     -41.704 -51.156  12.249  1.00  0.00     0.321 C 
HETATM    3  O   UNL     1     -41.754 -50.814  13.418  1.00  0.00    -0.247 OA
HETATM    4  N   UNL     1     -42.299 -52.351  11.763  1.00  0.00    -0.293 N 
HETATM    5  H   UNL     1     -40.912 -50.855  10.339  1.00  0.00     0.164 HD
HETATM    6  H   UNL     1     -42.246 -52.545  10.778  1.00  0.00     0.172 HD
ENDROOT
BRANCH   1   7
HETATM    7  C   UNL     1     -40.378 -49.247  11.601  1.00  0.00     0.130 C 
BRANCH   7   8
HETATM    8  C   UNL     1     -41.258 -48.071  12.043  1.00  0.00     0.033 C 
HETATM    9  C   UNL     1     -42.373 -47.772  11.048  1.00  0.00     0.038 C 
HETATM   10  C   UNL     1     -41.864 -46.600  10.215  1.00  0.00     0.273 C 
HETATM   11  N   UNL     1     -40.498 -46.304  10.703  1.00  0.00     0.092 N 
HETATM   12  C   UNL     1     -40.500 -46.751  12.110  1.00  0.00     0.279 C 
BRANCH  11  13
HETATM   13  C   UNL     1     -40.161 -44.868  10.561  1.00  0.00     0.215 C 
HETATM   14  C   UNL     1     -39.681 -44.247  11.881  1.00  0.00     0.042 C 
HETATM   15  C   UNL     1     -39.056 -44.677   9.512  1.00  0.00     0.042 C 
ENDBRANCH  11  13
ENDBRANCH   7   8
ENDBRANCH   1   7
BRANCH   4  16
HETATM   16  C   UNL     1     -42.990 -53.233  12.595  1.00  0.00     0.127 A 
HETATM   17  C   UNL     1     -44.345 -53.467  12.644  1.00  0.00     0.076 A 
HETATM   18  C   UNL     1     -44.537 -54.464  13.620  1.00  0.00     0.025 A 
HETATM   19  C   UNL     1     -45.820 -55.087  14.026  1.00  0.00     0.070 C 
HETATM   20  N   UNL     1     -43.380 -54.831  14.179  1.00  0.00    -0.302 N 
HETATM   21  N   UNL     1     -42.458 -54.071  13.552  1.00  0.00    -0.281 N 
ATOM     22  HN  UNL     1     -43.228 -55.525  14.911  1.00  0.00     0.186 HD
HETATM   23  C   UNL     1     -41.071 -54.219  13.917  1.00  0.00     0.179 C 
ENDBRANCH   4  16
TORSDOF 4
ENDMDL
MODEL 6
REMARK VINA RESULT:      -5.6      1.872      2.569
REMARK  4 active torsions:
REMARK  status: ('A' for Active; 'I' for Inactive)
REMARK    1  A    between atoms: C_2  and  N_4 
REMARK    2  A    between atoms: C_7  and  C_8 
REMARK    3  A    between atoms: C_8  and  N_9 
REMARK       I    between atoms: N_9  and  C_10 
REMARK       I    between atoms: C_10  and  N_12 
REMARK    4  A    between atoms: N_12  and  C_13 
ROOT
HETATM    1  N   UNL     1     -42.124 -51.308  12.167  1.00  0.00    -0.342 N 
HETATM    2  C   UNL     1     -41.907 -49.970  12.201  1.00  0.00     0.321 C 
HETATM    3  O   UNL     1     -41.817 -49.299  13.215  1.00  0.00    -0.247 OA
HETATM    4  N   UNL     1     -41.779 -49.424  10.896  1.00  0.00    -0.293 N 
HETATM    5  H   UNL     1     -42.381 -51.802  11.314  1.00  0.00     0.164 HD
HETATM    6  H   UNL     1     -41.829 -50.048  10.109  1.00  0.00     0.172 HD
ENDROOT
BRANCH   1   7
HETATM    7  C   UNL     1     -42.352 -52.006  13.416  1.00  0.00     0.130 C 
BRANCH   7   8
HETATM    8  C   UNL     1     -43.187 -53.288  13.299  1.00  0.00     0.033 C 
HETATM    9  C   UNL     1     -44.224 -53.207  12.185  1.00  0.00     0.038 C 
HETATM   10  C   UNL     1     -45.535 -52.855  12.881  1.00  0.00     0.273 C 
HETATM   11  N   UNL     1     -45.214 -52.698  14.318  1.00  0.00     0.092 N 
HETATM   12  C   UNL     1     -44.037 -53.561  14.534  1.00  0.00     0.279 C 
BRANCH  11  13
HETATM   13  C   UNL     1     -46.359 -53.068  15.181  1.00  0.00     0.215 C 
HETATM   14  C   UNL     1     -45.920 -53.832  16.439  1.00  0.00     0.042 C 
HETATM   15  C   UNL     1     -47.124 -51.813  15.626  1.00  0.00     0.042 C 
ENDBRANCH  11  13
ENDBRANCH   7   8
ENDBRANCH   1   7
BRANCH   4  16
HETATM   16  C   UNL     1     -41.541 -48.067  10.674  1.00  0.00     0.127 A 
HETATM   17  C   UNL     1     -40.467 -47.315  11.094  1.00  0.00     0.076 A 
HETATM   18  C   UNL     1     -40.675 -46.017  10.588  1.00  0.00     0.025 A 
HETATM   19  C   UNL     1     -39.784 -44.841  10.740  1.00  0.00     0.070 C 
HETATM   20  N   UNL     1     -41.822 -45.935   9.906  1.00  0.00    -0.302 N 
HETATM   21  N   UNL     1     -42.333 -47.182   9.975  1.00  0.00    -0.281 N 
ATOM     22  HN  UNL     1     -42.219 -45.119   9.440  1.00  0.00     0.186 HD
HETATM   23  C   UNL     1     -43.591 -47.453   9.324  1.00  0.00     0.179 C 
ENDBRANCH   4  16
TORSDOF 4
ENDMDL
MODEL 7
REMARK VINA RESULT:      -5.5      2.082      6.498
REMARK  4 active torsions:
REMARK  status: ('A' for Active; 'I' for Inactive)
REMARK    1  A    between atoms: C_2  and  N_4 
REMARK    2  A    between atoms: C_7  and  C_8 
REMARK    3  A    between atoms: C_8  and  N_9 
REMARK       I    between atoms: N_9  and  C_10 
REMARK       I    between atoms: C_10  and  N_12 
REMARK    4  A    between atoms: N_12  and  C_13 
ROOT
HETATM    1  N   UNL     1     -40.926 -50.084  11.176  1.00  0.00    -0.342 N 
HETATM    2  C   UNL     1     -41.555 -50.807  12.136  1.00  0.00     0.321 C 
HETATM    3  O   UNL     1     -41.751 -50.433  13.280  1.00  0.00    -0.247 OA
HETATM    4  N   UNL     1     -41.983 -52.070  11.648  1.00  0.00    -0.293 N 
HETATM    5  H   UNL     1     -40.614 -50.492  10.297  1.00  0.00     0.164 HD
HETATM    6  H   UNL     1     -41.817 -52.291  10.682  1.00  0.00     0.172 HD
ENDROOT
BRANCH   1   7
HETATM    7  C   UNL     1     -40.360 -48.798  11.533  1.00  0.00     0.130 C 
BRANCH   7   8
HETATM    8  C   UNL     1     -41.139 -47.582  11.018  1.00  0.00     0.033 C 
HETATM    9  C   UNL     1     -40.239 -46.376  10.772  1.00  0.00     0.038 C 
HETATM   10  C   UNL     1     -40.402 -45.495  12.007  1.00  0.00     0.273 C 
HETATM   11  N   UNL     1     -41.317 -46.220  12.918  1.00  0.00     0.092 N 
HETATM   12  C   UNL     1     -42.150 -47.051  12.027  1.00  0.00     0.279 C 
BRANCH  11  13
HETATM   13  C   UNL     1     -42.119 -45.290  13.747  1.00  0.00     0.215 C 
HETATM   14  C   UNL     1     -42.524 -44.024  12.978  1.00  0.00     0.042 C 
HETATM   15  C   UNL     1     -43.399 -45.980  14.241  1.00  0.00     0.042 C 
ENDBRANCH  11  13
ENDBRANCH   7   8
ENDBRANCH   1   7
BRANCH   4  16
HETATM   16  C   UNL     1     -42.664 -52.988  12.449  1.00  0.00     0.127 A 
HETATM   17  C   UNL     1     -44.020 -53.224  12.503  1.00  0.00     0.076 A 
HETATM   18  C   UNL     1     -44.200 -54.264  13.437  1.00  0.00     0.025 A 
HETATM   19  C   UNL     1     -45.478 -54.903  13.831  1.00  0.00     0.070 C 
HETATM   20  N   UNL     1     -43.036 -54.654  13.965  1.00  0.00    -0.302 N 
HETATM   21  N   UNL     1     -42.122 -53.867  13.361  1.00  0.00    -0.281 N 
ATOM     22  HN  UNL     1     -42.875 -55.380  14.664  1.00  0.00     0.186 HD
HETATM   23  C   UNL     1     -40.731 -54.031  13.703  1.00  0.00     0.179 C 
ENDBRANCH   4  16
TORSDOF 4
ENDMDL
MODEL 8
REMARK VINA RESULT:      -5.4      1.720      6.405
REMARK  4 active torsions:
REMARK  status: ('A' for Active; 'I' for Inactive)
REMARK    1  A    between atoms: C_2  and  N_4 
REMARK    2  A    between atoms: C_7  and  C_8 
REMARK    3  A    between atoms: C_8  and  N_9 
REMARK       I    between atoms: N_9  and  C_10 
REMARK       I    between atoms: C_10  and  N_12 
REMARK    4  A    between atoms: N_12  and  C_13 
ROOT
HETATM    1  N   UNL     1     -41.970 -51.517  11.813  1.00  0.00    -0.342 N 
HETATM    2  C   UNL     1     -42.736 -51.657  12.924  1.00  0.00     0.321 C 
HETATM    3  O   UNL     1     -42.361 -51.450  14.065  1.00  0.00    -0.247 OA
HETATM    4  N   UNL     1     -44.057 -52.069  12.604  1.00  0.00    -0.293 N 
HETATM    5  H   UNL     1     -42.251 -51.876  10.903  1.00  0.00     0.164 HD
HETATM    6  H   UNL     1     -44.300 -52.185  11.635  1.00  0.00     0.172 HD
ENDROOT
BRANCH   1   7
HETATM    7  C   UNL     1     -40.571 -51.175  11.973  1.00  0.00     0.130 C 
BRANCH   7   8
HETATM    8  C   UNL     1     -40.138 -49.876  11.283  1.00  0.00     0.033 C 
HETATM    9  C   UNL     1     -39.218 -49.031  12.156  1.00  0.00     0.038 C 
HETATM   10  C   UNL     1     -40.119 -47.968  12.778  1.00  0.00     0.273 C 
HETATM   11  N   UNL     1     -41.491 -48.255  12.302  1.00  0.00     0.092 N 
HETATM   12  C   UNL     1     -41.302 -48.933  11.004  1.00  0.00     0.279 C 
BRANCH  11  13
HETATM   13  C   UNL     1     -42.304 -47.022  12.189  1.00  0.00     0.215 C 
HETATM   14  C   UNL     1     -43.367 -47.122  11.084  1.00  0.00     0.042 C 
HETATM   15  C   UNL     1     -43.019 -46.727  13.515  1.00  0.00     0.042 C 
ENDBRANCH  11  13
ENDBRANCH   7   8
ENDBRANCH   1   7
BRANCH   4  16
HETATM   16  C   UNL     1     -45.034 -52.270  13.580  1.00  0.00     0.127 A 
HETATM   17  C   UNL     1     -45.715 -51.320  14.307  1.00  0.00     0.076 A 
HETATM   18  C   UNL     1     -46.613 -52.025  15.132  1.00  0.00     0.025 A 
HETATM   19  C   UNL     1     -47.595 -51.453  16.084  1.00  0.00     0.070 C 
HETATM   20  N   UNL     1     -46.498 -53.346  14.963  1.00  0.00    -0.302 N 
HETATM   21  N   UNL     1     -45.535 -53.474  14.027  1.00  0.00    -0.281 N 
ATOM     22  HN  UNL     1     -47.019 -54.087  15.432  1.00  0.00     0.186 HD
HETATM   23  C   UNL     1     -45.158 -54.797  13.595  1.00  0.00     0.179 C 
ENDBRANCH   4  16
TORSDOF 4
ENDMDL
MODEL 9
REMARK VINA RESULT:      -5.3      1.842      2.561
REMARK  4 active torsions:
REMARK  status: ('A' for Active; 'I' for Inactive)
REMARK    1  A    between atoms: C_2  and  N_4 
REMARK    2  A    between atoms: C_7  and  C_8 
REMARK    3  A    between atoms: C_8  and  N_9 
REMARK       I    between atoms: N_9  and  C_10 
REMARK       I    between atoms: C_10  and  N_12 
REMARK    4  A    between atoms: N_12  and  C_13 
ROOT
HETATM    1  N   UNL     1     -42.541 -50.706  12.125  1.00  0.00    -0.342 N 
HETATM    2  C   UNL     1     -41.540 -49.809  11.944  1.00  0.00     0.321 C 
HETATM    3  O   UNL     1     -40.363 -50.090  11.801  1.00  0.00    -0.247 OA
HETATM    4  N   UNL     1     -42.027 -48.474  11.927  1.00  0.00    -0.293 N 
HETATM    5  H   UNL     1     -43.475 -50.435  12.428  1.00  0.00     0.164 HD
HETATM    6  H   UNL     1     -43.018 -48.325  12.015  1.00  0.00     0.172 HD
ENDROOT
BRANCH   1   7
HETATM    7  C   UNL     1     -42.202 -52.110  12.243  1.00  0.00     0.130 C 
BRANCH   7   8
HETATM    8  C   UNL     1     -42.695 -52.790  13.526  1.00  0.00     0.033 C 
HETATM    9  C   UNL     1     -43.024 -54.263  13.316  1.00  0.00     0.038 C 
HETATM   10  C   UNL     1     -44.538 -54.316  13.144  1.00  0.00     0.273 C 
HETATM   11  N   UNL     1     -45.013 -52.915  13.206  1.00  0.00     0.092 N 
HETATM   12  C   UNL     1     -44.011 -52.218  14.036  1.00  0.00     0.279 C 
BRANCH  11  13
HETATM   13  C   UNL     1     -46.382 -52.822  13.765  1.00  0.00     0.215 C 
HETATM   14  C   UNL     1     -46.623 -53.838  14.891  1.00  0.00     0.042 C 
HETATM   15  C   UNL     1     -46.638 -51.416  14.327  1.00  0.00     0.042 C 
ENDBRANCH  11  13
ENDBRANCH   7   8
ENDBRANCH   1   7
BRANCH   4  16
HETATM   16  C   UNL     1     -41.187 -47.376  11.744  1.00  0.00     0.127 A 
HETATM   17  C   UNL     1     -40.902 -46.711  10.572  1.00  0.00     0.076 A 
HETATM   18  C   UNL     1     -40.033 -45.658  10.919  1.00  0.00     0.025 A 
HETATM   19  C   UNL     1     -39.460 -44.633  10.014  1.00  0.00     0.070 C 
HETATM   20  N   UNL     1     -39.758 -45.661  12.227  1.00  0.00    -0.302 N 
HETATM   21  N   UNL     1     -40.459 -46.709  12.706  1.00  0.00    -0.281 N 
ATOM     22  HN  UNL     1     -39.158 -45.018  12.744  1.00  0.00     0.186 HD
HETATM   23  C   UNL     1     -40.392 -47.002  14.117  1.00  0.00     0.179 C 
ENDBRANCH   4  16
TORSDOF 4
ENDMDL
