MODEL 1
REMARK VINA RESULT:      -5.9      0.000      0.000
REMARK  5 active torsions:
REMARK  status: ('A' for Active; 'I' for Inactive)
REMARK    1  A    between atoms: C_7  and  C_8 
REMARK    2  A    between atoms: C_8  and  C_9 
REMARK    3  A    between atoms: C_9  and  N_10 
REMARK       I    between atoms: N_10  and  C_11 
REMARK       I    between atoms: C_11  and  N_13 
REMARK    4  A    between atoms: N_13  and  C_14 
REMARK    5  A    between atoms: C_14  and  C_15 
ROOT
HETATM    1  N   UNL     1     -42.224 -52.530  11.712  1.00  0.00    -0.343 N 
HETATM    2  C   UNL     1     -41.470 -51.463  12.139  1.00  0.00     0.316 C 
HETATM    3  O   UNL     1     -41.268 -51.203  13.318  1.00  0.00    -0.247 OA
HETATM    4  N   UNL     1     -40.952 -50.728  11.110  1.00  0.00    -0.343 N 
HETATM    5  H   UNL     1     -42.735 -52.361  10.858  1.00  0.00     0.164 HD
HETATM    6  H   UNL     1     -40.973 -51.127  10.184  1.00  0.00     0.164 HD
ENDROOT
BRANCH   1   7
HETATM    7  C   UNL     1     -42.878 -53.325  12.742  1.00  0.00     0.129 C 
BRANCH   7   8
HETATM    8  C   UNL     1     -44.369 -53.568  12.506  1.00  0.00     0.068 C 
BRANCH   8   9
HETATM    9  C   UNL     1     -45.207 -52.699  13.403  1.00  0.00     0.008 A 
HETATM   10  C   UNL     1     -46.320 -51.925  13.109  1.00  0.00     0.019 A 
HETATM   11  N   UNL     1     -46.872 -51.263  14.195  1.00  0.00    -0.357 N 
HETATM   12  C   UNL     1     -46.973 -51.740  11.787  1.00  0.00     0.069 C 
HETATM   13  C   UNL     1     -46.198 -51.534  15.289  1.00  0.00     0.047 A 
ATOM     14  HN  UNL     1     -47.687 -50.652  14.150  1.00  0.00     0.166 HD
HETATM   15  C   UNL     1     -46.537 -50.994  16.634  1.00  0.00     0.076 C 
HETATM   16  S   UNL     1     -44.855 -52.580  15.082  1.00  0.00    -0.080 SA
ENDBRANCH   8   9
ENDBRANCH   7   8
ENDBRANCH   1   7
BRANCH   4  17
HETATM   17  C   UNL     1     -40.100 -49.576  11.363  1.00  0.00     0.131 C 
BRANCH  17  18
HETATM   18  C   UNL     1     -40.830 -48.237  11.476  1.00  0.00     0.029 C 
HETATM   19  C   UNL     1     -41.912 -47.999  10.438  1.00  0.00     0.034 C 
HETATM   20  C   UNL     1     -41.922 -46.491  10.242  1.00  0.00     0.168 C 
HETATM   21  O   UNL     1     -40.913 -45.940  11.095  1.00  0.00    -0.391 OA
HETATM   22  C   UNL     1     -39.974 -46.991  11.367  1.00  0.00     0.173 C 
ENDBRANCH  17  18
ENDBRANCH   4  17
TORSDOF 5
ENDMDL
MODEL 2
REMARK VINA RESULT:      -5.8      2.957      4.356
REMARK  5 active torsions:
REMARK  status: ('A' for Active; 'I' for Inactive)
REMARK    1  A    between atoms: C_7  and  C_8 
REMARK    2  A    between atoms: C_8  and  C_9 
REMARK    3  A    between atoms: C_9  and  N_10 
REMARK       I    between atoms: N_10  and  C_11 
REMARK       I    between atoms: C_11  and  N_13 
REMARK    4  A    between atoms: N_13  and  C_14 
REMARK    5  A    between atoms: C_14  and  C_15 
ROOT
HETATM    1  N   UNL     1     -41.619 -50.069  11.430  1.00  0.00    -0.343 N 
HETATM    2  C   UNL     1     -42.375 -48.926  11.335  1.00  0.00     0.316 C 
HETATM    3  O   UNL     1     -43.060 -48.487  12.250  1.00  0.00    -0.247 OA
HETATM    4  N   UNL     1     -42.272 -48.315  10.116  1.00  0.00    -0.343 N 
HETATM    5  H   UNL     1     -41.546 -50.591  10.568  1.00  0.00     0.164 HD
HETATM    6  H   UNL     1     -41.527 -48.605   9.502  1.00  0.00     0.164 HD
ENDROOT
BRANCH   1   7
HETATM    7  C   UNL     1     -41.727 -50.826  12.669  1.00  0.00     0.129 C 
BRANCH   7   8
HETATM    8  C   UNL     1     -41.237 -52.272  12.575  1.00  0.00     0.068 C 
BRANCH   8   9
HETATM    9  C   UNL     1     -42.234 -53.220  13.180  1.00  0.00     0.008 A 
HETATM   10  C   UNL     1     -42.077 -54.150  14.198  1.00  0.00     0.019 A 
HETATM   11  N   UNL     1     -43.227 -54.849  14.532  1.00  0.00    -0.357 N 
HETATM   12  C   UNL     1     -40.839 -54.463  14.957  1.00  0.00     0.069 C 
HETATM   13  C   UNL     1     -44.236 -54.454  13.788  1.00  0.00     0.047 A 
ATOM     14  HN  UNL     1     -43.282 -55.567  15.253  1.00  0.00     0.166 HD
HETATM   15  C   UNL     1     -45.618 -54.994  13.901  1.00  0.00     0.076 C 
HETATM   16  S   UNL     1     -43.866 -53.239  12.636  1.00  0.00    -0.080 SA
ENDBRANCH   8   9
ENDBRANCH   7   8
ENDBRANCH   1   7
BRANCH   4  17
HETATM   17  C   UNL     1     -42.976 -47.073   9.835  1.00  0.00     0.131 C 
BRANCH  17  18
HETATM   18  C   UNL     1     -44.173 -47.201   8.893  1.00  0.00     0.029 C 
HETATM   19  C   UNL     1     -45.469 -47.647   9.547  1.00  0.00     0.034 C 
HETATM   20  C   UNL     1     -46.201 -48.410   8.455  1.00  0.00     0.168 C 
HETATM   21  O   UNL     1     -45.367 -48.400   7.291  1.00  0.00    -0.391 OA
HETATM   22  C   UNL     1     -44.023 -48.173   7.740  1.00  0.00     0.173 C 
ENDBRANCH  17  18
ENDBRANCH   4  17
TORSDOF 5
ENDMDL
MODEL 3
REMARK VINA RESULT:      -5.7      1.773      2.625
REMARK  5 active torsions:
REMARK  status: ('A' for Active; 'I' for Inactive)
REMARK    1  A    between atoms: C_7  and  C_8 
REMARK    2  A    between atoms: C_8  and  C_9 
REMARK    3  A    between atoms: C_9  and  N_10 
REMARK       I    between atoms: N_10  and  C_11 
REMARK       I    between atoms: C_11  and  N_13 
REMARK    4  A    between atoms: N_13  and  C_14 
REMARK    5  A    between atoms: C_14  and  C_15 
ROOT
HETATM    1  N   UNL     1     -41.274 -51.797  11.468  1.00  0.00    -0.343 N 
HETATM    2  C   UNL     1     -40.930 -50.494  11.740  1.00  0.00     0.316 C 
HETATM    3  O   UNL     1     -40.160 -50.169  12.635  1.00  0.00    -0.247 OA
HETATM    4  N   UNL     1     -41.521 -49.596  10.896  1.00  0.00    -0.343 N 
HETATM    5  H   UNL     1     -42.218 -51.914  11.130  1.00  0.00     0.164 HD
HETATM    6  H   UNL     1     -41.955 -49.948  10.057  1.00  0.00     0.164 HD
ENDROOT
BRANCH   1   7
HETATM    7  C   UNL     1     -40.748 -52.816  12.365  1.00  0.00     0.129 C 
BRANCH   7   8
HETATM    8  C   UNL     1     -41.808 -53.741  12.966  1.00  0.00     0.068 C 
BRANCH   8   9
HETATM    9  C   UNL     1     -42.973 -52.953  13.498  1.00  0.00     0.008 A 
HETATM   10  C   UNL     1     -43.040 -52.073  14.568  1.00  0.00     0.019 A 
HETATM   11  N   UNL     1     -44.283 -51.491  14.767  1.00  0.00    -0.357 N 
HETATM   12  C   UNL     1     -41.946 -51.689  15.497  1.00  0.00     0.069 C 
HETATM   13  C   UNL     1     -45.138 -51.915  13.864  1.00  0.00     0.047 A 
ATOM     14  HN  UNL     1     -44.502 -50.827  15.509  1.00  0.00     0.166 HD
HETATM   15  C   UNL     1     -46.557 -51.475  13.786  1.00  0.00     0.076 C 
HETATM   16  S   UNL     1     -44.512 -53.046  12.737  1.00  0.00    -0.080 SA
ENDBRANCH   8   9
ENDBRANCH   7   8
ENDBRANCH   1   7
BRANCH   4  17
HETATM   17  C   UNL     1     -41.253 -48.171  11.008  1.00  0.00     0.131 C 
BRANCH  17  18
HETATM   18  C   UNL     1     -42.377 -47.256  10.521  1.00  0.00     0.029 C 
HETATM   19  C   UNL     1     -43.048 -47.684   9.227  1.00  0.00     0.034 C 
HETATM   20  C   UNL     1     -43.489 -46.381   8.581  1.00  0.00     0.168 C 
HETATM   21  O   UNL     1     -43.081 -45.313   9.443  1.00  0.00    -0.391 OA
HETATM   22  C   UNL     1     -42.002 -45.814  10.247  1.00  0.00     0.173 C 
ENDBRANCH  17  18
ENDBRANCH   4  17
TORSDOF 5
ENDMDL
MODEL 4
REMARK VINA RESULT:      -5.5      3.025      7.138
REMARK  5 active torsions:
REMARK  status: ('A' for Active; 'I' for Inactive)
REMARK    1  A    between atoms: C_7  and  C_8 
REMARK    2  A    between atoms: C_8  and  C_9 
REMARK    3  A    between atoms: C_9  and  N_10 
REMARK       I    between atoms: N_10  and  C_11 
REMARK       I    between atoms: C_11  and  N_13 
REMARK    4  A    between atoms: N_13  and  C_14 
REMARK    5  A    between atoms: C_14  and  C_15 
ROOT
HETATM    1  N   UNL     1     -41.435 -50.774  11.393  1.00  0.00    -0.343 N 
HETATM    2  C   UNL     1     -41.121 -51.804  12.247  1.00  0.00     0.316 C 
HETATM    3  O   UNL     1     -40.103 -51.836  12.926  1.00  0.00    -0.247 OA
HETATM    4  N   UNL     1     -42.073 -52.784  12.277  1.00  0.00    -0.343 N 
HETATM    5  H   UNL     1     -41.943 -51.059  10.568  1.00  0.00     0.164 HD
HETATM    6  H   UNL     1     -42.974 -52.583  11.870  1.00  0.00     0.164 HD
ENDROOT
BRANCH   1   7
HETATM    7  C   UNL     1     -40.441 -49.720  11.242  1.00  0.00     0.129 C 
BRANCH   7   8
HETATM    8  C   UNL     1     -40.780 -48.419  11.971  1.00  0.00     0.068 C 
BRANCH   8   9
HETATM    9  C   UNL     1     -41.519 -47.470  11.068  1.00  0.00     0.008 A 
HETATM   10  C   UNL     1     -41.088 -46.300  10.460  1.00  0.00     0.019 A 
HETATM   11  N   UNL     1     -42.033 -45.678   9.658  1.00  0.00    -0.357 N 
HETATM   12  C   UNL     1     -39.750 -45.662  10.565  1.00  0.00     0.069 C 
HETATM   13  C   UNL     1     -43.154 -46.364   9.653  1.00  0.00     0.047 A 
ATOM     14  HN  UNL     1     -41.879 -44.811   9.144  1.00  0.00     0.166 HD
HETATM   15  C   UNL     1     -44.366 -45.978   8.881  1.00  0.00     0.076 C 
HETATM   16  S   UNL     1     -43.149 -47.781  10.619  1.00  0.00    -0.080 SA
ENDBRANCH   8   9
ENDBRANCH   7   8
ENDBRANCH   1   7
BRANCH   4  17
HETATM   17  C   UNL     1     -41.933 -53.942  13.146  1.00  0.00     0.131 C 
BRANCH  17  18
HETATM   18  C   UNL     1     -43.243 -54.631  13.530  1.00  0.00     0.029 C 
HETATM   19  C   UNL     1     -44.495 -54.038  12.908  1.00  0.00     0.034 C 
HETATM   20  C   UNL     1     -45.586 -54.299  13.934  1.00  0.00     0.168 C 
HETATM   21  O   UNL     1     -44.981 -54.971  15.044  1.00  0.00    -0.391 OA
HETATM   22  C   UNL     1     -43.580 -54.663  15.007  1.00  0.00     0.173 C 
ENDBRANCH  17  18
ENDBRANCH   4  17
TORSDOF 5
ENDMDL
MODEL 5
REMARK VINA RESULT:      -5.5      2.819      7.004
REMARK  5 active torsions:
REMARK  status: ('A' for Active; 'I' for Inactive)
REMARK    1  A    between atoms: C_7  and  C_8 
REMARK    2  A    between atoms: C_8  and  C_9 
REMARK    3  A    between atoms: C_9  and  N_10 
REMARK       I    between atoms: N_10  and  C_11 
REMARK       I    between atoms: C_11  and  N_13 
REMARK    4  A    between atoms: N_13  and  C_14 
REMARK    5  A    between atoms: C_14  and  C_15 
ROOT
HETATM    1  N   UNL     1     -42.265 -52.257  11.759  1.00  0.00    -0.343 N 
HETATM    2  C   UNL     1     -43.145 -52.994  12.515  1.00  0.00     0.316 C 
HETATM    3  O   UNL     1     -42.798 -53.792  13.376  1.00  0.00    -0.247 OA
HETATM    4  N   UNL     1     -44.454 -52.732  12.219  1.00  0.00    -0.343 N 
HETATM    5  H   UNL     1     -42.580 -52.073  10.818  1.00  0.00     0.164 HD
HETATM    6  H   UNL     1     -44.662 -51.913  11.669  1.00  0.00     0.164 HD
ENDROOT
BRANCH   1   7
HETATM    7  C   UNL     1     -40.847 -52.526  11.955  1.00  0.00     0.129 C 
BRANCH   7   8
HETATM    8  C   UNL     1     -40.164 -51.614  12.975  1.00  0.00     0.068 C 
BRANCH   8   9
HETATM    9  C   UNL     1     -39.899 -50.254  12.391  1.00  0.00     0.008 A 
HETATM   10  C   UNL     1     -38.766 -49.759  11.763  1.00  0.00     0.019 A 
HETATM   11  N   UNL     1     -38.873 -48.451  11.314  1.00  0.00    -0.357 N 
HETATM   12  C   UNL     1     -37.482 -50.466  11.516  1.00  0.00     0.069 C 
HETATM   13  C   UNL     1     -40.063 -47.967  11.590  1.00  0.00     0.047 A 
ATOM     14  HN  UNL     1     -38.132 -47.938  10.837  1.00  0.00     0.166 HD
HETATM   15  C   UNL     1     -40.510 -46.594  11.232  1.00  0.00     0.076 C 
HETATM   16  S   UNL     1     -41.116 -49.039  12.417  1.00  0.00    -0.080 SA
ENDBRANCH   8   9
ENDBRANCH   7   8
ENDBRANCH   1   7
BRANCH   4  17
HETATM   17  C   UNL     1     -45.533 -53.393  12.937  1.00  0.00     0.131 C 
BRANCH  17  18
HETATM   18  C   UNL     1     -46.388 -52.478  13.815  1.00  0.00     0.029 C 
HETATM   19  C   UNL     1     -45.636 -51.353  14.505  1.00  0.00     0.034 C 
HETATM   20  C   UNL     1     -46.405 -51.121  15.795  1.00  0.00     0.168 C 
HETATM   21  O   UNL     1     -47.490 -52.055  15.824  1.00  0.00    -0.391 OA
HETATM   22  C   UNL     1     -47.130 -53.141  14.958  1.00  0.00     0.173 C 
ENDBRANCH  17  18
ENDBRANCH   4  17
TORSDOF 5
ENDMDL
MODEL 6
REMARK VINA RESULT:      -5.4      2.989      6.176
REMARK  5 active torsions:
REMARK  status: ('A' for Active; 'I' for Inactive)
REMARK    1  A    between atoms: C_7  and  C_8 
REMARK    2  A    between atoms: C_8  and  C_9 
REMARK    3  A    between atoms: C_9  and  N_10 
REMARK       I    between atoms: N_10  and  C_11 
REMARK       I    between atoms: C_11  and  N_13 
REMARK    4  A    between atoms: N_13  and  C_14 
REMARK    5  A    between atoms: C_14  and  C_15 
ROOT
HETATM    1  N   UNL     1     -42.187 -52.461  11.730  1.00  0.00    -0.343 N 
HETATM    2  C   UNL     1     -42.823 -53.242  12.666  1.00  0.00     0.316 C 
HETATM    3  O   UNL     1     -42.313 -53.583  13.725  1.00  0.00    -0.247 OA
HETATM    4  N   UNL     1     -44.095 -53.586  12.300  1.00  0.00    -0.343 N 
HETATM    5  H   UNL     1     -42.436 -52.673  10.775  1.00  0.00     0.164 HD
HETATM    6  H   UNL     1     -44.518 -53.089  11.532  1.00  0.00     0.164 HD
ENDROOT
BRANCH   1   7
HETATM    7  C   UNL     1     -40.800 -52.109  12.003  1.00  0.00     0.129 C 
BRANCH   7   8
HETATM    8  C   UNL     1     -40.618 -50.808  12.785  1.00  0.00     0.068 C 
BRANCH   8   9
HETATM    9  C   UNL     1     -41.540 -49.736  12.272  1.00  0.00     0.008 A 
HETATM   10  C   UNL     1     -42.754 -49.288  12.772  1.00  0.00     0.019 A 
HETATM   11  N   UNL     1     -43.332 -48.251  12.057  1.00  0.00    -0.357 N 
HETATM   12  C   UNL     1     -43.480 -49.784  13.970  1.00  0.00     0.069 C 
HETATM   13  C   UNL     1     -42.571 -47.914  11.040  1.00  0.00     0.047 A 
ATOM     14  HN  UNL     1     -44.222 -47.810  12.288  1.00  0.00     0.166 HD
HETATM   15  C   UNL     1     -42.895 -46.825  10.079  1.00  0.00     0.076 C 
HETATM   16  S   UNL     1     -41.130 -48.829  10.869  1.00  0.00    -0.080 SA
ENDBRANCH   8   9
ENDBRANCH   7   8
ENDBRANCH   1   7
BRANCH   4  17
HETATM   17  C   UNL     1     -44.938 -54.384  13.176  1.00  0.00     0.131 C 
BRANCH  17  18
HETATM   18  C   UNL     1     -46.035 -53.610  13.908  1.00  0.00     0.029 C 
HETATM   19  C   UNL     1     -46.314 -52.217  13.371  1.00  0.00     0.034 C 
HETATM   20  C   UNL     1     -46.773 -51.429  14.588  1.00  0.00     0.168 C 
HETATM   21  O   UNL     1     -46.736 -52.314  15.713  1.00  0.00    -0.391 OA
HETATM   22  C   UNL     1     -45.816 -53.366  15.387  1.00  0.00     0.173 C 
ENDBRANCH  17  18
ENDBRANCH   4  17
TORSDOF 5
ENDMDL
MODEL 7
REMARK VINA RESULT:      -5.4      3.263      7.093
REMARK  5 active torsions:
REMARK  status: ('A' for Active; 'I' for Inactive)
REMARK    1  A    between atoms: C_7  and  C_8 
REMARK    2  A    between atoms: C_8  and  C_9 
REMARK    3  A    between atoms: C_9  and  N_10 
REMARK       I    between atoms: N_10  and  C_11 
REMARK       I    between atoms: C_11  and  N_13 
REMARK    4  A    between atoms: N_13  and  C_14 
REMARK    5  A    between atoms: C_14  and  C_15 
ROOT
HETATM    1  N   UNL     1     -42.559 -52.607  11.736  1.00  0.00    -0.343 N 
HETATM    2  C   UNL     1     -43.126 -53.376  12.723  1.00  0.00     0.316 C 
HETATM    3  O   UNL     1     -42.509 -53.803  13.691  1.00  0.00    -0.247 OA
HETATM    4  N   UNL     1     -44.460 -53.604  12.524  1.00  0.00    -0.343 N 
HETATM    5  H   UNL     1     -42.950 -52.755  10.818  1.00  0.00     0.164 HD
HETATM    6  H   UNL     1     -44.940 -53.041  11.839  1.00  0.00     0.164 HD
ENDROOT
BRANCH   1   7
HETATM    7  C   UNL     1     -41.124 -52.376  11.828  1.00  0.00     0.129 C 
BRANCH   7   8
HETATM    8  C   UNL     1     -40.727 -50.912  12.025  1.00  0.00     0.068 C 
BRANCH   8   9
HETATM    9  C   UNL     1     -39.582 -50.789  12.991  1.00  0.00     0.008 A 
HETATM   10  C   UNL     1     -38.266 -50.407  12.771  1.00  0.00     0.019 A 
HETATM   11  N   UNL     1     -37.471 -50.374  13.906  1.00  0.00    -0.357 N 
HETATM   12  C   UNL     1     -37.635 -50.029  11.480  1.00  0.00     0.069 C 
HETATM   13  C   UNL     1     -38.169 -50.717  14.966  1.00  0.00     0.047 A 
ATOM     14  HN  UNL     1     -36.484 -50.119  13.917  1.00  0.00     0.166 HD
HETATM   15  C   UNL     1     -37.618 -50.771  16.347  1.00  0.00     0.076 C 
HETATM   16  S   UNL     1     -39.809 -51.115  14.665  1.00  0.00    -0.080 SA
ENDBRANCH   8   9
ENDBRANCH   7   8
ENDBRANCH   1   7
BRANCH   4  17
HETATM   17  C   UNL     1     -45.242 -54.372  13.481  1.00  0.00     0.131 C 
BRANCH  17  18
HETATM   18  C   UNL     1     -46.268 -53.568  14.279  1.00  0.00     0.029 C 
HETATM   19  C   UNL     1     -46.501 -52.148  13.793  1.00  0.00     0.034 C 
HETATM   20  C   UNL     1     -46.869 -51.375  15.048  1.00  0.00     0.168 C 
HETATM   21  O   UNL     1     -46.829 -52.292  16.147  1.00  0.00    -0.391 OA
HETATM   22  C   UNL     1     -45.976 -53.378  15.754  1.00  0.00     0.173 C 
ENDBRANCH  17  18
ENDBRANCH   4  17
TORSDOF 5
ENDMDL
MODEL 8
REMARK VINA RESULT:      -5.3      3.163      7.109
REMARK  5 active torsions:
REMARK  status: ('A' for Active; 'I' for Inactive)
REMARK    1  A    between atoms: C_7  and  C_8 
REMARK    2  A    between atoms: C_8  and  C_9 
REMARK    3  A    between atoms: C_9  and  N_10 
REMARK       I    between atoms: N_10  and  C_11 
REMARK       I    between atoms: C_11  and  N_13 
REMARK    4  A    between atoms: N_13  and  C_14 
REMARK    5  A    between atoms: C_14  and  C_15 
ROOT
HETATM    1  N   UNL     1     -42.501 -50.309  12.043  1.00  0.00    -0.343 N 
HETATM    2  C   UNL     1     -42.254 -51.611  12.406  1.00  0.00     0.316 C 
HETATM    3  O   UNL     1     -41.144 -52.036  12.700  1.00  0.00    -0.247 OA
HETATM    4  N   UNL     1     -43.382 -52.384  12.424  1.00  0.00    -0.343 N 
HETATM    5  H   UNL     1     -43.241 -50.200  11.366  1.00  0.00     0.164 HD
HETATM    6  H   UNL     1     -44.276 -51.920  12.392  1.00  0.00     0.164 HD
ENDROOT
BRANCH   1   7
HETATM    7  C   UNL     1     -41.345 -49.431  11.926  1.00  0.00     0.129 C 
BRANCH   7   8
HETATM    8  C   UNL     1     -41.227 -48.715  10.580  1.00  0.00     0.068 C 
BRANCH   8   9
HETATM    9  C   UNL     1     -41.679 -47.284  10.687  1.00  0.00     0.008 A 
HETATM   10  C   UNL     1     -42.939 -46.732  10.510  1.00  0.00     0.019 A 
HETATM   11  N   UNL     1     -43.008 -45.362  10.716  1.00  0.00    -0.357 N 
HETATM   12  C   UNL     1     -44.194 -47.435  10.140  1.00  0.00     0.069 C 
HETATM   13  C   UNL     1     -41.829 -44.887  11.049  1.00  0.00     0.047 A 
ATOM     14  HN  UNL     1     -43.855 -44.803  10.623  1.00  0.00     0.166 HD
HETATM   15  C   UNL     1     -41.560 -43.456  11.352  1.00  0.00     0.076 C 
HETATM   16  S   UNL     1     -40.566 -46.046  11.117  1.00  0.00    -0.080 SA
ENDBRANCH   8   9
ENDBRANCH   7   8
ENDBRANCH   1   7
BRANCH   4  17
HETATM   17  C   UNL     1     -43.327 -53.785  12.815  1.00  0.00     0.131 C 
BRANCH  17  18
HETATM   18  C   UNL     1     -44.176 -54.156  14.031  1.00  0.00     0.029 C 
HETATM   19  C   UNL     1     -45.414 -54.982  13.731  1.00  0.00     0.034 C 
HETATM   20  C   UNL     1     -46.408 -54.577  14.806  1.00  0.00     0.168 C 
HETATM   21  O   UNL     1     -45.775 -53.592  15.630  1.00  0.00    -0.391 OA
HETATM   22  C   UNL     1     -44.727 -53.003  14.846  1.00  0.00     0.173 C 
ENDBRANCH  17  18
ENDBRANCH   4  17
TORSDOF 5
ENDMDL
MODEL 9
REMARK VINA RESULT:      -5.2      1.978      2.256
REMARK  5 active torsions:
REMARK  status: ('A' for Active; 'I' for Inactive)
REMARK    1  A    between atoms: C_7  and  C_8 
REMARK    2  A    between atoms: C_8  and  C_9 
REMARK    3  A    between atoms: C_9  and  N_10 
REMARK       I    between atoms: N_10  and  C_11 
REMARK       I    between atoms: C_11  and  N_13 
REMARK    4  A    between atoms: N_13  and  C_14 
REMARK    5  A    between atoms: C_14  and  C_15 
ROOT
HETATM    1  N   UNL     1     -43.173 -51.460  12.617  1.00  0.00    -0.343 N 
HETATM    2  C   UNL     1     -42.313 -50.455  12.245  1.00  0.00     0.316 C 
HETATM    3  O   UNL     1     -41.099 -50.594  12.164  1.00  0.00    -0.247 OA
HETATM    4  N   UNL     1     -42.954 -49.282  11.955  1.00  0.00    -0.343 N 
HETATM    5  H   UNL     1     -43.981 -51.145  13.133  1.00  0.00     0.164 HD
HETATM    6  H   UNL     1     -43.954 -49.307  11.827  1.00  0.00     0.164 HD
ENDROOT
BRANCH   1   7
HETATM    7  C   UNL     1     -42.570 -52.724  13.016  1.00  0.00     0.129 C 
BRANCH   7   8
HETATM    8  C   UNL     1     -42.861 -53.139  14.459  1.00  0.00     0.068 C 
BRANCH   8   9
HETATM    9  C   UNL     1     -44.319 -52.966  14.786  1.00  0.00     0.008 A 
HETATM   10  C   UNL     1     -45.400 -53.790  14.508  1.00  0.00     0.019 A 
HETATM   11  N   UNL     1     -46.619 -53.334  14.986  1.00  0.00    -0.357 N 
HETATM   12  C   UNL     1     -45.390 -55.084  13.778  1.00  0.00     0.069 C 
HETATM   13  C   UNL     1     -46.466 -52.192  15.619  1.00  0.00     0.047 A 
ATOM     14  HN  UNL     1     -47.509 -53.816  14.865  1.00  0.00     0.166 HD
HETATM   15  C   UNL     1     -47.575 -51.439  16.265  1.00  0.00     0.076 C 
HETATM   16  S   UNL     1     -44.860 -51.589  15.663  1.00  0.00    -0.080 SA
ENDBRANCH   8   9
ENDBRANCH   7   8
ENDBRANCH   1   7
BRANCH   4  17
HETATM   17  C   UNL     1     -42.214 -48.111  11.512  1.00  0.00     0.131 C 
BRANCH  17  18
HETATM   18  C   UNL     1     -43.061 -47.006  10.880  1.00  0.00     0.029 C 
HETATM   19  C   UNL     1     -43.945 -47.446   9.726  1.00  0.00     0.034 C 
HETATM   20  C   UNL     1     -44.043 -46.217   8.836  1.00  0.00     0.168 C 
HETATM   21  O   UNL     1     -43.261 -45.182   9.443  1.00  0.00    -0.391 OA
HETATM   22  C   UNL     1     -42.306 -45.827  10.299  1.00  0.00     0.173 C 
ENDBRANCH  17  18
ENDBRANCH   4  17
TORSDOF 5
ENDMDL
