MODEL 1
REMARK VINA RESULT:      -5.4      0.000      0.000
REMARK  6 active torsions:
REMARK  status: ('A' for Active; 'I' for Inactive)
REMARK    1  A    between atoms: C_2  and  C_3 
REMARK    2  A    between atoms: C_2  and  N_13 
REMARK       I    between atoms: C_3  and  N_5 
REMARK    3  A    between atoms: N_5  and  C_6 
REMARK    4  A    between atoms: C_6  and  C_7 
REMARK    5  A    between atoms: C_7  and  C_10 
REMARK    6  A    between atoms: C_10  and  O_12 
ROOT
HETATM    1  C   UNL     1     -42.240 -47.598  11.213  1.00  0.00     0.242 C 
HETATM    2  O   UNL     1     -41.901 -48.564  10.531  1.00  0.00    -0.271 OA
HETATM    3  N   UNL     1     -43.514 -47.062  11.143  1.00  0.00    -0.358 N 
HETATM    4  H   UNL     1     -43.772 -46.362  11.838  1.00  0.00     0.162 HD
ENDROOT
BRANCH   1   5
HETATM    5  C   UNL     1     -41.260 -46.844  12.107  1.00  0.00     0.195 C 
HETATM    6  C   UNL     1     -41.915 -46.436  13.429  1.00  0.00     0.044 C 
BRANCH   5   7
HETATM    7  N   UNL     1     -40.660 -45.718  11.401  1.00  0.00    -0.290 N 
HETATM    8  C   UNL     1     -40.649 -44.400  11.760  1.00  0.00     0.112 A 
HETATM    9  C   UNL     1     -39.851 -43.756  10.844  1.00  0.00     0.037 A 
HETATM   10  C   UNL     1     -39.460 -44.761   9.943  1.00  0.00     0.108 A 
HETATM   11  N   UNL     1     -39.972 -45.955  10.259  1.00  0.00    -0.309 N 
ATOM     12  HN  UNL     1     -39.870 -46.837   9.758  1.00  0.00     0.186 HD
ENDBRANCH   5   7
ENDBRANCH   1   5
BRANCH   3  13
HETATM   13  C   UNL     1     -44.564 -47.674  10.338  1.00  0.00     0.142 C 
BRANCH  13  14
HETATM   14  C   UNL     1     -44.770 -47.023   8.941  1.00  0.00     0.054 C 
HETATM   15  C   UNL     1     -44.393 -48.024   7.839  1.00  0.00     0.028 C 
HETATM   16  C   UNL     1     -46.220 -46.547   8.763  1.00  0.00     0.028 C 
BRANCH  14  17
HETATM   17  C   UNL     1     -43.825 -45.820   8.860  1.00  0.00     0.149 C 
HETATM   18  O   UNL     1     -44.138 -44.673   9.148  1.00  0.00    -0.649 OA
BRANCH  17  19
HETATM   19  O   UNL     1     -42.565 -46.111   8.464  1.00  0.00    -0.776 OA
HETATM   20  H   UNL     1     -42.438 -46.213   7.503  1.00  0.00     0.167 HD
ENDBRANCH  17  19
ENDBRANCH  14  17
ENDBRANCH  13  14
ENDBRANCH   3  13
TORSDOF 6
ENDMDL
MODEL 2
REMARK VINA RESULT:      -5.4      3.728      5.843
REMARK  6 active torsions:
REMARK  status: ('A' for Active; 'I' for Inactive)
REMARK    1  A    between atoms: C_2  and  C_3 
REMARK    2  A    between atoms: C_2  and  N_13 
REMARK       I    between atoms: C_3  and  N_5 
REMARK    3  A    between atoms: N_5  and  C_6 
REMARK    4  A    between atoms: C_6  and  C_7 
REMARK    5  A    between atoms: C_7  and  C_10 
REMARK    6  A    between atoms: C_10  and  O_12 
ROOT
HETATM    1  C   UNL     1     -42.202 -49.075  11.883  1.00  0.00     0.242 C 
HETATM    2  O   UNL     1     -42.798 -48.532  12.812  1.00  0.00    -0.271 OA
HETATM    3  N   UNL     1     -42.063 -50.450  11.806  1.00  0.00    -0.358 N 
HETATM    4  H   UNL     1     -41.690 -50.841  10.942  1.00  0.00     0.162 HD
ENDROOT
BRANCH   1   5
HETATM    5  C   UNL     1     -41.476 -48.282  10.801  1.00  0.00     0.195 C 
HETATM    6  C   UNL     1     -40.445 -47.329  11.409  1.00  0.00     0.044 C 
BRANCH   5   7
HETATM    7  N   UNL     1     -42.420 -47.608   9.918  1.00  0.00    -0.290 N 
HETATM    8  C   UNL     1     -42.976 -46.367  10.060  1.00  0.00     0.112 A 
HETATM    9  C   UNL     1     -43.693 -46.132   8.910  1.00  0.00     0.037 A 
HETATM   10  C   UNL     1     -43.546 -47.305   8.151  1.00  0.00     0.108 A 
HETATM   11  N   UNL     1     -42.795 -48.221   8.771  1.00  0.00    -0.309 N 
ATOM     12  HN  UNL     1     -42.560 -49.162   8.455  1.00  0.00     0.186 HD
ENDBRANCH   5   7
ENDBRANCH   1   5
BRANCH   3  13
HETATM   13  C   UNL     1     -42.704 -51.344  12.763  1.00  0.00     0.142 C 
BRANCH  13  14
HETATM   14  C   UNL     1     -41.782 -52.465  13.320  1.00  0.00     0.054 C 
HETATM   15  C   UNL     1     -41.354 -52.124  14.755  1.00  0.00     0.028 C 
HETATM   16  C   UNL     1     -42.486 -53.830  13.278  1.00  0.00     0.028 C 
BRANCH  14  17
HETATM   17  C   UNL     1     -40.535 -52.507  12.429  1.00  0.00     0.149 C 
HETATM   18  O   UNL     1     -39.485 -51.931  12.681  1.00  0.00    -0.649 OA
BRANCH  17  19
HETATM   19  O   UNL     1     -40.653 -53.271  11.320  1.00  0.00    -0.776 OA
HETATM   20  H   UNL     1     -40.090 -54.067  11.294  1.00  0.00     0.167 HD
ENDBRANCH  17  19
ENDBRANCH  14  17
ENDBRANCH  13  14
ENDBRANCH   3  13
TORSDOF 6
ENDMDL
MODEL 3
REMARK VINA RESULT:      -5.2      5.225      6.604
REMARK  6 active torsions:
REMARK  status: ('A' for Active; 'I' for Inactive)
REMARK    1  A    between atoms: C_2  and  C_3 
REMARK    2  A    between atoms: C_2  and  N_13 
REMARK       I    between atoms: C_3  and  N_5 
REMARK    3  A    between atoms: N_5  and  C_6 
REMARK    4  A    between atoms: C_6  and  C_7 
REMARK    5  A    between atoms: C_7  and  C_10 
REMARK    6  A    between atoms: C_10  and  O_12 
ROOT
HETATM    1  C   UNL     1     -42.292 -50.886  12.476  1.00  0.00     0.242 C 
HETATM    2  O   UNL     1     -42.186 -49.673  12.654  1.00  0.00    -0.271 OA
HETATM    3  N   UNL     1     -43.433 -51.581  12.834  1.00  0.00    -0.358 N 
HETATM    4  H   UNL     1     -43.514 -52.550  12.525  1.00  0.00     0.162 HD
ENDROOT
BRANCH   1   5
HETATM    5  C   UNL     1     -41.143 -51.739  11.949  1.00  0.00     0.195 C 
HETATM    6  C   UNL     1     -41.141 -53.127  12.593  1.00  0.00     0.044 C 
BRANCH   5   7
HETATM    7  N   UNL     1     -39.866 -51.048  12.089  1.00  0.00    -0.290 N 
HETATM    8  C   UNL     1     -38.918 -51.205  13.061  1.00  0.00     0.112 A 
HETATM    9  C   UNL     1     -37.846 -50.431  12.683  1.00  0.00     0.037 A 
HETATM   10  C   UNL     1     -38.256 -49.810  11.491  1.00  0.00     0.108 A 
HETATM   11  N   UNL     1     -39.498 -50.158  11.138  1.00  0.00    -0.309 N 
ATOM     12  HN  UNL     1     -40.040 -49.830  10.339  1.00  0.00     0.186 HD
ENDBRANCH   5   7
ENDBRANCH   1   5
BRANCH   3  13
HETATM   13  C   UNL     1     -44.620 -50.906  13.346  1.00  0.00     0.142 C 
BRANCH  13  14
HETATM   14  C   UNL     1     -45.877 -51.812  13.472  1.00  0.00     0.054 C 
HETATM   15  C   UNL     1     -46.702 -51.393  14.698  1.00  0.00     0.028 C 
HETATM   16  C   UNL     1     -46.733 -51.746  12.198  1.00  0.00     0.028 C 
BRANCH  14  17
HETATM   17  C   UNL     1     -45.380 -53.247  13.678  1.00  0.00     0.149 C 
HETATM   18  O   UNL     1     -44.920 -53.676  14.727  1.00  0.00    -0.649 OA
BRANCH  17  19
HETATM   19  O   UNL     1     -45.511 -54.055  12.601  1.00  0.00    -0.776 OA
HETATM   20  H   UNL     1     -45.752 -54.979  12.794  1.00  0.00     0.167 HD
ENDBRANCH  17  19
ENDBRANCH  14  17
ENDBRANCH  13  14
ENDBRANCH   3  13
TORSDOF 6
ENDMDL
MODEL 4
REMARK VINA RESULT:      -5.1      3.941      5.940
REMARK  6 active torsions:
REMARK  status: ('A' for Active; 'I' for Inactive)
REMARK    1  A    between atoms: C_2  and  C_3 
REMARK    2  A    between atoms: C_2  and  N_13 
REMARK       I    between atoms: C_3  and  N_5 
REMARK    3  A    between atoms: N_5  and  C_6 
REMARK    4  A    between atoms: C_6  and  C_7 
REMARK    5  A    between atoms: C_7  and  C_10 
REMARK    6  A    between atoms: C_10  and  O_12 
ROOT
HETATM    1  C   UNL     1     -41.540 -49.542  11.469  1.00  0.00     0.242 C 
HETATM    2  O   UNL     1     -40.456 -49.784  10.939  1.00  0.00    -0.271 OA
HETATM    3  N   UNL     1     -42.332 -50.543  12.005  1.00  0.00    -0.358 N 
HETATM    4  H   UNL     1     -43.141 -50.261  12.558  1.00  0.00     0.162 HD
ENDROOT
BRANCH   1   5
HETATM    5  C   UNL     1     -42.151 -48.144  11.485  1.00  0.00     0.195 C 
HETATM    6  C   UNL     1     -42.882 -47.872  12.801  1.00  0.00     0.044 C 
BRANCH   5   7
HETATM    7  N   UNL     1     -42.990 -47.922  10.313  1.00  0.00    -0.290 N 
HETATM    8  C   UNL     1     -44.272 -47.452  10.266  1.00  0.00     0.112 A 
HETATM    9  C   UNL     1     -44.577 -47.296   8.934  1.00  0.00     0.037 A 
HETATM   10  C   UNL     1     -43.431 -47.740   8.251  1.00  0.00     0.108 A 
HETATM   11  N   UNL     1     -42.470 -48.150   9.085  1.00  0.00    -0.309 N 
ATOM     12  HN  UNL     1     -41.559 -48.543   8.850  1.00  0.00     0.186 HD
ENDBRANCH   5   7
ENDBRANCH   1   5
BRANCH   3  13
HETATM   13  C   UNL     1     -41.885 -51.929  12.070  1.00  0.00     0.142 C 
BRANCH  13  14
HETATM   14  C   UNL     1     -42.611 -52.795  13.137  1.00  0.00     0.054 C 
HETATM   15  C   UNL     1     -41.860 -54.120  13.334  1.00  0.00     0.028 C 
HETATM   16  C   UNL     1     -42.731 -52.041  14.470  1.00  0.00     0.028 C 
BRANCH  14  17
HETATM   17  C   UNL     1     -44.013 -53.097  12.595  1.00  0.00     0.149 C 
HETATM   18  O   UNL     1     -44.421 -54.217  12.320  1.00  0.00    -0.649 OA
BRANCH  17  19
HETATM   19  O   UNL     1     -44.816 -52.018  12.459  1.00  0.00    -0.776 OA
HETATM   20  H   UNL     1     -44.365 -51.182  12.238  1.00  0.00     0.167 HD
ENDBRANCH  17  19
ENDBRANCH  14  17
ENDBRANCH  13  14
ENDBRANCH   3  13
TORSDOF 6
ENDMDL
MODEL 5
REMARK VINA RESULT:      -5.1      5.979      7.278
REMARK  6 active torsions:
REMARK  status: ('A' for Active; 'I' for Inactive)
REMARK    1  A    between atoms: C_2  and  C_3 
REMARK    2  A    between atoms: C_2  and  N_13 
REMARK       I    between atoms: C_3  and  N_5 
REMARK    3  A    between atoms: N_5  and  C_6 
REMARK    4  A    between atoms: C_6  and  C_7 
REMARK    5  A    between atoms: C_7  and  C_10 
REMARK    6  A    between atoms: C_10  and  O_12 
ROOT
HETATM    1  C   UNL     1     -43.584 -53.911  13.199  1.00  0.00     0.242 C 
HETATM    2  O   UNL     1     -44.251 -54.162  12.196  1.00  0.00    -0.271 OA
HETATM    3  N   UNL     1     -44.156 -53.391  14.347  1.00  0.00    -0.358 N 
HETATM    4  H   UNL     1     -43.578 -53.346  15.185  1.00  0.00     0.162 HD
ENDROOT
BRANCH   1   5
HETATM    5  C   UNL     1     -42.065 -54.048  13.227  1.00  0.00     0.195 C 
HETATM    6  C   UNL     1     -41.581 -54.581  14.577  1.00  0.00     0.044 C 
BRANCH   5   7
HETATM    7  N   UNL     1     -41.416 -52.799  12.846  1.00  0.00    -0.290 N 
HETATM    8  C   UNL     1     -40.241 -52.277  13.310  1.00  0.00     0.112 A 
HETATM    9  C   UNL     1     -39.990 -51.157  12.553  1.00  0.00     0.037 A 
HETATM   10  C   UNL     1     -41.091 -51.058  11.686  1.00  0.00     0.108 A 
HETATM   11  N   UNL     1     -41.979 -52.039  11.878  1.00  0.00    -0.309 N 
ATOM     12  HN  UNL     1     -42.872 -52.182  11.406  1.00  0.00     0.186 HD
ENDBRANCH   5   7
ENDBRANCH   1   5
BRANCH   3  13
HETATM   13  C   UNL     1     -45.597 -53.207  14.476  1.00  0.00     0.142 C 
BRANCH  13  14
HETATM   14  C   UNL     1     -46.091 -51.757  14.214  1.00  0.00     0.054 C 
HETATM   15  C   UNL     1     -46.784 -51.681  12.845  1.00  0.00     0.028 C 
HETATM   16  C   UNL     1     -47.041 -51.289  15.326  1.00  0.00     0.028 C 
BRANCH  14  17
HETATM   17  C   UNL     1     -44.851 -50.855  14.190  1.00  0.00     0.149 C 
HETATM   18  O   UNL     1     -44.297 -50.415  15.188  1.00  0.00    -0.649 OA
BRANCH  17  19
HETATM   19  O   UNL     1     -44.366 -50.586  12.957  1.00  0.00    -0.776 OA
HETATM   20  H   UNL     1     -45.036 -50.468  12.257  1.00  0.00     0.167 HD
ENDBRANCH  17  19
ENDBRANCH  14  17
ENDBRANCH  13  14
ENDBRANCH   3  13
TORSDOF 6
ENDMDL
MODEL 6
REMARK VINA RESULT:      -5.0      2.585      5.346
REMARK  6 active torsions:
REMARK  status: ('A' for Active; 'I' for Inactive)
REMARK    1  A    between atoms: C_2  and  C_3 
REMARK    2  A    between atoms: C_2  and  N_13 
REMARK       I    between atoms: C_3  and  N_5 
REMARK    3  A    between atoms: N_5  and  C_6 
REMARK    4  A    between atoms: C_6  and  C_7 
REMARK    5  A    between atoms: C_7  and  C_10 
REMARK    6  A    between atoms: C_10  and  O_12 
ROOT
HETATM    1  C   UNL     1     -40.862 -46.684  11.491  1.00  0.00     0.242 C 
HETATM    2  O   UNL     1     -40.073 -46.202  10.679  1.00  0.00    -0.271 OA
HETATM    3  N   UNL     1     -40.491 -47.694  12.361  1.00  0.00    -0.358 N 
HETATM    4  H   UNL     1     -41.144 -47.943  13.103  1.00  0.00     0.162 HD
ENDROOT
BRANCH   1   5
HETATM    5  C   UNL     1     -42.335 -46.290  11.535  1.00  0.00     0.195 C 
HETATM    6  C   UNL     1     -43.002 -46.774  12.824  1.00  0.00     0.044 C 
BRANCH   5   7
HETATM    7  N   UNL     1     -43.035 -46.732  10.334  1.00  0.00    -0.290 N 
HETATM    8  C   UNL     1     -44.181 -47.472  10.244  1.00  0.00     0.112 A 
HETATM    9  C   UNL     1     -44.510 -47.513   8.909  1.00  0.00     0.037 A 
HETATM   10  C   UNL     1     -43.480 -46.806   8.266  1.00  0.00     0.108 A 
HETATM   11  N   UNL     1     -42.562 -46.350   9.125  1.00  0.00    -0.309 N 
ATOM     12  HN  UNL     1     -41.706 -45.837   8.917  1.00  0.00     0.186 HD
ENDBRANCH   5   7
ENDBRANCH   1   5
BRANCH   3  13
HETATM   13  C   UNL     1     -39.117 -48.175  12.443  1.00  0.00     0.142 C 
BRANCH  13  14
HETATM   14  C   UNL     1     -38.954 -49.706  12.229  1.00  0.00     0.054 C 
HETATM   15  C   UNL     1     -37.750 -49.980  11.316  1.00  0.00     0.028 C 
HETATM   16  C   UNL     1     -38.789 -50.436  13.571  1.00  0.00     0.028 C 
BRANCH  14  17
HETATM   17  C   UNL     1     -40.226 -50.203  11.531  1.00  0.00     0.149 C 
HETATM   18  O   UNL     1     -41.148 -50.772  12.098  1.00  0.00    -0.649 OA
BRANCH  17  19
HETATM   19  O   UNL     1     -40.287 -49.940  10.206  1.00  0.00    -0.776 OA
HETATM   20  H   UNL     1     -41.143 -49.605   9.882  1.00  0.00     0.167 HD
ENDBRANCH  17  19
ENDBRANCH  14  17
ENDBRANCH  13  14
ENDBRANCH   3  13
TORSDOF 6
ENDMDL
MODEL 7
REMARK VINA RESULT:      -4.9      5.738      7.150
REMARK  6 active torsions:
REMARK  status: ('A' for Active; 'I' for Inactive)
REMARK    1  A    between atoms: C_2  and  C_3 
REMARK    2  A    between atoms: C_2  and  N_13 
REMARK       I    between atoms: C_3  and  N_5 
REMARK    3  A    between atoms: N_5  and  C_6 
REMARK    4  A    between atoms: C_6  and  C_7 
REMARK    5  A    between atoms: C_7  and  C_10 
REMARK    6  A    between atoms: C_10  and  O_12 
ROOT
HETATM    1  C   UNL     1     -41.380 -51.689  12.238  1.00  0.00     0.242 C 
HETATM    2  O   UNL     1     -40.714 -52.650  11.854  1.00  0.00    -0.271 OA
HETATM    3  N   UNL     1     -42.737 -51.791  12.485  1.00  0.00    -0.358 N 
HETATM    4  H   UNL     1     -43.196 -51.002  12.941  1.00  0.00     0.162 HD
ENDROOT
BRANCH   1   5
HETATM    5  C   UNL     1     -40.793 -50.287  12.371  1.00  0.00     0.195 C 
HETATM    6  C   UNL     1     -41.455 -49.313  11.394  1.00  0.00     0.044 C 
BRANCH   5   7
HETATM    7  N   UNL     1     -39.340 -50.310  12.250  1.00  0.00    -0.290 N 
HETATM    8  C   UNL     1     -38.413 -50.581  13.218  1.00  0.00     0.112 A 
HETATM    9  C   UNL     1     -37.192 -50.609  12.586  1.00  0.00     0.037 A 
HETATM   10  C   UNL     1     -37.477 -50.300  11.244  1.00  0.00     0.108 A 
HETATM   11  N   UNL     1     -38.781 -50.089  11.038  1.00  0.00    -0.309 N 
ATOM     12  HN  UNL     1     -39.246 -49.822  10.170  1.00  0.00     0.186 HD
ENDBRANCH   5   7
ENDBRANCH   1   5
BRANCH   3  13
HETATM   13  C   UNL     1     -43.442 -53.065  12.408  1.00  0.00     0.142 C 
BRANCH  13  14
HETATM   14  C   UNL     1     -43.865 -53.656  13.782  1.00  0.00     0.054 C 
HETATM   15  C   UNL     1     -42.782 -54.618  14.291  1.00  0.00     0.028 C 
HETATM   16  C   UNL     1     -44.120 -52.541  14.807  1.00  0.00     0.028 C 
BRANCH  14  17
HETATM   17  C   UNL     1     -45.160 -54.445  13.554  1.00  0.00     0.149 C 
HETATM   18  O   UNL     1     -45.379 -55.559  14.009  1.00  0.00    -0.649 OA
BRANCH  17  19
HETATM   19  O   UNL     1     -46.095 -53.803  12.818  1.00  0.00    -0.776 OA
HETATM   20  H   UNL     1     -47.021 -54.033  13.020  1.00  0.00     0.167 HD
ENDBRANCH  17  19
ENDBRANCH  14  17
ENDBRANCH  13  14
ENDBRANCH   3  13
TORSDOF 6
ENDMDL
MODEL 8
REMARK VINA RESULT:      -4.8      5.985      8.466
REMARK  6 active torsions:
REMARK  status: ('A' for Active; 'I' for Inactive)
REMARK    1  A    between atoms: C_2  and  C_3 
REMARK    2  A    between atoms: C_2  and  N_13 
REMARK       I    between atoms: C_3  and  N_5 
REMARK    3  A    between atoms: N_5  and  C_6 
REMARK    4  A    between atoms: C_6  and  C_7 
REMARK    5  A    between atoms: C_7  and  C_10 
REMARK    6  A    between atoms: C_10  and  O_12 
ROOT
HETATM    1  C   UNL     1     -41.008 -51.851  13.354  1.00  0.00     0.242 C 
HETATM    2  O   UNL     1     -41.720 -50.887  13.634  1.00  0.00    -0.271 OA
HETATM    3  N   UNL     1     -39.994 -51.764  12.416  1.00  0.00    -0.358 N 
HETATM    4  H   UNL     1     -39.350 -52.550  12.341  1.00  0.00     0.162 HD
ENDROOT
BRANCH   1   5
HETATM    5  C   UNL     1     -41.248 -53.242  13.933  1.00  0.00     0.195 C 
HETATM    6  C   UNL     1     -40.151 -54.218  13.505  1.00  0.00     0.044 C 
BRANCH   5   7
HETATM    7  N   UNL     1     -42.588 -53.720  13.615  1.00  0.00    -0.290 N 
HETATM    8  C   UNL     1     -43.418 -54.489  14.382  1.00  0.00     0.112 A 
HETATM    9  C   UNL     1     -44.613 -54.561  13.704  1.00  0.00     0.037 A 
HETATM   10  C   UNL     1     -44.395 -53.840  12.518  1.00  0.00     0.108 A 
HETATM   11  N   UNL     1     -43.153 -53.349  12.442  1.00  0.00    -0.309 N 
ATOM     12  HN  UNL     1     -42.731 -52.819  11.680  1.00  0.00     0.186 HD
ENDBRANCH   5   7
ENDBRANCH   1   5
BRANCH   3  13
HETATM   13  C   UNL     1     -39.639 -50.501  11.780  1.00  0.00     0.142 C 
BRANCH  13  14
HETATM   14  C   UNL     1     -38.232 -49.958  12.158  1.00  0.00     0.054 C 
HETATM   15  C   UNL     1     -37.380 -49.790  10.891  1.00  0.00     0.028 C 
HETATM   16  C   UNL     1     -38.341 -48.626  12.915  1.00  0.00     0.028 C 
BRANCH  14  17
HETATM   17  C   UNL     1     -37.572 -51.006  13.061  1.00  0.00     0.149 C 
HETATM   18  O   UNL     1     -37.679 -51.034  14.280  1.00  0.00    -0.649 OA
BRANCH  17  19
HETATM   19  O   UNL     1     -36.861 -51.954  12.409  1.00  0.00    -0.776 OA
HETATM   20  H   UNL     1     -35.972 -52.134  12.766  1.00  0.00     0.167 HD
ENDBRANCH  17  19
ENDBRANCH  14  17
ENDBRANCH  13  14
ENDBRANCH   3  13
TORSDOF 6
ENDMDL
MODEL 9
REMARK VINA RESULT:      -4.8      3.805      5.545
REMARK  6 active torsions:
REMARK  status: ('A' for Active; 'I' for Inactive)
REMARK    1  A    between atoms: C_2  and  C_3 
REMARK    2  A    between atoms: C_2  and  N_13 
REMARK       I    between atoms: C_3  and  N_5 
REMARK    3  A    between atoms: N_5  and  C_6 
REMARK    4  A    between atoms: C_6  and  C_7 
REMARK    5  A    between atoms: C_7  and  C_10 
REMARK    6  A    between atoms: C_10  and  O_12 
ROOT
HETATM    1  C   UNL     1     -38.845 -48.586  12.564  1.00  0.00     0.242 C 
HETATM    2  O   UNL     1     -39.066 -48.072  13.660  1.00  0.00    -0.271 OA
HETATM    3  N   UNL     1     -39.317 -48.033  11.387  1.00  0.00    -0.358 N 
HETATM    4  H   UNL     1     -38.975 -48.424  10.510  1.00  0.00     0.162 HD
ENDROOT
BRANCH   1   5
HETATM    5  C   UNL     1     -38.128 -49.925  12.418  1.00  0.00     0.195 C 
HETATM    6  C   UNL     1     -37.400 -50.022  11.076  1.00  0.00     0.044 C 
BRANCH   5   7
HETATM    7  N   UNL     1     -39.041 -51.039  12.649  1.00  0.00    -0.290 N 
HETATM    8  C   UNL     1     -39.100 -51.878  13.727  1.00  0.00     0.112 A 
HETATM    9  C   UNL     1     -40.205 -52.673  13.537  1.00  0.00     0.037 A 
HETATM   10  C   UNL     1     -40.726 -52.271  12.295  1.00  0.00     0.108 A 
HETATM   11  N   UNL     1     -40.005 -51.294  11.734  1.00  0.00    -0.309 N 
ATOM     12  HN  UNL     1     -40.147 -50.847  10.828  1.00  0.00     0.186 HD
ENDBRANCH   5   7
ENDBRANCH   1   5
BRANCH   3  13
HETATM   13  C   UNL     1     -40.016 -46.754  11.362  1.00  0.00     0.142 C 
BRANCH  13  14
HETATM   14  C   UNL     1     -41.561 -46.861  11.232  1.00  0.00     0.054 C 
HETATM   15  C   UNL     1     -42.218 -46.613  12.598  1.00  0.00     0.028 C 
HETATM   16  C   UNL     1     -42.097 -45.870  10.189  1.00  0.00     0.028 C 
BRANCH  14  17
HETATM   17  C   UNL     1     -41.877 -48.293  10.785  1.00  0.00     0.149 C 
HETATM   18  O   UNL     1     -42.226 -49.192  11.538  1.00  0.00    -0.649 OA
BRANCH  17  19
HETATM   19  O   UNL     1     -41.774 -48.509   9.453  1.00  0.00    -0.776 OA
HETATM   20  H   UNL     1     -42.512 -48.171   8.913  1.00  0.00     0.167 HD
ENDBRANCH  17  19
ENDBRANCH  14  17
ENDBRANCH  13  14
ENDBRANCH   3  13
TORSDOF 6
ENDMDL
