MODEL 1
REMARK VINA RESULT:      -6.4      0.000      0.000
REMARK  3 active torsions:
REMARK  status: ('A' for Active; 'I' for Inactive)
REMARK    1  A    between atoms: O_2  and  C_3 
REMARK    2  A    between atoms: C_6  and  N_7 
REMARK       I    between atoms: N_7  and  C_8 
REMARK       I    between atoms: C_8  and  N_10 
REMARK    3  A    between atoms: N_10  and  C_11 
REMARK       I    between atoms: N_14  and  C_17 
ROOT
HETATM    1  N   UNL     1     -42.811 -48.924  11.347  1.00  0.00    -0.308 N 
HETATM    2  C   UNL     1     -43.223 -49.217  12.629  1.00  0.00     0.321 C 
HETATM    3  O   UNL     1     -43.000 -48.538  13.622  1.00  0.00    -0.247 OA
HETATM    4  N   UNL     1     -43.977 -50.371  12.682  1.00  0.00    -0.338 N 
HETATM    5  H   UNL     1     -42.837 -49.673  10.672  1.00  0.00     0.170 HD
HETATM    6  H   UNL     1     -43.661 -51.108  12.069  1.00  0.00     0.164 HD
ENDROOT
BRANCH   1   7
HETATM    7  C   UNL     1     -42.173 -47.722  10.969  1.00  0.00     0.051 A 
HETATM    8  C   UNL     1     -42.865 -46.564  10.620  1.00  0.00     0.035 A 
HETATM    9  C   UNL     1     -42.165 -45.402  10.309  1.00  0.00     0.058 A 
HETATM   10  C   UNL     1     -40.783 -45.435  10.352  1.00  0.00     0.141 A 
HETATM   11  N   UNL     1     -40.069 -46.546  10.634  1.00  0.00    -0.345 N 
HETATM   12  C   UNL     1     -40.782 -47.662  10.925  1.00  0.00     0.119 A 
ATOM     13  HN  UNL     1     -39.049 -46.545  10.628  1.00  0.00     0.167 HD
BRANCH  10  14
HETATM   14  O   UNL     1     -40.142 -44.241  10.088  1.00  0.00    -0.341 OA
HETATM   15  C   UNL     1     -40.409 -43.241  11.063  1.00  0.00     0.211 C 
ENDBRANCH  10  14
ENDBRANCH   1   7
BRANCH   4  16
HETATM   16  C   UNL     1     -44.582 -50.787  13.954  1.00  0.00     0.089 C 
HETATM   17  C   UNL     1     -43.535 -51.410  14.887  1.00  0.00     0.045 C 
HETATM   18  C   UNL     1     -43.068 -52.785  14.402  1.00  0.00     0.127 C 
HETATM   19  N   UNL     1     -44.194 -53.672  14.107  1.00  0.00    -0.352 N 
HETATM   20  C   UNL     1     -45.201 -53.106  13.206  1.00  0.00     0.127 C 
HETATM   21  C   UNL     1     -44.306 -55.014  14.431  1.00  0.00     0.215 C 
HETATM   22  C   UNL     1     -45.728 -51.795  13.766  1.00  0.00     0.045 C 
HETATM   23  O   UNL     1     -45.255 -55.704  14.045  1.00  0.00    -0.274 OA
HETATM   24  C   UNL     1     -43.269 -55.670  15.307  1.00  0.00     0.117 C 
ENDBRANCH   4  16
TORSDOF 3
ENDMDL
MODEL 2
REMARK VINA RESULT:      -6.0      1.679      2.213
REMARK  3 active torsions:
REMARK  status: ('A' for Active; 'I' for Inactive)
REMARK    1  A    between atoms: O_2  and  C_3 
REMARK    2  A    between atoms: C_6  and  N_7 
REMARK       I    between atoms: N_7  and  C_8 
REMARK       I    between atoms: C_8  and  N_10 
REMARK    3  A    between atoms: N_10  and  C_11 
REMARK       I    between atoms: N_14  and  C_17 
ROOT
HETATM    1  N   UNL     1     -42.086 -49.112  11.090  1.00  0.00    -0.308 N 
HETATM    2  C   UNL     1     -41.707 -49.853  12.188  1.00  0.00     0.321 C 
HETATM    3  O   UNL     1     -41.123 -49.422  13.173  1.00  0.00    -0.247 OA
HETATM    4  N   UNL     1     -42.104 -51.171  12.088  1.00  0.00    -0.338 N 
HETATM    5  H   UNL     1     -42.328 -49.619  10.253  1.00  0.00     0.170 HD
HETATM    6  H   UNL     1     -42.031 -51.562  11.161  1.00  0.00     0.164 HD
ENDROOT
BRANCH   1   7
HETATM    7  C   UNL     1     -41.964 -47.708  10.995  1.00  0.00     0.051 A 
HETATM    8  C   UNL     1     -40.739 -47.054  10.866  1.00  0.00     0.035 A 
HETATM    9  C   UNL     1     -40.702 -45.669  10.724  1.00  0.00     0.058 A 
HETATM   10  C   UNL     1     -41.899 -44.976  10.722  1.00  0.00     0.141 A 
HETATM   11  N   UNL     1     -43.103 -45.561  10.896  1.00  0.00    -0.345 N 
HETATM   12  C   UNL     1     -43.103 -46.909  11.037  1.00  0.00     0.119 A 
ATOM     13  HN  UNL     1     -43.967 -45.018  10.920  1.00  0.00     0.167 HD
BRANCH  10  14
HETATM   14  O   UNL     1     -41.807 -43.613  10.524  1.00  0.00    -0.341 OA
HETATM   15  C   UNL     1     -42.915 -42.900  11.059  1.00  0.00     0.211 C 
ENDBRANCH  10  14
ENDBRANCH   1   7
BRANCH   4  16
HETATM   16  C   UNL     1     -41.870 -52.088  13.211  1.00  0.00     0.089 C 
HETATM   17  C   UNL     1     -42.137 -53.543  12.802  1.00  0.00     0.045 C 
HETATM   18  C   UNL     1     -43.626 -53.825  12.590  1.00  0.00     0.127 C 
HETATM   19  N   UNL     1     -44.434 -53.376  13.725  1.00  0.00    -0.352 N 
HETATM   20  C   UNL     1     -44.210 -51.986  14.126  1.00  0.00     0.127 C 
HETATM   21  C   UNL     1     -45.489 -54.052  14.317  1.00  0.00     0.215 C 
HETATM   22  C   UNL     1     -42.739 -51.760  14.437  1.00  0.00     0.045 C 
HETATM   23  O   UNL     1     -46.176 -53.542  15.206  1.00  0.00    -0.274 OA
HETATM   24  C   UNL     1     -45.808 -55.467  13.904  1.00  0.00     0.117 C 
ENDBRANCH   4  16
TORSDOF 3
ENDMDL
MODEL 3
REMARK VINA RESULT:      -5.9      3.384      4.243
REMARK  3 active torsions:
REMARK  status: ('A' for Active; 'I' for Inactive)
REMARK    1  A    between atoms: O_2  and  C_3 
REMARK    2  A    between atoms: C_6  and  N_7 
REMARK       I    between atoms: N_7  and  C_8 
REMARK       I    between atoms: C_8  and  N_10 
REMARK    3  A    between atoms: N_10  and  C_11 
REMARK       I    between atoms: N_14  and  C_17 
ROOT
HETATM    1  N   UNL     1     -41.672 -50.316  13.120  1.00  0.00    -0.308 N 
HETATM    2  C   UNL     1     -41.945 -51.655  12.936  1.00  0.00     0.321 C 
HETATM    3  O   UNL     1     -42.571 -52.132  12.000  1.00  0.00    -0.247 OA
HETATM    4  N   UNL     1     -41.386 -52.440  13.923  1.00  0.00    -0.338 N 
HETATM    5  H   UNL     1     -41.374 -50.029  14.040  1.00  0.00     0.170 HD
HETATM    6  H   UNL     1     -41.417 -52.037  14.848  1.00  0.00     0.164 HD
ENDROOT
BRANCH   1   7
HETATM    7  C   UNL     1     -41.971 -49.305  12.181  1.00  0.00     0.051 A 
HETATM    8  C   UNL     1     -43.166 -48.587  12.184  1.00  0.00     0.035 A 
HETATM    9  C   UNL     1     -43.367 -47.568  11.258  1.00  0.00     0.058 A 
HETATM   10  C   UNL     1     -42.362 -47.299  10.346  1.00  0.00     0.141 A 
HETATM   11  N   UNL     1     -41.211 -48.000  10.273  1.00  0.00    -0.345 N 
HETATM   12  C   UNL     1     -41.050 -48.990  11.185  1.00  0.00     0.119 A 
ATOM     13  HN  UNL     1     -40.501 -47.797   9.569  1.00  0.00     0.167 HD
BRANCH  10  14
HETATM   14  O   UNL     1     -42.592 -46.243   9.487  1.00  0.00    -0.341 OA
HETATM   15  C   UNL     1     -43.821 -46.359   8.783  1.00  0.00     0.211 C 
ENDBRANCH  10  14
ENDBRANCH   1   7
BRANCH   4  16
HETATM   16  C   UNL     1     -41.494 -53.902  13.837  1.00  0.00     0.089 C 
HETATM   17  C   UNL     1     -41.951 -54.502  15.173  1.00  0.00     0.045 C 
HETATM   18  C   UNL     1     -40.867 -54.421  16.250  1.00  0.00     0.127 C 
HETATM   19  N   UNL     1     -39.586 -54.949  15.776  1.00  0.00    -0.352 N 
HETATM   20  C   UNL     1     -39.119 -54.381  14.510  1.00  0.00     0.127 C 
HETATM   21  C   UNL     1     -38.710 -55.765  16.475  1.00  0.00     0.215 C 
HETATM   22  C   UNL     1     -40.171 -54.573  13.429  1.00  0.00     0.045 C 
HETATM   23  O   UNL     1     -37.603 -56.073  16.024  1.00  0.00    -0.274 OA
HETATM   24  C   UNL     1     -39.110 -56.334  17.812  1.00  0.00     0.117 C 
ENDBRANCH   4  16
TORSDOF 3
ENDMDL
MODEL 4
REMARK VINA RESULT:      -5.8      4.935      5.675
REMARK  3 active torsions:
REMARK  status: ('A' for Active; 'I' for Inactive)
REMARK    1  A    between atoms: O_2  and  C_3 
REMARK    2  A    between atoms: C_6  and  N_7 
REMARK       I    between atoms: N_7  and  C_8 
REMARK       I    between atoms: C_8  and  N_10 
REMARK    3  A    between atoms: N_10  and  C_11 
REMARK       I    between atoms: N_14  and  C_17 
ROOT
HETATM    1  N   UNL     1     -39.348 -49.951  14.403  1.00  0.00    -0.308 N 
HETATM    2  C   UNL     1     -39.368 -51.090  13.629  1.00  0.00     0.321 C 
HETATM    3  O   UNL     1     -38.390 -51.747  13.301  1.00  0.00    -0.247 OA
HETATM    4  N   UNL     1     -40.652 -51.460  13.282  1.00  0.00    -0.338 N 
HETATM    5  H   UNL     1     -40.172 -49.371  14.392  1.00  0.00     0.170 HD
HETATM    6  H   UNL     1     -41.267 -50.690  13.069  1.00  0.00     0.164 HD
ENDROOT
BRANCH   1   7
HETATM    7  C   UNL     1     -38.195 -49.439  15.039  1.00  0.00     0.051 A 
HETATM    8  C   UNL     1     -37.531 -50.104  16.070  1.00  0.00     0.035 A 
HETATM    9  C   UNL     1     -36.370 -49.561  16.613  1.00  0.00     0.058 A 
HETATM   10  C   UNL     1     -35.908 -48.359  16.109  1.00  0.00     0.141 A 
HETATM   11  N   UNL     1     -36.545 -47.655  15.149  1.00  0.00    -0.345 N 
HETATM   12  C   UNL     1     -37.676 -48.208  14.646  1.00  0.00     0.119 A 
ATOM     13  HN  UNL     1     -36.194 -46.755  14.819  1.00  0.00     0.167 HD
BRANCH  10  14
HETATM   14  O   UNL     1     -34.724 -47.894  16.645  1.00  0.00    -0.341 OA
HETATM   15  C   UNL     1     -34.895 -47.281  17.916  1.00  0.00     0.211 C 
ENDBRANCH  10  14
ENDBRANCH   1   7
BRANCH   4  16
HETATM   16  C   UNL     1     -40.873 -52.707  12.537  1.00  0.00     0.089 C 
HETATM   17  C   UNL     1     -42.284 -52.749  11.937  1.00  0.00     0.045 C 
HETATM   18  C   UNL     1     -43.366 -52.931  13.004  1.00  0.00     0.127 C 
HETATM   19  N   UNL     1     -43.072 -54.056  13.894  1.00  0.00    -0.352 N 
HETATM   20  C   UNL     1     -41.736 -54.031  14.492  1.00  0.00     0.127 C 
HETATM   21  C   UNL     1     -43.965 -55.008  14.359  1.00  0.00     0.215 C 
HETATM   22  C   UNL     1     -40.675 -53.961  13.406  1.00  0.00     0.045 C 
HETATM   23  O   UNL     1     -43.640 -55.859  15.191  1.00  0.00    -0.274 OA
HETATM   24  C   UNL     1     -45.374 -55.048  13.824  1.00  0.00     0.117 C 
ENDBRANCH   4  16
TORSDOF 3
ENDMDL
MODEL 5
REMARK VINA RESULT:      -5.7      2.616      3.104
REMARK  3 active torsions:
REMARK  status: ('A' for Active; 'I' for Inactive)
REMARK    1  A    between atoms: O_2  and  C_3 
REMARK    2  A    between atoms: C_6  and  N_7 
REMARK       I    between atoms: N_7  and  C_8 
REMARK       I    between atoms: C_8  and  N_10 
REMARK    3  A    between atoms: N_10  and  C_11 
REMARK       I    between atoms: N_14  and  C_17 
ROOT
HETATM    1  N   UNL     1     -42.410 -49.737  11.800  1.00  0.00    -0.308 N 
HETATM    2  C   UNL     1     -41.305 -50.534  12.008  1.00  0.00     0.321 C 
HETATM    3  O   UNL     1     -40.141 -50.195  11.848  1.00  0.00    -0.247 OA
HETATM    4  N   UNL     1     -41.649 -51.787  12.475  1.00  0.00    -0.338 N 
HETATM    5  H   UNL     1     -43.303 -50.198  11.723  1.00  0.00     0.170 HD
HETATM    6  H   UNL     1     -42.485 -52.173  12.063  1.00  0.00     0.164 HD
ENDROOT
BRANCH   1   7
HETATM    7  C   UNL     1     -42.353 -48.360  11.488  1.00  0.00     0.051 A 
HETATM    8  C   UNL     1     -42.657 -47.354  12.403  1.00  0.00     0.035 A 
HETATM    9  C   UNL     1     -42.527 -46.018  12.037  1.00  0.00     0.058 A 
HETATM   10  C   UNL     1     -42.098 -45.726  10.755  1.00  0.00     0.141 A 
HETATM   11  N   UNL     1     -41.841 -46.665   9.819  1.00  0.00    -0.345 N 
HETATM   12  C   UNL     1     -41.985 -47.956  10.207  1.00  0.00     0.119 A 
ATOM     13  HN  UNL     1     -41.555 -46.416   8.872  1.00  0.00     0.167 HD
BRANCH  10  14
HETATM   14  O   UNL     1     -41.934 -44.387  10.462  1.00  0.00    -0.341 OA
HETATM   15  C   UNL     1     -40.746 -43.840  11.018  1.00  0.00     0.211 C 
ENDBRANCH  10  14
ENDBRANCH   1   7
BRANCH   4  16
HETATM   16  C   UNL     1     -40.594 -52.740  12.843  1.00  0.00     0.089 C 
HETATM   17  C   UNL     1     -41.129 -54.177  12.862  1.00  0.00     0.045 C 
HETATM   18  C   UNL     1     -42.079 -54.430  14.035  1.00  0.00     0.127 C 
HETATM   19  N   UNL     1     -41.499 -54.003  15.309  1.00  0.00    -0.352 N 
HETATM   20  C   UNL     1     -40.995 -52.628  15.323  1.00  0.00     0.127 C 
HETATM   21  C   UNL     1     -41.549 -54.680  16.517  1.00  0.00     0.215 C 
HETATM   22  C   UNL     1     -39.971 -52.434  14.216  1.00  0.00     0.045 C 
HETATM   23  O   UNL     1     -41.118 -54.185  17.562  1.00  0.00    -0.274 OA
HETATM   24  C   UNL     1     -42.113 -56.077  16.579  1.00  0.00     0.117 C 
ENDBRANCH   4  16
TORSDOF 3
ENDMDL
MODEL 6
REMARK VINA RESULT:      -5.6      1.613      8.591
REMARK  3 active torsions:
REMARK  status: ('A' for Active; 'I' for Inactive)
REMARK    1  A    between atoms: O_2  and  C_3 
REMARK    2  A    between atoms: C_6  and  N_7 
REMARK       I    between atoms: N_7  and  C_8 
REMARK       I    between atoms: C_8  and  N_10 
REMARK    3  A    between atoms: N_10  and  C_11 
REMARK       I    between atoms: N_14  and  C_17 
ROOT
HETATM    1  N   UNL     1     -43.407 -50.674  12.946  1.00  0.00    -0.308 N 
HETATM    2  C   UNL     1     -42.374 -50.178  12.180  1.00  0.00     0.321 C 
HETATM    3  O   UNL     1     -41.314 -50.748  11.960  1.00  0.00    -0.247 OA
HETATM    4  N   UNL     1     -42.678 -48.951  11.628  1.00  0.00    -0.338 N 
HETATM    5  H   UNL     1     -44.107 -50.017  13.255  1.00  0.00     0.170 HD
HETATM    6  H   UNL     1     -43.202 -48.337  12.233  1.00  0.00     0.164 HD
ENDROOT
BRANCH   1   7
HETATM    7  C   UNL     1     -43.442 -51.976  13.492  1.00  0.00     0.051 A 
HETATM    8  C   UNL     1     -44.007 -53.067  12.833  1.00  0.00     0.035 A 
HETATM    9  C   UNL     1     -43.957 -54.332  13.412  1.00  0.00     0.058 A 
HETATM   10  C   UNL     1     -43.345 -54.467  14.646  1.00  0.00     0.141 A 
HETATM   11  N   UNL     1     -42.831 -53.431  15.344  1.00  0.00    -0.345 N 
HETATM   12  C   UNL     1     -42.902 -52.213  14.753  1.00  0.00     0.119 A 
ATOM     13  HN  UNL     1     -42.412 -53.559  16.265  1.00  0.00     0.167 HD
BRANCH  10  14
HETATM   14  O   UNL     1     -43.275 -55.750  15.148  1.00  0.00    -0.341 OA
HETATM   15  C   UNL     1     -42.360 -55.873  16.229  1.00  0.00     0.211 C 
ENDBRANCH  10  14
ENDBRANCH   1   7
BRANCH   4  16
HETATM   16  C   UNL     1     -41.731 -48.315  10.703  1.00  0.00     0.089 C 
HETATM   17  C   UNL     1     -40.639 -47.554  11.466  1.00  0.00     0.045 C 
HETATM   18  C   UNL     1     -41.175 -46.290  12.142  1.00  0.00     0.127 C 
HETATM   19  N   UNL     1     -41.934 -45.452  11.211  1.00  0.00    -0.352 N 
HETATM   20  C   UNL     1     -42.993 -46.152  10.481  1.00  0.00     0.127 C 
HETATM   21  C   UNL     1     -41.878 -44.073  11.095  1.00  0.00     0.215 C 
HETATM   22  C   UNL     1     -42.415 -47.341   9.729  1.00  0.00     0.045 C 
HETATM   23  O   UNL     1     -42.637 -43.448  10.348  1.00  0.00    -0.274 OA
HETATM   24  C   UNL     1     -40.847 -43.289  11.867  1.00  0.00     0.117 C 
ENDBRANCH   4  16
TORSDOF 3
ENDMDL
MODEL 7
REMARK VINA RESULT:      -5.5      2.265      8.698
REMARK  3 active torsions:
REMARK  status: ('A' for Active; 'I' for Inactive)
REMARK    1  A    between atoms: O_2  and  C_3 
REMARK    2  A    between atoms: C_6  and  N_7 
REMARK       I    between atoms: N_7  and  C_8 
REMARK       I    between atoms: C_8  and  N_10 
REMARK    3  A    between atoms: N_10  and  C_11 
REMARK       I    between atoms: N_14  and  C_17 
ROOT
HETATM    1  N   UNL     1     -41.424 -49.214  12.414  1.00  0.00    -0.308 N 
HETATM    2  C   UNL     1     -41.535 -48.291  11.396  1.00  0.00     0.321 C 
HETATM    3  O   UNL     1     -42.184 -48.437  10.370  1.00  0.00    -0.247 OA
HETATM    4  N   UNL     1     -40.856 -47.123  11.677  1.00  0.00    -0.338 N 
HETATM    5  H   UNL     1     -40.674 -49.083  13.075  1.00  0.00     0.170 HD
HETATM    6  H   UNL     1     -39.974 -47.254  12.149  1.00  0.00     0.164 HD
ENDROOT
BRANCH   1   7
HETATM    7  C   UNL     1     -42.149 -50.424  12.476  1.00  0.00     0.051 A 
HETATM    8  C   UNL     1     -43.346 -50.564  13.176  1.00  0.00     0.035 A 
HETATM    9  C   UNL     1     -44.031 -51.776  13.147  1.00  0.00     0.058 A 
HETATM   10  C   UNL     1     -43.490 -52.821  12.419  1.00  0.00     0.141 A 
HETATM   11  N   UNL     1     -42.309 -52.747  11.769  1.00  0.00    -0.345 N 
HETATM   12  C   UNL     1     -41.665 -51.555  11.823  1.00  0.00     0.119 A 
ATOM     13  HN  UNL     1     -41.922 -53.545  11.266  1.00  0.00     0.167 HD
BRANCH  10  14
HETATM   14  O   UNL     1     -44.237 -53.981  12.381  1.00  0.00    -0.341 OA
HETATM   15  C   UNL     1     -45.103 -54.119  13.499  1.00  0.00     0.211 C 
ENDBRANCH  10  14
ENDBRANCH   1   7
BRANCH   4  16
HETATM   16  C   UNL     1     -40.943 -45.990  10.746  1.00  0.00     0.089 C 
HETATM   17  C   UNL     1     -39.686 -45.114  10.823  1.00  0.00     0.045 C 
HETATM   18  C   UNL     1     -39.607 -44.323  12.132  1.00  0.00     0.127 C 
HETATM   19  N   UNL     1     -40.848 -43.597  12.407  1.00  0.00    -0.352 N 
HETATM   20  C   UNL     1     -42.061 -44.415  12.355  1.00  0.00     0.127 C 
HETATM   21  C   UNL     1     -40.968 -42.300  12.882  1.00  0.00     0.215 C 
HETATM   22  C   UNL     1     -42.173 -45.103  11.004  1.00  0.00     0.045 C 
HETATM   23  O   UNL     1     -42.061 -41.813  13.182  1.00  0.00    -0.274 OA
HETATM   24  C   UNL     1     -39.747 -41.427  13.014  1.00  0.00     0.117 C 
ENDBRANCH   4  16
TORSDOF 3
ENDMDL
MODEL 8
REMARK VINA RESULT:      -5.5      2.795      3.220
REMARK  3 active torsions:
REMARK  status: ('A' for Active; 'I' for Inactive)
REMARK    1  A    between atoms: O_2  and  C_3 
REMARK    2  A    between atoms: C_6  and  N_7 
REMARK       I    between atoms: N_7  and  C_8 
REMARK       I    between atoms: C_8  and  N_10 
REMARK    3  A    between atoms: N_10  and  C_11 
REMARK       I    between atoms: N_14  and  C_17 
ROOT
HETATM    1  N   UNL     1     -41.411 -49.502  11.293  1.00  0.00    -0.308 N 
HETATM    2  C   UNL     1     -42.004 -50.206  12.318  1.00  0.00     0.321 C 
HETATM    3  O   UNL     1     -42.840 -49.764  13.095  1.00  0.00    -0.247 OA
HETATM    4  N   UNL     1     -41.584 -51.519  12.359  1.00  0.00    -0.338 N 
HETATM    5  H   UNL     1     -40.571 -49.891  10.893  1.00  0.00     0.170 HD
HETATM    6  H   UNL     1     -40.606 -51.653  12.150  1.00  0.00     0.164 HD
ENDROOT
BRANCH   1   7
HETATM    7  C   UNL     1     -41.775 -48.192  10.909  1.00  0.00     0.051 A 
HETATM    8  C   UNL     1     -42.821 -47.915  10.031  1.00  0.00     0.035 A 
HETATM    9  C   UNL     1     -43.155 -46.595   9.741  1.00  0.00     0.058 A 
HETATM   10  C   UNL     1     -42.422 -45.585  10.338  1.00  0.00     0.141 A 
HETATM   11  N   UNL     1     -41.368 -45.805  11.153  1.00  0.00    -0.345 N 
HETATM   12  C   UNL     1     -41.067 -47.102  11.409  1.00  0.00     0.119 A 
ATOM     13  HN  UNL     1     -40.829 -45.038  11.554  1.00  0.00     0.167 HD
BRANCH  10  14
HETATM   14  O   UNL     1     -42.829 -44.296  10.058  1.00  0.00    -0.341 OA
HETATM   15  C   UNL     1     -42.668 -43.412  11.159  1.00  0.00     0.211 C 
ENDBRANCH  10  14
ENDBRANCH   1   7
BRANCH   4  16
HETATM   16  C   UNL     1     -42.184 -52.445  13.328  1.00  0.00     0.089 C 
HETATM   17  C   UNL     1     -41.812 -52.058  14.765  1.00  0.00     0.045 C 
HETATM   18  C   UNL     1     -40.339 -52.330  15.079  1.00  0.00     0.127 C 
HETATM   19  N   UNL     1     -39.945 -53.692  14.717  1.00  0.00    -0.352 N 
HETATM   20  C   UNL     1     -40.275 -54.082  13.345  1.00  0.00     0.127 C 
HETATM   21  C   UNL     1     -39.151 -54.556  15.455  1.00  0.00     0.215 C 
HETATM   22  C   UNL     1     -41.764 -53.906  13.093  1.00  0.00     0.045 C 
HETATM   23  O   UNL     1     -38.790 -55.650  15.014  1.00  0.00    -0.274 OA
HETATM   24  C   UNL     1     -38.729 -54.185  16.854  1.00  0.00     0.117 C 
ENDBRANCH   4  16
TORSDOF 3
ENDMDL
MODEL 9
REMARK VINA RESULT:      -5.5      4.973      7.893
REMARK  3 active torsions:
REMARK  status: ('A' for Active; 'I' for Inactive)
REMARK    1  A    between atoms: O_2  and  C_3 
REMARK    2  A    between atoms: C_6  and  N_7 
REMARK       I    between atoms: N_7  and  C_8 
REMARK       I    between atoms: C_8  and  N_10 
REMARK    3  A    between atoms: N_10  and  C_11 
REMARK       I    between atoms: N_14  and  C_17 
ROOT
HETATM    1  N   UNL     1     -38.554 -48.355  13.766  1.00  0.00    -0.308 N 
HETATM    2  C   UNL     1     -39.741 -47.696  14.006  1.00  0.00     0.321 C 
HETATM    3  O   UNL     1     -40.173 -47.384  15.106  1.00  0.00    -0.247 OA
HETATM    4  N   UNL     1     -40.398 -47.367  12.837  1.00  0.00    -0.338 N 
HETATM    5  H   UNL     1     -38.434 -48.770  12.856  1.00  0.00     0.170 HD
HETATM    6  H   UNL     1     -40.343 -48.068  12.114  1.00  0.00     0.164 HD
ENDROOT
BRANCH   1   7
HETATM    7  C   UNL     1     -37.598 -48.661  14.759  1.00  0.00     0.051 A 
HETATM    8  C   UNL     1     -36.672 -47.737  15.241  1.00  0.00     0.035 A 
HETATM    9  C   UNL     1     -35.793 -48.098  16.259  1.00  0.00     0.058 A 
HETATM   10  C   UNL     1     -35.864 -49.384  16.764  1.00  0.00     0.141 A 
HETATM   11  N   UNL     1     -36.708 -50.327  16.294  1.00  0.00    -0.345 N 
HETATM   12  C   UNL     1     -37.545 -49.944  15.298  1.00  0.00     0.119 A 
ATOM     13  HN  UNL     1     -36.716 -51.276  16.667  1.00  0.00     0.167 HD
BRANCH  10  14
HETATM   14  O   UNL     1     -35.008 -49.671  17.807  1.00  0.00    -0.341 OA
HETATM   15  C   UNL     1     -35.217 -50.967  18.354  1.00  0.00     0.211 C 
ENDBRANCH  10  14
ENDBRANCH   1   7
BRANCH   4  16
HETATM   16  C   UNL     1     -41.633 -46.576  12.896  1.00  0.00     0.089 C 
HETATM   17  C   UNL     1     -42.866 -47.456  12.656  1.00  0.00     0.045 C 
HETATM   18  C   UNL     1     -42.971 -47.927  11.203  1.00  0.00     0.127 C 
HETATM   19  N   UNL     1     -42.850 -46.815  10.258  1.00  0.00    -0.352 N 
HETATM   20  C   UNL     1     -41.672 -45.968  10.457  1.00  0.00     0.127 C 
HETATM   21  C   UNL     1     -43.608 -46.603   9.118  1.00  0.00     0.215 C 
HETATM   22  C   UNL     1     -41.650 -45.424  11.877  1.00  0.00     0.045 C 
HETATM   23  O   UNL     1     -43.358 -45.688   8.328  1.00  0.00    -0.274 OA
HETATM   24  C   UNL     1     -44.799 -47.480   8.827  1.00  0.00     0.117 C 
ENDBRANCH   4  16
TORSDOF 3
ENDMDL
