MODEL 1
REMARK VINA RESULT:      -6.0      0.000      0.000
REMARK  5 active torsions:
REMARK  status: ('A' for Active; 'I' for Inactive)
REMARK       I    between atoms: N_1  and  C_2 
REMARK    1  A    between atoms: C_2  and  C_4 
REMARK    2  A    between atoms: C_4  and  N_5 
REMARK    3  A    between atoms: C_7  and  N_8 
REMARK       I    between atoms: N_8  and  C_9 
REMARK       I    between atoms: C_9  and  N_11 
REMARK    4  A    between atoms: N_11  and  C_12 
REMARK    5  A    between atoms: C_12  and  C_13 
ROOT
HETATM    1  N   UNL     1     -39.590 -51.565  12.981  1.00  0.00    -0.293 N 
HETATM    2  C   UNL     1     -40.872 -51.658  12.526  1.00  0.00     0.141 A 
HETATM    3  C   UNL     1     -41.340 -52.893  12.902  1.00  0.00     0.070 A 
HETATM    4  C   UNL     1     -40.249 -53.481  13.580  1.00  0.00     0.138 A 
HETATM    5  N   UNL     1     -39.178 -52.680  13.632  1.00  0.00    -0.307 N 
ATOM      6  HN  UNL     1     -38.270 -52.865  14.058  1.00  0.00     0.186 HD
ENDROOT
BRANCH   3   7
HETATM    7  N   UNL     1     -42.593 -53.441  12.675  1.00  0.00    -0.306 N 
HETATM    8  C   UNL     1     -43.459 -53.839  13.669  1.00  0.00     0.320 C 
HETATM    9  O   UNL     1     -43.266 -53.752  14.875  1.00  0.00    -0.247 OA
HETATM   10  N   UNL     1     -44.601 -54.421  13.157  1.00  0.00    -0.340 N 
HETATM   11  H   UNL     1     -44.915 -54.127  12.242  1.00  0.00     0.164 HD
HETATM   12  H   UNL     1     -42.859 -53.609  11.718  1.00  0.00     0.171 HD
BRANCH  10  13
HETATM   13  C   UNL     1     -45.649 -54.864  14.062  1.00  0.00     0.156 C 
BRANCH  13  14
HETATM   14  C   UNL     1     -46.620 -53.749  14.437  1.00  0.00     0.139 C 
HETATM   15  C   UNL     1     -46.512 -52.491  13.585  1.00  0.00     0.035 C 
HETATM   16  C   UNL     1     -46.811 -51.358  14.546  1.00  0.00     0.029 C 
HETATM   17  C   UNL     1     -47.042 -52.031  15.883  1.00  0.00     0.168 C 
HETATM   18  O   UNL     1     -46.407 -53.311  15.791  1.00  0.00    -0.384 OA
ENDBRANCH  13  14
ENDBRANCH  10  13
ENDBRANCH   3   7
BRANCH   1  19
HETATM   19  C   UNL     1     -38.679 -50.454  12.754  1.00  0.00     0.250 C 
BRANCH  19  20
HETATM   20  C   UNL     1     -37.536 -50.774  11.817  1.00  0.00     0.235 C 
HETATM   21  N   UNL     1     -37.387 -49.992  10.711  1.00  0.00    -0.369 N 
HETATM   22  H   UNL     1     -36.643 -50.199  10.060  1.00  0.00     0.159 HD
HETATM   23  H   UNL     1     -38.114 -49.328  10.448  1.00  0.00     0.159 HD
HETATM   24  O   UNL     1     -36.702 -51.643  12.072  1.00  0.00    -0.272 OA
ENDBRANCH  19  20
ENDBRANCH   1  19
TORSDOF 5
ENDMDL
MODEL 2
REMARK VINA RESULT:      -5.9      3.488      4.584
REMARK  5 active torsions:
REMARK  status: ('A' for Active; 'I' for Inactive)
REMARK       I    between atoms: N_1  and  C_2 
REMARK    1  A    between atoms: C_2  and  C_4 
REMARK    2  A    between atoms: C_4  and  N_5 
REMARK    3  A    between atoms: C_7  and  N_8 
REMARK       I    between atoms: N_8  and  C_9 
REMARK       I    between atoms: C_9  and  N_11 
REMARK    4  A    between atoms: N_11  and  C_12 
REMARK    5  A    between atoms: C_12  and  C_13 
ROOT
HETATM    1  N   UNL     1     -40.599 -47.492  11.002  1.00  0.00    -0.293 N 
HETATM    2  C   UNL     1     -41.335 -48.618  10.778  1.00  0.00     0.141 A 
HETATM    3  C   UNL     1     -40.578 -49.682  11.207  1.00  0.00     0.070 A 
HETATM    4  C   UNL     1     -39.385 -49.087  11.672  1.00  0.00     0.138 A 
HETATM    5  N   UNL     1     -39.387 -47.754  11.550  1.00  0.00    -0.307 N 
ATOM      6  HN  UNL     1     -38.652 -47.094  11.807  1.00  0.00     0.186 HD
ENDROOT
BRANCH   3   7
HETATM    7  N   UNL     1     -40.907 -51.028  11.193  1.00  0.00    -0.306 N 
HETATM    8  C   UNL     1     -41.132 -51.785  12.322  1.00  0.00     0.320 C 
HETATM    9  O   UNL     1     -41.098 -51.386  13.479  1.00  0.00    -0.247 OA
HETATM   10  N   UNL     1     -41.362 -53.111  12.017  1.00  0.00    -0.340 N 
HETATM   11  H   UNL     1     -41.775 -53.328  11.120  1.00  0.00     0.164 HD
HETATM   12  H   UNL     1     -40.923 -51.492  10.299  1.00  0.00     0.171 HD
BRANCH  10  13
HETATM   13  C   UNL     1     -41.662 -54.051  13.084  1.00  0.00     0.156 C 
BRANCH  13  14
HETATM   14  C   UNL     1     -43.073 -53.888  13.640  1.00  0.00     0.139 C 
HETATM   15  C   UNL     1     -43.544 -55.026  14.535  1.00  0.00     0.035 C 
HETATM   16  C   UNL     1     -45.028 -55.141  14.249  1.00  0.00     0.029 C 
HETATM   17  C   UNL     1     -45.304 -54.089  13.195  1.00  0.00     0.168 C 
HETATM   18  O   UNL     1     -44.042 -53.811  12.580  1.00  0.00    -0.384 OA
ENDBRANCH  13  14
ENDBRANCH  10  13
ENDBRANCH   3   7
BRANCH   1  19
HETATM   19  C   UNL     1     -40.976 -46.135  10.640  1.00  0.00     0.250 C 
BRANCH  19  20
HETATM   20  C   UNL     1     -39.819 -45.162  10.603  1.00  0.00     0.235 C 
HETATM   21  N   UNL     1     -39.236 -44.917   9.396  1.00  0.00    -0.369 N 
HETATM   22  H   UNL     1     -38.450 -44.285   9.349  1.00  0.00     0.159 HD
HETATM   23  H   UNL     1     -39.467 -45.492   8.586  1.00  0.00     0.159 HD
HETATM   24  O   UNL     1     -39.462 -44.530  11.597  1.00  0.00    -0.272 OA
ENDBRANCH  19  20
ENDBRANCH   1  19
TORSDOF 5
ENDMDL
MODEL 3
REMARK VINA RESULT:      -5.9      3.146      7.253
REMARK  5 active torsions:
REMARK  status: ('A' for Active; 'I' for Inactive)
REMARK       I    between atoms: N_1  and  C_2 
REMARK    1  A    between atoms: C_2  and  C_4 
REMARK    2  A    between atoms: C_4  and  N_5 
REMARK    3  A    between atoms: C_7  and  N_8 
REMARK       I    between atoms: N_8  and  C_9 
REMARK       I    between atoms: C_9  and  N_11 
REMARK    4  A    between atoms: N_11  and  C_12 
REMARK    5  A    between atoms: C_12  and  C_13 
ROOT
HETATM    1  N   UNL     1     -44.227 -54.453  13.420  1.00  0.00    -0.293 N 
HETATM    2  C   UNL     1     -43.998 -53.578  12.400  1.00  0.00     0.141 A 
HETATM    3  C   UNL     1     -42.680 -53.199  12.488  1.00  0.00     0.070 A 
HETATM    4  C   UNL     1     -42.195 -53.904  13.612  1.00  0.00     0.138 A 
HETATM    5  N   UNL     1     -43.131 -54.670  14.187  1.00  0.00    -0.307 N 
ATOM      6  HN  UNL     1     -43.040 -55.271  15.007  1.00  0.00     0.186 HD
ENDROOT
BRANCH   3   7
HETATM    7  N   UNL     1     -41.981 -52.331  11.664  1.00  0.00    -0.306 N 
HETATM    8  C   UNL     1     -41.361 -51.179  12.096  1.00  0.00     0.320 C 
HETATM    9  O   UNL     1     -41.318 -50.769  13.249  1.00  0.00    -0.247 OA
HETATM   10  N   UNL     1     -40.810 -50.467  11.051  1.00  0.00    -0.340 N 
HETATM   11  H   UNL     1     -40.505 -50.979  10.235  1.00  0.00     0.164 HD
HETATM   12  H   UNL     1     -41.978 -52.530  10.677  1.00  0.00     0.171 HD
BRANCH  10  13
HETATM   13  C   UNL     1     -40.077 -49.242  11.325  1.00  0.00     0.156 C 
BRANCH  13  14
HETATM   14  C   UNL     1     -40.971 -48.005  11.339  1.00  0.00     0.139 C 
HETATM   15  C   UNL     1     -42.160 -48.064  10.389  1.00  0.00     0.035 C 
HETATM   16  C   UNL     1     -42.334 -46.635   9.916  1.00  0.00     0.029 C 
HETATM   17  C   UNL     1     -41.225 -45.860  10.597  1.00  0.00     0.168 C 
HETATM   18  O   UNL     1     -40.235 -46.830  10.957  1.00  0.00    -0.384 OA
ENDBRANCH  13  14
ENDBRANCH  10  13
ENDBRANCH   3   7
BRANCH   1  19
HETATM   19  C   UNL     1     -45.504 -55.061  13.757  1.00  0.00     0.250 C 
BRANCH  19  20
HETATM   20  C   UNL     1     -46.242 -54.367  14.881  1.00  0.00     0.235 C 
HETATM   21  N   UNL     1     -47.320 -53.602  14.553  1.00  0.00    -0.369 N 
HETATM   22  H   UNL     1     -47.816 -53.114  15.284  1.00  0.00     0.159 HD
HETATM   23  H   UNL     1     -47.516 -53.379  13.577  1.00  0.00     0.159 HD
HETATM   24  O   UNL     1     -45.953 -54.550  16.063  1.00  0.00    -0.272 OA
ENDBRANCH  19  20
ENDBRANCH   1  19
TORSDOF 5
ENDMDL
MODEL 4
REMARK VINA RESULT:      -5.9      2.222      7.396
REMARK  5 active torsions:
REMARK  status: ('A' for Active; 'I' for Inactive)
REMARK       I    between atoms: N_1  and  C_2 
REMARK    1  A    between atoms: C_2  and  C_4 
REMARK    2  A    between atoms: C_4  and  N_5 
REMARK    3  A    between atoms: C_7  and  N_8 
REMARK       I    between atoms: N_8  and  C_9 
REMARK       I    between atoms: C_9  and  N_11 
REMARK    4  A    between atoms: N_11  and  C_12 
REMARK    5  A    between atoms: C_12  and  C_13 
ROOT
HETATM    1  N   UNL     1     -44.201 -54.508  13.507  1.00  0.00    -0.293 N 
HETATM    2  C   UNL     1     -43.892 -53.672  12.475  1.00  0.00     0.141 A 
HETATM    3  C   UNL     1     -42.576 -53.310  12.634  1.00  0.00     0.070 A 
HETATM    4  C   UNL     1     -42.176 -53.982  13.810  1.00  0.00     0.138 A 
HETATM    5  N   UNL     1     -43.159 -54.714  14.350  1.00  0.00    -0.307 N 
ATOM      6  HN  UNL     1     -43.131 -55.287  15.193  1.00  0.00     0.186 HD
ENDROOT
BRANCH   3   7
HETATM    7  N   UNL     1     -41.812 -52.481  11.828  1.00  0.00    -0.306 N 
HETATM    8  C   UNL     1     -41.603 -51.141  12.067  1.00  0.00     0.320 C 
HETATM    9  O   UNL     1     -42.034 -50.500  13.017  1.00  0.00    -0.247 OA
HETATM   10  N   UNL     1     -40.869 -50.545  11.062  1.00  0.00    -0.340 N 
HETATM   11  H   UNL     1     -40.214 -51.119  10.548  1.00  0.00     0.164 HD
HETATM   12  H   UNL     1     -41.434 -52.877  10.983  1.00  0.00     0.171 HD
BRANCH  10  13
HETATM   13  C   UNL     1     -40.515 -49.140  11.168  1.00  0.00     0.156 C 
BRANCH  13  14
HETATM   14  C   UNL     1     -39.153 -48.917  11.819  1.00  0.00     0.139 C 
HETATM   15  C   UNL     1     -38.191 -50.092  11.710  1.00  0.00     0.035 C 
HETATM   16  C   UNL     1     -37.410 -50.062  13.008  1.00  0.00     0.029 C 
HETATM   17  C   UNL     1     -37.990 -48.898  13.785  1.00  0.00     0.168 C 
HETATM   18  O   UNL     1     -39.289 -48.666  13.229  1.00  0.00    -0.384 OA
ENDBRANCH  13  14
ENDBRANCH  10  13
ENDBRANCH   3   7
BRANCH   1  19
HETATM   19  C   UNL     1     -45.507 -55.085  13.781  1.00  0.00     0.250 C 
BRANCH  19  20
HETATM   20  C   UNL     1     -46.274 -54.383  14.880  1.00  0.00     0.235 C 
HETATM   21  N   UNL     1     -47.332 -53.605  14.515  1.00  0.00    -0.369 N 
HETATM   22  H   UNL     1     -47.847 -53.111  15.230  1.00  0.00     0.159 HD
HETATM   23  H   UNL     1     -47.491 -53.379  13.534  1.00  0.00     0.159 HD
HETATM   24  O   UNL     1     -46.029 -54.570  16.071  1.00  0.00    -0.272 OA
ENDBRANCH  19  20
ENDBRANCH   1  19
TORSDOF 5
ENDMDL
MODEL 5
REMARK VINA RESULT:      -5.8      4.079      4.750
REMARK  5 active torsions:
REMARK  status: ('A' for Active; 'I' for Inactive)
REMARK       I    between atoms: N_1  and  C_2 
REMARK    1  A    between atoms: C_2  and  C_4 
REMARK    2  A    between atoms: C_4  and  N_5 
REMARK    3  A    between atoms: C_7  and  N_8 
REMARK       I    between atoms: N_8  and  C_9 
REMARK       I    between atoms: C_9  and  N_11 
REMARK    4  A    between atoms: N_11  and  C_12 
REMARK    5  A    between atoms: C_12  and  C_13 
ROOT
HETATM    1  N   UNL     1     -40.524 -46.876  10.996  1.00  0.00    -0.293 N 
HETATM    2  C   UNL     1     -40.486 -48.078  11.638  1.00  0.00     0.141 A 
HETATM    3  C   UNL     1     -41.542 -48.818  11.164  1.00  0.00     0.070 A 
HETATM    4  C   UNL     1     -42.170 -47.961  10.233  1.00  0.00     0.138 A 
HETATM    5  N   UNL     1     -41.558 -46.775  10.124  1.00  0.00    -0.307 N 
ATOM      6  HN  UNL     1     -41.810 -45.986   9.529  1.00  0.00     0.186 HD
ENDROOT
BRANCH   3   7
HETATM    7  N   UNL     1     -41.909 -50.109  11.511  1.00  0.00    -0.306 N 
HETATM    8  C   UNL     1     -42.382 -50.476  12.751  1.00  0.00     0.320 C 
HETATM    9  O   UNL     1     -42.566 -49.730  13.705  1.00  0.00    -0.247 OA
HETATM   10  N   UNL     1     -42.593 -51.836  12.842  1.00  0.00    -0.340 N 
HETATM   11  H   UNL     1     -42.826 -52.338  11.996  1.00  0.00     0.164 HD
HETATM   12  H   UNL     1     -41.763 -50.832  10.825  1.00  0.00     0.171 HD
BRANCH  10  13
HETATM   13  C   UNL     1     -43.134 -52.399  14.068  1.00  0.00     0.156 C 
BRANCH  13  14
HETATM   14  C   UNL     1     -44.652 -52.544  14.036  1.00  0.00     0.139 C 
HETATM   15  C   UNL     1     -45.249 -52.728  12.648  1.00  0.00     0.035 C 
HETATM   16  C   UNL     1     -46.581 -52.007  12.711  1.00  0.00     0.029 C 
HETATM   17  C   UNL     1     -46.649 -51.437  14.113  1.00  0.00     0.168 C 
HETATM   18  O   UNL     1     -45.296 -51.376  14.576  1.00  0.00    -0.384 OA
ENDBRANCH  13  14
ENDBRANCH  10  13
ENDBRANCH   3   7
BRANCH   1  19
HETATM   19  C   UNL     1     -39.636 -45.749  11.231  1.00  0.00     0.250 C 
BRANCH  19  20
HETATM   20  C   UNL     1     -39.676 -44.694  10.149  1.00  0.00     0.235 C 
HETATM   21  N   UNL     1     -38.849 -44.854   9.078  1.00  0.00    -0.369 N 
HETATM   22  H   UNL     1     -38.844 -44.151   8.352  1.00  0.00     0.159 HD
HETATM   23  H   UNL     1     -38.121 -45.567   9.092  1.00  0.00     0.159 HD
HETATM   24  O   UNL     1     -40.486 -43.767  10.167  1.00  0.00    -0.272 OA
ENDBRANCH  19  20
ENDBRANCH   1  19
TORSDOF 5
ENDMDL
MODEL 6
REMARK VINA RESULT:      -5.7      4.189      6.002
REMARK  5 active torsions:
REMARK  status: ('A' for Active; 'I' for Inactive)
REMARK       I    between atoms: N_1  and  C_2 
REMARK    1  A    between atoms: C_2  and  C_4 
REMARK    2  A    between atoms: C_4  and  N_5 
REMARK    3  A    between atoms: C_7  and  N_8 
REMARK       I    between atoms: N_8  and  C_9 
REMARK       I    between atoms: C_9  and  N_11 
REMARK    4  A    between atoms: N_11  and  C_12 
REMARK    5  A    between atoms: C_12  and  C_13 
ROOT
HETATM    1  N   UNL     1     -40.505 -46.730  11.224  1.00  0.00    -0.293 N 
HETATM    2  C   UNL     1     -40.012 -47.941  11.613  1.00  0.00     0.141 A 
HETATM    3  C   UNL     1     -40.777 -48.901  10.997  1.00  0.00     0.070 A 
HETATM    4  C   UNL     1     -41.722 -48.160  10.253  1.00  0.00     0.138 A 
HETATM    5  N   UNL     1     -41.566 -46.837  10.387  1.00  0.00    -0.307 N 
ATOM      6  HN  UNL     1     -42.113 -46.089   9.961  1.00  0.00     0.186 HD
ENDROOT
BRANCH   3   7
HETATM    7  N   UNL     1     -40.652 -50.279  11.077  1.00  0.00    -0.306 N 
HETATM    8  C   UNL     1     -41.429 -51.084  11.880  1.00  0.00     0.320 C 
HETATM    9  O   UNL     1     -42.340 -50.715  12.611  1.00  0.00    -0.247 OA
HETATM   10  N   UNL     1     -41.035 -52.405  11.822  1.00  0.00    -0.340 N 
HETATM   11  H   UNL     1     -40.603 -52.735  10.970  1.00  0.00     0.164 HD
HETATM   12  H   UNL     1     -39.905 -50.708  10.556  1.00  0.00     0.171 HD
BRANCH  10  13
HETATM   13  C   UNL     1     -41.771 -53.408  12.574  1.00  0.00     0.156 C 
BRANCH  13  14
HETATM   14  C   UNL     1     -40.971 -53.980  13.741  1.00  0.00     0.139 C 
HETATM   15  C   UNL     1     -41.005 -53.143  15.012  1.00  0.00     0.035 C 
HETATM   16  C   UNL     1     -39.630 -53.327  15.622  1.00  0.00     0.029 C 
HETATM   17  C   UNL     1     -38.892 -54.228  14.653  1.00  0.00     0.168 C 
HETATM   18  O   UNL     1     -39.578 -54.104  13.403  1.00  0.00    -0.384 OA
ENDBRANCH  13  14
ENDBRANCH  10  13
ENDBRANCH   3   7
BRANCH   1  19
HETATM   19  C   UNL     1     -40.046 -45.430  11.685  1.00  0.00     0.250 C 
BRANCH  19  20
HETATM   20  C   UNL     1     -40.014 -44.369  10.607  1.00  0.00     0.235 C 
HETATM   21  N   UNL     1     -40.388 -43.105  10.951  1.00  0.00    -0.369 N 
HETATM   22  H   UNL     1     -40.393 -42.385  10.244  1.00  0.00     0.159 HD
HETATM   23  H   UNL     1     -40.825 -42.926  11.854  1.00  0.00     0.159 HD
HETATM   24  O   UNL     1     -39.579 -44.596   9.478  1.00  0.00    -0.272 OA
ENDBRANCH  19  20
ENDBRANCH   1  19
TORSDOF 5
ENDMDL
MODEL 7
REMARK VINA RESULT:      -5.7      1.700      1.811
REMARK  5 active torsions:
REMARK  status: ('A' for Active; 'I' for Inactive)
REMARK       I    between atoms: N_1  and  C_2 
REMARK    1  A    between atoms: C_2  and  C_4 
REMARK    2  A    between atoms: C_4  and  N_5 
REMARK    3  A    between atoms: C_7  and  N_8 
REMARK       I    between atoms: N_8  and  C_9 
REMARK       I    between atoms: C_9  and  N_11 
REMARK    4  A    between atoms: N_11  and  C_12 
REMARK    5  A    between atoms: C_12  and  C_13 
ROOT
HETATM    1  N   UNL     1     -39.395 -49.804  12.493  1.00  0.00    -0.293 N 
HETATM    2  C   UNL     1     -40.581 -49.944  11.836  1.00  0.00     0.141 A 
HETATM    3  C   UNL     1     -41.481 -50.454  12.740  1.00  0.00     0.070 A 
HETATM    4  C   UNL     1     -40.730 -50.595  13.928  1.00  0.00     0.138 A 
HETATM    5  N   UNL     1     -39.457 -50.203  13.787  1.00  0.00    -0.307 N 
ATOM      6  HN  UNL     1     -38.714 -50.204  14.486  1.00  0.00     0.186 HD
ENDROOT
BRANCH   3   7
HETATM    7  N   UNL     1     -42.818 -50.758  12.541  1.00  0.00    -0.306 N 
HETATM    8  C   UNL     1     -43.415 -51.936  12.931  1.00  0.00     0.320 C 
HETATM    9  O   UNL     1     -42.871 -52.863  13.518  1.00  0.00    -0.247 OA
HETATM   10  N   UNL     1     -44.735 -52.002  12.536  1.00  0.00    -0.340 N 
HETATM   11  H   UNL     1     -45.246 -51.136  12.439  1.00  0.00     0.164 HD
HETATM   12  H   UNL     1     -43.372 -50.093  12.026  1.00  0.00     0.171 HD
BRANCH  10  13
HETATM   13  C   UNL     1     -45.536 -53.160  12.898  1.00  0.00     0.156 C 
BRANCH  13  14
HETATM   14  C   UNL     1     -46.392 -52.924  14.140  1.00  0.00     0.139 C 
HETATM   15  C   UNL     1     -46.793 -51.474  14.376  1.00  0.00     0.035 C 
HETATM   16  C   UNL     1     -46.803 -51.327  15.884  1.00  0.00     0.029 C 
HETATM   17  C   UNL     1     -46.383 -52.683  16.411  1.00  0.00     0.168 C 
HETATM   18  O   UNL     1     -45.695 -53.325  15.333  1.00  0.00    -0.384 OA
ENDBRANCH  13  14
ENDBRANCH  10  13
ENDBRANCH   3   7
BRANCH   1  19
HETATM   19  C   UNL     1     -38.139 -49.360  11.910  1.00  0.00     0.250 C 
BRANCH  19  20
HETATM   20  C   UNL     1     -37.321 -50.470  11.287  1.00  0.00     0.235 C 
HETATM   21  N   UNL     1     -36.982 -50.344   9.973  1.00  0.00    -0.369 N 
HETATM   22  H   UNL     1     -36.453 -51.082   9.530  1.00  0.00     0.159 HD
HETATM   23  H   UNL     1     -37.403 -49.614   9.400  1.00  0.00     0.159 HD
HETATM   24  O   UNL     1     -36.887 -51.413  11.947  1.00  0.00    -0.272 OA
ENDBRANCH  19  20
ENDBRANCH   1  19
TORSDOF 5
ENDMDL
MODEL 8
REMARK VINA RESULT:      -5.6      4.286      6.044
REMARK  5 active torsions:
REMARK  status: ('A' for Active; 'I' for Inactive)
REMARK       I    between atoms: N_1  and  C_2 
REMARK    1  A    between atoms: C_2  and  C_4 
REMARK    2  A    between atoms: C_4  and  N_5 
REMARK    3  A    between atoms: C_7  and  N_8 
REMARK       I    between atoms: N_8  and  C_9 
REMARK       I    between atoms: C_9  and  N_11 
REMARK    4  A    between atoms: N_11  and  C_12 
REMARK    5  A    between atoms: C_12  and  C_13 
ROOT
HETATM    1  N   UNL     1     -41.275 -47.110  10.812  1.00  0.00    -0.293 N 
HETATM    2  C   UNL     1     -41.644 -48.391  10.526  1.00  0.00     0.141 A 
HETATM    3  C   UNL     1     -40.704 -49.214  11.097  1.00  0.00     0.070 A 
HETATM    4  C   UNL     1     -39.794 -48.323  11.706  1.00  0.00     0.138 A 
HETATM    5  N   UNL     1     -40.132 -47.039  11.537  1.00  0.00    -0.307 N 
ATOM      6  HN  UNL     1     -39.646 -46.207  11.873  1.00  0.00     0.186 HD
ENDROOT
BRANCH   3   7
HETATM    7  N   UNL     1     -40.657 -50.599  11.085  1.00  0.00    -0.306 N 
HETATM    8  C   UNL     1     -41.372 -51.409  11.939  1.00  0.00     0.320 C 
HETATM    9  O   UNL     1     -42.155 -51.036  12.804  1.00  0.00    -0.247 OA
HETATM   10  N   UNL     1     -41.073 -52.744  11.757  1.00  0.00    -0.340 N 
HETATM   11  H   UNL     1     -40.777 -53.043  10.838  1.00  0.00     0.164 HD
HETATM   12  H   UNL     1     -40.013 -51.035  10.445  1.00  0.00     0.171 HD
BRANCH  10  13
HETATM   13  C   UNL     1     -41.766 -53.749  12.546  1.00  0.00     0.156 C 
BRANCH  13  14
HETATM   14  C   UNL     1     -40.918 -54.292  13.693  1.00  0.00     0.139 C 
HETATM   15  C   UNL     1     -41.185 -53.648  15.047  1.00  0.00     0.035 C 
HETATM   16  C   UNL     1     -39.831 -53.627  15.727  1.00  0.00     0.029 C 
HETATM   17  C   UNL     1     -38.877 -54.228  14.716  1.00  0.00     0.168 C 
HETATM   18  O   UNL     1     -39.516 -54.087  13.443  1.00  0.00    -0.384 OA
ENDBRANCH  13  14
ENDBRANCH  10  13
ENDBRANCH   3   7
BRANCH   1  19
HETATM   19  C   UNL     1     -41.942 -45.902  10.352  1.00  0.00     0.250 C 
BRANCH  19  20
HETATM   20  C   UNL     1     -43.133 -46.158   9.455  1.00  0.00     0.235 C 
HETATM   21  N   UNL     1     -44.325 -46.442  10.052  1.00  0.00    -0.369 N 
HETATM   22  H   UNL     1     -45.130 -46.635   9.474  1.00  0.00     0.159 HD
HETATM   23  H   UNL     1     -44.367 -46.634  11.053  1.00  0.00     0.159 HD
HETATM   24  O   UNL     1     -43.073 -46.026   8.233  1.00  0.00    -0.272 OA
ENDBRANCH  19  20
ENDBRANCH   1  19
TORSDOF 5
ENDMDL
MODEL 9
REMARK VINA RESULT:      -5.6      2.224      3.154
REMARK  5 active torsions:
REMARK  status: ('A' for Active; 'I' for Inactive)
REMARK       I    between atoms: N_1  and  C_2 
REMARK    1  A    between atoms: C_2  and  C_4 
REMARK    2  A    between atoms: C_4  and  N_5 
REMARK    3  A    between atoms: C_7  and  N_8 
REMARK       I    between atoms: N_8  and  C_9 
REMARK       I    between atoms: C_9  and  N_11 
REMARK    4  A    between atoms: N_11  and  C_12 
REMARK    5  A    between atoms: C_12  and  C_13 
ROOT
HETATM    1  N   UNL     1     -39.020 -49.448  11.555  1.00  0.00    -0.293 N 
HETATM    2  C   UNL     1     -40.020 -50.348  11.780  1.00  0.00     0.141 A 
HETATM    3  C   UNL     1     -41.204 -49.657  11.696  1.00  0.00     0.070 A 
HETATM    4  C   UNL     1     -40.808 -48.330  11.419  1.00  0.00     0.138 A 
HETATM    5  N   UNL     1     -39.479 -48.192  11.333  1.00  0.00    -0.307 N 
ATOM      6  HN  UNL     1     -38.943 -47.345  11.147  1.00  0.00     0.186 HD
ENDROOT
BRANCH   3   7
HETATM    7  N   UNL     1     -42.493 -50.146  11.841  1.00  0.00    -0.306 N 
HETATM    8  C   UNL     1     -43.103 -50.380  13.054  1.00  0.00     0.320 C 
HETATM    9  O   UNL     1     -42.618 -50.177  14.159  1.00  0.00    -0.247 OA
HETATM   10  N   UNL     1     -44.355 -50.940  12.902  1.00  0.00    -0.340 N 
HETATM   11  H   UNL     1     -44.873 -50.726  12.060  1.00  0.00     0.164 HD
HETATM   12  H   UNL     1     -42.990 -50.398  11.002  1.00  0.00     0.171 HD
BRANCH  10  13
HETATM   13  C   UNL     1     -45.165 -51.218  14.076  1.00  0.00     0.156 C 
BRANCH  13  14
HETATM   14  C   UNL     1     -45.120 -52.684  14.496  1.00  0.00     0.139 C 
HETATM   15  C   UNL     1     -44.661 -53.647  13.410  1.00  0.00     0.035 C 
HETATM   16  C   UNL     1     -45.465 -54.908  13.660  1.00  0.00     0.029 C 
HETATM   17  C   UNL     1     -46.347 -54.578  14.845  1.00  0.00     0.168 C 
HETATM   18  O   UNL     1     -46.422 -53.150  14.893  1.00  0.00    -0.384 OA
ENDBRANCH  13  14
ENDBRANCH  10  13
ENDBRANCH   3   7
BRANCH   1  19
HETATM   19  C   UNL     1     -37.593 -49.720  11.614  1.00  0.00     0.250 C 
BRANCH  19  20
HETATM   20  C   UNL     1     -37.214 -50.829  12.570  1.00  0.00     0.235 C 
HETATM   21  N   UNL     1     -37.378 -50.600  13.903  1.00  0.00    -0.369 N 
HETATM   22  H   UNL     1     -37.113 -51.319  14.561  1.00  0.00     0.159 HD
HETATM   23  H   UNL     1     -37.590 -49.662  14.242  1.00  0.00     0.159 HD
HETATM   24  O   UNL     1     -36.860 -51.940  12.176  1.00  0.00    -0.272 OA
ENDBRANCH  19  20
ENDBRANCH   1  19
TORSDOF 5
ENDMDL
