MODEL 1
REMARK VINA RESULT:      -6.2      0.000      0.000
REMARK  4 active torsions:
REMARK  status: ('A' for Active; 'I' for Inactive)
REMARK    1  A    between atoms: C_5  and  C_6 
REMARK    2  A    between atoms: C_6  and  C_7 
REMARK       I    between atoms: C_7  and  N_9 
REMARK    3  A    between atoms: N_9  and  C_10 
REMARK    4  A    between atoms: C_14  and  C_15 
REMARK       I    between atoms: C_15  and  N_17 
ROOT
HETATM    1  C   UNL     1     -42.277 -52.672  14.837  1.00  0.00     0.222 C 
HETATM    2  O   UNL     1     -42.170 -52.065  15.902  1.00  0.00    -0.273 OA
HETATM    3  N   UNL     1     -43.486 -52.811  14.182  1.00  0.00    -0.355 N 
HETATM    4  H   UNL     1     -43.463 -52.975  13.180  1.00  0.00     0.162 HD
ENDROOT
BRANCH   3   5
HETATM    5  C   UNL     1     -44.688 -52.195  14.708  1.00  0.00     0.097 C 
HETATM    6  C   UNL     1     -45.575 -53.162  15.499  1.00  0.00     0.026 C 
HETATM    7  C   UNL     1     -46.999 -52.614  15.372  1.00  0.00     0.003 C 
HETATM    8  C   UNL     1     -46.896 -51.347  14.524  1.00  0.00     0.016 C 
HETATM    9  C   UNL     1     -45.634 -51.553  13.680  1.00  0.00     0.100 C 
BRANCH   9  10
HETATM   10  C   UNL     1     -45.932 -52.413  12.461  1.00  0.00     0.221 C 
HETATM   11  O   UNL     1     -45.430 -53.511  12.243  1.00  0.00    -0.273 OA
HETATM   12  N   UNL     1     -46.814 -51.864  11.575  1.00  0.00    -0.370 N 
HETATM   13  H   UNL     1     -47.199 -50.935  11.681  1.00  0.00     0.159 HD
HETATM   14  H   UNL     1     -47.039 -52.385  10.737  1.00  0.00     0.159 HD
ENDBRANCH   9  10
ENDBRANCH   3   5
BRANCH   1  15
HETATM   15  C   UNL     1     -41.087 -53.344  14.155  1.00  0.00     0.142 C 
BRANCH  15  16
HETATM   16  C   UNL     1     -40.144 -52.358  13.510  1.00  0.00    -0.034 A 
HETATM   17  C   UNL     1     -38.884 -52.084  14.045  1.00  0.00     0.011 A 
HETATM   18  C   UNL     1     -38.007 -51.237  13.370  1.00  0.00     0.025 A 
HETATM   19  C   UNL     1     -38.419 -50.661  12.174  1.00  0.00     0.005 A 
HETATM   20  C   UNL     1     -37.463 -49.862  11.338  1.00  0.00     0.068 C 
HETATM   21  N   UNL     1     -39.658 -50.858  11.664  1.00  0.00    -0.369 N 
HETATM   22  C   UNL     1     -40.485 -51.692  12.339  1.00  0.00     0.095 A 
ATOM     23  HN  UNL     1     -39.956 -50.397  10.804  1.00  0.00     0.165 HD
ENDBRANCH  15  16
ENDBRANCH   1  15
TORSDOF 4
ENDMDL
MODEL 2
REMARK VINA RESULT:      -6.1      2.234      6.171
REMARK  4 active torsions:
REMARK  status: ('A' for Active; 'I' for Inactive)
REMARK    1  A    between atoms: C_5  and  C_6 
REMARK    2  A    between atoms: C_6  and  C_7 
REMARK       I    between atoms: C_7  and  N_9 
REMARK    3  A    between atoms: N_9  and  C_10 
REMARK    4  A    between atoms: C_14  and  C_15 
REMARK       I    between atoms: C_15  and  N_17 
ROOT
HETATM    1  C   UNL     1     -43.550 -54.177  16.092  1.00  0.00     0.222 C 
HETATM    2  O   UNL     1     -43.345 -55.373  16.294  1.00  0.00    -0.273 OA
HETATM    3  N   UNL     1     -42.569 -53.329  15.614  1.00  0.00    -0.355 N 
HETATM    4  H   UNL     1     -42.867 -52.489  15.126  1.00  0.00     0.162 HD
ENDROOT
BRANCH   3   5
HETATM    5  C   UNL     1     -41.250 -53.832  15.283  1.00  0.00     0.097 C 
HETATM    6  C   UNL     1     -40.124 -52.835  15.571  1.00  0.00     0.026 C 
HETATM    7  C   UNL     1     -39.000 -53.187  14.593  1.00  0.00     0.003 C 
HETATM    8  C   UNL     1     -39.500 -54.379  13.777  1.00  0.00     0.016 C 
HETATM    9  C   UNL     1     -41.027 -54.259  13.823  1.00  0.00     0.100 C 
BRANCH   9  10
HETATM   10  C   UNL     1     -41.525 -53.266  12.784  1.00  0.00     0.221 C 
HETATM   11  O   UNL     1     -42.436 -52.465  12.965  1.00  0.00    -0.273 OA
HETATM   12  N   UNL     1     -40.884 -53.329  11.579  1.00  0.00    -0.370 N 
HETATM   13  H   UNL     1     -40.175 -54.017  11.365  1.00  0.00     0.159 HD
HETATM   14  H   UNL     1     -41.183 -52.701  10.844  1.00  0.00     0.159 HD
ENDBRANCH   9  10
ENDBRANCH   3   5
BRANCH   1  15
HETATM   15  C   UNL     1     -44.900 -53.519  16.368  1.00  0.00     0.142 C 
BRANCH  15  16
HETATM   16  C   UNL     1     -45.581 -53.023  15.115  1.00  0.00    -0.034 A 
HETATM   17  C   UNL     1     -46.267 -51.807  15.081  1.00  0.00     0.011 A 
HETATM   18  C   UNL     1     -46.803 -51.342  13.882  1.00  0.00     0.025 A 
HETATM   19  C   UNL     1     -46.659 -52.116  12.737  1.00  0.00     0.005 A 
HETATM   20  C   UNL     1     -47.088 -51.594  11.398  1.00  0.00     0.068 C 
HETATM   21  N   UNL     1     -46.054 -53.328  12.754  1.00  0.00    -0.369 N 
HETATM   22  C   UNL     1     -45.536 -53.751  13.932  1.00  0.00     0.095 A 
ATOM     23  HN  UNL     1     -45.990 -53.900  11.912  1.00  0.00     0.165 HD
ENDBRANCH  15  16
ENDBRANCH   1  15
TORSDOF 4
ENDMDL
MODEL 3
REMARK VINA RESULT:      -6.0      2.162      2.819
REMARK  4 active torsions:
REMARK  status: ('A' for Active; 'I' for Inactive)
REMARK    1  A    between atoms: C_5  and  C_6 
REMARK    2  A    between atoms: C_6  and  C_7 
REMARK       I    between atoms: C_7  and  N_9 
REMARK    3  A    between atoms: N_9  and  C_10 
REMARK    4  A    between atoms: C_14  and  C_15 
REMARK       I    between atoms: C_15  and  N_17 
ROOT
HETATM    1  C   UNL     1     -42.436 -50.260  12.503  1.00  0.00     0.222 C 
HETATM    2  O   UNL     1     -42.647 -49.070  12.730  1.00  0.00    -0.273 OA
HETATM    3  N   UNL     1     -43.339 -51.250  12.843  1.00  0.00    -0.355 N 
HETATM    4  H   UNL     1     -43.301 -52.122  12.324  1.00  0.00     0.162 HD
ENDROOT
BRANCH   3   5
HETATM    5  C   UNL     1     -44.612 -50.915  13.449  1.00  0.00     0.097 C 
HETATM    6  C   UNL     1     -44.601 -50.992  14.979  1.00  0.00     0.026 C 
HETATM    7  C   UNL     1     -46.044 -51.298  15.388  1.00  0.00     0.003 C 
HETATM    8  C   UNL     1     -46.849 -51.380  14.090  1.00  0.00     0.016 C 
HETATM    9  C   UNL     1     -45.817 -51.770  13.026  1.00  0.00     0.100 C 
BRANCH   9  10
HETATM   10  C   UNL     1     -45.570 -53.271  13.035  1.00  0.00     0.221 C 
HETATM   11  O   UNL     1     -44.666 -53.832  12.426  1.00  0.00    -0.273 OA
HETATM   12  N   UNL     1     -46.461 -53.993  13.778  1.00  0.00    -0.370 N 
HETATM   13  H   UNL     1     -47.259 -53.580  14.240  1.00  0.00     0.159 HD
HETATM   14  H   UNL     1     -46.355 -54.999  13.808  1.00  0.00     0.159 HD
ENDBRANCH   9  10
ENDBRANCH   3   5
BRANCH   1  15
HETATM   15  C   UNL     1     -41.150 -50.753  11.843  1.00  0.00     0.142 C 
BRANCH  15  16
HETATM   16  C   UNL     1     -40.476 -51.858  12.618  1.00  0.00    -0.034 A 
HETATM   17  C   UNL     1     -39.524 -51.592  13.605  1.00  0.00     0.011 A 
HETATM   18  C   UNL     1     -38.992 -52.635  14.362  1.00  0.00     0.025 A 
HETATM   19  C   UNL     1     -39.411 -53.934  14.101  1.00  0.00     0.005 A 
HETATM   20  C   UNL     1     -38.981 -55.069  14.982  1.00  0.00     0.068 C 
HETATM   21  N   UNL     1     -40.284 -54.228  13.108  1.00  0.00    -0.369 N 
HETATM   22  C   UNL     1     -40.789 -53.193  12.394  1.00  0.00     0.095 A 
ATOM     23  HN  UNL     1     -40.551 -55.191  12.906  1.00  0.00     0.165 HD
ENDBRANCH  15  16
ENDBRANCH   1  15
TORSDOF 4
ENDMDL
MODEL 4
REMARK VINA RESULT:      -5.9      2.153      6.196
REMARK  4 active torsions:
REMARK  status: ('A' for Active; 'I' for Inactive)
REMARK    1  A    between atoms: C_5  and  C_6 
REMARK    2  A    between atoms: C_6  and  C_7 
REMARK       I    between atoms: C_7  and  N_9 
REMARK    3  A    between atoms: N_9  and  C_10 
REMARK    4  A    between atoms: C_14  and  C_15 
REMARK       I    between atoms: C_15  and  N_17 
ROOT
HETATM    1  C   UNL     1     -39.971 -53.371  14.064  1.00  0.00     0.222 C 
HETATM    2  O   UNL     1     -38.993 -53.961  13.608  1.00  0.00    -0.273 OA
HETATM    3  N   UNL     1     -40.041 -51.992  14.122  1.00  0.00    -0.355 N 
HETATM    4  H   UNL     1     -40.964 -51.567  14.147  1.00  0.00     0.162 HD
ENDROOT
BRANCH   3   5
HETATM    5  C   UNL     1     -38.968 -51.172  13.597  1.00  0.00     0.097 C 
HETATM    6  C   UNL     1     -38.839 -49.812  14.292  1.00  0.00     0.026 C 
HETATM    7  C   UNL     1     -38.216 -48.875  13.255  1.00  0.00     0.003 C 
HETATM    8  C   UNL     1     -37.993 -49.716  11.998  1.00  0.00     0.016 C 
HETATM    9  C   UNL     1     -39.032 -50.837  12.099  1.00  0.00     0.100 C 
BRANCH   9  10
HETATM   10  C   UNL     1     -40.392 -50.361  11.608  1.00  0.00     0.221 C 
HETATM   11  O   UNL     1     -41.428 -50.420  12.261  1.00  0.00    -0.273 OA
HETATM   12  N   UNL     1     -40.398 -49.859  10.338  1.00  0.00    -0.370 N 
HETATM   13  H   UNL     1     -39.582 -49.854   9.741  1.00  0.00     0.159 HD
HETATM   14  H   UNL     1     -41.278 -49.541   9.953  1.00  0.00     0.159 HD
ENDBRANCH   9  10
ENDBRANCH   3   5
BRANCH   1  15
HETATM   15  C   UNL     1     -41.186 -54.108  14.624  1.00  0.00     0.142 C 
BRANCH  15  16
HETATM   16  C   UNL     1     -42.497 -53.521  14.158  1.00  0.00    -0.034 A 
HETATM   17  C   UNL     1     -42.956 -53.689  12.850  1.00  0.00     0.011 A 
HETATM   18  C   UNL     1     -44.213 -53.211  12.485  1.00  0.00     0.025 A 
HETATM   19  C   UNL     1     -44.983 -52.553  13.437  1.00  0.00     0.005 A 
HETATM   20  C   UNL     1     -46.396 -52.151  13.136  1.00  0.00     0.068 C 
HETATM   21  N   UNL     1     -44.537 -52.320  14.694  1.00  0.00    -0.369 N 
HETATM   22  C   UNL     1     -43.314 -52.802  15.022  1.00  0.00     0.095 A 
ATOM     23  HN  UNL     1     -45.100 -51.802  15.368  1.00  0.00     0.165 HD
ENDBRANCH  15  16
ENDBRANCH   1  15
TORSDOF 4
ENDMDL
MODEL 5
REMARK VINA RESULT:      -5.9      2.472      6.619
REMARK  4 active torsions:
REMARK  status: ('A' for Active; 'I' for Inactive)
REMARK    1  A    between atoms: C_5  and  C_6 
REMARK    2  A    between atoms: C_6  and  C_7 
REMARK       I    between atoms: C_7  and  N_9 
REMARK    3  A    between atoms: N_9  and  C_10 
REMARK    4  A    between atoms: C_14  and  C_15 
REMARK       I    between atoms: C_15  and  N_17 
ROOT
HETATM    1  C   UNL     1     -42.483 -52.682  12.428  1.00  0.00     0.222 C 
HETATM    2  O   UNL     1     -41.613 -53.446  12.845  1.00  0.00    -0.273 OA
HETATM    3  N   UNL     1     -42.214 -51.370  12.089  1.00  0.00    -0.355 N 
HETATM    4  H   UNL     1     -42.837 -50.916  11.426  1.00  0.00     0.162 HD
ENDROOT
BRANCH   3   5
HETATM    5  C   UNL     1     -40.866 -50.844  12.168  1.00  0.00     0.097 C 
HETATM    6  C   UNL     1     -40.520 -50.252  13.538  1.00  0.00     0.026 C 
HETATM    7  C   UNL     1     -39.445 -49.195  13.272  1.00  0.00     0.003 C 
HETATM    8  C   UNL     1     -39.194 -49.211  11.764  1.00  0.00     0.016 C 
HETATM    9  C   UNL     1     -40.501 -49.740  11.165  1.00  0.00     0.100 C 
BRANCH   9  10
HETATM   10  C   UNL     1     -41.529 -48.626  11.038  1.00  0.00     0.221 C 
HETATM   11  O   UNL     1     -42.663 -48.667  11.505  1.00  0.00    -0.273 OA
HETATM   12  N   UNL     1     -41.108 -47.535  10.332  1.00  0.00    -0.370 N 
HETATM   13  H   UNL     1     -40.208 -47.487   9.873  1.00  0.00     0.159 HD
HETATM   14  H   UNL     1     -41.756 -46.769  10.202  1.00  0.00     0.159 HD
ENDBRANCH   9  10
ENDBRANCH   3   5
BRANCH   1  15
HETATM   15  C   UNL     1     -43.939 -53.111  12.265  1.00  0.00     0.142 C 
BRANCH  15  16
HETATM   16  C   UNL     1     -44.840 -52.559  13.343  1.00  0.00    -0.034 A 
HETATM   17  C   UNL     1     -45.938 -51.749  13.044  1.00  0.00     0.011 A 
HETATM   18  C   UNL     1     -46.798 -51.336  14.060  1.00  0.00     0.025 A 
HETATM   19  C   UNL     1     -46.530 -51.727  15.366  1.00  0.00     0.005 A 
HETATM   20  C   UNL     1     -47.502 -51.432  16.470  1.00  0.00     0.068 C 
HETATM   21  N   UNL     1     -45.439 -52.459  15.694  1.00  0.00    -0.369 N 
HETATM   22  C   UNL     1     -44.625 -52.852  14.685  1.00  0.00     0.095 A 
ATOM     23  HN  UNL     1     -45.237 -52.705  16.663  1.00  0.00     0.165 HD
ENDBRANCH  15  16
ENDBRANCH   1  15
TORSDOF 4
ENDMDL
MODEL 6
REMARK VINA RESULT:      -5.8      2.525      6.815
REMARK  4 active torsions:
REMARK  status: ('A' for Active; 'I' for Inactive)
REMARK    1  A    between atoms: C_5  and  C_6 
REMARK    2  A    between atoms: C_6  and  C_7 
REMARK       I    between atoms: C_7  and  N_9 
REMARK    3  A    between atoms: N_9  and  C_10 
REMARK    4  A    between atoms: C_14  and  C_15 
REMARK       I    between atoms: C_15  and  N_17 
ROOT
HETATM    1  C   UNL     1     -44.174 -54.824  14.350  1.00  0.00     0.222 C 
HETATM    2  O   UNL     1     -43.929 -55.943  14.799  1.00  0.00    -0.273 OA
HETATM    3  N   UNL     1     -43.184 -53.890  14.112  1.00  0.00    -0.355 N 
HETATM    4  H   UNL     1     -43.372 -53.167  13.423  1.00  0.00     0.162 HD
ENDROOT
BRANCH   3   5
HETATM    5  C   UNL     1     -41.789 -54.213  14.341  1.00  0.00     0.097 C 
HETATM    6  C   UNL     1     -41.161 -53.424  15.495  1.00  0.00     0.026 C 
HETATM    7  C   UNL     1     -39.666 -53.342  15.173  1.00  0.00     0.003 C 
HETATM    8  C   UNL     1     -39.471 -54.089  13.854  1.00  0.00     0.016 C 
HETATM    9  C   UNL     1     -40.833 -53.999  13.158  1.00  0.00     0.100 C 
BRANCH   9  10
HETATM   10  C   UNL     1     -40.989 -52.664  12.444  1.00  0.00     0.221 C 
HETATM   11  O   UNL     1     -41.042 -51.575  13.005  1.00  0.00    -0.273 OA
HETATM   12  N   UNL     1     -41.086 -52.750  11.084  1.00  0.00    -0.370 N 
HETATM   13  H   UNL     1     -41.114 -53.630  10.586  1.00  0.00     0.159 HD
HETATM   14  H   UNL     1     -41.206 -51.895  10.557  1.00  0.00     0.159 HD
ENDBRANCH   9  10
ENDBRANCH   3   5
BRANCH   1  15
HETATM   15  C   UNL     1     -45.594 -54.361  14.033  1.00  0.00     0.142 C 
BRANCH  15  16
HETATM   16  C   UNL     1     -46.102 -53.317  14.998  1.00  0.00    -0.034 A 
HETATM   17  C   UNL     1     -46.690 -52.130  14.556  1.00  0.00     0.011 A 
HETATM   18  C   UNL     1     -47.229 -51.233  15.477  1.00  0.00     0.025 A 
HETATM   19  C   UNL     1     -47.151 -51.535  16.831  1.00  0.00     0.005 A 
HETATM   20  C   UNL     1     -47.844 -50.677  17.849  1.00  0.00     0.068 C 
HETATM   21  N   UNL     1     -46.531 -52.647  17.291  1.00  0.00    -0.369 N 
HETATM   22  C   UNL     1     -46.023 -53.503  16.372  1.00  0.00     0.095 A 
ATOM     23  HN  UNL     1     -46.450 -52.834  18.290  1.00  0.00     0.165 HD
ENDBRANCH  15  16
ENDBRANCH   1  15
TORSDOF 4
ENDMDL
MODEL 7
REMARK VINA RESULT:      -5.8      2.803      3.181
REMARK  4 active torsions:
REMARK  status: ('A' for Active; 'I' for Inactive)
REMARK    1  A    between atoms: C_5  and  C_6 
REMARK    2  A    between atoms: C_6  and  C_7 
REMARK       I    between atoms: C_7  and  N_9 
REMARK    3  A    between atoms: N_9  and  C_10 
REMARK    4  A    between atoms: C_14  and  C_15 
REMARK       I    between atoms: C_15  and  N_17 
ROOT
HETATM    1  C   UNL     1     -42.616 -50.067  13.394  1.00  0.00     0.222 C 
HETATM    2  O   UNL     1     -42.759 -49.160  14.212  1.00  0.00    -0.273 OA
HETATM    3  N   UNL     1     -43.492 -51.133  13.311  1.00  0.00    -0.355 N 
HETATM    4  H   UNL     1     -43.552 -51.627  12.425  1.00  0.00     0.162 HD
ENDROOT
BRANCH   3   5
HETATM    5  C   UNL     1     -44.659 -51.203  14.168  1.00  0.00     0.097 C 
HETATM    6  C   UNL     1     -44.628 -52.378  15.150  1.00  0.00     0.026 C 
HETATM    7  C   UNL     1     -46.093 -52.712  15.442  1.00  0.00     0.003 C 
HETATM    8  C   UNL     1     -46.928 -51.719  14.633  1.00  0.00     0.016 C 
HETATM    9  C   UNL     1     -46.019 -51.321  13.464  1.00  0.00     0.100 C 
BRANCH   9  10
HETATM   10  C   UNL     1     -46.077 -52.360  12.355  1.00  0.00     0.221 C 
HETATM   11  O   UNL     1     -45.340 -53.337  12.276  1.00  0.00    -0.273 OA
HETATM   12  N   UNL     1     -47.026 -52.126  11.400  1.00  0.00    -0.370 N 
HETATM   13  H   UNL     1     -47.608 -51.300  11.389  1.00  0.00     0.159 HD
HETATM   14  H   UNL     1     -47.100 -52.777  10.629  1.00  0.00     0.159 HD
ENDBRANCH   9  10
ENDBRANCH   3   5
BRANCH   1  15
HETATM   15  C   UNL     1     -41.450 -50.106  12.410  1.00  0.00     0.142 C 
BRANCH  15  16
HETATM   16  C   UNL     1     -41.043 -48.736  11.924  1.00  0.00    -0.034 A 
HETATM   17  C   UNL     1     -40.111 -47.957  12.612  1.00  0.00     0.011 A 
HETATM   18  C   UNL     1     -39.694 -46.737  12.082  1.00  0.00     0.025 A 
HETATM   19  C   UNL     1     -40.235 -46.310  10.876  1.00  0.00     0.005 A 
HETATM   20  C   UNL     1     -39.712 -45.080  10.194  1.00  0.00     0.068 C 
HETATM   21  N   UNL     1     -41.186 -47.015  10.218  1.00  0.00    -0.369 N 
HETATM   22  C   UNL     1     -41.567 -48.199  10.754  1.00  0.00     0.095 A 
ATOM     23  HN  UNL     1     -41.599 -46.668   9.353  1.00  0.00     0.165 HD
ENDBRANCH  15  16
ENDBRANCH   1  15
TORSDOF 4
ENDMDL
MODEL 8
REMARK VINA RESULT:      -5.7      2.488      3.568
REMARK  4 active torsions:
REMARK  status: ('A' for Active; 'I' for Inactive)
REMARK    1  A    between atoms: C_5  and  C_6 
REMARK    2  A    between atoms: C_6  and  C_7 
REMARK       I    between atoms: C_7  and  N_9 
REMARK    3  A    between atoms: N_9  and  C_10 
REMARK    4  A    between atoms: C_14  and  C_15 
REMARK       I    between atoms: C_15  and  N_17 
ROOT
HETATM    1  C   UNL     1     -42.343 -52.767  14.215  1.00  0.00     0.222 C 
HETATM    2  O   UNL     1     -42.062 -51.623  14.568  1.00  0.00    -0.273 OA
HETATM    3  N   UNL     1     -43.622 -53.281  14.324  1.00  0.00    -0.355 N 
HETATM    4  H   UNL     1     -43.878 -54.044  13.704  1.00  0.00     0.162 HD
ENDROOT
BRANCH   3   5
HETATM    5  C   UNL     1     -44.710 -52.463  14.822  1.00  0.00     0.097 C 
HETATM    6  C   UNL     1     -45.777 -53.260  15.580  1.00  0.00     0.026 C 
HETATM    7  C   UNL     1     -47.076 -52.466  15.420  1.00  0.00     0.003 C 
HETATM    8  C   UNL     1     -46.725 -51.233  14.587  1.00  0.00     0.016 C 
HETATM    9  C   UNL     1     -45.496 -51.658  13.776  1.00  0.00     0.100 C 
BRANCH   9  10
HETATM   10  C   UNL     1     -45.908 -52.446  12.541  1.00  0.00     0.221 C 
HETATM   11  O   UNL     1     -45.525 -53.581  12.278  1.00  0.00    -0.273 OA
HETATM   12  N   UNL     1     -46.752 -51.784  11.695  1.00  0.00    -0.370 N 
HETATM   13  H   UNL     1     -47.039 -50.824  11.838  1.00  0.00     0.159 HD
HETATM   14  H   UNL     1     -47.048 -52.253  10.849  1.00  0.00     0.159 HD
ENDBRANCH   9  10
ENDBRANCH   3   5
BRANCH   1  15
HETATM   15  C   UNL     1     -41.303 -53.727  13.644  1.00  0.00     0.142 C 
BRANCH  15  16
HETATM   16  C   UNL     1     -40.485 -54.412  14.712  1.00  0.00    -0.034 A 
HETATM   17  C   UNL     1     -41.059 -54.873  15.899  1.00  0.00     0.011 A 
HETATM   18  C   UNL     1     -40.288 -55.581  16.819  1.00  0.00     0.025 A 
HETATM   19  C   UNL     1     -38.944 -55.799  16.540  1.00  0.00     0.005 A 
HETATM   20  C   UNL     1     -38.111 -56.679  17.425  1.00  0.00     0.068 C 
HETATM   21  N   UNL     1     -38.346 -55.310  15.428  1.00  0.00    -0.369 N 
HETATM   22  C   UNL     1     -39.122 -54.632  14.549  1.00  0.00     0.095 A 
ATOM     23  HN  UNL     1     -37.350 -55.448  15.258  1.00  0.00     0.165 HD
ENDBRANCH  15  16
ENDBRANCH   1  15
TORSDOF 4
ENDMDL
MODEL 9
REMARK VINA RESULT:      -5.5      2.144      2.592
REMARK  4 active torsions:
REMARK  status: ('A' for Active; 'I' for Inactive)
REMARK    1  A    between atoms: C_5  and  C_6 
REMARK    2  A    between atoms: C_6  and  C_7 
REMARK       I    between atoms: C_7  and  N_9 
REMARK    3  A    between atoms: N_9  and  C_10 
REMARK    4  A    between atoms: C_14  and  C_15 
REMARK       I    between atoms: C_15  and  N_17 
ROOT
HETATM    1  C   UNL     1     -41.645 -52.536  12.967  1.00  0.00     0.222 C 
HETATM    2  O   UNL     1     -41.718 -52.320  11.758  1.00  0.00    -0.273 OA
HETATM    3  N   UNL     1     -42.733 -52.402  13.809  1.00  0.00    -0.355 N 
HETATM    4  H   UNL     1     -42.726 -52.928  14.678  1.00  0.00     0.162 HD
ENDROOT
BRANCH   3   5
HETATM    5  C   UNL     1     -44.036 -52.040  13.285  1.00  0.00     0.097 C 
HETATM    6  C   UNL     1     -44.872 -51.197  14.253  1.00  0.00     0.026 C 
HETATM    7  C   UNL     1     -46.333 -51.488  13.898  1.00  0.00     0.003 C 
HETATM    8  C   UNL     1     -46.301 -52.479  12.734  1.00  0.00     0.016 C 
HETATM    9  C   UNL     1     -44.959 -53.202  12.884  1.00  0.00     0.100 C 
BRANCH   9  10
HETATM   10  C   UNL     1     -45.058 -54.322  13.909  1.00  0.00     0.221 C 
HETATM   11  O   UNL     1     -44.130 -54.710  14.610  1.00  0.00    -0.273 OA
HETATM   12  N   UNL     1     -46.289 -54.909  13.998  1.00  0.00    -0.370 N 
HETATM   13  H   UNL     1     -47.062 -54.667  13.393  1.00  0.00     0.159 HD
HETATM   14  H   UNL     1     -46.410 -55.671  14.652  1.00  0.00     0.159 HD
ENDBRANCH   9  10
ENDBRANCH   3   5
BRANCH   1  15
HETATM   15  C   UNL     1     -40.344 -52.953  13.648  1.00  0.00     0.142 C 
BRANCH  15  16
HETATM   16  C   UNL     1     -39.429 -51.787  13.934  1.00  0.00    -0.034 A 
HETATM   17  C   UNL     1     -38.682 -51.173  12.926  1.00  0.00     0.011 A 
HETATM   18  C   UNL     1     -37.919 -50.042  13.213  1.00  0.00     0.025 A 
HETATM   19  C   UNL     1     -37.903 -49.556  14.515  1.00  0.00     0.005 A 
HETATM   20  C   UNL     1     -37.220 -48.262  14.842  1.00  0.00     0.068 C 
HETATM   21  N   UNL     1     -38.567 -50.168  15.524  1.00  0.00    -0.369 N 
HETATM   22  C   UNL     1     -39.305 -51.261  15.214  1.00  0.00     0.095 A 
ATOM     23  HN  UNL     1     -38.514 -49.820  16.481  1.00  0.00     0.165 HD
ENDBRANCH  15  16
ENDBRANCH   1  15
TORSDOF 4
ENDMDL
