MODEL 1
REMARK VINA RESULT:      -5.8      0.000      0.000
REMARK  4 active torsions:
REMARK  status: ('A' for Active; 'I' for Inactive)
REMARK    1  A    between atoms: C_7  and  C_8 
REMARK    2  A    between atoms: C_8  and  C_9 
REMARK    3  A    between atoms: C_9  and  N_10 
REMARK       I    between atoms: N_10  and  C_11 
REMARK       I    between atoms: C_11  and  N_13 
REMARK    4  A    between atoms: N_13  and  C_14 
ROOT
HETATM    1  N   UNL     1     -43.106 -48.497  11.355  1.00  0.00    -0.343 N 
HETATM    2  C   UNL     1     -43.247 -49.082  12.584  1.00  0.00     0.316 C 
HETATM    3  O   UNL     1     -43.043 -48.495  13.639  1.00  0.00    -0.247 OA
HETATM    4  N   UNL     1     -43.638 -50.397  12.496  1.00  0.00    -0.339 N 
HETATM    5  H   UNL     1     -42.953 -49.091  10.555  1.00  0.00     0.164 HD
HETATM    6  H   UNL     1     -44.124 -50.647  11.646  1.00  0.00     0.164 HD
ENDROOT
BRANCH   1   7
HETATM    7  C   UNL     1     -42.689 -47.105  11.240  1.00  0.00     0.132 C 
BRANCH   7   8
HETATM    8  C   UNL     1     -43.144 -46.427   9.942  1.00  0.00     0.096 C 
BRANCH   8   9
HETATM    9  C   UNL     1     -44.386 -47.053   9.388  1.00  0.00     0.084 A 
HETATM   10  N   UNL     1     -44.437 -47.824   8.249  1.00  0.00    -0.350 N 
HETATM   11  C   UNL     1     -43.332 -48.193   7.397  1.00  0.00     0.156 C 
HETATM   12  C   UNL     1     -45.742 -48.177   8.040  1.00  0.00     0.108 A 
HETATM   13  C   UNL     1     -46.441 -47.595   9.069  1.00  0.00     0.106 A 
HETATM   14  N   UNL     1     -45.595 -46.910   9.898  1.00  0.00    -0.354 N 
ATOM     15  HN  UNL     1     -45.848 -46.394  10.741  1.00  0.00     0.166 HD
ENDBRANCH   8   9
ENDBRANCH   7   8
ENDBRANCH   1   7
BRANCH   4  16
HETATM   16  C   UNL     1     -43.971 -51.139  13.709  1.00  0.00     0.086 C 
HETATM   17  C   UNL     1     -43.255 -52.494  13.760  1.00  0.00     0.025 C 
HETATM   18  C   UNL     1     -43.894 -53.559  12.871  1.00  0.00     0.002 C 
HETATM   19  C   UNL     1     -45.390 -53.688  13.129  1.00  0.00     0.000 C 
HETATM   20  C   UNL     1     -46.097 -52.347  12.967  1.00  0.00     0.002 C 
HETATM   21  C   UNL     1     -45.490 -51.286  13.883  1.00  0.00     0.025 C 
ENDBRANCH   4  16
TORSDOF 4
ENDMDL
MODEL 2
REMARK VINA RESULT:      -5.6      1.965      2.938
REMARK  4 active torsions:
REMARK  status: ('A' for Active; 'I' for Inactive)
REMARK    1  A    between atoms: C_7  and  C_8 
REMARK    2  A    between atoms: C_8  and  C_9 
REMARK    3  A    between atoms: C_9  and  N_10 
REMARK       I    between atoms: N_10  and  C_11 
REMARK       I    between atoms: C_11  and  N_13 
REMARK    4  A    between atoms: N_13  and  C_14 
ROOT
HETATM    1  N   UNL     1     -41.950 -50.750  11.796  1.00  0.00    -0.343 N 
HETATM    2  C   UNL     1     -42.231 -51.165  13.069  1.00  0.00     0.316 C 
HETATM    3  O   UNL     1     -41.427 -51.109  13.991  1.00  0.00    -0.247 OA
HETATM    4  N   UNL     1     -43.512 -51.650  13.191  1.00  0.00    -0.339 N 
HETATM    5  H   UNL     1     -42.499 -51.123  11.036  1.00  0.00     0.164 HD
HETATM    6  H   UNL     1     -44.170 -51.307  12.505  1.00  0.00     0.164 HD
ENDROOT
BRANCH   1   7
HETATM    7  C   UNL     1     -40.637 -50.210  11.464  1.00  0.00     0.132 C 
BRANCH   7   8
HETATM    8  C   UNL     1     -40.591 -48.679  11.409  1.00  0.00     0.096 C 
BRANCH   8   9
HETATM    9  C   UNL     1     -41.771 -48.109  10.683  1.00  0.00     0.084 A 
HETATM   10  N   UNL     1     -42.810 -47.432  11.280  1.00  0.00    -0.350 N 
HETATM   11  C   UNL     1     -42.955 -47.122  12.682  1.00  0.00     0.156 C 
HETATM   12  C   UNL     1     -43.714 -47.109  10.305  1.00  0.00     0.108 A 
HETATM   13  C   UNL     1     -43.186 -47.613   9.143  1.00  0.00     0.106 A 
HETATM   14  N   UNL     1     -41.984 -48.222   9.385  1.00  0.00    -0.354 N 
ATOM     15  HN  UNL     1     -41.377 -48.672   8.700  1.00  0.00     0.166 HD
ENDBRANCH   8   9
ENDBRANCH   7   8
ENDBRANCH   1   7
BRANCH   4  16
HETATM   16  C   UNL     1     -44.031 -52.008  14.507  1.00  0.00     0.086 C 
HETATM   17  C   UNL     1     -44.405 -53.494  14.585  1.00  0.00     0.025 C 
HETATM   18  C   UNL     1     -45.735 -53.827  13.913  1.00  0.00     0.002 C 
HETATM   19  C   UNL     1     -46.860 -52.924  14.403  1.00  0.00     0.000 C 
HETATM   20  C   UNL     1     -46.508 -51.452  14.217  1.00  0.00     0.002 C 
HETATM   21  C   UNL     1     -45.199 -51.100  14.921  1.00  0.00     0.025 C 
ENDBRANCH   4  16
TORSDOF 4
ENDMDL
MODEL 3
REMARK VINA RESULT:      -5.6      3.324      4.166
REMARK  4 active torsions:
REMARK  status: ('A' for Active; 'I' for Inactive)
REMARK    1  A    between atoms: C_7  and  C_8 
REMARK    2  A    between atoms: C_8  and  C_9 
REMARK    3  A    between atoms: C_9  and  N_10 
REMARK       I    between atoms: N_10  and  C_11 
REMARK       I    between atoms: C_11  and  N_13 
REMARK    4  A    between atoms: N_13  and  C_14 
ROOT
HETATM    1  N   UNL     1     -41.564 -50.071  11.717  1.00  0.00    -0.343 N 
HETATM    2  C   UNL     1     -42.044 -51.237  12.247  1.00  0.00     0.316 C 
HETATM    3  O   UNL     1     -41.352 -52.230  12.433  1.00  0.00    -0.247 OA
HETATM    4  N   UNL     1     -43.385 -51.166  12.542  1.00  0.00    -0.339 N 
HETATM    5  H   UNL     1     -42.217 -49.436  11.283  1.00  0.00     0.164 HD
HETATM    6  H   UNL     1     -43.743 -50.234  12.703  1.00  0.00     0.164 HD
ENDROOT
BRANCH   1   7
HETATM    7  C   UNL     1     -40.164 -49.951  11.331  1.00  0.00     0.132 C 
BRANCH   7   8
HETATM    8  C   UNL     1     -39.454 -48.736  11.939  1.00  0.00     0.096 C 
BRANCH   8   9
HETATM    9  C   UNL     1     -40.201 -47.464  11.682  1.00  0.00     0.084 A 
HETATM   10  N   UNL     1     -40.883 -46.746  12.638  1.00  0.00    -0.350 N 
HETATM   11  C   UNL     1     -40.992 -47.052  14.044  1.00  0.00     0.156 C 
HETATM   12  C   UNL     1     -41.471 -45.677  12.018  1.00  0.00     0.108 A 
HETATM   13  C   UNL     1     -41.124 -45.794  10.695  1.00  0.00     0.106 A 
HETATM   14  N   UNL     1     -40.336 -46.894  10.499  1.00  0.00    -0.354 N 
ATOM     15  HN  UNL     1     -39.933 -47.210   9.616  1.00  0.00     0.166 HD
ENDBRANCH   8   9
ENDBRANCH   7   8
ENDBRANCH   1   7
BRANCH   4  16
HETATM   16  C   UNL     1     -44.034 -52.270  13.243  1.00  0.00     0.086 C 
HETATM   17  C   UNL     1     -45.367 -52.652  12.587  1.00  0.00     0.025 C 
HETATM   18  C   UNL     1     -46.511 -51.697  12.924  1.00  0.00     0.002 C 
HETATM   19  C   UNL     1     -46.649 -51.485  14.426  1.00  0.00     0.000 C 
HETATM   20  C   UNL     1     -45.338 -51.003  15.038  1.00  0.00     0.002 C 
HETATM   21  C   UNL     1     -44.196 -51.973  14.741  1.00  0.00     0.025 C 
ENDBRANCH   4  16
TORSDOF 4
ENDMDL
MODEL 4
REMARK VINA RESULT:      -5.2      5.405      6.775
REMARK  4 active torsions:
REMARK  status: ('A' for Active; 'I' for Inactive)
REMARK    1  A    between atoms: C_7  and  C_8 
REMARK    2  A    between atoms: C_8  and  C_9 
REMARK    3  A    between atoms: C_9  and  N_10 
REMARK       I    between atoms: N_10  and  C_11 
REMARK       I    between atoms: C_11  and  N_13 
REMARK    4  A    between atoms: N_13  and  C_14 
ROOT
HETATM    1  N   UNL     1     -41.894 -53.836  15.371  1.00  0.00    -0.343 N 
HETATM    2  C   UNL     1     -43.153 -54.351  15.228  1.00  0.00     0.316 C 
HETATM    3  O   UNL     1     -43.393 -55.551  15.201  1.00  0.00    -0.247 OA
HETATM    4  N   UNL     1     -44.111 -53.370  15.117  1.00  0.00    -0.339 N 
HETATM    5  H   UNL     1     -41.720 -52.895  15.051  1.00  0.00     0.164 HD
HETATM    6  H   UNL     1     -43.862 -52.477  15.520  1.00  0.00     0.164 HD
ENDROOT
BRANCH   1   7
HETATM    7  C   UNL     1     -40.740 -54.719  15.495  1.00  0.00     0.132 C 
BRANCH   7   8
HETATM    8  C   UNL     1     -39.758 -54.625  14.322  1.00  0.00     0.096 C 
BRANCH   8   9
HETATM    9  C   UNL     1     -40.138 -53.545  13.357  1.00  0.00     0.084 A 
HETATM   10  N   UNL     1     -39.774 -52.222  13.474  1.00  0.00    -0.350 N 
HETATM   11  C   UNL     1     -38.956 -51.632  14.506  1.00  0.00     0.156 C 
HETATM   12  C   UNL     1     -40.345 -51.537  12.436  1.00  0.00     0.108 A 
HETATM   13  C   UNL     1     -41.045 -52.480  11.725  1.00  0.00     0.106 A 
HETATM   14  N   UNL     1     -40.907 -53.715  12.297  1.00  0.00    -0.354 N 
ATOM     15  HN  UNL     1     -41.314 -54.591  11.970  1.00  0.00     0.166 HD
ENDBRANCH   8   9
ENDBRANCH   7   8
ENDBRANCH   1   7
BRANCH   4  16
HETATM   16  C   UNL     1     -45.524 -53.734  15.098  1.00  0.00     0.086 C 
HETATM   17  C   UNL     1     -46.304 -52.923  14.055  1.00  0.00     0.025 C 
HETATM   18  C   UNL     1     -46.624 -51.498  14.501  1.00  0.00     0.002 C 
HETATM   19  C   UNL     1     -47.292 -51.469  15.870  1.00  0.00     0.000 C 
HETATM   20  C   UNL     1     -46.445 -52.190  16.913  1.00  0.00     0.002 C 
HETATM   21  C   UNL     1     -46.155 -53.630  16.495  1.00  0.00     0.025 C 
ENDBRANCH   4  16
TORSDOF 4
ENDMDL
MODEL 5
REMARK VINA RESULT:      -5.2      3.307      4.621
REMARK  4 active torsions:
REMARK  status: ('A' for Active; 'I' for Inactive)
REMARK    1  A    between atoms: C_7  and  C_8 
REMARK    2  A    between atoms: C_8  and  C_9 
REMARK    3  A    between atoms: C_9  and  N_10 
REMARK       I    between atoms: N_10  and  C_11 
REMARK       I    between atoms: C_11  and  N_13 
REMARK    4  A    between atoms: N_13  and  C_14 
ROOT
HETATM    1  N   UNL     1     -40.477 -51.072  13.410  1.00  0.00    -0.343 N 
HETATM    2  C   UNL     1     -40.857 -52.349  13.100  1.00  0.00     0.316 C 
HETATM    3  O   UNL     1     -40.092 -53.192  12.651  1.00  0.00    -0.247 OA
HETATM    4  N   UNL     1     -42.192 -52.572  13.347  1.00  0.00    -0.339 N 
HETATM    5  H   UNL     1     -41.185 -50.354  13.444  1.00  0.00     0.164 HD
HETATM    6  H   UNL     1     -42.610 -51.966  14.038  1.00  0.00     0.164 HD
ENDROOT
BRANCH   1   7
HETATM    7  C   UNL     1     -39.100 -50.639  13.210  1.00  0.00     0.132 C 
BRANCH   7   8
HETATM    8  C   UNL     1     -38.842 -50.003  11.839  1.00  0.00     0.096 C 
BRANCH   8   9
HETATM    9  C   UNL     1     -39.950 -49.082  11.432  1.00  0.00     0.084 A 
HETATM   10  N   UNL     1     -40.189 -47.845  11.987  1.00  0.00    -0.350 N 
HETATM   11  C   UNL     1     -39.428 -47.196  13.027  1.00  0.00     0.156 C 
HETATM   12  C   UNL     1     -41.307 -47.327  11.391  1.00  0.00     0.108 A 
HETATM   13  C   UNL     1     -41.710 -48.283  10.491  1.00  0.00     0.106 A 
HETATM   14  N   UNL     1     -40.864 -49.357  10.519  1.00  0.00    -0.354 N 
ATOM     15  HN  UNL     1     -40.926 -50.201   9.949  1.00  0.00     0.166 HD
ENDBRANCH   8   9
ENDBRANCH   7   8
ENDBRANCH   1   7
BRANCH   4  16
HETATM   16  C   UNL     1     -42.741 -53.918  13.206  1.00  0.00     0.086 C 
HETATM   17  C   UNL     1     -44.130 -53.898  12.555  1.00  0.00     0.025 C 
HETATM   18  C   UNL     1     -45.248 -53.485  13.510  1.00  0.00     0.002 C 
HETATM   19  C   UNL     1     -45.226 -54.303  14.795  1.00  0.00     0.000 C 
HETATM   20  C   UNL     1     -43.866 -54.221  15.479  1.00  0.00     0.002 C 
HETATM   21  C   UNL     1     -42.745 -54.671  14.544  1.00  0.00     0.025 C 
ENDBRANCH   4  16
TORSDOF 4
ENDMDL
MODEL 6
REMARK VINA RESULT:      -5.1      3.353      4.704
REMARK  4 active torsions:
REMARK  status: ('A' for Active; 'I' for Inactive)
REMARK    1  A    between atoms: C_7  and  C_8 
REMARK    2  A    between atoms: C_8  and  C_9 
REMARK    3  A    between atoms: C_9  and  N_10 
REMARK       I    between atoms: N_10  and  C_11 
REMARK       I    between atoms: C_11  and  N_13 
REMARK    4  A    between atoms: N_13  and  C_14 
ROOT
HETATM    1  N   UNL     1     -41.334 -50.845  12.231  1.00  0.00    -0.343 N 
HETATM    2  C   UNL     1     -42.046 -51.912  12.708  1.00  0.00     0.316 C 
HETATM    3  O   UNL     1     -41.527 -52.941  13.120  1.00  0.00    -0.247 OA
HETATM    4  N   UNL     1     -43.403 -51.695  12.667  1.00  0.00    -0.339 N 
HETATM    5  H   UNL     1     -41.795 -50.197  11.611  1.00  0.00     0.164 HD
HETATM    6  H   UNL     1     -43.686 -50.725  12.674  1.00  0.00     0.164 HD
ENDROOT
BRANCH   1   7
HETATM    7  C   UNL     1     -39.877 -50.887  12.185  1.00  0.00     0.132 C 
BRANCH   7   8
HETATM    8  C   UNL     1     -39.245 -49.688  11.468  1.00  0.00     0.096 C 
BRANCH   8   9
HETATM    9  C   UNL     1     -39.475 -48.407  12.208  1.00  0.00     0.084 A 
HETATM   10  N   UNL     1     -40.396 -47.447  11.853  1.00  0.00    -0.350 N 
HETATM   11  C   UNL     1     -41.315 -47.492  10.741  1.00  0.00     0.156 C 
HETATM   12  C   UNL     1     -40.282 -46.410  12.737  1.00  0.00     0.108 A 
HETATM   13  C   UNL     1     -39.281 -46.781  13.600  1.00  0.00     0.106 A 
HETATM   14  N   UNL     1     -38.795 -48.017  13.271  1.00  0.00    -0.354 N 
ATOM     15  HN  UNL     1     -38.056 -48.532  13.750  1.00  0.00     0.166 HD
ENDBRANCH   8   9
ENDBRANCH   7   8
ENDBRANCH   1   7
BRANCH   4  16
HETATM   16  C   UNL     1     -44.313 -52.669  13.264  1.00  0.00     0.086 C 
HETATM   17  C   UNL     1     -45.643 -52.743  12.504  1.00  0.00     0.025 C 
HETATM   18  C   UNL     1     -46.592 -51.587  12.817  1.00  0.00     0.002 C 
HETATM   19  C   UNL     1     -46.795 -51.411  14.316  1.00  0.00     0.000 C 
HETATM   20  C   UNL     1     -45.462 -51.233  15.037  1.00  0.00     0.002 C 
HETATM   21  C   UNL     1     -44.521 -52.404  14.763  1.00  0.00     0.025 C 
ENDBRANCH   4  16
TORSDOF 4
ENDMDL
MODEL 7
REMARK VINA RESULT:      -5.1      4.302      5.627
REMARK  4 active torsions:
REMARK  status: ('A' for Active; 'I' for Inactive)
REMARK    1  A    between atoms: C_7  and  C_8 
REMARK    2  A    between atoms: C_8  and  C_9 
REMARK    3  A    between atoms: C_9  and  N_10 
REMARK       I    between atoms: N_10  and  C_11 
REMARK       I    between atoms: C_11  and  N_13 
REMARK    4  A    between atoms: N_13  and  C_14 
ROOT
HETATM    1  N   UNL     1     -41.251 -52.972  14.311  1.00  0.00    -0.343 N 
HETATM    2  C   UNL     1     -42.294 -52.831  13.437  1.00  0.00     0.316 C 
HETATM    3  O   UNL     1     -42.165 -52.861  12.220  1.00  0.00    -0.247 OA
HETATM    4  N   UNL     1     -43.496 -52.652  14.080  1.00  0.00    -0.339 N 
HETATM    5  H   UNL     1     -41.355 -52.608  15.246  1.00  0.00     0.164 HD
HETATM    6  H   UNL     1     -43.539 -53.013  15.023  1.00  0.00     0.164 HD
ENDROOT
BRANCH   1   7
HETATM    7  C   UNL     1     -39.892 -53.164  13.820  1.00  0.00     0.132 C 
BRANCH   7   8
HETATM    8  C   UNL     1     -38.998 -51.928  13.968  1.00  0.00     0.096 C 
BRANCH   8   9
HETATM    9  C   UNL     1     -39.387 -50.838  13.018  1.00  0.00     0.084 A 
HETATM   10  N   UNL     1     -39.516 -49.510  13.354  1.00  0.00    -0.350 N 
HETATM   11  C   UNL     1     -39.286 -48.913  14.648  1.00  0.00     0.156 C 
HETATM   12  C   UNL     1     -39.927 -48.833  12.238  1.00  0.00     0.108 A 
HETATM   13  C   UNL     1     -40.037 -49.788  11.259  1.00  0.00     0.106 A 
HETATM   14  N   UNL     1     -39.696 -51.020  11.747  1.00  0.00    -0.354 N 
ATOM     15  HN  UNL     1     -39.683 -51.901  11.232  1.00  0.00     0.166 HD
ENDBRANCH   8   9
ENDBRANCH   7   8
ENDBRANCH   1   7
BRANCH   4  16
HETATM   16  C   UNL     1     -44.736 -52.624  13.310  1.00  0.00     0.086 C 
HETATM   17  C   UNL     1     -45.543 -51.347  13.580  1.00  0.00     0.025 C 
HETATM   18  C   UNL     1     -46.305 -51.373  14.903  1.00  0.00     0.002 C 
HETATM   19  C   UNL     1     -47.153 -52.630  15.044  1.00  0.00     0.000 C 
HETATM   20  C   UNL     1     -46.308 -53.888  14.877  1.00  0.00     0.002 C 
HETATM   21  C   UNL     1     -45.573 -53.891  13.538  1.00  0.00     0.025 C 
ENDBRANCH   4  16
TORSDOF 4
ENDMDL
MODEL 8
REMARK VINA RESULT:      -5.0      4.357      6.856
REMARK  4 active torsions:
REMARK  status: ('A' for Active; 'I' for Inactive)
REMARK    1  A    between atoms: C_7  and  C_8 
REMARK    2  A    between atoms: C_8  and  C_9 
REMARK    3  A    between atoms: C_9  and  N_10 
REMARK       I    between atoms: N_10  and  C_11 
REMARK       I    between atoms: C_11  and  N_13 
REMARK    4  A    between atoms: N_13  and  C_14 
ROOT
HETATM    1  N   UNL     1     -41.941 -52.608  13.552  1.00  0.00    -0.343 N 
HETATM    2  C   UNL     1     -40.832 -52.315  12.806  1.00  0.00     0.316 C 
HETATM    3  O   UNL     1     -40.407 -53.038  11.915  1.00  0.00    -0.247 OA
HETATM    4  N   UNL     1     -40.255 -51.122  13.173  1.00  0.00    -0.339 N 
HETATM    5  H   UNL     1     -42.039 -52.176  14.458  1.00  0.00     0.164 HD
HETATM    6  H   UNL     1     -40.874 -50.464  13.625  1.00  0.00     0.164 HD
ENDROOT
BRANCH   1   7
HETATM    7  C   UNL     1     -42.689 -53.838  13.318  1.00  0.00     0.132 C 
BRANCH   7   8
HETATM    8  C   UNL     1     -43.885 -53.666  12.374  1.00  0.00     0.096 C 
BRANCH   8   9
HETATM    9  C   UNL     1     -45.020 -52.947  13.034  1.00  0.00     0.084 A 
HETATM   10  N   UNL     1     -45.949 -53.535  13.863  1.00  0.00    -0.350 N 
HETATM   11  C   UNL     1     -46.000 -54.918  14.270  1.00  0.00     0.156 C 
HETATM   12  C   UNL     1     -46.850 -52.573  14.232  1.00  0.00     0.108 A 
HETATM   13  C   UNL     1     -46.432 -51.428  13.601  1.00  0.00     0.106 A 
HETATM   14  N   UNL     1     -45.299 -51.666  12.871  1.00  0.00    -0.354 N 
ATOM     15  HN  UNL     1     -44.777 -50.991  12.313  1.00  0.00     0.166 HD
ENDBRANCH   8   9
ENDBRANCH   7   8
ENDBRANCH   1   7
BRANCH   4  16
HETATM   16  C   UNL     1     -39.145 -50.582  12.394  1.00  0.00     0.086 C 
HETATM   17  C   UNL     1     -37.793 -50.864  13.061  1.00  0.00     0.025 C 
HETATM   18  C   UNL     1     -37.486 -49.938  14.237  1.00  0.00     0.002 C 
HETATM   19  C   UNL     1     -37.647 -48.471  13.859  1.00  0.00     0.000 C 
HETATM   20  C   UNL     1     -39.037 -48.195  13.296  1.00  0.00     0.002 C 
HETATM   21  C   UNL     1     -39.337 -49.088  12.094  1.00  0.00     0.025 C 
ENDBRANCH   4  16
TORSDOF 4
ENDMDL
MODEL 9
REMARK VINA RESULT:      -5.0      2.153      3.201
REMARK  4 active torsions:
REMARK  status: ('A' for Active; 'I' for Inactive)
REMARK    1  A    between atoms: C_7  and  C_8 
REMARK    2  A    between atoms: C_8  and  C_9 
REMARK    3  A    between atoms: C_9  and  N_10 
REMARK       I    between atoms: N_10  and  C_11 
REMARK       I    between atoms: C_11  and  N_13 
REMARK    4  A    between atoms: N_13  and  C_14 
ROOT
HETATM    1  N   UNL     1     -42.311 -49.736  13.319  1.00  0.00    -0.343 N 
HETATM    2  C   UNL     1     -42.165 -50.932  12.672  1.00  0.00     0.316 C 
HETATM    3  O   UNL     1     -41.437 -51.089  11.700  1.00  0.00    -0.247 OA
HETATM    4  N   UNL     1     -42.928 -51.928  13.233  1.00  0.00    -0.339 N 
HETATM    5  H   UNL     1     -43.145 -49.584  13.866  1.00  0.00     0.164 HD
HETATM    6  H   UNL     1     -43.171 -51.790  14.204  1.00  0.00     0.164 HD
ENDROOT
BRANCH   1   7
HETATM    7  C   UNL     1     -41.589 -48.553  12.867  1.00  0.00     0.132 C 
BRANCH   7   8
HETATM    8  C   UNL     1     -42.492 -47.351  12.567  1.00  0.00     0.096 C 
BRANCH   8   9
HETATM    9  C   UNL     1     -42.756 -47.200  11.101  1.00  0.00     0.084 A 
HETATM   10  N   UNL     1     -42.751 -46.004  10.420  1.00  0.00    -0.350 N 
HETATM   11  C   UNL     1     -42.473 -44.696  10.961  1.00  0.00     0.156 C 
HETATM   12  C   UNL     1     -43.078 -46.263   9.117  1.00  0.00     0.108 A 
HETATM   13  C   UNL     1     -43.277 -47.620   9.059  1.00  0.00     0.106 A 
HETATM   14  N   UNL     1     -43.070 -48.190  10.285  1.00  0.00    -0.354 N 
ATOM     15  HN  UNL     1     -43.144 -49.180  10.521  1.00  0.00     0.166 HD
ENDBRANCH   8   9
ENDBRANCH   7   8
ENDBRANCH   1   7
BRANCH   4  16
HETATM   16  C   UNL     1     -42.792 -53.302  12.759  1.00  0.00     0.086 C 
HETATM   17  C   UNL     1     -44.123 -54.061  12.829  1.00  0.00     0.025 C 
HETATM   18  C   UNL     1     -44.489 -54.528  14.236  1.00  0.00     0.002 C 
HETATM   19  C   UNL     1     -43.351 -55.301  14.890  1.00  0.00     0.000 C 
HETATM   20  C   UNL     1     -42.064 -54.484  14.904  1.00  0.00     0.002 C 
HETATM   21  C   UNL     1     -41.668 -54.047  13.495  1.00  0.00     0.025 C 
ENDBRANCH   4  16
TORSDOF 4
ENDMDL
