MODEL 1
REMARK VINA RESULT:      -5.3      0.000      0.000
REMARK  2 active torsions:
REMARK  status: ('A' for Active; 'I' for Inactive)
REMARK    1  A    between atoms: C_7  and  N_8 
REMARK       I    between atoms: N_8  and  C_9 
REMARK    2  A    between atoms: C_9  and  C_11 
ROOT
HETATM    1 CL   UNL     1     -39.537 -52.863  13.949  1.00  0.00    -0.081 Cl
HETATM    2  C   UNL     1     -39.260 -51.479  12.959  1.00  0.00     0.073 A 
HETATM    3  C   UNL     1     -37.975 -50.963  12.900  1.00  0.00     0.113 A 
HETATM    4  N   UNL     1     -37.637 -49.888  12.163  1.00  0.00    -0.371 N 
ATOM      5  HN  UNL     1     -36.681 -49.534  12.144  1.00  0.00     0.164 HD
HETATM    6  C   UNL     1     -38.625 -49.296  11.448  1.00  0.00     0.119 A 
HETATM    7  C   UNL     1     -39.955 -49.717  11.424  1.00  0.00     0.074 A 
HETATM    8  C   UNL     1     -40.259 -50.844  12.208  1.00  0.00     0.085 A 
HETATM    9 CL   UNL     1     -41.894 -51.441  12.240  1.00  0.00    -0.080 Cl
ENDROOT
BRANCH   7  10
HETATM   10  N   UNL     1     -40.974 -49.067  10.666  1.00  0.00    -0.322 N 
HETATM   11  C   UNL     1     -41.435 -47.786  10.867  1.00  0.00     0.251 C 
HETATM   12  O   UNL     1     -41.023 -47.010  11.730  1.00  0.00    -0.270 OA
HETATM   13  H   UNL     1     -41.414 -49.597   9.913  1.00  0.00     0.169 HD
BRANCH  11  14
HETATM   14  C   UNL     1     -42.563 -47.332   9.931  1.00  0.00     0.213 C 
HETATM   15  C   UNL     1     -43.906 -47.490  10.631  1.00  0.00     0.044 C 
HETATM   16  C   UNL     1     -44.908 -47.589   9.502  1.00  0.00     0.029 C 
HETATM   17  C   UNL     1     -44.055 -47.593   8.249  1.00  0.00     0.168 C 
HETATM   18  O   UNL     1     -42.738 -47.989   8.679  1.00  0.00    -0.376 OA
ENDBRANCH  11  14
ENDBRANCH   7  10
TORSDOF 2
ENDMDL
MODEL 2
REMARK VINA RESULT:      -5.2      3.229      5.643
REMARK  2 active torsions:
REMARK  status: ('A' for Active; 'I' for Inactive)
REMARK    1  A    between atoms: C_7  and  N_8 
REMARK       I    between atoms: N_8  and  C_9 
REMARK    2  A    between atoms: C_9  and  C_11 
ROOT
HETATM    1 CL   UNL     1     -39.630 -44.903  11.896  1.00  0.00    -0.081 Cl
HETATM    2  C   UNL     1     -40.597 -46.130  11.167  1.00  0.00     0.073 A 
HETATM    3  C   UNL     1     -41.579 -45.743  10.269  1.00  0.00     0.113 A 
HETATM    4  N   UNL     1     -42.394 -46.609   9.639  1.00  0.00    -0.371 N 
ATOM      5  HN  UNL     1     -43.108 -46.289   8.985  1.00  0.00     0.164 HD
HETATM    6  C   UNL     1     -42.226 -47.926   9.913  1.00  0.00     0.119 A 
HETATM    7  C   UNL     1     -41.277 -48.442  10.796  1.00  0.00     0.074 A 
HETATM    8  C   UNL     1     -40.448 -47.499  11.430  1.00  0.00     0.085 A 
HETATM    9 CL   UNL     1     -39.235 -48.051  12.550  1.00  0.00    -0.080 Cl
ENDROOT
BRANCH   7  10
HETATM   10  N   UNL     1     -41.130 -49.834  11.071  1.00  0.00    -0.322 N 
HETATM   11  C   UNL     1     -41.726 -50.520  12.104  1.00  0.00     0.251 C 
HETATM   12  O   UNL     1     -42.485 -50.027  12.939  1.00  0.00    -0.270 OA
HETATM   13  H   UNL     1     -40.520 -50.375  10.456  1.00  0.00     0.169 HD
BRANCH  11  14
HETATM   14  C   UNL     1     -41.381 -52.012  12.197  1.00  0.00     0.213 C 
HETATM   15  C   UNL     1     -42.612 -52.798  12.627  1.00  0.00     0.044 C 
HETATM   16  C   UNL     1     -42.055 -54.066  13.235  1.00  0.00     0.029 C 
HETATM   17  C   UNL     1     -40.553 -53.860  13.208  1.00  0.00     0.168 C 
HETATM   18  O   UNL     1     -40.359 -52.437  13.096  1.00  0.00    -0.376 OA
ENDBRANCH  11  14
ENDBRANCH   7  10
TORSDOF 2
ENDMDL
MODEL 3
REMARK VINA RESULT:      -5.1      3.905      4.531
REMARK  2 active torsions:
REMARK  status: ('A' for Active; 'I' for Inactive)
REMARK    1  A    between atoms: C_7  and  N_8 
REMARK       I    between atoms: N_8  and  C_9 
REMARK    2  A    between atoms: C_9  and  C_11 
ROOT
HETATM    1 CL   UNL     1     -37.174 -51.191  12.964  1.00  0.00    -0.081 Cl
HETATM    2  C   UNL     1     -38.667 -50.590  12.345  1.00  0.00     0.073 A 
HETATM    3  C   UNL     1     -38.654 -49.386  11.659  1.00  0.00     0.113 A 
HETATM    4  N   UNL     1     -39.754 -48.818  11.132  1.00  0.00    -0.371 N 
ATOM      5  HN  UNL     1     -39.708 -47.929  10.634  1.00  0.00     0.164 HD
HETATM    6  C   UNL     1     -40.927 -49.479  11.292  1.00  0.00     0.119 A 
HETATM    7  C   UNL     1     -41.073 -50.694  11.962  1.00  0.00     0.074 A 
HETATM    8  C   UNL     1     -39.895 -51.249  12.494  1.00  0.00     0.085 A 
HETATM    9 CL   UNL     1     -39.980 -52.764  13.348  1.00  0.00    -0.080 Cl
ENDROOT
BRANCH   7  10
HETATM   10  N   UNL     1     -42.323 -51.361  12.121  1.00  0.00    -0.322 N 
HETATM   11  C   UNL     1     -43.173 -51.235  13.196  1.00  0.00     0.251 C 
HETATM   12  O   UNL     1     -42.977 -50.515  14.176  1.00  0.00    -0.270 OA
HETATM   13  H   UNL     1     -42.616 -52.001  11.381  1.00  0.00     0.169 HD
BRANCH  11  14
HETATM   14  C   UNL     1     -44.447 -52.087  13.138  1.00  0.00     0.213 C 
HETATM   15  C   UNL     1     -45.628 -51.281  13.661  1.00  0.00     0.044 C 
HETATM   16  C   UNL     1     -46.630 -52.324  14.102  1.00  0.00     0.029 C 
HETATM   17  C   UNL     1     -45.905 -53.642  13.903  1.00  0.00     0.168 C 
HETATM   18  O   UNL     1     -44.503 -53.310  13.870  1.00  0.00    -0.376 OA
ENDBRANCH  11  14
ENDBRANCH   7  10
TORSDOF 2
ENDMDL
MODEL 4
REMARK VINA RESULT:      -5.1      3.582      4.200
REMARK  2 active torsions:
REMARK  status: ('A' for Active; 'I' for Inactive)
REMARK    1  A    between atoms: C_7  and  N_8 
REMARK       I    between atoms: N_8  and  C_9 
REMARK    2  A    between atoms: C_9  and  C_11 
ROOT
HETATM    1 CL   UNL     1     -37.945 -49.544  13.147  1.00  0.00    -0.081 Cl
HETATM    2  C   UNL     1     -39.263 -48.940  12.215  1.00  0.00     0.073 A 
HETATM    3  C   UNL     1     -39.865 -49.793  11.302  1.00  0.00     0.113 A 
HETATM    4  N   UNL     1     -40.900 -49.435  10.519  1.00  0.00    -0.371 N 
ATOM      5  HN  UNL     1     -41.318 -50.088   9.857  1.00  0.00     0.164 HD
HETATM    6  C   UNL     1     -41.362 -48.167  10.650  1.00  0.00     0.119 A 
HETATM    7  C   UNL     1     -40.844 -47.215  11.528  1.00  0.00     0.074 A 
HETATM    8  C   UNL     1     -39.764 -47.635  12.326  1.00  0.00     0.085 A 
HETATM    9 CL   UNL     1     -39.051 -46.515  13.450  1.00  0.00    -0.080 Cl
ENDROOT
BRANCH   7  10
HETATM   10  N   UNL     1     -41.347 -45.885  11.636  1.00  0.00    -0.322 N 
HETATM   11  C   UNL     1     -40.998 -44.823  10.833  1.00  0.00     0.251 C 
HETATM   12  O   UNL     1     -40.203 -44.874   9.893  1.00  0.00    -0.270 OA
HETATM   13  H   UNL     1     -42.018 -45.692  12.381  1.00  0.00     0.169 HD
BRANCH  11  14
HETATM   14  C   UNL     1     -41.663 -43.484  11.177  1.00  0.00     0.213 C 
HETATM   15  C   UNL     1     -41.964 -43.428  12.668  1.00  0.00     0.044 C 
HETATM   16  C   UNL     1     -43.080 -42.414  12.789  1.00  0.00     0.029 C 
HETATM   17  C   UNL     1     -43.407 -42.052  11.353  1.00  0.00     0.168 C 
HETATM   18  O   UNL     1     -42.898 -43.137  10.554  1.00  0.00    -0.376 OA
ENDBRANCH  11  14
ENDBRANCH   7  10
TORSDOF 2
ENDMDL
MODEL 5
REMARK VINA RESULT:      -4.9      2.238      2.373
REMARK  2 active torsions:
REMARK  status: ('A' for Active; 'I' for Inactive)
REMARK    1  A    between atoms: C_7  and  N_8 
REMARK       I    between atoms: N_8  and  C_9 
REMARK    2  A    between atoms: C_9  and  C_11 
ROOT
HETATM    1 CL   UNL     1     -37.275 -48.196  15.243  1.00  0.00    -0.081 Cl
HETATM    2  C   UNL     1     -37.942 -48.872  13.805  1.00  0.00     0.073 A 
HETATM    3  C   UNL     1     -37.499 -50.122  13.402  1.00  0.00     0.113 A 
HETATM    4  N   UNL     1     -37.946 -50.750  12.298  1.00  0.00    -0.371 N 
ATOM      5  HN  UNL     1     -37.596 -51.670  12.031  1.00  0.00     0.164 HD
HETATM    6  C   UNL     1     -38.881 -50.106  11.557  1.00  0.00     0.119 A 
HETATM    7  C   UNL     1     -39.405 -48.848  11.854  1.00  0.00     0.074 A 
HETATM    8  C   UNL     1     -38.909 -48.232  13.017  1.00  0.00     0.085 A 
HETATM    9 CL   UNL     1     -39.506 -46.659  13.466  1.00  0.00    -0.080 Cl
ENDROOT
BRANCH   7  10
HETATM   10  N   UNL     1     -40.383 -48.191  11.049  1.00  0.00    -0.322 N 
HETATM   11  C   UNL     1     -41.739 -48.426  11.075  1.00  0.00     0.251 C 
HETATM   12  O   UNL     1     -42.305 -49.237  11.809  1.00  0.00    -0.270 OA
HETATM   13  H   UNL     1     -40.054 -47.490  10.384  1.00  0.00     0.169 HD
BRANCH  11  14
HETATM   14  C   UNL     1     -42.574 -47.605  10.085  1.00  0.00     0.213 C 
HETATM   15  C   UNL     1     -44.015 -47.525  10.571  1.00  0.00     0.044 C 
HETATM   16  C   UNL     1     -44.818 -47.243   9.321  1.00  0.00     0.029 C 
HETATM   17  C   UNL     1     -43.794 -47.293   8.203  1.00  0.00     0.168 C 
HETATM   18  O   UNL     1     -42.681 -48.040   8.732  1.00  0.00    -0.376 OA
ENDBRANCH  11  14
ENDBRANCH   7  10
TORSDOF 2
ENDMDL
MODEL 6
REMARK VINA RESULT:      -4.9      2.411      3.348
REMARK  2 active torsions:
REMARK  status: ('A' for Active; 'I' for Inactive)
REMARK    1  A    between atoms: C_7  and  N_8 
REMARK       I    between atoms: N_8  and  C_9 
REMARK    2  A    between atoms: C_9  and  C_11 
ROOT
HETATM    1 CL   UNL     1     -39.143 -53.825  14.735  1.00  0.00    -0.081 Cl
HETATM    2  C   UNL     1     -40.423 -53.308  13.703  1.00  0.00     0.073 A 
HETATM    3  C   UNL     1     -41.519 -54.142  13.550  1.00  0.00     0.113 A 
HETATM    4  N   UNL     1     -42.577 -53.847  12.772  1.00  0.00    -0.371 N 
ATOM      5  HN  UNL     1     -43.366 -54.485  12.681  1.00  0.00     0.164 HD
HETATM    6  C   UNL     1     -42.546 -52.662  12.113  1.00  0.00     0.119 A 
HETATM    7  C   UNL     1     -41.504 -51.737  12.183  1.00  0.00     0.074 A 
HETATM    8  C   UNL     1     -40.421 -52.090  13.009  1.00  0.00     0.085 A 
HETATM    9 CL   UNL     1     -39.074 -50.998  13.156  1.00  0.00    -0.080 Cl
ENDROOT
BRANCH   7  10
HETATM   10  N   UNL     1     -41.497 -50.502  11.470  1.00  0.00    -0.322 N 
HETATM   11  C   UNL     1     -42.076 -49.326  11.889  1.00  0.00     0.251 C 
HETATM   12  O   UNL     1     -42.679 -49.171  12.952  1.00  0.00    -0.270 OA
HETATM   13  H   UNL     1     -41.031 -50.482  10.562  1.00  0.00     0.169 HD
BRANCH  11  14
HETATM   14  C   UNL     1     -41.952 -48.142  10.921  1.00  0.00     0.213 C 
HETATM   15  C   UNL     1     -40.656 -47.391  11.192  1.00  0.00     0.044 C 
HETATM   16  C   UNL     1     -40.904 -46.003  10.646  1.00  0.00     0.029 C 
HETATM   17  C   UNL     1     -42.356 -46.032  10.208  1.00  0.00     0.168 C 
HETATM   18  O   UNL     1     -42.955 -47.129  10.926  1.00  0.00    -0.376 OA
ENDBRANCH  11  14
ENDBRANCH   7  10
TORSDOF 2
ENDMDL
MODEL 7
REMARK VINA RESULT:      -4.8      5.739      6.291
REMARK  2 active torsions:
REMARK  status: ('A' for Active; 'I' for Inactive)
REMARK    1  A    between atoms: C_7  and  N_8 
REMARK       I    between atoms: N_8  and  C_9 
REMARK    2  A    between atoms: C_9  and  C_11 
ROOT
HETATM    1 CL   UNL     1     -38.848 -54.706  17.211  1.00  0.00    -0.081 Cl
HETATM    2  C   UNL     1     -39.691 -54.483  15.724  1.00  0.00     0.073 A 
HETATM    3  C   UNL     1     -39.030 -54.787  14.544  1.00  0.00     0.113 A 
HETATM    4  N   UNL     1     -39.583 -54.654  13.325  1.00  0.00    -0.371 N 
ATOM      5  HN  UNL     1     -39.066 -54.886  12.477  1.00  0.00     0.164 HD
HETATM    6  C   UNL     1     -40.858 -54.196  13.273  1.00  0.00     0.119 A 
HETATM    7  C   UNL     1     -41.629 -53.854  14.384  1.00  0.00     0.074 A 
HETATM    8  C   UNL     1     -41.008 -54.012  15.637  1.00  0.00     0.085 A 
HETATM    9 CL   UNL     1     -41.893 -53.609  17.080  1.00  0.00    -0.080 Cl
ENDROOT
BRANCH   7  10
HETATM   10  N   UNL     1     -42.966 -53.367  14.297  1.00  0.00    -0.322 N 
HETATM   11  C   UNL     1     -44.110 -54.122  14.422  1.00  0.00     0.251 C 
HETATM   12  O   UNL     1     -44.140 -55.334  14.638  1.00  0.00    -0.270 OA
HETATM   13  H   UNL     1     -43.096 -52.371  14.115  1.00  0.00     0.169 HD
BRANCH  11  14
HETATM   14  C   UNL     1     -45.431 -53.360  14.258  1.00  0.00     0.213 C 
HETATM   15  C   UNL     1     -45.489 -52.724  12.875  1.00  0.00     0.044 C 
HETATM   16  C   UNL     1     -46.469 -51.583  13.027  1.00  0.00     0.029 C 
HETATM   17  C   UNL     1     -46.811 -51.583  14.504  1.00  0.00     0.168 C 
HETATM   18  O   UNL     1     -45.736 -52.291  15.151  1.00  0.00    -0.376 OA
ENDBRANCH  11  14
ENDBRANCH   7  10
TORSDOF 2
ENDMDL
MODEL 8
REMARK VINA RESULT:      -4.8      4.886      6.950
REMARK  2 active torsions:
REMARK  status: ('A' for Active; 'I' for Inactive)
REMARK    1  A    between atoms: C_7  and  N_8 
REMARK       I    between atoms: N_8  and  C_9 
REMARK    2  A    between atoms: C_9  and  C_11 
ROOT
HETATM    1 CL   UNL     1     -47.147 -51.415  15.434  1.00  0.00    -0.081 Cl
HETATM    2  C   UNL     1     -46.082 -52.465  14.576  1.00  0.00     0.073 A 
HETATM    3  C   UNL     1     -46.508 -53.758  14.314  1.00  0.00     0.113 A 
HETATM    4  N   UNL     1     -45.766 -54.667  13.655  1.00  0.00    -0.371 N 
ATOM      5  HN  UNL     1     -46.110 -55.611  13.480  1.00  0.00     0.164 HD
HETATM    6  C   UNL     1     -44.539 -54.272  13.233  1.00  0.00     0.119 A 
HETATM    7  C   UNL     1     -43.996 -53.004  13.435  1.00  0.00     0.074 A 
HETATM    8  C   UNL     1     -44.808 -52.088  14.127  1.00  0.00     0.085 A 
HETATM    9 CL   UNL     1     -44.213 -50.480  14.427  1.00  0.00    -0.080 Cl
ENDROOT
BRANCH   7  10
HETATM   10  N   UNL     1     -42.697 -52.621  12.986  1.00  0.00    -0.322 N 
HETATM   11  C   UNL     1     -41.524 -52.768  13.691  1.00  0.00     0.251 C 
HETATM   12  O   UNL     1     -41.428 -53.264  14.814  1.00  0.00    -0.270 OA
HETATM   13  H   UNL     1     -42.624 -52.189  12.064  1.00  0.00     0.169 HD
BRANCH  11  14
HETATM   14  C   UNL     1     -40.261 -52.248  12.994  1.00  0.00     0.213 C 
HETATM   15  C   UNL     1     -39.085 -52.295  13.959  1.00  0.00     0.044 C 
HETATM   16  C   UNL     1     -38.111 -51.273  13.416  1.00  0.00     0.029 C 
HETATM   17  C   UNL     1     -38.848 -50.642  12.251  1.00  0.00     0.168 C 
HETATM   18  O   UNL     1     -40.244 -50.917  12.481  1.00  0.00    -0.376 OA
ENDBRANCH  11  14
ENDBRANCH   7  10
TORSDOF 2
ENDMDL
MODEL 9
REMARK VINA RESULT:      -4.8      4.299      4.937
REMARK  2 active torsions:
REMARK  status: ('A' for Active; 'I' for Inactive)
REMARK    1  A    between atoms: C_7  and  N_8 
REMARK       I    between atoms: N_8  and  C_9 
REMARK    2  A    between atoms: C_9  and  C_11 
ROOT
HETATM    1 CL   UNL     1     -39.518 -46.722  13.545  1.00  0.00    -0.081 Cl
HETATM    2  C   UNL     1     -39.976 -48.167  12.725  1.00  0.00     0.073 A 
HETATM    3  C   UNL     1     -39.082 -48.719  11.821  1.00  0.00     0.113 A 
HETATM    4  N   UNL     1     -39.329 -49.842  11.121  1.00  0.00    -0.371 N 
ATOM      5  HN  UNL     1     -38.648 -50.220  10.463  1.00  0.00     0.164 HD
HETATM    6  C   UNL     1     -40.523 -50.450  11.330  1.00  0.00     0.119 A 
HETATM    7  C   UNL     1     -41.506 -49.995  12.209  1.00  0.00     0.074 A 
HETATM    8  C   UNL     1     -41.203 -48.818  12.918  1.00  0.00     0.085 A 
HETATM    9 CL   UNL     1     -42.371 -48.175  14.037  1.00  0.00    -0.080 Cl
ENDROOT
BRANCH   7  10
HETATM   10  N   UNL     1     -42.757 -50.652  12.401  1.00  0.00    -0.322 N 
HETATM   11  C   UNL     1     -42.976 -51.755  13.195  1.00  0.00     0.251 C 
HETATM   12  O   UNL     1     -42.116 -52.329  13.865  1.00  0.00    -0.270 OA
HETATM   13  H   UNL     1     -43.567 -50.284  11.899  1.00  0.00     0.169 HD
BRANCH  11  14
HETATM   14  C   UNL     1     -44.413 -52.289  13.208  1.00  0.00     0.213 C 
HETATM   15  C   UNL     1     -45.391 -51.131  13.350  1.00  0.00     0.044 C 
HETATM   16  C   UNL     1     -46.640 -51.762  13.924  1.00  0.00     0.029 C 
HETATM   17  C   UNL     1     -46.246 -53.205  14.170  1.00  0.00     0.168 C 
HETATM   18  O   UNL     1     -44.807 -53.210  14.223  1.00  0.00    -0.376 OA
ENDBRANCH  11  14
ENDBRANCH   7  10
TORSDOF 2
ENDMDL
