MODEL 1
REMARK VINA RESULT:      -6.2      0.000      0.000
REMARK  6 active torsions:
REMARK  status: ('A' for Active; 'I' for Inactive)
REMARK    1  A    between atoms: C_7  and  O_8 
REMARK    2  A    between atoms: O_8  and  C_9 
REMARK    3  A    between atoms: C_9  and  C_10 
REMARK    4  A    between atoms: C_10  and  N_11 
REMARK       I    between atoms: N_11  and  C_12 
REMARK    5  A    between atoms: C_12  and  C_14 
REMARK    6  A    between atoms: C_14  and  N_15 
ROOT
HETATM    1  N   UNL     1     -42.700 -54.027  12.974  1.00  0.00    -0.358 N 
HETATM    2  C   UNL     1     -43.275 -54.626  14.076  1.00  0.00     0.235 C 
HETATM    3  O   UNL     1     -42.634 -54.981  15.063  1.00  0.00    -0.272 OA
HETATM    4  H   UNL     1     -43.190 -54.148  12.085  1.00  0.00     0.162 HD
ENDROOT
BRANCH   1   5
HETATM    5  C   UNL     1     -41.259 -53.860  12.900  1.00  0.00     0.148 C 
BRANCH   5   6
HETATM    6  C   UNL     1     -40.874 -52.536  12.249  1.00  0.00     0.187 C 
BRANCH   6   7
HETATM    7  O   UNL     1     -39.508 -52.235  12.562  1.00  0.00    -0.384 OA
BRANCH   7   8
HETATM    8  C   UNL     1     -39.327 -50.983  13.237  1.00  0.00     0.125 C 
HETATM    9  C   UNL     1     -38.736 -49.892  12.316  1.00  0.00     0.010 C 
HETATM   10  C   UNL     1     -37.484 -50.366  11.567  1.00  0.00     0.012 C 
HETATM   11  C   UNL     1     -38.472 -48.609  13.114  1.00  0.00     0.007 C 
HETATM   12  C   UNL     1     -37.582 -48.842  14.331  1.00  0.00     0.001 C 
HETATM   13  C   UNL     1     -38.130 -49.950  15.227  1.00  0.00     0.002 C 
HETATM   14  C   UNL     1     -38.425 -51.233  14.454  1.00  0.00     0.032 C 
ENDBRANCH   7   8
ENDBRANCH   6   7
ENDBRANCH   5   6
ENDBRANCH   1   5
BRANCH   2  15
HETATM   15  C   UNL     1     -44.778 -54.866  13.949  1.00  0.00     0.234 C 
BRANCH  15  16
HETATM   16  N   UNL     1     -45.516 -53.664  14.320  1.00  0.00    -0.316 N 
HETATM   17  C   UNL     1     -45.863 -53.451  15.644  1.00  0.00     0.095 A 
HETATM   18  C   UNL     1     -46.559 -52.366  16.009  1.00  0.00     0.017 A 
HETATM   19  C   UNL     1     -46.955 -51.401  15.016  1.00  0.00     0.007 A 
HETATM   20  C   UNL     1     -46.653 -51.585  13.724  1.00  0.00     0.074 A 
HETATM   21  C   UNL     1     -45.897 -52.795  13.299  1.00  0.00     0.247 A 
HETATM   22  O   UNL     1     -45.657 -52.982  12.108  1.00  0.00    -0.268 OA
ENDBRANCH  15  16
ENDBRANCH   2  15
TORSDOF 6
ENDMDL
MODEL 2
REMARK VINA RESULT:      -6.1      1.574      2.192
REMARK  6 active torsions:
REMARK  status: ('A' for Active; 'I' for Inactive)
REMARK    1  A    between atoms: C_7  and  O_8 
REMARK    2  A    between atoms: O_8  and  C_9 
REMARK    3  A    between atoms: C_9  and  C_10 
REMARK    4  A    between atoms: C_10  and  N_11 
REMARK       I    between atoms: N_11  and  C_12 
REMARK    5  A    between atoms: C_12  and  C_14 
REMARK    6  A    between atoms: C_14  and  N_15 
ROOT
HETATM    1  N   UNL     1     -42.761 -54.270  13.541  1.00  0.00    -0.358 N 
HETATM    2  C   UNL     1     -43.567 -54.993  14.396  1.00  0.00     0.235 C 
HETATM    3  O   UNL     1     -43.139 -55.598  15.376  1.00  0.00    -0.272 OA
HETATM    4  H   UNL     1     -43.097 -54.166  12.581  1.00  0.00     0.162 HD
ENDROOT
BRANCH   1   5
HETATM    5  C   UNL     1     -41.320 -54.262  13.725  1.00  0.00     0.148 C 
BRANCH   5   6
HETATM    6  C   UNL     1     -40.763 -52.843  13.778  1.00  0.00     0.187 C 
BRANCH   6   7
HETATM    7  O   UNL     1     -40.447 -52.410  12.448  1.00  0.00    -0.384 OA
BRANCH   7   8
HETATM    8  C   UNL     1     -41.235 -51.301  11.995  1.00  0.00     0.125 C 
HETATM    9  C   UNL     1     -40.371 -50.149  11.433  1.00  0.00     0.010 C 
HETATM   10  C   UNL     1     -39.238 -49.743  12.384  1.00  0.00     0.012 C 
HETATM   11  C   UNL     1     -41.258 -48.955  11.058  1.00  0.00     0.007 C 
HETATM   12  C   UNL     1     -42.126 -48.476  12.217  1.00  0.00     0.001 C 
HETATM   13  C   UNL     1     -42.951 -49.613  12.812  1.00  0.00     0.002 C 
HETATM   14  C   UNL     1     -42.098 -50.827  13.173  1.00  0.00     0.032 C 
ENDBRANCH   7   8
ENDBRANCH   6   7
ENDBRANCH   5   6
ENDBRANCH   1   5
BRANCH   2  15
HETATM   15  C   UNL     1     -45.040 -55.028  13.993  1.00  0.00     0.234 C 
BRANCH  15  16
HETATM   16  N   UNL     1     -45.675 -53.749  14.285  1.00  0.00    -0.316 N 
HETATM   17  C   UNL     1     -46.162 -53.498  15.558  1.00  0.00     0.095 A 
HETATM   18  C   UNL     1     -46.769 -52.338  15.848  1.00  0.00     0.017 A 
HETATM   19  C   UNL     1     -46.921 -51.334  14.827  1.00  0.00     0.007 A 
HETATM   20  C   UNL     1     -46.479 -51.552  13.581  1.00  0.00     0.074 A 
HETATM   21  C   UNL     1     -45.820 -52.841  13.237  1.00  0.00     0.247 A 
HETATM   22  O   UNL     1     -45.453 -53.054  12.084  1.00  0.00    -0.268 OA
ENDBRANCH  15  16
ENDBRANCH   2  15
TORSDOF 6
ENDMDL
MODEL 3
REMARK VINA RESULT:      -6.0      2.993      3.794
REMARK  6 active torsions:
REMARK  status: ('A' for Active; 'I' for Inactive)
REMARK    1  A    between atoms: C_7  and  O_8 
REMARK    2  A    between atoms: O_8  and  C_9 
REMARK    3  A    between atoms: C_9  and  C_10 
REMARK    4  A    between atoms: C_10  and  N_11 
REMARK       I    between atoms: N_11  and  C_12 
REMARK    5  A    between atoms: C_12  and  C_14 
REMARK    6  A    between atoms: C_14  and  N_15 
ROOT
HETATM    1  N   UNL     1     -42.139 -52.206  11.791  1.00  0.00    -0.358 N 
HETATM    2  C   UNL     1     -42.804 -52.934  12.757  1.00  0.00     0.235 C 
HETATM    3  O   UNL     1     -42.333 -53.172  13.866  1.00  0.00    -0.272 OA
HETATM    4  H   UNL     1     -42.389 -52.405  10.820  1.00  0.00     0.162 HD
ENDROOT
BRANCH   1   5
HETATM    5  C   UNL     1     -40.781 -51.747  12.027  1.00  0.00     0.148 C 
BRANCH   5   6
HETATM    6  C   UNL     1     -40.527 -50.381  11.398  1.00  0.00     0.187 C 
BRANCH   6   7
HETATM    7  O   UNL     1     -41.712 -49.582  11.508  1.00  0.00    -0.384 OA
BRANCH   7   8
HETATM    8  C   UNL     1     -41.646 -48.340  10.796  1.00  0.00     0.125 C 
HETATM    9  C   UNL     1     -40.621 -47.358  11.408  1.00  0.00     0.010 C 
HETATM   10  C   UNL     1     -40.802 -47.183  12.921  1.00  0.00     0.012 C 
HETATM   11  C   UNL     1     -40.665 -46.015  10.668  1.00  0.00     0.007 C 
HETATM   12  C   UNL     1     -42.062 -45.403  10.637  1.00  0.00     0.001 C 
HETATM   13  C   UNL     1     -43.094 -46.378  10.078  1.00  0.00     0.002 C 
HETATM   14  C   UNL     1     -43.057 -47.734  10.778  1.00  0.00     0.032 C 
ENDBRANCH   7   8
ENDBRANCH   6   7
ENDBRANCH   5   6
ENDBRANCH   1   5
BRANCH   2  15
HETATM   15  C   UNL     1     -44.163 -53.473  12.313  1.00  0.00     0.234 C 
BRANCH  15  16
HETATM   16  N   UNL     1     -45.193 -53.106  13.278  1.00  0.00    -0.316 N 
HETATM   17  C   UNL     1     -45.603 -51.786  13.377  1.00  0.00     0.095 A 
HETATM   18  C   UNL     1     -46.533 -51.418  14.270  1.00  0.00     0.017 A 
HETATM   19  C   UNL     1     -47.119 -52.402  15.142  1.00  0.00     0.007 A 
HETATM   20  C   UNL     1     -46.731 -53.684  15.086  1.00  0.00     0.074 A 
HETATM   21  C   UNL     1     -45.686 -54.106  14.114  1.00  0.00     0.247 A 
HETATM   22  O   UNL     1     -45.303 -55.274  14.093  1.00  0.00    -0.268 OA
ENDBRANCH  15  16
ENDBRANCH   2  15
TORSDOF 6
ENDMDL
MODEL 4
REMARK VINA RESULT:      -5.9      1.946      7.216
REMARK  6 active torsions:
REMARK  status: ('A' for Active; 'I' for Inactive)
REMARK    1  A    between atoms: C_7  and  O_8 
REMARK    2  A    between atoms: O_8  and  C_9 
REMARK    3  A    between atoms: C_9  and  C_10 
REMARK    4  A    between atoms: C_10  and  N_11 
REMARK       I    between atoms: N_11  and  C_12 
REMARK    5  A    between atoms: C_12  and  C_14 
REMARK    6  A    between atoms: C_14  and  N_15 
ROOT
HETATM    1  N   UNL     1     -40.675 -53.020  14.725  1.00  0.00    -0.358 N 
HETATM    2  C   UNL     1     -39.386 -53.051  14.232  1.00  0.00     0.235 C 
HETATM    3  O   UNL     1     -38.944 -53.974  13.553  1.00  0.00    -0.272 OA
HETATM    4  H   UNL     1     -40.821 -52.475  15.577  1.00  0.00     0.162 HD
ENDROOT
BRANCH   1   5
HETATM    5  C   UNL     1     -41.562 -54.152  14.522  1.00  0.00     0.148 C 
BRANCH   5   6
HETATM    6  C   UNL     1     -42.335 -54.037  13.212  1.00  0.00     0.187 C 
BRANCH   6   7
HETATM    7  O   UNL     1     -43.738 -54.172  13.477  1.00  0.00    -0.384 OA
BRANCH   7   8
HETATM    8  C   UNL     1     -44.411 -52.926  13.694  1.00  0.00     0.125 C 
HETATM    9  C   UNL     1     -44.854 -52.737  15.163  1.00  0.00     0.010 C 
HETATM   10  C   UNL     1     -45.623 -53.948  15.707  1.00  0.00     0.012 C 
HETATM   11  C   UNL     1     -45.655 -51.437  15.314  1.00  0.00     0.007 C 
HETATM   12  C   UNL     1     -46.848 -51.364  14.366  1.00  0.00     0.001 C 
HETATM   13  C   UNL     1     -46.432 -51.594  12.915  1.00  0.00     0.002 C 
HETATM   14  C   UNL     1     -45.612 -52.870  12.738  1.00  0.00     0.032 C 
ENDBRANCH   7   8
ENDBRANCH   6   7
ENDBRANCH   5   6
ENDBRANCH   1   5
BRANCH   2  15
HETATM   15  C   UNL     1     -38.525 -51.859  14.649  1.00  0.00     0.234 C 
BRANCH  15  16
HETATM   16  N   UNL     1     -38.615 -50.797  13.653  1.00  0.00    -0.316 N 
HETATM   17  C   UNL     1     -39.616 -49.845  13.752  1.00  0.00     0.095 A 
HETATM   18  C   UNL     1     -39.734 -48.870  12.840  1.00  0.00     0.017 A 
HETATM   19  C   UNL     1     -38.810 -48.805  11.738  1.00  0.00     0.007 A 
HETATM   20  C   UNL     1     -37.842 -49.721  11.601  1.00  0.00     0.074 A 
HETATM   21  C   UNL     1     -37.709 -50.821  12.594  1.00  0.00     0.247 A 
HETATM   22  O   UNL     1     -36.846 -51.683  12.444  1.00  0.00    -0.268 OA
ENDBRANCH  15  16
ENDBRANCH   2  15
TORSDOF 6
ENDMDL
MODEL 5
REMARK VINA RESULT:      -5.8      1.371      2.109
REMARK  6 active torsions:
REMARK  status: ('A' for Active; 'I' for Inactive)
REMARK    1  A    between atoms: C_7  and  O_8 
REMARK    2  A    between atoms: O_8  and  C_9 
REMARK    3  A    between atoms: C_9  and  C_10 
REMARK    4  A    between atoms: C_10  and  N_11 
REMARK       I    between atoms: N_11  and  C_12 
REMARK    5  A    between atoms: C_12  and  C_14 
REMARK    6  A    between atoms: C_14  and  N_15 
ROOT
HETATM    1  N   UNL     1     -42.709 -54.077  13.784  1.00  0.00    -0.358 N 
HETATM    2  C   UNL     1     -43.546 -54.953  14.444  1.00  0.00     0.235 C 
HETATM    3  O   UNL     1     -43.170 -55.695  15.349  1.00  0.00    -0.272 OA
HETATM    4  H   UNL     1     -42.974 -53.830  12.828  1.00  0.00     0.162 HD
ENDROOT
BRANCH   1   5
HETATM    5  C   UNL     1     -41.289 -54.056  14.086  1.00  0.00     0.148 C 
BRANCH   5   6
HETATM    6  C   UNL     1     -40.741 -52.632  14.131  1.00  0.00     0.187 C 
BRANCH   6   7
HETATM    7  O   UNL     1     -39.504 -52.579  13.408  1.00  0.00    -0.384 OA
BRANCH   7   8
HETATM    8  C   UNL     1     -39.376 -51.433  12.557  1.00  0.00     0.125 C 
HETATM    9  C   UNL     1     -37.981 -50.776  12.652  1.00  0.00     0.010 C 
HETATM   10  C   UNL     1     -37.550 -50.509  14.100  1.00  0.00     0.012 C 
HETATM   11  C   UNL     1     -37.935 -49.501  11.799  1.00  0.00     0.007 C 
HETATM   12  C   UNL     1     -39.036 -48.508  12.160  1.00  0.00     0.001 C 
HETATM   13  C   UNL     1     -40.417 -49.156  12.116  1.00  0.00     0.002 C 
HETATM   14  C   UNL     1     -40.486 -50.442  12.936  1.00  0.00     0.032 C 
ENDBRANCH   7   8
ENDBRANCH   6   7
ENDBRANCH   5   6
ENDBRANCH   1   5
BRANCH   2  15
HETATM   15  C   UNL     1     -44.981 -54.968  13.920  1.00  0.00     0.234 C 
BRANCH  15  16
HETATM   16  N   UNL     1     -45.667 -53.734  14.286  1.00  0.00    -0.316 N 
HETATM   17  C   UNL     1     -45.770 -52.705  13.363  1.00  0.00     0.095 A 
HETATM   18  C   UNL     1     -46.376 -51.553  13.680  1.00  0.00     0.017 A 
HETATM   19  C   UNL     1     -46.932 -51.373  14.996  1.00  0.00     0.007 A 
HETATM   20  C   UNL     1     -46.833 -52.340  15.919  1.00  0.00     0.074 A 
HETATM   21  C   UNL     1     -46.145 -53.619  15.590  1.00  0.00     0.247 A 
HETATM   22  O   UNL     1     -46.020 -54.487  16.450  1.00  0.00    -0.268 OA
ENDBRANCH  15  16
ENDBRANCH   2  15
TORSDOF 6
ENDMDL
MODEL 6
REMARK VINA RESULT:      -5.8      1.671      2.275
REMARK  6 active torsions:
REMARK  status: ('A' for Active; 'I' for Inactive)
REMARK    1  A    between atoms: C_7  and  O_8 
REMARK    2  A    between atoms: O_8  and  C_9 
REMARK    3  A    between atoms: C_9  and  C_10 
REMARK    4  A    between atoms: C_10  and  N_11 
REMARK       I    between atoms: N_11  and  C_12 
REMARK    5  A    between atoms: C_12  and  C_14 
REMARK    6  A    between atoms: C_14  and  N_15 
ROOT
HETATM    1  N   UNL     1     -42.243 -52.390  11.710  1.00  0.00    -0.358 N 
HETATM    2  C   UNL     1     -42.820 -53.107  12.739  1.00  0.00     0.235 C 
HETATM    3  O   UNL     1     -42.271 -53.295  13.822  1.00  0.00    -0.272 OA
HETATM    4  H   UNL     1     -42.548 -52.628  10.764  1.00  0.00     0.162 HD
ENDROOT
BRANCH   1   5
HETATM    5  C   UNL     1     -40.889 -51.882  11.843  1.00  0.00     0.148 C 
BRANCH   5   6
HETATM    6  C   UNL     1     -40.843 -50.360  11.755  1.00  0.00     0.187 C 
BRANCH   6   7
HETATM    7  O   UNL     1     -39.487 -49.939  11.556  1.00  0.00    -0.384 OA
BRANCH   7   8
HETATM    8  C   UNL     1     -39.094 -48.835  12.381  1.00  0.00     0.125 C 
HETATM    9  C   UNL     1     -37.811 -49.128  13.193  1.00  0.00     0.010 C 
HETATM   10  C   UNL     1     -37.883 -50.460  13.950  1.00  0.00     0.012 C 
HETATM   11  C   UNL     1     -37.495 -47.955  14.129  1.00  0.00     0.007 C 
HETATM   12  C   UNL     1     -38.660 -47.603  15.050  1.00  0.00     0.001 C 
HETATM   13  C   UNL     1     -39.946 -47.356  14.265  1.00  0.00     0.002 C 
HETATM   14  C   UNL     1     -40.273 -48.497  13.306  1.00  0.00     0.032 C 
ENDBRANCH   7   8
ENDBRANCH   6   7
ENDBRANCH   5   6
ENDBRANCH   1   5
BRANCH   2  15
HETATM   15  C   UNL     1     -44.186 -53.702  12.401  1.00  0.00     0.234 C 
BRANCH  15  16
HETATM   16  N   UNL     1     -45.197 -53.211  13.330  1.00  0.00    -0.316 N 
HETATM   17  C   UNL     1     -45.485 -51.856  13.379  1.00  0.00     0.095 A 
HETATM   18  C   UNL     1     -46.395 -51.375  14.238  1.00  0.00     0.017 A 
HETATM   19  C   UNL     1     -47.086 -52.272  15.126  1.00  0.00     0.007 A 
HETATM   20  C   UNL     1     -46.817 -53.585  15.120  1.00  0.00     0.074 A 
HETATM   21  C   UNL     1     -45.796 -54.133  14.185  1.00  0.00     0.247 A 
HETATM   22  O   UNL     1     -45.522 -55.331  14.210  1.00  0.00    -0.268 OA
ENDBRANCH  15  16
ENDBRANCH   2  15
TORSDOF 6
ENDMDL
MODEL 7
REMARK VINA RESULT:      -5.8      4.448      7.420
REMARK  6 active torsions:
REMARK  status: ('A' for Active; 'I' for Inactive)
REMARK    1  A    between atoms: C_7  and  O_8 
REMARK    2  A    between atoms: O_8  and  C_9 
REMARK    3  A    between atoms: C_9  and  C_10 
REMARK    4  A    between atoms: C_10  and  N_11 
REMARK       I    between atoms: N_11  and  C_12 
REMARK    5  A    between atoms: C_12  and  C_14 
REMARK    6  A    between atoms: C_14  and  N_15 
ROOT
HETATM    1  N   UNL     1     -42.048 -49.765  12.330  1.00  0.00    -0.358 N 
HETATM    2  C   UNL     1     -41.609 -48.800  11.446  1.00  0.00     0.235 C 
HETATM    3  O   UNL     1     -40.828 -49.033  10.526  1.00  0.00    -0.272 OA
HETATM    4  H   UNL     1     -42.329 -49.436  13.257  1.00  0.00     0.162 HD
ENDROOT
BRANCH   1   5
HETATM    5  C   UNL     1     -41.525 -51.118  12.256  1.00  0.00     0.148 C 
BRANCH   5   6
HETATM    6  C   UNL     1     -42.375 -52.099  13.058  1.00  0.00     0.187 C 
BRANCH   6   7
HETATM    7  O   UNL     1     -43.761 -51.852  12.789  1.00  0.00    -0.384 OA
BRANCH   7   8
HETATM    8  C   UNL     1     -44.625 -52.109  13.904  1.00  0.00     0.125 C 
HETATM    9  C   UNL     1     -46.030 -52.585  13.470  1.00  0.00     0.010 C 
HETATM   10  C   UNL     1     -46.660 -51.674  12.408  1.00  0.00     0.012 C 
HETATM   11  C   UNL     1     -46.938 -52.747  14.695  1.00  0.00     0.007 C 
HETATM   12  C   UNL     1     -47.024 -51.479  15.539  1.00  0.00     0.001 C 
HETATM   13  C   UNL     1     -45.641 -50.970  15.937  1.00  0.00     0.002 C 
HETATM   14  C   UNL     1     -44.706 -50.823  14.739  1.00  0.00     0.032 C 
ENDBRANCH   7   8
ENDBRANCH   6   7
ENDBRANCH   5   6
ENDBRANCH   1   5
BRANCH   2  15
HETATM   15  C   UNL     1     -42.133 -47.395  11.738  1.00  0.00     0.234 C 
BRANCH  15  16
HETATM   16  N   UNL     1     -43.122 -47.006  10.739  1.00  0.00    -0.316 N 
HETATM   17  C   UNL     1     -44.284 -47.748  10.597  1.00  0.00     0.095 A 
HETATM   18  C   UNL     1     -45.200 -47.425   9.674  1.00  0.00     0.017 A 
HETATM   19  C   UNL     1     -44.982 -46.292   8.814  1.00  0.00     0.007 A 
HETATM   20  C   UNL     1     -43.861 -45.564   8.911  1.00  0.00     0.074 A 
HETATM   21  C   UNL     1     -42.824 -45.921   9.918  1.00  0.00     0.247 A 
HETATM   22  O   UNL     1     -41.779 -45.277   9.977  1.00  0.00    -0.268 OA
ENDBRANCH  15  16
ENDBRANCH   2  15
TORSDOF 6
ENDMDL
MODEL 8
REMARK VINA RESULT:      -5.6      2.142      7.366
REMARK  6 active torsions:
REMARK  status: ('A' for Active; 'I' for Inactive)
REMARK    1  A    between atoms: C_7  and  O_8 
REMARK    2  A    between atoms: O_8  and  C_9 
REMARK    3  A    between atoms: C_9  and  C_10 
REMARK    4  A    between atoms: C_10  and  N_11 
REMARK       I    between atoms: N_11  and  C_12 
REMARK    5  A    between atoms: C_12  and  C_14 
REMARK    6  A    between atoms: C_14  and  N_15 
ROOT
HETATM    1  N   UNL     1     -41.200 -51.877  11.657  1.00  0.00    -0.358 N 
HETATM    2  C   UNL     1     -41.274 -50.513  11.854  1.00  0.00     0.235 C 
HETATM    3  O   UNL     1     -42.237 -49.958  12.377  1.00  0.00    -0.272 OA
HETATM    4  H   UNL     1     -40.610 -52.193  10.884  1.00  0.00     0.162 HD
ENDROOT
BRANCH   1   5
HETATM    5  C   UNL     1     -42.327 -52.727  11.998  1.00  0.00     0.148 C 
BRANCH   5   6
HETATM    6  C   UNL     1     -42.147 -53.389  13.360  1.00  0.00     0.187 C 
BRANCH   6   7
HETATM    7  O   UNL     1     -42.899 -52.662  14.341  1.00  0.00    -0.384 OA
BRANCH   7   8
HETATM    8  C   UNL     1     -44.316 -52.689  14.126  1.00  0.00     0.125 C 
HETATM    9  C   UNL     1     -44.971 -51.301  14.304  1.00  0.00     0.010 C 
HETATM   10  C   UNL     1     -44.568 -50.623  15.619  1.00  0.00     0.012 C 
HETATM   11  C   UNL     1     -46.495 -51.409  14.161  1.00  0.00     0.007 C 
HETATM   12  C   UNL     1     -47.107 -52.432  15.113  1.00  0.00     0.001 C 
HETATM   13  C   UNL     1     -46.438 -53.798  14.981  1.00  0.00     0.002 C 
HETATM   14  C   UNL     1     -44.918 -53.717  15.095  1.00  0.00     0.032 C 
ENDBRANCH   7   8
ENDBRANCH   6   7
ENDBRANCH   5   6
ENDBRANCH   1   5
BRANCH   2  15
HETATM   15  C   UNL     1     -40.076 -49.734  11.314  1.00  0.00     0.234 C 
BRANCH  15  16
HETATM   16  N   UNL     1     -39.212 -49.310  12.410  1.00  0.00    -0.316 N 
HETATM   17  C   UNL     1     -39.294 -48.011  12.887  1.00  0.00     0.095 A 
HETATM   18  C   UNL     1     -38.499 -47.589  13.879  1.00  0.00     0.017 A 
HETATM   19  C   UNL     1     -37.542 -48.492  14.464  1.00  0.00     0.007 A 
HETATM   20  C   UNL     1     -37.422 -49.748  14.014  1.00  0.00     0.074 A 
HETATM   21  C   UNL     1     -38.285 -50.228  12.900  1.00  0.00     0.247 A 
HETATM   22  O   UNL     1     -38.145 -51.368  12.462  1.00  0.00    -0.268 OA
ENDBRANCH  15  16
ENDBRANCH   2  15
TORSDOF 6
ENDMDL
MODEL 9
REMARK VINA RESULT:      -5.6      4.037      7.418
REMARK  6 active torsions:
REMARK  status: ('A' for Active; 'I' for Inactive)
REMARK    1  A    between atoms: C_7  and  O_8 
REMARK    2  A    between atoms: O_8  and  C_9 
REMARK    3  A    between atoms: C_9  and  C_10 
REMARK    4  A    between atoms: C_10  and  N_11 
REMARK       I    between atoms: N_11  and  C_12 
REMARK    5  A    between atoms: C_12  and  C_14 
REMARK    6  A    between atoms: C_14  and  N_15 
ROOT
HETATM    1  N   UNL     1     -41.815 -50.105  11.384  1.00  0.00    -0.358 N 
HETATM    2  C   UNL     1     -41.206 -48.875  11.234  1.00  0.00     0.235 C 
HETATM    3  O   UNL     1     -40.059 -48.640  11.605  1.00  0.00    -0.272 OA
HETATM    4  H   UNL     1     -42.836 -50.101  11.445  1.00  0.00     0.162 HD
ENDROOT
BRANCH   1   5
HETATM    5  C   UNL     1     -41.131 -51.179  12.081  1.00  0.00     0.148 C 
BRANCH   5   6
HETATM    6  C   UNL     1     -41.942 -51.693  13.266  1.00  0.00     0.187 C 
BRANCH   6   7
HETATM    7  O   UNL     1     -43.274 -51.997  12.831  1.00  0.00    -0.384 OA
BRANCH   7   8
HETATM    8  C   UNL     1     -44.246 -51.993  13.884  1.00  0.00     0.125 C 
HETATM    9  C   UNL     1     -44.496 -53.402  14.467  1.00  0.00     0.010 C 
HETATM   10  C   UNL     1     -44.779 -54.448  13.382  1.00  0.00     0.012 C 
HETATM   11  C   UNL     1     -45.613 -53.352  15.517  1.00  0.00     0.007 C 
HETATM   12  C   UNL     1     -46.904 -52.743  14.979  1.00  0.00     0.001 C 
HETATM   13  C   UNL     1     -46.665 -51.370  14.357  1.00  0.00     0.002 C 
HETATM   14  C   UNL     1     -45.540 -51.384  13.325  1.00  0.00     0.032 C 
ENDBRANCH   7   8
ENDBRANCH   6   7
ENDBRANCH   5   6
ENDBRANCH   1   5
BRANCH   2  15
HETATM   15  C   UNL     1     -42.100 -47.803  10.614  1.00  0.00     0.234 C 
BRANCH  15  16
HETATM   16  N   UNL     1     -42.315 -46.714  11.560  1.00  0.00    -0.316 N 
HETATM   17  C   UNL     1     -42.928 -46.970  12.776  1.00  0.00     0.095 A 
HETATM   18  C   UNL     1     -43.157 -45.985  13.656  1.00  0.00     0.017 A 
HETATM   19  C   UNL     1     -42.763 -44.637  13.339  1.00  0.00     0.007 A 
HETATM   20  C   UNL     1     -42.186 -44.350  12.164  1.00  0.00     0.074 A 
HETATM   21  C   UNL     1     -41.942 -45.429  11.168  1.00  0.00     0.247 A 
HETATM   22  O   UNL     1     -41.451 -45.157  10.076  1.00  0.00    -0.268 OA
ENDBRANCH  15  16
ENDBRANCH   2  15
TORSDOF 6
ENDMDL
