MODEL 1
REMARK VINA RESULT:      -6.3      0.000      0.000
REMARK  8 active torsions:
REMARK  status: ('A' for Active; 'I' for Inactive)
REMARK    1  A    between atoms: O_2  and  C_3 
REMARK    2  A    between atoms: C_8  and  O_9 
REMARK    3  A    between atoms: O_9  and  C_10 
REMARK    4  A    between atoms: C_10  and  C_11 
REMARK    5  A    between atoms: C_11  and  N_12 
REMARK    6  A    between atoms: C_13  and  C_14 
REMARK    7  A    between atoms: C_14  and  C_15 
REMARK    8  A    between atoms: C_15  and  O_16 
ROOT
HETATM    1  N   UNL     1     -40.625 -49.368  12.384  1.00  0.00    -0.333 N 
HETATM    2  C   UNL     1     -39.366 -48.834  12.118  1.00  0.00     0.086 A 
HETATM    3  N   UNL     1     -39.465 -47.730  11.406  1.00  0.00    -0.344 N 
ATOM      4  HN  UNL     1     -38.701 -47.132  11.093  1.00  0.00     0.167 HD
HETATM    5  C   UNL     1     -40.801 -47.549  11.173  1.00  0.00     0.060 A 
HETATM    6  C   UNL     1     -41.436 -46.528  10.447  1.00  0.00     0.032 A 
HETATM    7  C   UNL     1     -42.829 -46.530  10.337  1.00  0.00     0.002 A 
HETATM    8  C   UNL     1     -43.576 -47.536  10.936  1.00  0.00     0.002 A 
HETATM    9  C   UNL     1     -42.953 -48.566  11.647  1.00  0.00     0.032 A 
HETATM   10  C   UNL     1     -41.556 -48.557  11.764  1.00  0.00     0.062 A 
ENDROOT
BRANCH   1  11
HETATM   11  C   UNL     1     -40.867 -50.620  13.093  1.00  0.00     0.157 C 
BRANCH  11  12
HETATM   12  C   UNL     1     -41.139 -51.870  12.255  1.00  0.00     0.196 C 
BRANCH  12  13
HETATM   13  O   UNL     1     -42.539 -52.141  12.160  1.00  0.00    -0.347 OA
BRANCH  13  14
HETATM   14  C   UNL     1     -43.114 -53.150  12.891  1.00  0.00     0.102 A 
HETATM   15  C   UNL     1     -44.442 -53.623  12.887  1.00  0.00     0.101 A 
HETATM   16  C   UNL     1     -44.798 -54.658  13.771  1.00  0.00     0.039 A 
HETATM   17  C   UNL     1     -43.865 -55.227  14.639  1.00  0.00     0.003 A 
HETATM   18  C   UNL     1     -42.560 -54.753  14.648  1.00  0.00     0.003 A 
HETATM   19  C   UNL     1     -42.197 -53.720  13.790  1.00  0.00     0.039 A 
BRANCH  15  20
HETATM   20  O   UNL     1     -45.379 -53.017  12.094  1.00  0.00    -0.353 OA
HETATM   21  C   UNL     1     -46.208 -52.034  12.715  1.00  0.00     0.210 C 
ENDBRANCH  15  20
ENDBRANCH  13  14
ENDBRANCH  12  13
ENDBRANCH  11  12
ENDBRANCH   1  11
BRANCH   2  22
HETATM   22  C   UNL     1     -38.065 -49.420  12.593  1.00  0.00     0.102 C 
BRANCH  22  23
HETATM   23  C   UNL     1     -37.445 -50.388  11.577  1.00  0.00     0.171 C 
BRANCH  23  24
HETATM   24  O   UNL     1     -37.685 -49.963  10.238  1.00  0.00    -0.400 OA
HETATM   25  H   UNL     1     -36.806 -49.685   9.901  1.00  0.00     0.209 HD
ENDBRANCH  23  24
ENDBRANCH  22  23
ENDBRANCH   2  22
TORSDOF 8
ENDMDL
MODEL 2
REMARK VINA RESULT:      -6.1      1.400      3.377
REMARK  8 active torsions:
REMARK  status: ('A' for Active; 'I' for Inactive)
REMARK    1  A    between atoms: O_2  and  C_3 
REMARK    2  A    between atoms: C_8  and  O_9 
REMARK    3  A    between atoms: O_9  and  C_10 
REMARK    4  A    between atoms: C_10  and  C_11 
REMARK    5  A    between atoms: C_11  and  N_12 
REMARK    6  A    between atoms: C_13  and  C_14 
REMARK    7  A    between atoms: C_14  and  C_15 
REMARK    8  A    between atoms: C_15  and  O_16 
ROOT
HETATM    1  N   UNL     1     -41.004 -49.228  12.753  1.00  0.00    -0.333 N 
HETATM    2  C   UNL     1     -40.858 -48.224  11.798  1.00  0.00     0.086 A 
HETATM    3  N   UNL     1     -39.666 -48.277  11.239  1.00  0.00    -0.344 N 
ATOM      4  HN  UNL     1     -39.308 -47.673  10.499  1.00  0.00     0.167 HD
HETATM    5  C   UNL     1     -39.006 -49.306  11.853  1.00  0.00     0.060 A 
HETATM    6  C   UNL     1     -37.697 -49.765  11.634  1.00  0.00     0.032 A 
HETATM    7  C   UNL     1     -37.217 -50.848  12.375  1.00  0.00     0.002 A 
HETATM    8  C   UNL     1     -38.028 -51.459  13.323  1.00  0.00     0.002 A 
HETATM    9  C   UNL     1     -39.326 -51.000  13.561  1.00  0.00     0.032 A 
HETATM   10  C   UNL     1     -39.809 -49.919  12.809  1.00  0.00     0.062 A 
ENDROOT
BRANCH   1  11
HETATM   11  C   UNL     1     -42.178 -49.409  13.600  1.00  0.00     0.157 C 
BRANCH  11  12
HETATM   12  C   UNL     1     -43.325 -50.258  13.052  1.00  0.00     0.196 C 
BRANCH  12  13
HETATM   13  O   UNL     1     -42.857 -51.519  12.567  1.00  0.00    -0.347 OA
BRANCH  13  14
HETATM   14  C   UNL     1     -43.265 -52.694  13.147  1.00  0.00     0.102 A 
HETATM   15  C   UNL     1     -44.446 -53.435  12.948  1.00  0.00     0.101 A 
HETATM   16  C   UNL     1     -44.650 -54.605  13.703  1.00  0.00     0.039 A 
HETATM   17  C   UNL     1     -43.706 -55.046  14.632  1.00  0.00     0.003 A 
HETATM   18  C   UNL     1     -42.547 -54.309  14.832  1.00  0.00     0.003 A 
HETATM   19  C   UNL     1     -42.339 -53.143  14.104  1.00  0.00     0.039 A 
BRANCH  15  20
HETATM   20  O   UNL     1     -45.410 -52.966  12.096  1.00  0.00    -0.353 OA
HETATM   21  C   UNL     1     -46.455 -52.185  12.676  1.00  0.00     0.210 C 
ENDBRANCH  15  20
ENDBRANCH  13  14
ENDBRANCH  12  13
ENDBRANCH  11  12
ENDBRANCH   1  11
BRANCH   2  22
HETATM   22  C   UNL     1     -41.920 -47.224  11.432  1.00  0.00     0.102 C 
BRANCH  22  23
HETATM   23  C   UNL     1     -42.582 -47.530  10.082  1.00  0.00     0.171 C 
BRANCH  23  24
HETATM   24  O   UNL     1     -41.847 -48.508   9.350  1.00  0.00    -0.400 OA
HETATM   25  H   UNL     1     -41.256 -47.991   8.763  1.00  0.00     0.209 HD
ENDBRANCH  23  24
ENDBRANCH  22  23
ENDBRANCH   2  22
TORSDOF 8
ENDMDL
MODEL 3
REMARK VINA RESULT:      -6.1      2.466      5.729
REMARK  8 active torsions:
REMARK  status: ('A' for Active; 'I' for Inactive)
REMARK    1  A    between atoms: O_2  and  C_3 
REMARK    2  A    between atoms: C_8  and  O_9 
REMARK    3  A    between atoms: O_9  and  C_10 
REMARK    4  A    between atoms: C_10  and  C_11 
REMARK    5  A    between atoms: C_11  and  N_12 
REMARK    6  A    between atoms: C_13  and  C_14 
REMARK    7  A    between atoms: C_14  and  C_15 
REMARK    8  A    between atoms: C_15  and  O_16 
ROOT
HETATM    1  N   UNL     1     -42.354 -51.912  12.640  1.00  0.00    -0.333 N 
HETATM    2  C   UNL     1     -42.342 -50.528  12.794  1.00  0.00     0.086 A 
HETATM    3  N   UNL     1     -43.523 -50.088  13.179  1.00  0.00    -0.344 N 
ATOM      4  HN  UNL     1     -43.781 -49.123  13.383  1.00  0.00     0.167 HD
HETATM    5  C   UNL     1     -44.332 -51.189  13.250  1.00  0.00     0.060 A 
HETATM    6  C   UNL     1     -45.691 -51.260  13.596  1.00  0.00     0.032 A 
HETATM    7  C   UNL     1     -46.330 -52.503  13.612  1.00  0.00     0.002 A 
HETATM    8  C   UNL     1     -45.627 -53.654  13.282  1.00  0.00     0.002 A 
HETATM    9  C   UNL     1     -44.279 -53.593  12.919  1.00  0.00     0.032 A 
HETATM   10  C   UNL     1     -43.637 -52.347  12.913  1.00  0.00     0.062 A 
ENDROOT
BRANCH   1  11
HETATM   11  C   UNL     1     -41.228 -52.708  12.162  1.00  0.00     0.157 C 
BRANCH  11  12
HETATM   12  C   UNL     1     -40.547 -53.646  13.159  1.00  0.00     0.196 C 
BRANCH  12  13
HETATM   13  O   UNL     1     -39.152 -53.356  13.281  1.00  0.00    -0.347 OA
BRANCH  13  14
HETATM   14  C   UNL     1     -38.721 -52.198  13.877  1.00  0.00     0.102 A 
HETATM   15  C   UNL     1     -37.909 -51.167  13.363  1.00  0.00     0.101 A 
HETATM   16  C   UNL     1     -37.571 -50.087  14.199  1.00  0.00     0.039 A 
HETATM   17  C   UNL     1     -38.029 -50.014  15.516  1.00  0.00     0.003 A 
HETATM   18  C   UNL     1     -38.821 -51.035  16.022  1.00  0.00     0.003 A 
HETATM   19  C   UNL     1     -39.151 -52.116  15.212  1.00  0.00     0.039 A 
BRANCH  15  20
HETATM   20  O   UNL     1     -37.393 -51.271  12.099  1.00  0.00    -0.353 OA
HETATM   21  C   UNL     1     -37.416 -50.091  11.296  1.00  0.00     0.210 C 
ENDBRANCH  15  20
ENDBRANCH  13  14
ENDBRANCH  12  13
ENDBRANCH  11  12
ENDBRANCH   1  11
BRANCH   2  22
HETATM   22  C   UNL     1     -41.143 -49.647  12.573  1.00  0.00     0.102 C 
BRANCH  22  23
HETATM   23  C   UNL     1     -41.166 -48.946  11.209  1.00  0.00     0.171 C 
BRANCH  23  24
HETATM   24  O   UNL     1     -42.495 -48.818  10.710  1.00  0.00    -0.400 OA
HETATM   25  H   UNL     1     -42.724 -49.709  10.372  1.00  0.00     0.209 HD
ENDBRANCH  23  24
ENDBRANCH  22  23
ENDBRANCH   2  22
TORSDOF 8
ENDMDL
MODEL 4
REMARK VINA RESULT:      -6.0      3.363      6.186
REMARK  8 active torsions:
REMARK  status: ('A' for Active; 'I' for Inactive)
REMARK    1  A    between atoms: O_2  and  C_3 
REMARK    2  A    between atoms: C_8  and  O_9 
REMARK    3  A    between atoms: O_9  and  C_10 
REMARK    4  A    between atoms: C_10  and  C_11 
REMARK    5  A    between atoms: C_11  and  N_12 
REMARK    6  A    between atoms: C_13  and  C_14 
REMARK    7  A    between atoms: C_14  and  C_15 
REMARK    8  A    between atoms: C_15  and  O_16 
ROOT
HETATM    1  N   UNL     1     -42.649 -51.750  13.853  1.00  0.00    -0.333 N 
HETATM    2  C   UNL     1     -42.214 -52.611  12.848  1.00  0.00     0.086 A 
HETATM    3  N   UNL     1     -43.235 -53.093  12.168  1.00  0.00    -0.344 N 
ATOM      4  HN  UNL     1     -43.196 -53.727  11.371  1.00  0.00     0.167 HD
HETATM    5  C   UNL     1     -44.357 -52.569  12.750  1.00  0.00     0.060 A 
HETATM    6  C   UNL     1     -45.704 -52.783  12.412  1.00  0.00     0.032 A 
HETATM    7  C   UNL     1     -46.704 -52.135  13.142  1.00  0.00     0.002 A 
HETATM    8  C   UNL     1     -46.368 -51.294  14.194  1.00  0.00     0.002 A 
HETATM    9  C   UNL     1     -45.033 -51.087  14.550  1.00  0.00     0.032 A 
HETATM   10  C   UNL     1     -44.029 -51.730  13.810  1.00  0.00     0.062 A 
ENDROOT
BRANCH   1  11
HETATM   11  C   UNL     1     -41.779 -51.099  14.827  1.00  0.00     0.157 C 
BRANCH  11  12
HETATM   12  C   UNL     1     -41.550 -49.594  14.681  1.00  0.00     0.196 C 
BRANCH  12  13
HETATM   13  O   UNL     1     -40.166 -49.260  14.810  1.00  0.00    -0.347 OA
BRANCH  13  14
HETATM   14  C   UNL     1     -39.238 -49.742  13.922  1.00  0.00     0.102 A 
HETATM   15  C   UNL     1     -38.242 -50.722  14.102  1.00  0.00     0.101 A 
HETATM   16  C   UNL     1     -37.375 -51.015  13.033  1.00  0.00     0.039 A 
HETATM   17  C   UNL     1     -37.489 -50.364  11.803  1.00  0.00     0.003 A 
HETATM   18  C   UNL     1     -38.466 -49.392  11.632  1.00  0.00     0.003 A 
HETATM   19  C   UNL     1     -39.320 -49.082  12.684  1.00  0.00     0.039 A 
BRANCH  15  20
HETATM   20  O   UNL     1     -38.075 -51.308  15.328  1.00  0.00    -0.353 OA
HETATM   21  C   UNL     1     -37.334 -50.567  16.299  1.00  0.00     0.210 C 
ENDBRANCH  15  20
ENDBRANCH  13  14
ENDBRANCH  12  13
ENDBRANCH  11  12
ENDBRANCH   1  11
BRANCH   2  22
HETATM   22  C   UNL     1     -40.775 -52.937  12.556  1.00  0.00     0.102 C 
BRANCH  22  23
HETATM   23  C   UNL     1     -40.271 -54.152  13.346  1.00  0.00     0.171 C 
BRANCH  23  24
HETATM   24  O   UNL     1     -38.848 -54.229  13.334  1.00  0.00    -0.400 OA
HETATM   25  H   UNL     1     -38.576 -53.732  12.534  1.00  0.00     0.209 HD
ENDBRANCH  23  24
ENDBRANCH  22  23
ENDBRANCH   2  22
TORSDOF 8
ENDMDL
MODEL 5
REMARK VINA RESULT:      -6.0      2.448      6.275
REMARK  8 active torsions:
REMARK  status: ('A' for Active; 'I' for Inactive)
REMARK    1  A    between atoms: O_2  and  C_3 
REMARK    2  A    between atoms: C_8  and  O_9 
REMARK    3  A    between atoms: O_9  and  C_10 
REMARK    4  A    between atoms: C_10  and  C_11 
REMARK    5  A    between atoms: C_11  and  N_12 
REMARK    6  A    between atoms: C_13  and  C_14 
REMARK    7  A    between atoms: C_14  and  C_15 
REMARK    8  A    between atoms: C_15  and  O_16 
ROOT
HETATM    1  N   UNL     1     -42.404 -50.034  13.299  1.00  0.00    -0.333 N 
HETATM    2  C   UNL     1     -41.289 -50.694  12.788  1.00  0.00     0.086 A 
HETATM    3  N   UNL     1     -41.616 -51.891  12.343  1.00  0.00    -0.344 N 
ATOM      4  HN  UNL     1     -40.997 -52.571  11.902  1.00  0.00     0.167 HD
HETATM    5  C   UNL     1     -42.954 -52.034  12.590  1.00  0.00     0.060 A 
HETATM    6  C   UNL     1     -43.785 -53.134  12.321  1.00  0.00     0.032 A 
HETATM    7  C   UNL     1     -45.140 -53.067  12.653  1.00  0.00     0.002 A 
HETATM    8  C   UNL     1     -45.658 -51.924  13.249  1.00  0.00     0.002 A 
HETATM    9  C   UNL     1     -44.837 -50.829  13.536  1.00  0.00     0.032 A 
HETATM   10  C   UNL     1     -43.479 -50.895  13.193  1.00  0.00     0.062 A 
ENDROOT
BRANCH   1  11
HETATM   11  C   UNL     1     -42.377 -48.718  13.930  1.00  0.00     0.157 C 
BRANCH  11  12
HETATM   12  C   UNL     1     -42.746 -47.510  13.068  1.00  0.00     0.196 C 
BRANCH  12  13
HETATM   13  O   UNL     1     -42.413 -47.726  11.695  1.00  0.00    -0.347 OA
BRANCH  13  14
HETATM   14  C   UNL     1     -43.169 -47.179  10.689  1.00  0.00     0.102 A 
HETATM   15  C   UNL     1     -42.942 -46.023   9.916  1.00  0.00     0.101 A 
HETATM   16  C   UNL     1     -43.901 -45.645   8.959  1.00  0.00     0.039 A 
HETATM   17  C   UNL     1     -45.062 -46.395   8.756  1.00  0.00     0.003 A 
HETATM   18  C   UNL     1     -45.288 -47.527   9.526  1.00  0.00     0.003 A 
HETATM   19  C   UNL     1     -44.355 -47.905  10.485  1.00  0.00     0.039 A 
BRANCH  15  20
HETATM   20  O   UNL     1     -41.845 -45.242  10.164  1.00  0.00    -0.353 OA
HETATM   21  C   UNL     1     -41.976 -44.257  11.189  1.00  0.00     0.210 C 
ENDBRANCH  15  20
ENDBRANCH  13  14
ENDBRANCH  12  13
ENDBRANCH  11  12
ENDBRANCH   1  11
BRANCH   2  22
HETATM   22  C   UNL     1     -39.900 -50.121  12.729  1.00  0.00     0.102 C 
BRANCH  22  23
HETATM   23  C   UNL     1     -39.399 -49.930  11.292  1.00  0.00     0.171 C 
BRANCH  23  24
HETATM   24  O   UNL     1     -40.481 -49.880  10.364  1.00  0.00    -0.400 OA
HETATM   25  H   UNL     1     -41.046 -49.142  10.675  1.00  0.00     0.209 HD
ENDBRANCH  23  24
ENDBRANCH  22  23
ENDBRANCH   2  22
TORSDOF 8
ENDMDL
MODEL 6
REMARK VINA RESULT:      -5.9      3.682      6.447
REMARK  8 active torsions:
REMARK  status: ('A' for Active; 'I' for Inactive)
REMARK    1  A    between atoms: O_2  and  C_3 
REMARK    2  A    between atoms: C_8  and  O_9 
REMARK    3  A    between atoms: O_9  and  C_10 
REMARK    4  A    between atoms: C_10  and  C_11 
REMARK    5  A    between atoms: C_11  and  N_12 
REMARK    6  A    between atoms: C_13  and  C_14 
REMARK    7  A    between atoms: C_14  and  C_15 
REMARK    8  A    between atoms: C_15  and  O_16 
ROOT
HETATM    1  N   UNL     1     -41.277 -53.714  14.780  1.00  0.00    -0.333 N 
HETATM    2  C   UNL     1     -40.271 -52.989  14.145  1.00  0.00     0.086 A 
HETATM    3  N   UNL     1     -39.084 -53.480  14.436  1.00  0.00    -0.344 N 
ATOM      4  HN  UNL     1     -38.183 -53.151  14.089  1.00  0.00     0.167 HD
HETATM    5  C   UNL     1     -39.304 -54.520  15.297  1.00  0.00     0.060 A 
HETATM    6  C   UNL     1     -38.367 -55.362  15.916  1.00  0.00     0.032 A 
HETATM    7  C   UNL     1     -38.814 -56.378  16.766  1.00  0.00     0.002 A 
HETATM    8  C   UNL     1     -40.172 -56.547  16.997  1.00  0.00     0.002 A 
HETATM    9  C   UNL     1     -41.113 -55.704  16.399  1.00  0.00     0.032 A 
HETATM   10  C   UNL     1     -40.663 -54.691  15.540  1.00  0.00     0.062 A 
ENDROOT
BRANCH   1  11
HETATM   11  C   UNL     1     -42.699 -53.394  14.721  1.00  0.00     0.157 C 
BRANCH  11  12
HETATM   12  C   UNL     1     -43.556 -54.150  13.704  1.00  0.00     0.196 C 
BRANCH  12  13
HETATM   13  O   UNL     1     -44.850 -54.451  14.231  1.00  0.00    -0.347 OA
BRANCH  13  14
HETATM   14  C   UNL     1     -45.593 -53.491  14.871  1.00  0.00     0.102 A 
HETATM   15  C   UNL     1     -46.007 -53.418  16.215  1.00  0.00     0.101 A 
HETATM   16  C   UNL     1     -46.807 -52.335  16.624  1.00  0.00     0.039 A 
HETATM   17  C   UNL     1     -47.187 -51.333  15.729  1.00  0.00     0.003 A 
HETATM   18  C   UNL     1     -46.785 -51.411  14.403  1.00  0.00     0.003 A 
HETATM   19  C   UNL     1     -46.007 -52.484  13.982  1.00  0.00     0.039 A 
BRANCH  15  20
HETATM   20  O   UNL     1     -45.703 -54.437  17.078  1.00  0.00    -0.353 OA
HETATM   21  C   UNL     1     -44.528 -54.277  17.874  1.00  0.00     0.210 C 
ENDBRANCH  15  20
ENDBRANCH  13  14
ENDBRANCH  12  13
ENDBRANCH  11  12
ENDBRANCH   1  11
BRANCH   2  22
HETATM   22  C   UNL     1     -40.501 -51.817  13.231  1.00  0.00     0.102 C 
BRANCH  22  23
HETATM   23  C   UNL     1     -40.899 -52.242  11.811  1.00  0.00     0.171 C 
BRANCH  23  24
HETATM   24  O   UNL     1     -40.540 -53.597  11.552  1.00  0.00    -0.400 OA
HETATM   25  H   UNL     1     -41.352 -54.006  11.184  1.00  0.00     0.209 HD
ENDBRANCH  23  24
ENDBRANCH  22  23
ENDBRANCH   2  22
TORSDOF 8
ENDMDL
MODEL 7
REMARK VINA RESULT:      -5.9      2.579      4.409
REMARK  8 active torsions:
REMARK  status: ('A' for Active; 'I' for Inactive)
REMARK    1  A    between atoms: O_2  and  C_3 
REMARK    2  A    between atoms: C_8  and  O_9 
REMARK    3  A    between atoms: O_9  and  C_10 
REMARK    4  A    between atoms: C_10  and  C_11 
REMARK    5  A    between atoms: C_11  and  N_12 
REMARK    6  A    between atoms: C_13  and  C_14 
REMARK    7  A    between atoms: C_14  and  C_15 
REMARK    8  A    between atoms: C_15  and  O_16 
ROOT
HETATM    1  N   UNL     1     -41.575 -47.326  11.042  1.00  0.00    -0.333 N 
HETATM    2  C   UNL     1     -42.758 -46.736  10.603  1.00  0.00     0.086 A 
HETATM    3  N   UNL     1     -42.843 -45.489  11.021  1.00  0.00    -0.344 N 
ATOM      4  HN  UNL     1     -43.594 -44.827  10.825  1.00  0.00     0.167 HD
HETATM    5  C   UNL     1     -41.721 -45.263  11.770  1.00  0.00     0.060 A 
HETATM    6  C   UNL     1     -41.341 -44.097  12.453  1.00  0.00     0.032 A 
HETATM    7  C   UNL     1     -40.135 -44.079  13.160  1.00  0.00     0.002 A 
HETATM    8  C   UNL     1     -39.326 -45.207  13.190  1.00  0.00     0.002 A 
HETATM    9  C   UNL     1     -39.703 -46.379  12.527  1.00  0.00     0.032 A 
HETATM   10  C   UNL     1     -40.908 -46.391  11.810  1.00  0.00     0.062 A 
ENDROOT
BRANCH   1  11
HETATM   11  C   UNL     1     -41.201 -48.717  10.809  1.00  0.00     0.157 C 
BRANCH  11  12
HETATM   12  C   UNL     1     -41.499 -49.728  11.918  1.00  0.00     0.196 C 
BRANCH  12  13
HETATM   13  O   UNL     1     -41.052 -51.039  11.564  1.00  0.00    -0.347 OA
BRANCH  13  14
HETATM   14  C   UNL     1     -41.275 -52.109  12.393  1.00  0.00     0.102 A 
HETATM   15  C   UNL     1     -40.376 -52.814  13.217  1.00  0.00     0.101 A 
HETATM   16  C   UNL     1     -40.849 -53.916  13.953  1.00  0.00     0.039 A 
HETATM   17  C   UNL     1     -42.185 -54.316  13.888  1.00  0.00     0.003 A 
HETATM   18  C   UNL     1     -43.067 -53.626  13.068  1.00  0.00     0.003 A 
HETATM   19  C   UNL     1     -42.610 -52.543  12.324  1.00  0.00     0.039 A 
BRANCH  15  20
HETATM   20  O   UNL     1     -39.049 -52.475  13.225  1.00  0.00    -0.353 OA
HETATM   21  C   UNL     1     -38.650 -51.462  14.149  1.00  0.00     0.210 C 
ENDBRANCH  15  20
ENDBRANCH  13  14
ENDBRANCH  12  13
ENDBRANCH  11  12
ENDBRANCH   1  11
BRANCH   2  22
HETATM   22  C   UNL     1     -43.794 -47.414   9.749  1.00  0.00     0.102 C 
BRANCH  22  23
HETATM   23  C   UNL     1     -43.537 -47.229   8.248  1.00  0.00     0.171 C 
BRANCH  23  24
HETATM   24  O   UNL     1     -42.759 -46.063   7.991  1.00  0.00    -0.400 OA
HETATM   25  H   UNL     1     -42.221 -45.935   8.801  1.00  0.00     0.209 HD
ENDBRANCH  23  24
ENDBRANCH  22  23
ENDBRANCH   2  22
TORSDOF 8
ENDMDL
MODEL 8
REMARK VINA RESULT:      -5.9      2.550      5.833
REMARK  8 active torsions:
REMARK  status: ('A' for Active; 'I' for Inactive)
REMARK    1  A    between atoms: O_2  and  C_3 
REMARK    2  A    between atoms: C_8  and  O_9 
REMARK    3  A    between atoms: O_9  and  C_10 
REMARK    4  A    between atoms: C_10  and  C_11 
REMARK    5  A    between atoms: C_11  and  N_12 
REMARK    6  A    between atoms: C_13  and  C_14 
REMARK    7  A    between atoms: C_14  and  C_15 
REMARK    8  A    between atoms: C_15  and  O_16 
ROOT
HETATM    1  N   UNL     1     -43.207 -52.721  14.376  1.00  0.00    -0.333 N 
HETATM    2  C   UNL     1     -42.836 -53.452  13.250  1.00  0.00     0.086 A 
HETATM    3  N   UNL     1     -43.804 -53.461  12.357  1.00  0.00    -0.344 N 
ATOM      4  HN  UNL     1     -43.787 -53.904  11.438  1.00  0.00     0.167 HD
HETATM    5  C   UNL     1     -44.838 -52.756  12.911  1.00  0.00     0.060 A 
HETATM    6  C   UNL     1     -46.107 -52.487  12.373  1.00  0.00     0.032 A 
HETATM    7  C   UNL     1     -47.020 -51.733  13.115  1.00  0.00     0.002 A 
HETATM    8  C   UNL     1     -46.675 -51.259  14.373  1.00  0.00     0.002 A 
HETATM    9  C   UNL     1     -45.421 -51.534  14.926  1.00  0.00     0.032 A 
HETATM   10  C   UNL     1     -44.502 -52.284  14.176  1.00  0.00     0.062 A 
ENDROOT
BRANCH   1  11
HETATM   11  C   UNL     1     -42.392 -52.568  15.577  1.00  0.00     0.157 C 
BRANCH  11  12
HETATM   12  C   UNL     1     -41.412 -51.395  15.625  1.00  0.00     0.196 C 
BRANCH  12  13
HETATM   13  O   UNL     1     -41.559 -50.544  14.485  1.00  0.00    -0.347 OA
BRANCH  13  14
HETATM   14  C   UNL     1     -40.461 -50.047  13.829  1.00  0.00     0.102 A 
HETATM   15  C   UNL     1     -40.322 -49.637  12.489  1.00  0.00     0.101 A 
HETATM   16  C   UNL     1     -39.063 -49.193  12.040  1.00  0.00     0.039 A 
HETATM   17  C   UNL     1     -37.961 -49.145  12.896  1.00  0.00     0.003 A 
HETATM   18  C   UNL     1     -38.099 -49.559  14.214  1.00  0.00     0.003 A 
HETATM   19  C   UNL     1     -39.333 -50.013  14.667  1.00  0.00     0.039 A 
BRANCH  15  20
HETATM   20  O   UNL     1     -41.378 -49.755  11.625  1.00  0.00    -0.353 OA
HETATM   21  C   UNL     1     -42.104 -48.562  11.331  1.00  0.00     0.210 C 
ENDBRANCH  15  20
ENDBRANCH  13  14
ENDBRANCH  12  13
ENDBRANCH  11  12
ENDBRANCH   1  11
BRANCH   2  22
HETATM   22  C   UNL     1     -41.505 -54.125  13.061  1.00  0.00     0.102 C 
BRANCH  22  23
HETATM   23  C   UNL     1     -40.528 -53.282  12.231  1.00  0.00     0.171 C 
BRANCH  23  24
HETATM   24  O   UNL     1     -41.175 -52.685  11.110  1.00  0.00    -0.400 OA
HETATM   25  H   UNL     1     -41.002 -51.724  11.202  1.00  0.00     0.209 HD
ENDBRANCH  23  24
ENDBRANCH  22  23
ENDBRANCH   2  22
TORSDOF 8
ENDMDL
MODEL 9
REMARK VINA RESULT:      -5.9      1.258      2.209
REMARK  8 active torsions:
REMARK  status: ('A' for Active; 'I' for Inactive)
REMARK    1  A    between atoms: O_2  and  C_3 
REMARK    2  A    between atoms: C_8  and  O_9 
REMARK    3  A    between atoms: O_9  and  C_10 
REMARK    4  A    between atoms: C_10  and  C_11 
REMARK    5  A    between atoms: C_11  and  N_12 
REMARK    6  A    between atoms: C_13  and  C_14 
REMARK    7  A    between atoms: C_14  and  C_15 
REMARK    8  A    between atoms: C_15  and  O_16 
ROOT
HETATM    1  N   UNL     1     -40.849 -49.773  11.899  1.00  0.00    -0.333 N 
HETATM    2  C   UNL     1     -39.511 -49.422  12.054  1.00  0.00     0.086 A 
HETATM    3  N   UNL     1     -39.314 -48.163  11.719  1.00  0.00    -0.344 N 
ATOM      4  HN  UNL     1     -38.435 -47.648  11.758  1.00  0.00     0.167 HD
HETATM    5  C   UNL     1     -40.529 -47.687  11.307  1.00  0.00     0.060 A 
HETATM    6  C   UNL     1     -40.857 -46.406  10.833  1.00  0.00     0.032 A 
HETATM    7  C   UNL     1     -42.177 -46.127  10.468  1.00  0.00     0.002 A 
HETATM    8  C   UNL     1     -43.152 -47.110  10.571  1.00  0.00     0.002 A 
HETATM    9  C   UNL     1     -42.834 -48.393  11.026  1.00  0.00     0.032 A 
HETATM   10  C   UNL     1     -41.511 -48.668  11.400  1.00  0.00     0.062 A 
ENDROOT
BRANCH   1  11
HETATM   11  C   UNL     1     -41.391 -51.110  12.121  1.00  0.00     0.157 C 
BRANCH  11  12
HETATM   12  C   UNL     1     -42.491 -51.265  13.172  1.00  0.00     0.196 C 
BRANCH  12  13
HETATM   13  O   UNL     1     -43.535 -52.127  12.713  1.00  0.00    -0.347 OA
BRANCH  13  14
HETATM   14  C   UNL     1     -44.614 -52.416  13.510  1.00  0.00     0.102 A 
HETATM   15  C   UNL     1     -44.955 -53.616  14.166  1.00  0.00     0.101 A 
HETATM   16  C   UNL     1     -46.152 -53.671  14.903  1.00  0.00     0.039 A 
HETATM   17  C   UNL     1     -46.998 -52.565  15.003  1.00  0.00     0.003 A 
HETATM   18  C   UNL     1     -46.664 -51.388  14.348  1.00  0.00     0.003 A 
HETATM   19  C   UNL     1     -45.492 -51.322  13.604  1.00  0.00     0.039 A 
BRANCH  15  20
HETATM   20  O   UNL     1     -44.170 -54.726  14.008  1.00  0.00    -0.353 OA
HETATM   21  C   UNL     1     -43.119 -54.911  14.957  1.00  0.00     0.210 C 
ENDBRANCH  15  20
ENDBRANCH  13  14
ENDBRANCH  12  13
ENDBRANCH  11  12
ENDBRANCH   1  11
BRANCH   2  22
HETATM   22  C   UNL     1     -38.431 -50.341  12.557  1.00  0.00     0.102 C 
BRANCH  22  23
HETATM   23  C   UNL     1     -37.284 -50.511  11.553  1.00  0.00     0.171 C 
BRANCH  23  24
HETATM   24  O   UNL     1     -37.662 -50.077  10.249  1.00  0.00    -0.400 OA
HETATM   25  H   UNL     1     -37.625 -50.884   9.694  1.00  0.00     0.209 HD
ENDBRANCH  23  24
ENDBRANCH  22  23
ENDBRANCH   2  22
TORSDOF 8
ENDMDL
