MODEL 1
REMARK VINA RESULT:      -7.3      0.000      0.000
REMARK  4 active torsions:
REMARK  status: ('A' for Active; 'I' for Inactive)
REMARK    1  A    between atoms: N_2  and  C_4 
REMARK    2  A    between atoms: C_11  and  N_12 
REMARK       I    between atoms: N_12  and  C_13 
REMARK       I    between atoms: C_13  and  N_15 
REMARK    3  A    between atoms: N_15  and  C_16 
REMARK    4  A    between atoms: C_20  and  C_22 
ROOT
HETATM    1  N   UNL     1     -41.650 -49.455  10.950  1.00  0.00    -0.304 N 
HETATM    2  C   UNL     1     -41.908 -49.947  12.211  1.00  0.00     0.321 C 
HETATM    3  O   UNL     1     -41.806 -49.308  13.248  1.00  0.00    -0.247 OA
HETATM    4  N   UNL     1     -42.348 -51.264  12.184  1.00  0.00    -0.338 N 
HETATM    5  H   UNL     1     -42.025 -49.961  10.165  1.00  0.00     0.171 HD
HETATM    6  H   UNL     1     -41.885 -51.813  11.463  1.00  0.00     0.164 HD
ENDROOT
BRANCH   1   7
HETATM    7  C   UNL     1     -41.440 -48.064  10.742  1.00  0.00     0.096 A 
HETATM    8  C   UNL     1     -42.286 -47.264   9.954  1.00  0.00     0.132 A 
HETATM    9  N   UNL     1     -41.984 -45.957   9.763  1.00  0.00    -0.337 N 
HETATM   10  C   UNL     1     -40.886 -45.454  10.353  1.00  0.00     0.182 A 
ATOM     11  HN  UNL     1     -42.579 -45.366   9.182  1.00  0.00     0.168 HD
HETATM   12  N   UNL     1     -40.018 -46.134  11.104  1.00  0.00    -0.360 N 
HETATM   13  C   UNL     1     -40.324 -47.433  11.282  1.00  0.00     0.122 A 
ATOM     14  HN  UNL     1     -39.188 -45.704  11.511  1.00  0.00     0.166 HD
BRANCH   8  15
HETATM   15  N   UNL     1     -43.460 -47.747   9.337  1.00  0.00    -0.374 N 
HETATM   16  C   UNL     1     -44.754 -47.402   9.920  1.00  0.00     0.150 C 
HETATM   17  C   UNL     1     -43.408 -47.731   7.870  1.00  0.00     0.150 C 
ENDBRANCH   8  15
ENDBRANCH   1   7
BRANCH   4  18
HETATM   18  C   UNL     1     -42.616 -51.949  13.454  1.00  0.00     0.086 C 
HETATM   19  C   UNL     1     -42.495 -53.477  13.328  1.00  0.00     0.025 C 
HETATM   20  C   UNL     1     -43.676 -54.146  12.639  1.00  0.00     0.003 C 
HETATM   21  C   UNL     1     -45.026 -53.716  13.214  1.00  0.00     0.014 C 
HETATM   22  C   UNL     1     -45.167 -52.192  13.263  1.00  0.00     0.095 C 
HETATM   23  C   UNL     1     -43.995 -51.587  14.046  1.00  0.00     0.038 C 
BRANCH  22  24
HETATM   24  C   UNL     1     -46.515 -51.758  13.853  1.00  0.00     0.391 C 
HETATM   25  F   UNL     1     -47.228 -52.806  14.316  1.00  0.00    -0.171 F 
HETATM   26  F   UNL     1     -46.375 -50.887  14.879  1.00  0.00    -0.171 F 
HETATM   27  F   UNL     1     -47.265 -51.152  12.906  1.00  0.00    -0.171 F 
ENDBRANCH  22  24
ENDBRANCH   4  18
TORSDOF 4
ENDMDL
MODEL 2
REMARK VINA RESULT:      -7.0      1.633      3.026
REMARK  4 active torsions:
REMARK  status: ('A' for Active; 'I' for Inactive)
REMARK    1  A    between atoms: N_2  and  C_4 
REMARK    2  A    between atoms: C_11  and  N_12 
REMARK       I    between atoms: N_12  and  C_13 
REMARK       I    between atoms: C_13  and  N_15 
REMARK    3  A    between atoms: N_15  and  C_16 
REMARK    4  A    between atoms: C_20  and  C_22 
ROOT
HETATM    1  N   UNL     1     -42.301 -48.539  10.373  1.00  0.00    -0.304 N 
HETATM    2  C   UNL     1     -42.466 -48.998  11.662  1.00  0.00     0.321 C 
HETATM    3  O   UNL     1     -43.063 -48.404  12.547  1.00  0.00    -0.247 OA
HETATM    4  N   UNL     1     -41.908 -50.256  11.849  1.00  0.00    -0.338 N 
HETATM    5  H   UNL     1     -42.047 -49.209   9.667  1.00  0.00     0.171 HD
HETATM    6  H   UNL     1     -41.043 -50.378  11.328  1.00  0.00     0.164 HD
ENDROOT
BRANCH   1   7
HETATM    7  C   UNL     1     -43.015 -47.399   9.912  1.00  0.00     0.096 A 
HETATM    8  C   UNL     1     -42.676 -46.081  10.261  1.00  0.00     0.132 A 
HETATM    9  N   UNL     1     -43.442 -45.053   9.821  1.00  0.00    -0.337 N 
HETATM   10  C   UNL     1     -44.503 -45.325   9.042  1.00  0.00     0.182 A 
ATOM     11  HN  UNL     1     -43.218 -44.091  10.078  1.00  0.00     0.168 HD
HETATM   12  N   UNL     1     -44.911 -46.539   8.670  1.00  0.00    -0.360 N 
HETATM   13  C   UNL     1     -44.147 -47.553   9.117  1.00  0.00     0.122 A 
ATOM     14  HN  UNL     1     -45.739 -46.687   8.092  1.00  0.00     0.166 HD
BRANCH   8  15
HETATM   15  N   UNL     1     -41.558 -45.750  11.057  1.00  0.00    -0.374 N 
HETATM   16  C   UNL     1     -40.325 -45.326  10.398  1.00  0.00     0.150 C 
HETATM   17  C   UNL     1     -41.898 -45.018  12.283  1.00  0.00     0.150 C 
ENDBRANCH   8  15
ENDBRANCH   1   7
BRANCH   4  18
HETATM   18  C   UNL     1     -41.955 -50.862  13.185  1.00  0.00     0.086 C 
HETATM   19  C   UNL     1     -40.818 -51.872  13.407  1.00  0.00     0.025 C 
HETATM   20  C   UNL     1     -41.025 -53.213  12.717  1.00  0.00     0.003 C 
HETATM   21  C   UNL     1     -42.402 -53.819  12.990  1.00  0.00     0.014 C 
HETATM   22  C   UNL     1     -43.532 -52.830  12.693  1.00  0.00     0.095 C 
HETATM   23  C   UNL     1     -43.311 -51.536  13.485  1.00  0.00     0.038 C 
BRANCH  22  24
HETATM   24  C   UNL     1     -44.913 -53.431  12.980  1.00  0.00     0.391 C 
HETATM   25  F   UNL     1     -45.336 -53.158  14.232  1.00  0.00    -0.171 F 
HETATM   26  F   UNL     1     -45.863 -52.977  12.130  1.00  0.00    -0.171 F 
HETATM   27  F   UNL     1     -44.870 -54.777  12.858  1.00  0.00    -0.171 F 
ENDBRANCH  22  24
ENDBRANCH   4  18
TORSDOF 4
ENDMDL
MODEL 3
REMARK VINA RESULT:      -6.8      1.409      2.920
REMARK  4 active torsions:
REMARK  status: ('A' for Active; 'I' for Inactive)
REMARK    1  A    between atoms: N_2  and  C_4 
REMARK    2  A    between atoms: C_11  and  N_12 
REMARK       I    between atoms: N_12  and  C_13 
REMARK       I    between atoms: C_13  and  N_15 
REMARK    3  A    between atoms: N_15  and  C_16 
REMARK    4  A    between atoms: C_20  and  C_22 
ROOT
HETATM    1  N   UNL     1     -41.459 -50.343  11.403  1.00  0.00    -0.304 N 
HETATM    2  C   UNL     1     -41.806 -50.735  12.678  1.00  0.00     0.321 C 
HETATM    3  O   UNL     1     -41.664 -50.055  13.684  1.00  0.00    -0.247 OA
HETATM    4  N   UNL     1     -42.387 -51.996  12.702  1.00  0.00    -0.338 N 
HETATM    5  H   UNL     1     -41.865 -50.847  10.632  1.00  0.00     0.171 HD
HETATM    6  H   UNL     1     -41.966 -52.630  12.027  1.00  0.00     0.164 HD
ENDROOT
BRANCH   1   7
HETATM    7  C   UNL     1     -41.091 -48.997  11.132  1.00  0.00     0.096 A 
HETATM    8  C   UNL     1     -39.856 -48.442  11.509  1.00  0.00     0.132 A 
HETATM    9  N   UNL     1     -39.606 -47.133  11.261  1.00  0.00    -0.337 N 
HETATM   10  C   UNL     1     -40.547 -46.402  10.639  1.00  0.00     0.182 A 
ATOM     11  HN  UNL     1     -38.720 -46.711  11.541  1.00  0.00     0.168 HD
HETATM   12  N   UNL     1     -41.749 -46.833  10.257  1.00  0.00    -0.360 N 
HETATM   13  C   UNL     1     -41.990 -48.133  10.514  1.00  0.00     0.122 A 
ATOM     14  HN  UNL     1     -42.434 -46.226   9.806  1.00  0.00     0.166 HD
BRANCH   8  15
HETATM   15  N   UNL     1     -38.833 -49.180  12.142  1.00  0.00    -0.374 N 
HETATM   16  C   UNL     1     -37.787 -49.783  11.319  1.00  0.00     0.150 C 
HETATM   17  C   UNL     1     -38.375 -48.594  13.408  1.00  0.00     0.150 C 
ENDBRANCH   8  15
ENDBRANCH   1   7
BRANCH   4  18
HETATM   18  C   UNL     1     -42.765 -52.579  13.996  1.00  0.00     0.086 C 
HETATM   19  C   UNL     1     -42.901 -54.108  13.928  1.00  0.00     0.025 C 
HETATM   20  C   UNL     1     -44.177 -54.597  13.258  1.00  0.00     0.003 C 
HETATM   21  C   UNL     1     -45.436 -53.926  13.808  1.00  0.00     0.014 C 
HETATM   22  C   UNL     1     -45.321 -52.400  13.799  1.00  0.00     0.095 C 
HETATM   23  C   UNL     1     -44.064 -51.969  14.565  1.00  0.00     0.038 C 
BRANCH  22  24
HETATM   24  C   UNL     1     -46.577 -51.725  14.364  1.00  0.00     0.391 C 
HETATM   25  F   UNL     1     -46.283 -50.841  15.341  1.00  0.00    -0.171 F 
HETATM   26  F   UNL     1     -47.277 -51.056  13.419  1.00  0.00    -0.171 F 
HETATM   27  F   UNL     1     -47.402 -52.652  14.901  1.00  0.00    -0.171 F 
ENDBRANCH  22  24
ENDBRANCH   4  18
TORSDOF 4
ENDMDL
MODEL 4
REMARK VINA RESULT:      -6.5      1.996      2.796
REMARK  4 active torsions:
REMARK  status: ('A' for Active; 'I' for Inactive)
REMARK    1  A    between atoms: N_2  and  C_4 
REMARK    2  A    between atoms: C_11  and  N_12 
REMARK       I    between atoms: N_12  and  C_13 
REMARK       I    between atoms: C_13  and  N_15 
REMARK    3  A    between atoms: N_15  and  C_16 
REMARK    4  A    between atoms: C_20  and  C_22 
ROOT
HETATM    1  N   UNL     1     -41.127 -51.818  12.278  1.00  0.00    -0.304 N 
HETATM    2  C   UNL     1     -41.594 -52.159  13.529  1.00  0.00     0.321 C 
HETATM    3  O   UNL     1     -41.138 -51.744  14.584  1.00  0.00    -0.247 OA
HETATM    4  N   UNL     1     -42.690 -53.009  13.469  1.00  0.00    -0.338 N 
HETATM    5  H   UNL     1     -41.733 -51.985  11.491  1.00  0.00     0.171 HD
HETATM    6  H   UNL     1     -42.620 -53.678  12.706  1.00  0.00     0.164 HD
ENDROOT
BRANCH   1   7
HETATM    7  C   UNL     1     -40.185 -50.765  12.117  1.00  0.00     0.096 A 
HETATM    8  C   UNL     1     -40.538 -49.469  11.701  1.00  0.00     0.132 A 
HETATM    9  N   UNL     1     -39.571 -48.537  11.520  1.00  0.00    -0.337 N 
HETATM   10  C   UNL     1     -38.293 -48.876  11.764  1.00  0.00     0.182 A 
ATOM     11  HN  UNL     1     -39.808 -47.596  11.204  1.00  0.00     0.168 HD
HETATM   12  N   UNL     1     -37.860 -50.078  12.146  1.00  0.00    -0.360 N 
HETATM   13  C   UNL     1     -38.828 -50.998  12.317  1.00  0.00     0.122 A 
ATOM     14  HN  UNL     1     -36.873 -50.284  12.297  1.00  0.00     0.166 HD
BRANCH   8  15
HETATM   15  N   UNL     1     -41.868 -49.066  11.457  1.00  0.00    -0.374 N 
HETATM   16  C   UNL     1     -42.728 -48.750  12.595  1.00  0.00     0.150 C 
HETATM   17  C   UNL     1     -42.017 -48.182  10.294  1.00  0.00     0.150 C 
ENDBRANCH   8  15
ENDBRANCH   1   7
BRANCH   4  18
HETATM   18  C   UNL     1     -43.272 -53.506  14.721  1.00  0.00     0.086 C 
HETATM   19  C   UNL     1     -43.824 -54.934  14.581  1.00  0.00     0.025 C 
HETATM   20  C   UNL     1     -45.155 -55.024  13.847  1.00  0.00     0.003 C 
HETATM   21  C   UNL     1     -46.201 -54.046  14.385  1.00  0.00     0.014 C 
HETATM   22  C   UNL     1     -45.667 -52.613  14.448  1.00  0.00     0.095 C 
HETATM   23  C   UNL     1     -44.375 -52.578  15.274  1.00  0.00     0.038 C 
BRANCH  22  24
HETATM   24  C   UNL     1     -46.709 -51.634  15.001  1.00  0.00     0.391 C 
HETATM   25  F   UNL     1     -47.691 -52.266  15.679  1.00  0.00    -0.171 F 
HETATM   26  F   UNL     1     -46.169 -50.721  15.841  1.00  0.00    -0.171 F 
HETATM   27  F   UNL     1     -47.295 -50.957  13.989  1.00  0.00    -0.171 F 
ENDBRANCH  22  24
ENDBRANCH   4  18
TORSDOF 4
ENDMDL
MODEL 5
REMARK VINA RESULT:      -6.4      3.316      4.799
REMARK  4 active torsions:
REMARK  status: ('A' for Active; 'I' for Inactive)
REMARK    1  A    between atoms: N_2  and  C_4 
REMARK    2  A    between atoms: C_11  and  N_12 
REMARK       I    between atoms: N_12  and  C_13 
REMARK       I    between atoms: C_13  and  N_15 
REMARK    3  A    between atoms: N_15  and  C_16 
REMARK    4  A    between atoms: C_20  and  C_22 
ROOT
HETATM    1  N   UNL     1     -41.234 -50.491  13.178  1.00  0.00    -0.304 N 
HETATM    2  C   UNL     1     -42.033 -51.614  13.183  1.00  0.00     0.321 C 
HETATM    3  O   UNL     1     -41.768 -52.666  12.621  1.00  0.00    -0.247 OA
HETATM    4  N   UNL     1     -43.180 -51.441  13.946  1.00  0.00    -0.338 N 
HETATM    5  H   UNL     1     -41.403 -49.794  13.884  1.00  0.00     0.171 HD
HETATM    6  H   UNL     1     -43.556 -50.499  13.873  1.00  0.00     0.164 HD
ENDROOT
BRANCH   1   7
HETATM    7  C   UNL     1     -39.905 -50.548  12.675  1.00  0.00     0.096 A 
HETATM    8  C   UNL     1     -38.825 -51.077  13.402  1.00  0.00     0.132 A 
HETATM    9  N   UNL     1     -37.579 -51.045  12.870  1.00  0.00    -0.337 N 
HETATM   10  C   UNL     1     -37.414 -50.520  11.644  1.00  0.00     0.182 A 
ATOM     11  HN  UNL     1     -36.782 -51.411  13.391  1.00  0.00     0.168 HD
HETATM   12  N   UNL     1     -38.370 -49.983  10.885  1.00  0.00    -0.360 N 
HETATM   13  C   UNL     1     -39.603 -50.015  11.426  1.00  0.00     0.122 A 
ATOM     14  HN  UNL     1     -38.183 -49.580   9.967  1.00  0.00     0.166 HD
BRANCH   8  15
HETATM   15  N   UNL     1     -38.960 -51.658  14.682  1.00  0.00    -0.374 N 
HETATM   16  C   UNL     1     -39.048 -53.113  14.789  1.00  0.00     0.150 C 
HETATM   17  C   UNL     1     -38.156 -51.000  15.719  1.00  0.00     0.150 C 
ENDBRANCH   8  15
ENDBRANCH   1   7
BRANCH   4  18
HETATM   18  C   UNL     1     -44.162 -52.531  14.009  1.00  0.00     0.086 C 
HETATM   19  C   UNL     1     -45.095 -52.546  12.787  1.00  0.00     0.025 C 
HETATM   20  C   UNL     1     -46.179 -51.478  12.811  1.00  0.00     0.003 C 
HETATM   21  C   UNL     1     -46.950 -51.437  14.130  1.00  0.00     0.014 C 
HETATM   22  C   UNL     1     -46.014 -51.345  15.338  1.00  0.00     0.095 C 
HETATM   23  C   UNL     1     -45.005 -52.498  15.302  1.00  0.00     0.038 C 
BRANCH  22  24
HETATM   24  C   UNL     1     -46.785 -51.319  16.663  1.00  0.00     0.391 C 
HETATM   25  F   UNL     1     -46.573 -52.433  17.396  1.00  0.00    -0.171 F 
HETATM   26  F   UNL     1     -46.450 -50.262  17.438  1.00  0.00    -0.171 F 
HETATM   27  F   UNL     1     -48.114 -51.244  16.427  1.00  0.00    -0.171 F 
ENDBRANCH  22  24
ENDBRANCH   4  18
TORSDOF 4
ENDMDL
MODEL 6
REMARK VINA RESULT:      -6.1      2.133      3.014
REMARK  4 active torsions:
REMARK  status: ('A' for Active; 'I' for Inactive)
REMARK    1  A    between atoms: N_2  and  C_4 
REMARK    2  A    between atoms: C_11  and  N_12 
REMARK       I    between atoms: N_12  and  C_13 
REMARK       I    between atoms: C_13  and  N_15 
REMARK    3  A    between atoms: N_15  and  C_16 
REMARK    4  A    between atoms: C_20  and  C_22 
ROOT
HETATM    1  N   UNL     1     -43.049 -48.576  11.870  1.00  0.00    -0.304 N 
HETATM    2  C   UNL     1     -42.884 -49.721  12.618  1.00  0.00     0.321 C 
HETATM    3  O   UNL     1     -41.830 -50.085  13.118  1.00  0.00    -0.247 OA
HETATM    4  N   UNL     1     -44.073 -50.416  12.789  1.00  0.00    -0.338 N 
HETATM    5  H   UNL     1     -43.986 -48.229  11.746  1.00  0.00     0.171 HD
HETATM    6  H   UNL     1     -44.666 -50.379  11.962  1.00  0.00     0.164 HD
ENDROOT
BRANCH   1   7
HETATM    7  C   UNL     1     -42.018 -47.600  11.798  1.00  0.00     0.096 A 
HETATM    8  C   UNL     1     -41.773 -46.657  12.812  1.00  0.00     0.132 A 
HETATM    9  N   UNL     1     -40.804 -45.726  12.641  1.00  0.00    -0.337 N 
HETATM   10  C   UNL     1     -40.085 -45.742  11.505  1.00  0.00     0.182 A 
ATOM     11  HN  UNL     1     -40.623 -45.026  13.361  1.00  0.00     0.168 HD
HETATM   12  N   UNL     1     -40.251 -46.583  10.484  1.00  0.00    -0.360 N 
HETATM   13  C   UNL     1     -41.221 -47.500  10.662  1.00  0.00     0.122 A 
ATOM     14  HN  UNL     1     -39.688 -46.535   9.635  1.00  0.00     0.166 HD
BRANCH   8  15
HETATM   15  N   UNL     1     -42.488 -46.621  14.029  1.00  0.00    -0.374 N 
HETATM   16  C   UNL     1     -41.859 -47.161  15.231  1.00  0.00     0.150 C 
HETATM   17  C   UNL     1     -43.264 -45.390  14.224  1.00  0.00     0.150 C 
ENDBRANCH   8  15
ENDBRANCH   1   7
BRANCH   4  18
HETATM   18  C   UNL     1     -44.054 -51.688  13.521  1.00  0.00     0.086 C 
HETATM   19  C   UNL     1     -44.757 -52.816  12.749  1.00  0.00     0.025 C 
HETATM   20  C   UNL     1     -46.277 -52.744  12.777  1.00  0.00     0.003 C 
HETATM   21  C   UNL     1     -46.841 -52.567  14.188  1.00  0.00     0.014 C 
HETATM   22  C   UNL     1     -46.188 -51.392  14.921  1.00  0.00     0.095 C 
HETATM   23  C   UNL     1     -44.665 -51.570  14.934  1.00  0.00     0.038 C 
BRANCH  22  24
HETATM   24  C   UNL     1     -46.742 -51.222  16.341  1.00  0.00     0.391 C 
HETATM   25  F   UNL     1     -48.060 -50.932  16.342  1.00  0.00    -0.171 F 
HETATM   26  F   UNL     1     -46.578 -52.332  17.098  1.00  0.00    -0.171 F 
HETATM   27  F   UNL     1     -46.109 -50.206  16.969  1.00  0.00    -0.171 F 
ENDBRANCH  22  24
ENDBRANCH   4  18
TORSDOF 4
ENDMDL
MODEL 7
REMARK VINA RESULT:      -6.0      3.716      7.156
REMARK  4 active torsions:
REMARK  status: ('A' for Active; 'I' for Inactive)
REMARK    1  A    between atoms: N_2  and  C_4 
REMARK    2  A    between atoms: C_11  and  N_12 
REMARK       I    between atoms: N_12  and  C_13 
REMARK       I    between atoms: C_13  and  N_15 
REMARK    3  A    between atoms: N_15  and  C_16 
REMARK    4  A    between atoms: C_20  and  C_22 
ROOT
HETATM    1  N   UNL     1     -43.156 -51.664  13.644  1.00  0.00    -0.304 N 
HETATM    2  C   UNL     1     -42.290 -51.455  12.592  1.00  0.00     0.321 C 
HETATM    3  O   UNL     1     -41.945 -52.308  11.788  1.00  0.00    -0.247 OA
HETATM    4  N   UNL     1     -41.870 -50.134  12.509  1.00  0.00    -0.338 N 
HETATM    5  H   UNL     1     -43.584 -50.856  14.065  1.00  0.00     0.171 HD
HETATM    6  H   UNL     1     -41.736 -49.712  13.424  1.00  0.00     0.164 HD
ENDROOT
BRANCH   1   7
HETATM    7  C   UNL     1     -43.894 -52.875  13.748  1.00  0.00     0.096 A 
HETATM    8  C   UNL     1     -45.282 -52.954  13.545  1.00  0.00     0.132 A 
HETATM    9  N   UNL     1     -45.918 -54.139  13.716  1.00  0.00    -0.337 N 
HETATM   10  C   UNL     1     -45.193 -55.217  14.059  1.00  0.00     0.182 A 
ATOM     11  HN  UNL     1     -46.928 -54.210  13.587  1.00  0.00     0.168 HD
HETATM   12  N   UNL     1     -43.879 -55.239  14.286  1.00  0.00    -0.360 N 
HETATM   13  C   UNL     1     -43.259 -54.056  14.120  1.00  0.00     0.122 A 
ATOM     14  HN  UNL     1     -43.383 -56.086  14.565  1.00  0.00     0.166 HD
BRANCH   8  15
HETATM   15  N   UNL     1     -46.076 -51.851  13.162  1.00  0.00    -0.374 N 
HETATM   16  C   UNL     1     -46.758 -51.890  11.870  1.00  0.00     0.150 C 
HETATM   17  C   UNL     1     -46.851 -51.266  14.263  1.00  0.00     0.150 C 
ENDBRANCH   8  15
ENDBRANCH   1   7
BRANCH   4  18
HETATM   18  C   UNL     1     -40.903 -49.761  11.470  1.00  0.00     0.086 C 
HETATM   19  C   UNL     1     -39.504 -49.491  12.047  1.00  0.00     0.025 C 
HETATM   20  C   UNL     1     -39.364 -48.150  12.755  1.00  0.00     0.003 C 
HETATM   21  C   UNL     1     -39.886 -46.978  11.923  1.00  0.00     0.014 C 
HETATM   22  C   UNL     1     -41.310 -47.224  11.417  1.00  0.00     0.095 C 
HETATM   23  C   UNL     1     -41.362 -48.544  10.639  1.00  0.00     0.038 C 
BRANCH  22  24
HETATM   24  C   UNL     1     -41.829 -46.056  10.570  1.00  0.00     0.391 C 
HETATM   25  F   UNL     1     -42.679 -45.267  11.261  1.00  0.00    -0.171 F 
HETATM   26  F   UNL     1     -40.832 -45.264  10.112  1.00  0.00    -0.171 F 
HETATM   27  F   UNL     1     -42.502 -46.523   9.495  1.00  0.00    -0.171 F 
ENDBRANCH  22  24
ENDBRANCH   4  18
TORSDOF 4
ENDMDL
MODEL 8
REMARK VINA RESULT:      -6.0      2.873      6.679
REMARK  4 active torsions:
REMARK  status: ('A' for Active; 'I' for Inactive)
REMARK    1  A    between atoms: N_2  and  C_4 
REMARK    2  A    between atoms: C_11  and  N_12 
REMARK       I    between atoms: N_12  and  C_13 
REMARK       I    between atoms: C_13  and  N_15 
REMARK    3  A    between atoms: N_15  and  C_16 
REMARK    4  A    between atoms: C_20  and  C_22 
ROOT
HETATM    1  N   UNL     1     -41.351 -50.368  13.466  1.00  0.00    -0.304 N 
HETATM    2  C   UNL     1     -41.028 -49.913  12.206  1.00  0.00     0.321 C 
HETATM    3  O   UNL     1     -40.417 -50.554  11.364  1.00  0.00    -0.247 OA
HETATM    4  N   UNL     1     -41.517 -48.636  11.965  1.00  0.00    -0.338 N 
HETATM    5  H   UNL     1     -42.080 -49.885  13.966  1.00  0.00     0.171 HD
HETATM    6  H   UNL     1     -41.477 -48.043  12.791  1.00  0.00     0.164 HD
ENDROOT
BRANCH   1   7
HETATM    7  C   UNL     1     -41.170 -51.735  13.813  1.00  0.00     0.096 A 
HETATM    8  C   UNL     1     -42.210 -52.680  13.800  1.00  0.00     0.132 A 
HETATM    9  N   UNL     1     -41.964 -53.953  14.197  1.00  0.00    -0.337 N 
HETATM   10  C   UNL     1     -40.717 -54.281  14.576  1.00  0.00     0.182 A 
ATOM     11  HN  UNL     1     -42.711 -54.647  14.207  1.00  0.00     0.168 HD
HETATM   12  N   UNL     1     -39.673 -53.455  14.636  1.00  0.00    -0.360 N 
HETATM   13  C   UNL     1     -39.929 -52.192  14.245  1.00  0.00     0.122 A 
ATOM     14  HN  UNL     1     -38.751 -53.756  14.952  1.00  0.00     0.166 HD
BRANCH   8  15
HETATM   15  N   UNL     1     -43.527 -52.382  13.386  1.00  0.00    -0.374 N 
HETATM   16  C   UNL     1     -44.162 -53.239  12.388  1.00  0.00     0.150 C 
HETATM   17  C   UNL     1     -44.403 -51.931  14.474  1.00  0.00     0.150 C 
ENDBRANCH   8  15
ENDBRANCH   1   7
BRANCH   4  18
HETATM   18  C   UNL     1     -41.212 -47.989  10.684  1.00  0.00     0.086 C 
HETATM   19  C   UNL     1     -40.677 -46.559  10.865  1.00  0.00     0.025 C 
HETATM   20  C   UNL     1     -41.744 -45.528  11.209  1.00  0.00     0.003 C 
HETATM   21  C   UNL     1     -42.951 -45.582  10.273  1.00  0.00     0.014 C 
HETATM   22  C   UNL     1     -43.524 -46.997  10.158  1.00  0.00     0.095 C 
HETATM   23  C   UNL     1     -42.421 -47.970   9.724  1.00  0.00     0.038 C 
BRANCH  22  24
HETATM   24  C   UNL     1     -44.726 -47.056   9.208  1.00  0.00     0.391 C 
HETATM   25  F   UNL     1     -45.812 -47.601   9.796  1.00  0.00    -0.171 F 
HETATM   26  F   UNL     1     -45.088 -45.835   8.754  1.00  0.00    -0.171 F 
HETATM   27  F   UNL     1     -44.431 -47.819   8.131  1.00  0.00    -0.171 F 
ENDBRANCH  22  24
ENDBRANCH   4  18
TORSDOF 4
ENDMDL
MODEL 9
REMARK VINA RESULT:      -5.9      3.378      7.341
REMARK  4 active torsions:
REMARK  status: ('A' for Active; 'I' for Inactive)
REMARK    1  A    between atoms: N_2  and  C_4 
REMARK    2  A    between atoms: C_11  and  N_12 
REMARK       I    between atoms: N_12  and  C_13 
REMARK       I    between atoms: C_13  and  N_15 
REMARK    3  A    between atoms: N_15  and  C_16 
REMARK    4  A    between atoms: C_20  and  C_22 
ROOT
HETATM    1  N   UNL     1     -43.973 -50.621  13.777  1.00  0.00    -0.304 N 
HETATM    2  C   UNL     1     -43.001 -50.268  12.866  1.00  0.00     0.321 C 
HETATM    3  O   UNL     1     -42.303 -51.056  12.245  1.00  0.00    -0.247 OA
HETATM    4  N   UNL     1     -42.920 -48.894  12.687  1.00  0.00    -0.338 N 
HETATM    5  H   UNL     1     -44.664 -49.929  14.016  1.00  0.00     0.171 HD
HETATM    6  H   UNL     1     -43.077 -48.380  13.551  1.00  0.00     0.164 HD
ENDROOT
BRANCH   1   7
HETATM    7  C   UNL     1     -44.387 -51.975  13.909  1.00  0.00     0.096 A 
HETATM    8  C   UNL     1     -43.707 -52.917  14.700  1.00  0.00     0.132 A 
HETATM    9  N   UNL     1     -44.137 -54.203  14.729  1.00  0.00    -0.337 N 
HETATM   10  C   UNL     1     -45.222 -54.537  14.008  1.00  0.00     0.182 A 
ATOM     11  HN  UNL     1     -43.647 -54.902  15.286  1.00  0.00     0.168 HD
HETATM   12  N   UNL     1     -45.922 -53.721  13.220  1.00  0.00    -0.360 N 
HETATM   13  C   UNL     1     -45.483 -52.448  13.194  1.00  0.00     0.122 A 
ATOM     14  HN  UNL     1     -46.727 -54.035  12.679  1.00  0.00     0.166 HD
BRANCH   8  15
HETATM   15  N   UNL     1     -42.580 -52.602  15.489  1.00  0.00    -0.374 N 
HETATM   16  C   UNL     1     -42.727 -52.558  16.942  1.00  0.00     0.150 C 
HETATM   17  C   UNL     1     -41.330 -53.200  15.003  1.00  0.00     0.150 C 
ENDBRANCH   8  15
ENDBRANCH   1   7
BRANCH   4  18
HETATM   18  C   UNL     1     -41.895 -48.354  11.785  1.00  0.00     0.086 C 
HETATM   19  C   UNL     1     -41.278 -47.051  12.317  1.00  0.00     0.025 C 
HETATM   20  C   UNL     1     -42.164 -45.824  12.155  1.00  0.00     0.003 C 
HETATM   21  C   UNL     1     -42.717 -45.668  10.737  1.00  0.00     0.014 C 
HETATM   22  C   UNL     1     -43.398 -46.948  10.245  1.00  0.00     0.095 C 
HETATM   23  C   UNL     1     -42.424 -48.128  10.352  1.00  0.00     0.038 C 
BRANCH  22  24
HETATM   24  C   UNL     1     -43.939 -46.799   8.818  1.00  0.00     0.391 C 
HETATM   25  F   UNL     1     -44.133 -47.994   8.221  1.00  0.00    -0.171 F 
HETATM   26  F   UNL     1     -45.119 -46.137   8.778  1.00  0.00    -0.171 F 
HETATM   27  F   UNL     1     -43.061 -46.110   8.056  1.00  0.00    -0.171 F 
ENDBRANCH  22  24
ENDBRANCH   4  18
TORSDOF 4
ENDMDL
