MODEL 1
REMARK VINA RESULT:      -6.0      0.000      0.000
REMARK  3 active torsions:
REMARK  status: ('A' for Active; 'I' for Inactive)
REMARK    1  A    between atoms: C_2  and  N_4 
REMARK       I    between atoms: N_4  and  C_5 
REMARK    2  A    between atoms: C_5  and  C_7 
REMARK    3  A    between atoms: C_10  and  N_14 
ROOT
HETATM    1  C   UNL     1     -41.234 -51.414  12.461  1.00  0.00     0.047 A 
HETATM    2  C   UNL     1     -42.272 -50.558  12.814  1.00  0.00     0.022 A 
HETATM    3  C   UNL     1     -42.383 -49.322  12.176  1.00  0.00     0.049 A 
HETATM    4  C   UNL     1     -41.483 -48.962  11.176  1.00  0.00     0.103 A 
HETATM    5  N   UNL     1     -40.483 -49.800  10.824  1.00  0.00    -0.351 N 
ATOM      6  HN  UNL     1     -39.822 -49.542  10.091  1.00  0.00     0.166 HD
HETATM    7  C   UNL     1     -40.374 -50.994  11.465  1.00  0.00     0.106 A 
ENDROOT
BRANCH   4   8
HETATM    8  N   UNL     1     -41.600 -47.769  10.511  1.00  0.00    -0.362 N 
HETATM    9  C   UNL     1     -40.646 -46.688  10.767  1.00  0.00     0.156 C 
HETATM   10  C   UNL     1     -41.393 -45.372  11.053  1.00  0.00     0.136 C 
HETATM   11  C   UNL     1     -40.416 -44.205  11.109  1.00  0.00     0.041 C 
HETATM   12  O   UNL     1     -42.356 -45.079  10.016  1.00  0.00    -0.378 OA
HETATM   13  C   UNL     1     -43.327 -46.138   9.916  1.00  0.00     0.136 C 
HETATM   14  C   UNL     1     -44.352 -45.736   8.866  1.00  0.00     0.041 C 
HETATM   15  C   UNL     1     -42.650 -47.474   9.540  1.00  0.00     0.156 C 
ENDBRANCH   4   8
BRANCH   1  16
HETATM   16  C   UNL     1     -41.064 -52.760  13.060  1.00  0.00     0.253 C 
HETATM   17  N   UNL     1     -42.023 -53.132  13.978  1.00  0.00    -0.353 N 
HETATM   18  H   UNL     1     -42.605 -52.413  14.387  1.00  0.00     0.163 HD
HETATM   19  O   UNL     1     -40.118 -53.465  12.735  1.00  0.00    -0.268 OA
BRANCH  17  20
HETATM   20  C   UNL     1     -41.994 -54.418  14.656  1.00  0.00     0.076 C 
HETATM   21  C   UNL     1     -41.394 -54.271  16.050  1.00  0.00     0.032 C 
HETATM   22  C   UNL     1     -43.410 -54.984  14.725  1.00  0.00     0.032 C 
ENDBRANCH  17  20
ENDBRANCH   1  16
TORSDOF 3
ENDMDL
MODEL 2
REMARK VINA RESULT:      -5.8      0.910      2.220
REMARK  3 active torsions:
REMARK  status: ('A' for Active; 'I' for Inactive)
REMARK    1  A    between atoms: C_2  and  N_4 
REMARK       I    between atoms: N_4  and  C_5 
REMARK    2  A    between atoms: C_5  and  C_7 
REMARK    3  A    between atoms: C_10  and  N_14 
ROOT
HETATM    1  C   UNL     1     -41.476 -51.524  12.475  1.00  0.00     0.047 A 
HETATM    2  C   UNL     1     -40.456 -50.805  11.861  1.00  0.00     0.022 A 
HETATM    3  C   UNL     1     -40.688 -49.484  11.479  1.00  0.00     0.049 A 
HETATM    4  C   UNL     1     -41.917 -48.881  11.736  1.00  0.00     0.103 A 
HETATM    5  N   UNL     1     -42.904 -49.576  12.346  1.00  0.00    -0.351 N 
ATOM      6  HN  UNL     1     -43.806 -49.139  12.538  1.00  0.00     0.166 HD
HETATM    7  C   UNL     1     -42.672 -50.869  12.697  1.00  0.00     0.106 A 
ENDROOT
BRANCH   4   8
HETATM    8  N   UNL     1     -42.151 -47.572  11.405  1.00  0.00    -0.362 N 
HETATM    9  C   UNL     1     -43.372 -47.202  10.686  1.00  0.00     0.156 C 
HETATM   10  C   UNL     1     -43.031 -46.331   9.463  1.00  0.00     0.136 C 
HETATM   11  C   UNL     1     -44.300 -45.768   8.837  1.00  0.00     0.041 C 
HETATM   12  O   UNL     1     -42.198 -45.210   9.833  1.00  0.00    -0.378 OA
HETATM   13  C   UNL     1     -40.965 -45.668  10.419  1.00  0.00     0.136 C 
HETATM   14  C   UNL     1     -40.105 -44.449  10.715  1.00  0.00     0.041 C 
HETATM   15  C   UNL     1     -41.235 -46.476  11.708  1.00  0.00     0.156 C 
ENDBRANCH   4   8
BRANCH   1  16
HETATM   16  C   UNL     1     -41.304 -52.920  12.947  1.00  0.00     0.253 C 
HETATM   17  N   UNL     1     -42.148 -53.316  13.963  1.00  0.00    -0.353 N 
HETATM   18  H   UNL     1     -42.623 -52.604  14.501  1.00  0.00     0.163 HD
HETATM   19  O   UNL     1     -40.455 -53.641  12.441  1.00  0.00    -0.268 OA
BRANCH  17  20
HETATM   20  C   UNL     1     -42.101 -54.651  14.536  1.00  0.00     0.076 C 
HETATM   21  C   UNL     1     -41.253 -54.656  15.803  1.00  0.00     0.032 C 
HETATM   22  C   UNL     1     -43.522 -55.126  14.826  1.00  0.00     0.032 C 
ENDBRANCH  17  20
ENDBRANCH   1  16
TORSDOF 3
ENDMDL
MODEL 3
REMARK VINA RESULT:      -5.8      1.653      7.825
REMARK  3 active torsions:
REMARK  status: ('A' for Active; 'I' for Inactive)
REMARK    1  A    between atoms: C_2  and  N_4 
REMARK       I    between atoms: N_4  and  C_5 
REMARK    2  A    between atoms: C_5  and  C_7 
REMARK    3  A    between atoms: C_10  and  N_14 
ROOT
HETATM    1  C   UNL     1     -41.842 -48.181  11.516  1.00  0.00     0.047 A 
HETATM    2  C   UNL     1     -42.766 -48.671  12.433  1.00  0.00     0.022 A 
HETATM    3  C   UNL     1     -42.772 -50.033  12.734  1.00  0.00     0.049 A 
HETATM    4  C   UNL     1     -41.843 -50.889  12.146  1.00  0.00     0.103 A 
HETATM    5  N   UNL     1     -40.936 -50.410  11.265  1.00  0.00    -0.351 N 
ATOM      6  HN  UNL     1     -40.252 -51.032  10.833  1.00  0.00     0.166 HD
HETATM    7  C   UNL     1     -40.952 -49.083  10.967  1.00  0.00     0.106 A 
ENDROOT
BRANCH   4   8
HETATM    8  N   UNL     1     -41.807 -52.222  12.458  1.00  0.00    -0.362 N 
HETATM    9  C   UNL     1     -43.051 -52.950  12.717  1.00  0.00     0.156 C 
HETATM   10  C   UNL     1     -42.945 -53.738  14.037  1.00  0.00     0.136 C 
HETATM   11  C   UNL     1     -44.145 -54.661  14.205  1.00  0.00     0.041 C 
HETATM   12  O   UNL     1     -41.759 -54.563  14.063  1.00  0.00    -0.378 OA
HETATM   13  C   UNL     1     -40.577 -53.752  13.925  1.00  0.00     0.136 C 
HETATM   14  C   UNL     1     -39.366 -54.665  14.036  1.00  0.00     0.041 C 
HETATM   15  C   UNL     1     -40.578 -53.002  12.574  1.00  0.00     0.156 C 
ENDBRANCH   4   8
BRANCH   1  16
HETATM   16  C   UNL     1     -41.741 -46.743  11.167  1.00  0.00     0.253 C 
HETATM   17  N   UNL     1     -40.476 -46.291  10.857  1.00  0.00    -0.353 N 
HETATM   18  H   UNL     1     -39.681 -46.850  11.135  1.00  0.00     0.163 HD
HETATM   19  O   UNL     1     -42.740 -46.037  11.166  1.00  0.00    -0.268 OA
BRANCH  17  20
HETATM   20  C   UNL     1     -40.212 -44.907  10.497  1.00  0.00     0.076 C 
HETATM   21  C   UNL     1     -39.909 -44.082  11.743  1.00  0.00     0.032 C 
HETATM   22  C   UNL     1     -39.049 -44.854   9.510  1.00  0.00     0.032 C 
ENDBRANCH  17  20
ENDBRANCH   1  16
TORSDOF 3
ENDMDL
MODEL 4
REMARK VINA RESULT:      -5.6      1.803      8.033
REMARK  3 active torsions:
REMARK  status: ('A' for Active; 'I' for Inactive)
REMARK    1  A    between atoms: C_2  and  N_4 
REMARK       I    between atoms: N_4  and  C_5 
REMARK    2  A    between atoms: C_5  and  C_7 
REMARK    3  A    between atoms: C_10  and  N_14 
ROOT
HETATM    1  C   UNL     1     -41.523 -49.622  11.753  1.00  0.00     0.047 A 
HETATM    2  C   UNL     1     -40.570 -50.633  11.688  1.00  0.00     0.022 A 
HETATM    3  C   UNL     1     -40.877 -51.893  12.203  1.00  0.00     0.049 A 
HETATM    4  C   UNL     1     -42.133 -52.144  12.749  1.00  0.00     0.103 A 
HETATM    5  N   UNL     1     -43.064 -51.164  12.800  1.00  0.00    -0.351 N 
ATOM      6  HN  UNL     1     -43.986 -51.343  13.197  1.00  0.00     0.166 HD
HETATM    7  C   UNL     1     -42.747 -49.936  12.310  1.00  0.00     0.106 A 
ENDROOT
BRANCH   4   8
HETATM    8  N   UNL     1     -42.467 -53.385  13.224  1.00  0.00    -0.362 N 
HETATM    9  C   UNL     1     -43.772 -53.968  12.906  1.00  0.00     0.156 C 
HETATM   10  C   UNL     1     -44.459 -54.474  14.189  1.00  0.00     0.136 C 
HETATM   11  C   UNL     1     -45.712 -55.269  13.846  1.00  0.00     0.041 C 
HETATM   12  O   UNL     1     -43.587 -55.347  14.942  1.00  0.00    -0.378 OA
HETATM   13  C   UNL     1     -42.382 -54.655  15.318  1.00  0.00     0.136 C 
HETATM   14  C   UNL     1     -41.545 -55.598  16.168  1.00  0.00     0.041 C 
HETATM   15  C   UNL     1     -41.596 -54.198  14.068  1.00  0.00     0.156 C 
ENDBRANCH   4   8
BRANCH   1  16
HETATM   16  C   UNL     1     -41.295 -48.266  11.196  1.00  0.00     0.253 C 
HETATM   17  N   UNL     1     -42.382 -47.681  10.583  1.00  0.00    -0.353 N 
HETATM   18  H   UNL     1     -43.156 -48.269  10.307  1.00  0.00     0.163 HD
HETATM   19  O   UNL     1     -40.196 -47.736  11.294  1.00  0.00    -0.268 OA
BRANCH  17  20
HETATM   20  C   UNL     1     -42.319 -46.356   9.986  1.00  0.00     0.076 C 
HETATM   21  C   UNL     1     -43.368 -46.218   8.889  1.00  0.00     0.032 C 
HETATM   22  C   UNL     1     -42.518 -45.302  11.071  1.00  0.00     0.032 C 
ENDBRANCH  17  20
ENDBRANCH   1  16
TORSDOF 3
ENDMDL
MODEL 5
REMARK VINA RESULT:      -5.5      1.915      7.900
REMARK  3 active torsions:
REMARK  status: ('A' for Active; 'I' for Inactive)
REMARK    1  A    between atoms: C_2  and  N_4 
REMARK       I    between atoms: N_4  and  C_5 
REMARK    2  A    between atoms: C_5  and  C_7 
REMARK    3  A    between atoms: C_10  and  N_14 
ROOT
HETATM    1  C   UNL     1     -41.237 -49.314  11.484  1.00  0.00     0.047 A 
HETATM    2  C   UNL     1     -39.966 -49.878  11.471  1.00  0.00     0.022 A 
HETATM    3  C   UNL     1     -39.696 -50.969  12.297  1.00  0.00     0.049 A 
HETATM    4  C   UNL     1     -40.696 -51.507  13.104  1.00  0.00     0.103 A 
HETATM    5  N   UNL     1     -41.935 -50.967  13.107  1.00  0.00    -0.351 N 
ATOM      6  HN  UNL     1     -42.672 -51.358  13.695  1.00  0.00     0.166 HD
HETATM    7  C   UNL     1     -42.181 -49.893  12.310  1.00  0.00     0.106 A 
ENDROOT
BRANCH   4   8
HETATM    8  N   UNL     1     -40.461 -52.603  13.893  1.00  0.00    -0.362 N 
HETATM    9  C   UNL     1     -41.443 -53.687  13.957  1.00  0.00     0.156 C 
HETATM   10  C   UNL     1     -41.758 -54.038  15.424  1.00  0.00     0.136 C 
HETATM   11  C   UNL     1     -42.610 -55.298  15.500  1.00  0.00     0.041 C 
HETATM   12  O   UNL     1     -40.550 -54.288  16.175  1.00  0.00    -0.378 OA
HETATM   13  C   UNL     1     -39.697 -53.127  16.161  1.00  0.00     0.136 C 
HETATM   14  C   UNL     1     -38.483 -53.426  17.028  1.00  0.00     0.041 C 
HETATM   15  C   UNL     1     -39.269 -52.775  14.719  1.00  0.00     0.156 C 
ENDBRANCH   4   8
BRANCH   1  16
HETATM   16  C   UNL     1     -41.621 -48.178  10.612  1.00  0.00     0.253 C 
HETATM   17  N   UNL     1     -42.744 -48.372   9.836  1.00  0.00    -0.353 N 
HETATM   18  H   UNL     1     -43.074 -49.317   9.692  1.00  0.00     0.163 HD
HETATM   19  O   UNL     1     -40.957 -47.150  10.609  1.00  0.00    -0.268 OA
BRANCH  17  20
HETATM   20  C   UNL     1     -43.247 -47.355   8.926  1.00  0.00     0.076 C 
HETATM   21  C   UNL     1     -43.384 -47.923   7.518  1.00  0.00     0.032 C 
HETATM   22  C   UNL     1     -44.586 -46.836   9.440  1.00  0.00     0.032 C 
ENDBRANCH  17  20
ENDBRANCH   1  16
TORSDOF 3
ENDMDL
MODEL 6
REMARK VINA RESULT:      -5.2      1.839      7.874
REMARK  3 active torsions:
REMARK  status: ('A' for Active; 'I' for Inactive)
REMARK    1  A    between atoms: C_2  and  N_4 
REMARK       I    between atoms: N_4  and  C_5 
REMARK    2  A    between atoms: C_5  and  C_7 
REMARK    3  A    between atoms: C_10  and  N_14 
ROOT
HETATM    1  C   UNL     1     -41.448 -47.136  11.303  1.00  0.00     0.047 A 
HETATM    2  C   UNL     1     -40.274 -47.586  11.897  1.00  0.00     0.022 A 
HETATM    3  C   UNL     1     -40.163 -48.929  12.257  1.00  0.00     0.049 A 
HETATM    4  C   UNL     1     -41.206 -49.817  11.998  1.00  0.00     0.103 A 
HETATM    5  N   UNL     1     -42.341 -49.381  11.407  1.00  0.00    -0.351 N 
ATOM      6  HN  UNL     1     -43.107 -50.027  11.213  1.00  0.00     0.166 HD
HETATM    7  C   UNL     1     -42.444 -48.067  11.077  1.00  0.00     0.106 A 
ENDROOT
BRANCH   4   8
HETATM    8  N   UNL     1     -41.100 -51.147  12.308  1.00  0.00    -0.362 N 
HETATM    9  C   UNL     1     -42.263 -52.028  12.173  1.00  0.00     0.156 C 
HETATM   10  C   UNL     1     -42.467 -52.846  13.462  1.00  0.00     0.136 C 
HETATM   11  C   UNL     1     -43.535 -53.911  13.255  1.00  0.00     0.041 C 
HETATM   12  O   UNL     1     -41.252 -53.523  13.852  1.00  0.00    -0.378 OA
HETATM   13  C   UNL     1     -40.196 -52.572  14.083  1.00  0.00     0.136 C 
HETATM   14  C   UNL     1     -38.972 -53.338  14.563  1.00  0.00     0.041 C 
HETATM   15  C   UNL     1     -39.878 -51.778  12.797  1.00  0.00     0.156 C 
ENDBRANCH   4   8
BRANCH   1  16
HETATM   16  C   UNL     1     -41.636 -45.735  10.855  1.00  0.00     0.253 C 
HETATM   17  N   UNL     1     -41.715 -44.792  11.858  1.00  0.00    -0.353 N 
HETATM   18  H   UNL     1     -41.912 -45.103  12.799  1.00  0.00     0.163 HD
HETATM   19  O   UNL     1     -41.712 -45.474   9.662  1.00  0.00    -0.268 OA
BRANCH  17  20
HETATM   20  C   UNL     1     -41.902 -43.376  11.582  1.00  0.00     0.076 C 
HETATM   21  C   UNL     1     -42.886 -42.767  12.574  1.00  0.00     0.032 C 
HETATM   22  C   UNL     1     -40.552 -42.667  11.643  1.00  0.00     0.032 C 
ENDBRANCH  17  20
ENDBRANCH   1  16
TORSDOF 3
ENDMDL
MODEL 7
REMARK VINA RESULT:      -5.2      1.996      2.826
REMARK  3 active torsions:
REMARK  status: ('A' for Active; 'I' for Inactive)
REMARK    1  A    between atoms: C_2  and  N_4 
REMARK       I    between atoms: N_4  and  C_5 
REMARK    2  A    between atoms: C_5  and  C_7 
REMARK    3  A    between atoms: C_10  and  N_14 
ROOT
HETATM    1  C   UNL     1     -39.770 -50.358  12.951  1.00  0.00     0.047 A 
HETATM    2  C   UNL     1     -40.405 -50.318  11.715  1.00  0.00     0.022 A 
HETATM    3  C   UNL     1     -41.081 -49.159  11.332  1.00  0.00     0.049 A 
HETATM    4  C   UNL     1     -41.095 -48.043  12.166  1.00  0.00     0.103 A 
HETATM    5  N   UNL     1     -40.466 -48.078  13.362  1.00  0.00    -0.351 N 
ATOM      6  HN  UNL     1     -40.471 -47.263  13.976  1.00  0.00     0.166 HD
HETATM    7  C   UNL     1     -39.826 -49.219  13.731  1.00  0.00     0.106 A 
ENDROOT
BRANCH   4   8
HETATM    8  N   UNL     1     -41.720 -46.883  11.791  1.00  0.00    -0.362 N 
HETATM    9  C   UNL     1     -42.915 -46.931  10.947  1.00  0.00     0.156 C 
HETATM   10  C   UNL     1     -42.764 -45.973   9.750  1.00  0.00     0.136 C 
HETATM   11  C   UNL     1     -44.079 -45.857   8.990  1.00  0.00     0.041 C 
HETATM   12  O   UNL     1     -42.399 -44.644  10.184  1.00  0.00    -0.378 OA
HETATM   13  C   UNL     1     -41.149 -44.673  10.900  1.00  0.00     0.136 C 
HETATM   14  C   UNL     1     -40.783 -43.242  11.262  1.00  0.00     0.041 C 
HETATM   15  C   UNL     1     -41.261 -45.549  12.168  1.00  0.00     0.156 C 
ENDBRANCH   4   8
BRANCH   1  16
HETATM   16  C   UNL     1     -38.999 -51.534  13.421  1.00  0.00     0.253 C 
HETATM   17  N   UNL     1     -39.634 -52.336  14.345  1.00  0.00    -0.353 N 
HETATM   18  H   UNL     1     -40.431 -51.963  14.842  1.00  0.00     0.163 HD
HETATM   19  O   UNL     1     -37.872 -51.744  12.992  1.00  0.00    -0.268 OA
BRANCH  17  20
HETATM   20  C   UNL     1     -39.009 -53.524  14.904  1.00  0.00     0.076 C 
HETATM   21  C   UNL     1     -39.500 -53.763  16.328  1.00  0.00     0.032 C 
HETATM   22  C   UNL     1     -39.314 -54.724  14.011  1.00  0.00     0.032 C 
ENDBRANCH  17  20
ENDBRANCH   1  16
TORSDOF 3
ENDMDL
MODEL 8
REMARK VINA RESULT:      -5.1      2.587      7.836
REMARK  3 active torsions:
REMARK  status: ('A' for Active; 'I' for Inactive)
REMARK    1  A    between atoms: C_2  and  N_4 
REMARK       I    between atoms: N_4  and  C_5 
REMARK    2  A    between atoms: C_5  and  C_7 
REMARK    3  A    between atoms: C_10  and  N_14 
ROOT
HETATM    1  C   UNL     1     -42.568 -47.231  12.887  1.00  0.00     0.047 A 
HETATM    2  C   UNL     1     -42.677 -47.766  14.166  1.00  0.00     0.022 A 
HETATM    3  C   UNL     1     -43.167 -49.063  14.323  1.00  0.00     0.049 A 
HETATM    4  C   UNL     1     -43.515 -49.825  13.209  1.00  0.00     0.103 A 
HETATM    5  N   UNL     1     -43.396 -49.309  11.965  1.00  0.00    -0.351 N 
ATOM      6  HN  UNL     1     -43.648 -49.863  11.146  1.00  0.00     0.166 HD
HETATM    7  C   UNL     1     -42.934 -48.038  11.826  1.00  0.00     0.106 A 
ENDROOT
BRANCH   4   8
HETATM    8  N   UNL     1     -43.961 -51.114  13.341  1.00  0.00    -0.362 N 
HETATM    9  C   UNL     1     -45.374 -51.378  13.620  1.00  0.00     0.156 C 
HETATM   10  C   UNL     1     -45.512 -52.347  14.810  1.00  0.00     0.136 C 
HETATM   11  C   UNL     1     -46.959 -52.793  14.971  1.00  0.00     0.041 C 
HETATM   12  O   UNL     1     -44.714 -53.536  14.615  1.00  0.00    -0.378 OA
HETATM   13  C   UNL     1     -43.323 -53.191  14.471  1.00  0.00     0.136 C 
HETATM   14  C   UNL     1     -42.530 -54.484  14.346  1.00  0.00     0.041 C 
HETATM   15  C   UNL     1     -43.102 -52.290  13.236  1.00  0.00     0.156 C 
ENDBRANCH   4   8
BRANCH   1  16
HETATM   16  C   UNL     1     -42.023 -45.877  12.626  1.00  0.00     0.253 C 
HETATM   17  N   UNL     1     -40.831 -45.835  11.933  1.00  0.00    -0.353 N 
HETATM   18  H   UNL     1     -40.273 -46.676  11.880  1.00  0.00     0.163 HD
HETATM   19  O   UNL     1     -42.621 -44.885  13.019  1.00  0.00    -0.268 OA
BRANCH  17  20
HETATM   20  C   UNL     1     -40.167 -44.585  11.602  1.00  0.00     0.076 C 
HETATM   21  C   UNL     1     -39.115 -44.248  12.653  1.00  0.00     0.032 C 
HETATM   22  C   UNL     1     -39.541 -44.696  10.216  1.00  0.00     0.032 C 
ENDBRANCH  17  20
ENDBRANCH   1  16
TORSDOF 3
ENDMDL
MODEL 9
REMARK VINA RESULT:      -5.1      2.225      8.118
REMARK  3 active torsions:
REMARK  status: ('A' for Active; 'I' for Inactive)
REMARK    1  A    between atoms: C_2  and  N_4 
REMARK       I    between atoms: N_4  and  C_5 
REMARK    2  A    between atoms: C_5  and  C_7 
REMARK    3  A    between atoms: C_10  and  N_14 
ROOT
HETATM    1  C   UNL     1     -41.792 -45.606  11.122  1.00  0.00     0.047 A 
HETATM    2  C   UNL     1     -40.450 -45.777  11.441  1.00  0.00     0.022 A 
HETATM    3  C   UNL     1     -39.945 -47.067  11.599  1.00  0.00     0.049 A 
HETATM    4  C   UNL     1     -40.769 -48.175  11.410  1.00  0.00     0.103 A 
HETATM    5  N   UNL     1     -42.071 -48.009  11.087  1.00  0.00    -0.351 N 
ATOM      6  HN  UNL     1     -42.679 -48.816  10.946  1.00  0.00     0.166 HD
HETATM    7  C   UNL     1     -42.555 -46.745  10.953  1.00  0.00     0.106 A 
ENDROOT
BRANCH   4   8
HETATM    8  N   UNL     1     -40.282 -49.450  11.522  1.00  0.00    -0.362 N 
HETATM    9  C   UNL     1     -41.204 -50.579  11.670  1.00  0.00     0.156 C 
HETATM   10  C   UNL     1     -40.782 -51.463  12.859  1.00  0.00     0.136 C 
HETATM   11  C   UNL     1     -41.602 -52.746  12.887  1.00  0.00     0.041 C 
HETATM   12  O   UNL     1     -39.391 -51.842  12.763  1.00  0.00    -0.378 OA
HETATM   13  C   UNL     1     -38.549 -50.674  12.747  1.00  0.00     0.136 C 
HETATM   14  C   UNL     1     -37.101 -51.140  12.723  1.00  0.00     0.041 C 
HETATM   15  C   UNL     1     -38.861 -49.786  11.522  1.00  0.00     0.156 C 
ENDBRANCH   4   8
BRANCH   1  16
HETATM   16  C   UNL     1     -42.402 -44.273  10.899  1.00  0.00     0.253 C 
HETATM   17  N   UNL     1     -41.918 -43.254  11.691  1.00  0.00    -0.353 N 
HETATM   18  H   UNL     1     -41.404 -43.494  12.528  1.00  0.00     0.163 HD
HETATM   19  O   UNL     1     -43.278 -44.128  10.057  1.00  0.00    -0.268 OA
BRANCH  17  20
HETATM   20  C   UNL     1     -42.416 -41.891  11.596  1.00  0.00     0.076 C 
HETATM   21  C   UNL     1     -43.507 -41.649  12.633  1.00  0.00     0.032 C 
HETATM   22  C   UNL     1     -41.257 -40.915  11.783  1.00  0.00     0.032 C 
ENDBRANCH  17  20
ENDBRANCH   1  16
TORSDOF 3
ENDMDL
