MODEL 1
REMARK VINA RESULT:      -5.4      0.000      0.000
REMARK  7 active torsions:
REMARK  status: ('A' for Active; 'I' for Inactive)
REMARK    1  A    between atoms: C_2  and  N_4 
REMARK       I    between atoms: N_4  and  C_5 
REMARK    2  A    between atoms: C_5  and  C_7 
REMARK    3  A    between atoms: C_7  and  C_8 
REMARK    4  A    between atoms: C_8  and  N_9 
REMARK    5  A    between atoms: N_9  and  C_10 
REMARK    6  A    between atoms: C_10  and  C_11 
REMARK    7  A    between atoms: C_11  and  N_12 
ROOT
HETATM    1  N   UNL     1     -41.778 -50.042  11.493  1.00  0.00     0.085 N 
HETATM    2  H   UNL     1     -42.190 -49.615  12.324  1.00  0.00     0.315 HD
ENDROOT
BRANCH   1   3
HETATM    3  C   UNL     1     -40.875 -51.127  11.918  1.00  0.00     0.278 C 
BRANCH   3   4
HETATM    4  C   UNL     1     -41.586 -52.478  11.958  1.00  0.00     0.132 C 
BRANCH   4   5
HETATM    5  C   UNL     1     -42.767 -52.416  12.907  1.00  0.00     0.219 C 
HETATM    6  N   UNL     1     -43.723 -53.382  12.668  1.00  0.00    -0.357 N 
HETATM    7  H   UNL     1     -43.665 -53.927  11.816  1.00  0.00     0.162 HD
HETATM    8  O   UNL     1     -42.869 -51.585  13.803  1.00  0.00    -0.274 OA
BRANCH   6   9
HETATM    9  C   UNL     1     -44.953 -53.437  13.450  1.00  0.00     0.076 C 
HETATM   10  C   UNL     1     -46.058 -52.620  12.785  1.00  0.00     0.032 C 
HETATM   11  C   UNL     1     -45.392 -54.883  13.651  1.00  0.00     0.032 C 
ENDBRANCH   6   9
ENDBRANCH   4   5
ENDBRANCH   3   4
ENDBRANCH   1   3
BRANCH   1  12
HETATM   12  C   UNL     1     -40.996 -49.015  10.772  1.00  0.00     0.291 C 
BRANCH  12  13
HETATM   13  C   UNL     1     -41.695 -47.654  10.767  1.00  0.00     0.178 C 
BRANCH  13  14
HETATM   14  N   UNL     1     -42.875 -47.653   9.920  1.00  0.00    -0.302 N 
HETATM   15  C   UNL     1     -44.165 -47.422  10.306  1.00  0.00     0.118 A 
HETATM   16  C   UNL     1     -44.936 -47.517   9.166  1.00  0.00    -0.028 A 
HETATM   17  C   UNL     1     -46.400 -47.354   9.027  1.00  0.00     0.051 C 
HETATM   18  C   UNL     1     -44.003 -47.805   8.145  1.00  0.00     0.115 A 
HETATM   19  N   UNL     1     -42.749 -47.872   8.598  1.00  0.00    -0.310 N 
ATOM     20  HN  UNL     1     -41.897 -48.048   8.066  1.00  0.00     0.186 HD
ENDBRANCH  13  14
ENDBRANCH  12  13
ENDBRANCH   1  12
TORSDOF 7
ENDMDL
MODEL 2
REMARK VINA RESULT:      -5.3      3.550      4.294
REMARK  7 active torsions:
REMARK  status: ('A' for Active; 'I' for Inactive)
REMARK    1  A    between atoms: C_2  and  N_4 
REMARK       I    between atoms: N_4  and  C_5 
REMARK    2  A    between atoms: C_5  and  C_7 
REMARK    3  A    between atoms: C_7  and  C_8 
REMARK    4  A    between atoms: C_8  and  N_9 
REMARK    5  A    between atoms: N_9  and  C_10 
REMARK    6  A    between atoms: C_10  and  C_11 
REMARK    7  A    between atoms: C_11  and  N_12 
ROOT
HETATM    1  N   UNL     1     -40.232 -49.785  10.780  1.00  0.00     0.085 N 
HETATM    2  H   UNL     1     -40.259 -50.781  11.002  1.00  0.00     0.315 HD
ENDROOT
BRANCH   1   3
HETATM    3  C   UNL     1     -39.165 -49.151  11.574  1.00  0.00     0.278 C 
BRANCH   3   4
HETATM    4  C   UNL     1     -37.822 -49.855  11.388  1.00  0.00     0.132 C 
BRANCH   4   5
HETATM    5  C   UNL     1     -37.600 -50.855  12.506  1.00  0.00     0.219 C 
HETATM    6  N   UNL     1     -38.366 -50.613  13.628  1.00  0.00    -0.357 N 
HETATM    7  H   UNL     1     -38.866 -49.735  13.698  1.00  0.00     0.162 HD
HETATM    8  O   UNL     1     -36.813 -51.793  12.426  1.00  0.00    -0.274 OA
BRANCH   6   9
HETATM    9  C   UNL     1     -38.242 -51.444  14.821  1.00  0.00     0.076 C 
HETATM   10  C   UNL     1     -37.862 -50.600  16.036  1.00  0.00     0.032 C 
HETATM   11  C   UNL     1     -39.536 -52.208  15.074  1.00  0.00     0.032 C 
ENDBRANCH   6   9
ENDBRANCH   4   5
ENDBRANCH   3   4
ENDBRANCH   1   3
BRANCH   1  12
HETATM   12  C   UNL     1     -41.532 -49.185  11.150  1.00  0.00     0.291 C 
BRANCH  12  13
HETATM   13  C   UNL     1     -41.733 -47.807  10.517  1.00  0.00     0.178 C 
BRANCH  13  14
HETATM   14  N   UNL     1     -42.957 -47.741   9.737  1.00  0.00    -0.302 N 
HETATM   15  C   UNL     1     -44.213 -47.468  10.198  1.00  0.00     0.118 A 
HETATM   16  C   UNL     1     -45.050 -47.508   9.102  1.00  0.00    -0.028 A 
HETATM   17  C   UNL     1     -46.511 -47.284   9.048  1.00  0.00     0.051 C 
HETATM   18  C   UNL     1     -44.187 -47.810   8.025  1.00  0.00     0.115 A 
HETATM   19  N   UNL     1     -42.914 -47.936   8.406  1.00  0.00    -0.310 N 
ATOM     20  HN  UNL     1     -42.099 -48.134   7.824  1.00  0.00     0.186 HD
ENDBRANCH  13  14
ENDBRANCH  12  13
ENDBRANCH   1  12
TORSDOF 7
ENDMDL
MODEL 3
REMARK VINA RESULT:      -5.2      2.356      3.624
REMARK  7 active torsions:
REMARK  status: ('A' for Active; 'I' for Inactive)
REMARK    1  A    between atoms: C_2  and  N_4 
REMARK       I    between atoms: N_4  and  C_5 
REMARK    2  A    between atoms: C_5  and  C_7 
REMARK    3  A    between atoms: C_7  and  C_8 
REMARK    4  A    between atoms: C_8  and  N_9 
REMARK    5  A    between atoms: N_9  and  C_10 
REMARK    6  A    between atoms: C_10  and  C_11 
REMARK    7  A    between atoms: C_11  and  N_12 
ROOT
HETATM    1  N   UNL     1     -41.784 -50.360  11.660  1.00  0.00     0.085 N 
HETATM    2  H   UNL     1     -42.116 -50.710  10.760  1.00  0.00     0.315 HD
ENDROOT
BRANCH   1   3
HETATM    3  C   UNL     1     -42.315 -51.224  12.729  1.00  0.00     0.278 C 
BRANCH   3   4
HETATM    4  C   UNL     1     -42.533 -52.658  12.249  1.00  0.00     0.132 C 
BRANCH   4   5
HETATM    5  C   UNL     1     -43.990 -53.045  12.412  1.00  0.00     0.219 C 
HETATM    6  N   UNL     1     -44.829 -51.970  12.628  1.00  0.00    -0.357 N 
HETATM    7  H   UNL     1     -44.422 -51.065  12.829  1.00  0.00     0.162 HD
HETATM    8  O   UNL     1     -44.390 -54.203  12.359  1.00  0.00    -0.274 OA
BRANCH   6   9
HETATM    9  C   UNL     1     -46.256 -52.162  12.860  1.00  0.00     0.076 C 
HETATM   10  C   UNL     1     -46.704 -51.440  14.129  1.00  0.00     0.032 C 
HETATM   11  C   UNL     1     -47.060 -51.689  11.654  1.00  0.00     0.032 C 
ENDBRANCH   6   9
ENDBRANCH   4   5
ENDBRANCH   3   4
ENDBRANCH   1   3
BRANCH   1  12
HETATM   12  C   UNL     1     -42.294 -48.986  11.849  1.00  0.00     0.291 C 
BRANCH  12  13
HETATM   13  C   UNL     1     -41.979 -48.083  10.655  1.00  0.00     0.178 C 
BRANCH  13  14
HETATM   14  N   UNL     1     -41.101 -46.985  11.021  1.00  0.00    -0.302 N 
HETATM   15  C   UNL     1     -40.728 -46.615  12.282  1.00  0.00     0.118 A 
HETATM   16  C   UNL     1     -39.887 -45.530  12.138  1.00  0.00    -0.028 A 
HETATM   17  C   UNL     1     -39.204 -44.747  13.191  1.00  0.00     0.051 C 
HETATM   18  C   UNL     1     -39.819 -45.334  10.741  1.00  0.00     0.115 A 
HETATM   19  N   UNL     1     -40.543 -46.225  10.060  1.00  0.00    -0.310 N 
ATOM     20  HN  UNL     1     -40.647 -46.311   9.049  1.00  0.00     0.186 HD
ENDBRANCH  13  14
ENDBRANCH  12  13
ENDBRANCH   1  12
TORSDOF 7
ENDMDL
MODEL 4
REMARK VINA RESULT:      -5.1      2.586      6.161
REMARK  7 active torsions:
REMARK  status: ('A' for Active; 'I' for Inactive)
REMARK    1  A    between atoms: C_2  and  N_4 
REMARK       I    between atoms: N_4  and  C_5 
REMARK    2  A    between atoms: C_5  and  C_7 
REMARK    3  A    between atoms: C_7  and  C_8 
REMARK    4  A    between atoms: C_8  and  N_9 
REMARK    5  A    between atoms: N_9  and  C_10 
REMARK    6  A    between atoms: C_10  and  C_11 
REMARK    7  A    between atoms: C_11  and  N_12 
ROOT
HETATM    1  N   UNL     1     -41.987 -49.411  11.671  1.00  0.00     0.085 N 
HETATM    2  H   UNL     1     -41.007 -49.148  11.791  1.00  0.00     0.315 HD
ENDROOT
BRANCH   1   3
HETATM    3  C   UNL     1     -42.745 -48.226  11.232  1.00  0.00     0.278 C 
BRANCH   3   4
HETATM    4  C   UNL     1     -42.234 -47.682   9.899  1.00  0.00     0.132 C 
BRANCH   4   5
HETATM    5  C   UNL     1     -43.398 -47.207   9.051  1.00  0.00     0.219 C 
HETATM    6  N   UNL     1     -44.547 -47.951   9.219  1.00  0.00    -0.357 N 
HETATM    7  H   UNL     1     -44.495 -48.823   9.733  1.00  0.00     0.162 HD
HETATM    8  O   UNL     1     -43.328 -46.252   8.285  1.00  0.00    -0.274 OA
BRANCH   6   9
HETATM    9  C   UNL     1     -45.749 -47.669   8.442  1.00  0.00     0.076 C 
HETATM   10  C   UNL     1     -46.370 -48.959   7.911  1.00  0.00     0.032 C 
HETATM   11  C   UNL     1     -46.754 -46.887   9.280  1.00  0.00     0.032 C 
ENDBRANCH   6   9
ENDBRANCH   4   5
ENDBRANCH   3   4
ENDBRANCH   1   3
BRANCH   1  12
HETATM   12  C   UNL     1     -42.515 -49.870  12.972  1.00  0.00     0.291 C 
BRANCH  12  13
HETATM   13  C   UNL     1     -43.051 -51.302  12.906  1.00  0.00     0.178 C 
BRANCH  13  14
HETATM   14  N   UNL     1     -44.429 -51.387  13.357  1.00  0.00    -0.302 N 
HETATM   15  C   UNL     1     -44.879 -51.325  14.645  1.00  0.00     0.118 A 
HETATM   16  C   UNL     1     -46.253 -51.444  14.585  1.00  0.00    -0.028 A 
HETATM   17  C   UNL     1     -47.228 -51.439  15.698  1.00  0.00     0.051 C 
HETATM   18  C   UNL     1     -46.525 -51.568  13.204  1.00  0.00     0.115 A 
HETATM   19  N   UNL     1     -45.421 -51.518  12.456  1.00  0.00    -0.310 N 
ATOM     20  HN  UNL     1     -45.347 -51.567  11.439  1.00  0.00     0.186 HD
ENDBRANCH  13  14
ENDBRANCH  12  13
ENDBRANCH   1  12
TORSDOF 7
ENDMDL
MODEL 5
REMARK VINA RESULT:      -4.9      1.904      5.738
REMARK  7 active torsions:
REMARK  status: ('A' for Active; 'I' for Inactive)
REMARK    1  A    between atoms: C_2  and  N_4 
REMARK       I    between atoms: N_4  and  C_5 
REMARK    2  A    between atoms: C_5  and  C_7 
REMARK    3  A    between atoms: C_7  and  C_8 
REMARK    4  A    between atoms: C_8  and  N_9 
REMARK    5  A    between atoms: N_9  and  C_10 
REMARK    6  A    between atoms: C_10  and  C_11 
REMARK    7  A    between atoms: C_11  and  N_12 
ROOT
HETATM    1  N   UNL     1     -41.743 -50.226  11.385  1.00  0.00     0.085 N 
HETATM    2  H   UNL     1     -41.394 -50.036  10.444  1.00  0.00     0.315 HD
ENDROOT
BRANCH   1   3
HETATM    3  C   UNL     1     -41.511 -49.037  12.224  1.00  0.00     0.278 C 
BRANCH   3   4
HETATM    4  C   UNL     1     -42.804 -48.269  12.496  1.00  0.00     0.132 C 
BRANCH   4   5
HETATM    5  C   UNL     1     -43.139 -47.381  11.313  1.00  0.00     0.219 C 
HETATM    6  N   UNL     1     -44.094 -47.914  10.472  1.00  0.00    -0.357 N 
HETATM    7  H   UNL     1     -44.365 -48.883  10.591  1.00  0.00     0.162 HD
HETATM    8  O   UNL     1     -42.612 -46.291  11.118  1.00  0.00    -0.274 OA
BRANCH   6   9
HETATM    9  C   UNL     1     -44.499 -47.220   9.254  1.00  0.00     0.076 C 
HETATM   10  C   UNL     1     -43.695 -47.713   8.053  1.00  0.00     0.032 C 
HETATM   11  C   UNL     1     -45.994 -47.393   9.015  1.00  0.00     0.032 C 
ENDBRANCH   6   9
ENDBRANCH   4   5
ENDBRANCH   3   4
ENDBRANCH   1   3
BRANCH   1  12
HETATM   12  C   UNL     1     -40.991 -51.369  11.945  1.00  0.00     0.291 C 
BRANCH  12  13
HETATM   13  C   UNL     1     -41.618 -51.894  13.239  1.00  0.00     0.178 C 
BRANCH  13  14
HETATM   14  N   UNL     1     -43.051 -52.090  13.108  1.00  0.00    -0.302 N 
HETATM   15  C   UNL     1     -44.037 -51.429  13.783  1.00  0.00     0.118 A 
HETATM   16  C   UNL     1     -45.234 -51.943  13.328  1.00  0.00    -0.028 A 
HETATM   17  C   UNL     1     -46.609 -51.575  13.733  1.00  0.00     0.051 C 
HETATM   18  C   UNL     1     -44.850 -52.908  12.371  1.00  0.00     0.115 A 
HETATM   19  N   UNL     1     -43.526 -52.988  12.224  1.00  0.00    -0.310 N 
ATOM     20  HN  UNL     1     -42.998 -53.589  11.590  1.00  0.00     0.186 HD
ENDBRANCH  13  14
ENDBRANCH  12  13
ENDBRANCH   1  12
TORSDOF 7
ENDMDL
MODEL 6
REMARK VINA RESULT:      -4.9      3.419      4.935
REMARK  7 active torsions:
REMARK  status: ('A' for Active; 'I' for Inactive)
REMARK    1  A    between atoms: C_2  and  N_4 
REMARK       I    between atoms: N_4  and  C_5 
REMARK    2  A    between atoms: C_5  and  C_7 
REMARK    3  A    between atoms: C_7  and  C_8 
REMARK    4  A    between atoms: C_8  and  N_9 
REMARK    5  A    between atoms: N_9  and  C_10 
REMARK    6  A    between atoms: C_10  and  C_11 
REMARK    7  A    between atoms: C_11  and  N_12 
ROOT
HETATM    1  N   UNL     1     -41.312 -54.186  14.415  1.00  0.00     0.085 N 
HETATM    2  H   UNL     1     -41.058 -55.138  14.683  1.00  0.00     0.315 HD
ENDROOT
BRANCH   1   3
HETATM    3  C   UNL     1     -42.646 -54.210  13.790  1.00  0.00     0.278 C 
BRANCH   3   4
HETATM    4  C   UNL     1     -43.662 -54.970  14.641  1.00  0.00     0.132 C 
BRANCH   4   5
HETATM    5  C   UNL     1     -45.070 -54.528  14.289  1.00  0.00     0.219 C 
HETATM    6  N   UNL     1     -45.202 -53.162  14.141  1.00  0.00    -0.357 N 
HETATM    7  H   UNL     1     -44.440 -52.562  14.433  1.00  0.00     0.162 HD
HETATM    8  O   UNL     1     -46.006 -55.307  14.149  1.00  0.00    -0.274 OA
BRANCH   6   9
HETATM    9  C   UNL     1     -46.498 -52.556  13.855  1.00  0.00     0.076 C 
HETATM   10  C   UNL     1     -46.836 -51.482  14.887  1.00  0.00     0.032 C 
HETATM   11  C   UNL     1     -46.517 -51.980  12.444  1.00  0.00     0.032 C 
ENDBRANCH   6   9
ENDBRANCH   4   5
ENDBRANCH   3   4
ENDBRANCH   1   3
BRANCH   1  12
HETATM   12  C   UNL     1     -40.325 -53.693  13.432  1.00  0.00     0.291 C 
BRANCH  12  13
HETATM   13  C   UNL     1     -40.986 -52.937  12.278  1.00  0.00     0.178 C 
BRANCH  13  14
HETATM   14  N   UNL     1     -40.507 -51.569  12.180  1.00  0.00    -0.302 N 
HETATM   15  C   UNL     1     -39.782 -50.882  13.111  1.00  0.00     0.118 A 
HETATM   16  C   UNL     1     -39.553 -49.629  12.581  1.00  0.00    -0.028 A 
HETATM   17  C   UNL     1     -38.816 -48.495  13.182  1.00  0.00     0.051 C 
HETATM   18  C   UNL     1     -40.183 -49.671  11.318  1.00  0.00     0.115 A 
HETATM   19  N   UNL     1     -40.750 -50.853  11.065  1.00  0.00    -0.310 N 
ATOM     20  HN  UNL     1     -41.249 -51.145  10.225  1.00  0.00     0.186 HD
ENDBRANCH  13  14
ENDBRANCH  12  13
ENDBRANCH   1  12
TORSDOF 7
ENDMDL
MODEL 7
REMARK VINA RESULT:      -4.9      1.637      6.458
REMARK  7 active torsions:
REMARK  status: ('A' for Active; 'I' for Inactive)
REMARK    1  A    between atoms: C_2  and  N_4 
REMARK       I    between atoms: N_4  and  C_5 
REMARK    2  A    between atoms: C_5  and  C_7 
REMARK    3  A    between atoms: C_7  and  C_8 
REMARK    4  A    between atoms: C_8  and  N_9 
REMARK    5  A    between atoms: N_9  and  C_10 
REMARK    6  A    between atoms: C_10  and  C_11 
REMARK    7  A    between atoms: C_11  and  N_12 
ROOT
HETATM    1  N   UNL     1     -40.826 -50.544  11.006  1.00  0.00     0.085 N 
HETATM    2  H   UNL     1     -40.149 -50.816  10.292  1.00  0.00     0.315 HD
ENDROOT
BRANCH   1   3
HETATM    3  C   UNL     1     -40.244 -49.467  11.826  1.00  0.00     0.278 C 
BRANCH   3   4
HETATM    4  C   UNL     1     -40.642 -48.083  11.315  1.00  0.00     0.132 C 
BRANCH   4   5
HETATM    5  C   UNL     1     -42.073 -48.105  10.813  1.00  0.00     0.219 C 
HETATM    6  N   UNL     1     -42.222 -47.604   9.536  1.00  0.00    -0.357 N 
HETATM    7  H   UNL     1     -41.443 -47.119   9.107  1.00  0.00     0.162 HD
HETATM    8  O   UNL     1     -43.014 -48.527  11.477  1.00  0.00    -0.274 OA
BRANCH   6   9
HETATM    9  C   UNL     1     -43.538 -47.500   8.915  1.00  0.00     0.076 C 
HETATM   10  C   UNL     1     -44.045 -46.060   8.953  1.00  0.00     0.032 C 
HETATM   11  C   UNL     1     -43.493 -48.022   7.484  1.00  0.00     0.032 C 
ENDBRANCH   6   9
ENDBRANCH   4   5
ENDBRANCH   3   4
ENDBRANCH   1   3
BRANCH   1  12
HETATM   12  C   UNL     1     -41.100 -51.714  11.867  1.00  0.00     0.291 C 
BRANCH  12  13
HETATM   13  C   UNL     1     -41.654 -51.309  13.234  1.00  0.00     0.178 C 
BRANCH  13  14
HETATM   14  N   UNL     1     -42.604 -52.282  13.745  1.00  0.00    -0.302 N 
HETATM   15  C   UNL     1     -43.395 -53.121  13.014  1.00  0.00     0.118 A 
HETATM   16  C   UNL     1     -44.123 -53.862  13.923  1.00  0.00    -0.028 A 
HETATM   17  C   UNL     1     -45.129 -54.915  13.659  1.00  0.00     0.051 C 
HETATM   18  C   UNL     1     -43.686 -53.388  15.179  1.00  0.00     0.115 A 
HETATM   19  N   UNL     1     -42.752 -52.440  15.074  1.00  0.00    -0.310 N 
ATOM     20  HN  UNL     1     -42.265 -51.950  15.825  1.00  0.00     0.186 HD
ENDBRANCH  13  14
ENDBRANCH  12  13
ENDBRANCH   1  12
TORSDOF 7
ENDMDL
MODEL 8
REMARK VINA RESULT:      -4.8      3.168      7.214
REMARK  7 active torsions:
REMARK  status: ('A' for Active; 'I' for Inactive)
REMARK    1  A    between atoms: C_2  and  N_4 
REMARK       I    between atoms: N_4  and  C_5 
REMARK    2  A    between atoms: C_5  and  C_7 
REMARK    3  A    between atoms: C_7  and  C_8 
REMARK    4  A    between atoms: C_8  and  N_9 
REMARK    5  A    between atoms: N_9  and  C_10 
REMARK    6  A    between atoms: C_10  and  C_11 
REMARK    7  A    between atoms: C_11  and  N_12 
ROOT
HETATM    1  N   UNL     1     -43.430 -48.726  11.758  1.00  0.00     0.085 N 
HETATM    2  H   UNL     1     -43.976 -49.451  11.290  1.00  0.00     0.315 HD
ENDROOT
BRANCH   1   3
HETATM    3  C   UNL     1     -42.343 -48.297  10.860  1.00  0.00     0.278 C 
BRANCH   3   4
HETATM    4  C   UNL     1     -42.840 -47.335   9.782  1.00  0.00     0.132 C 
BRANCH   4   5
HETATM    5  C   UNL     1     -42.222 -45.964   9.984  1.00  0.00     0.219 C 
HETATM    6  N   UNL     1     -40.851 -45.990  10.136  1.00  0.00    -0.357 N 
HETATM    7  H   UNL     1     -40.391 -46.882  10.272  1.00  0.00     0.162 HD
HETATM    8  O   UNL     1     -42.877 -44.928  10.011  1.00  0.00    -0.274 OA
BRANCH   6   9
HETATM    9  C   UNL     1     -40.097 -44.768  10.393  1.00  0.00     0.076 C 
HETATM   10  C   UNL     1     -39.583 -44.738  11.831  1.00  0.00     0.032 C 
HETATM   11  C   UNL     1     -38.948 -44.633   9.402  1.00  0.00     0.032 C 
ENDBRANCH   6   9
ENDBRANCH   4   5
ENDBRANCH   3   4
ENDBRANCH   1   3
BRANCH   1  12
HETATM   12  C   UNL     1     -42.845 -49.296  12.990  1.00  0.00     0.291 C 
BRANCH  12  13
HETATM   13  C   UNL     1     -43.100 -50.800  13.108  1.00  0.00     0.178 C 
BRANCH  13  14
HETATM   14  N   UNL     1     -44.463 -51.089  13.517  1.00  0.00    -0.302 N 
HETATM   15  C   UNL     1     -44.978 -51.009  14.780  1.00  0.00     0.118 A 
HETATM   16  C   UNL     1     -46.307 -51.369  14.683  1.00  0.00    -0.028 A 
HETATM   17  C   UNL     1     -47.321 -51.450  15.758  1.00  0.00     0.051 C 
HETATM   18  C   UNL     1     -46.488 -51.643  13.309  1.00  0.00     0.115 A 
HETATM   19  N   UNL     1     -45.374 -51.458  12.597  1.00  0.00    -0.310 N 
ATOM     20  HN  UNL     1     -45.244 -51.570  11.591  1.00  0.00     0.186 HD
ENDBRANCH  13  14
ENDBRANCH  12  13
ENDBRANCH   1  12
TORSDOF 7
ENDMDL
MODEL 9
REMARK VINA RESULT:      -4.8      3.330      7.387
REMARK  7 active torsions:
REMARK  status: ('A' for Active; 'I' for Inactive)
REMARK    1  A    between atoms: C_2  and  N_4 
REMARK       I    between atoms: N_4  and  C_5 
REMARK    2  A    between atoms: C_5  and  C_7 
REMARK    3  A    between atoms: C_7  and  C_8 
REMARK    4  A    between atoms: C_8  and  N_9 
REMARK    5  A    between atoms: N_9  and  C_10 
REMARK    6  A    between atoms: C_10  and  C_11 
REMARK    7  A    between atoms: C_11  and  N_12 
ROOT
HETATM    1  N   UNL     1     -40.210 -49.975  10.805  1.00  0.00     0.085 N 
HETATM    2  H   UNL     1     -39.725 -50.698  10.271  1.00  0.00     0.315 HD
ENDROOT
BRANCH   1   3
HETATM    3  C   UNL     1     -39.217 -49.225  11.594  1.00  0.00     0.278 C 
BRANCH   3   4
HETATM    4  C   UNL     1     -39.849 -48.046  12.333  1.00  0.00     0.132 C 
BRANCH   4   5
HETATM    5  C   UNL     1     -40.412 -47.050  11.338  1.00  0.00     0.219 C 
HETATM    6  N   UNL     1     -39.570 -45.989  11.078  1.00  0.00    -0.357 N 
HETATM    7  H   UNL     1     -38.755 -45.856  11.665  1.00  0.00     0.162 HD
HETATM    8  O   UNL     1     -41.513 -47.171  10.812  1.00  0.00    -0.274 OA
BRANCH   6   9
HETATM    9  C   UNL     1     -39.972 -44.907  10.186  1.00  0.00     0.076 C 
HETATM   10  C   UNL     1     -40.382 -43.669  10.981  1.00  0.00     0.032 C 
HETATM   11  C   UNL     1     -38.849 -44.577   9.209  1.00  0.00     0.032 C 
ENDBRANCH   6   9
ENDBRANCH   4   5
ENDBRANCH   3   4
ENDBRANCH   1   3
BRANCH   1  12
HETATM   12  C   UNL     1     -41.167 -50.628  11.723  1.00  0.00     0.291 C 
BRANCH  12  13
HETATM   13  C   UNL     1     -40.874 -52.120  11.898  1.00  0.00     0.178 C 
BRANCH  13  14
HETATM   14  N   UNL     1     -42.019 -52.838  12.430  1.00  0.00    -0.302 N 
HETATM   15  C   UNL     1     -42.051 -53.625  13.546  1.00  0.00     0.118 A 
HETATM   16  C   UNL     1     -43.345 -54.090  13.659  1.00  0.00    -0.028 A 
HETATM   17  C   UNL     1     -43.918 -54.981  14.692  1.00  0.00     0.051 C 
HETATM   18  C   UNL     1     -44.013 -53.514  12.555  1.00  0.00     0.115 A 
HETATM   19  N   UNL     1     -43.214 -52.741  11.817  1.00  0.00    -0.310 N 
ATOM     20  HN  UNL     1     -43.453 -52.203  10.984  1.00  0.00     0.186 HD
ENDBRANCH  13  14
ENDBRANCH  12  13
ENDBRANCH   1  12
TORSDOF 7
ENDMDL
