MODEL 1
REMARK VINA RESULT:      -5.4      0.000      0.000
REMARK  4 active torsions:
REMARK  status: ('A' for Active; 'I' for Inactive)
REMARK    1  A    between atoms: C_2  and  N_3 
REMARK    2  A    between atoms: C_5  and  N_6 
REMARK       I    between atoms: N_6  and  C_7 
REMARK       I    between atoms: C_7  and  N_9 
REMARK    3  A    between atoms: N_9  and  C_10 
REMARK    4  A    between atoms: N_13  and  C_16 
ROOT
HETATM    1  N   UNL     1     -42.080 -48.520  10.374  1.00  0.00    -0.306 N 
HETATM    2  C   UNL     1     -42.057 -48.970  11.674  1.00  0.00     0.321 C 
HETATM    3  O   UNL     1     -42.772 -48.549  12.581  1.00  0.00    -0.247 OA
HETATM    4  N   UNL     1     -41.139 -49.981  11.904  1.00  0.00    -0.338 N 
HETATM    5  H   UNL     1     -41.383 -48.849   9.723  1.00  0.00     0.171 HD
HETATM    6  H   UNL     1     -40.849 -50.530  11.101  1.00  0.00     0.164 HD
ENDROOT
BRANCH   1   7
HETATM    7  C   UNL     1     -42.966 -47.545   9.932  1.00  0.00     0.070 A 
HETATM    8  C   UNL     1     -44.246 -47.725   9.466  1.00  0.00     0.141 A 
HETATM    9  N   UNL     1     -44.747 -46.491   9.187  1.00  0.00    -0.302 N 
HETATM   10  N   UNL     1     -43.861 -45.499   9.399  1.00  0.00    -0.308 N 
HETATM   11  C   UNL     1     -42.778 -46.145   9.853  1.00  0.00     0.138 A 
ATOM     12  HN  UNL     1     -43.985 -44.497   9.249  1.00  0.00     0.186 HD
BRANCH   9  13
HETATM   13  C   UNL     1     -46.093 -46.210   8.724  1.00  0.00     0.143 C 
HETATM   14  C   UNL     1     -47.058 -47.333   9.066  1.00  0.00     0.028 C 
ENDBRANCH   9  13
ENDBRANCH   1   7
BRANCH   4  15
HETATM   15  C   UNL     1     -41.243 -50.675  13.195  1.00  0.00     0.089 C 
HETATM   16  C   UNL     1     -39.949 -50.692  14.012  1.00  0.00     0.055 C 
HETATM   17  C   UNL     1     -39.028 -51.878  13.735  1.00  0.00     0.275 C 
HETATM   18  N   UNL     1     -39.702 -53.174  13.610  1.00  0.00     0.093 N 
HETATM   19  C   UNL     1     -40.786 -53.100  12.625  1.00  0.00     0.275 C 
HETATM   20  C   UNL     1     -41.848 -52.070  13.001  1.00  0.00     0.055 C 
BRANCH  18  21
HETATM   21  C   UNL     1     -40.138 -53.777  14.884  1.00  0.00     0.223 A 
HETATM   22  C   UNL     1     -39.286 -53.711  16.118  1.00  0.00     0.038 A 
HETATM   23  C   UNL     1     -39.395 -55.000  15.361  1.00  0.00     0.038 A 
ENDBRANCH  18  21
ENDBRANCH   4  15
TORSDOF 4
ENDMDL
MODEL 2
REMARK VINA RESULT:      -5.3      2.974      7.568
REMARK  4 active torsions:
REMARK  status: ('A' for Active; 'I' for Inactive)
REMARK    1  A    between atoms: C_2  and  N_3 
REMARK    2  A    between atoms: C_5  and  N_6 
REMARK       I    between atoms: N_6  and  C_7 
REMARK       I    between atoms: C_7  and  N_9 
REMARK    3  A    between atoms: N_9  and  C_10 
REMARK    4  A    between atoms: N_13  and  C_16 
ROOT
HETATM    1  N   UNL     1     -42.626 -51.683  12.057  1.00  0.00    -0.306 N 
HETATM    2  C   UNL     1     -42.872 -50.395  12.474  1.00  0.00     0.321 C 
HETATM    3  O   UNL     1     -43.542 -50.085  13.456  1.00  0.00    -0.247 OA
HETATM    4  N   UNL     1     -42.280 -49.424  11.682  1.00  0.00    -0.338 N 
HETATM    5  H   UNL     1     -42.155 -51.839  11.179  1.00  0.00     0.171 HD
HETATM    6  H   UNL     1     -41.475 -49.707  11.134  1.00  0.00     0.164 HD
ENDROOT
BRANCH   1   7
HETATM    7  C   UNL     1     -43.090 -52.797  12.747  1.00  0.00     0.070 A 
HETATM    8  C   UNL     1     -44.377 -53.278  12.793  1.00  0.00     0.141 A 
HETATM    9  N   UNL     1     -44.355 -54.406  13.555  1.00  0.00    -0.302 N 
HETATM   10  N   UNL     1     -43.136 -54.683  14.056  1.00  0.00    -0.308 N 
HETATM   11  C   UNL     1     -42.368 -53.701  13.561  1.00  0.00     0.138 A 
ATOM     12  HN  UNL     1     -42.862 -55.455  14.665  1.00  0.00     0.186 HD
BRANCH   9  13
HETATM   13  C   UNL     1     -45.490 -55.269  13.819  1.00  0.00     0.143 C 
HETATM   14  C   UNL     1     -46.514 -54.602  14.722  1.00  0.00     0.028 C 
ENDBRANCH   9  13
ENDBRANCH   1   7
BRANCH   4  15
HETATM   15  C   UNL     1     -42.291 -48.055  12.213  1.00  0.00     0.089 C 
HETATM   16  C   UNL     1     -43.038 -47.042  11.343  1.00  0.00     0.055 C 
HETATM   17  C   UNL     1     -42.187 -46.354  10.279  1.00  0.00     0.275 C 
HETATM   18  N   UNL     1     -40.857 -45.928  10.726  1.00  0.00     0.093 N 
HETATM   19  C   UNL     1     -40.136 -47.046  11.343  1.00  0.00     0.275 C 
HETATM   20  C   UNL     1     -40.865 -47.610  12.561  1.00  0.00     0.055 C 
BRANCH  18  21
HETATM   21  C   UNL     1     -40.838 -44.713  11.564  1.00  0.00     0.223 A 
HETATM   22  C   UNL     1     -41.750 -43.553  11.287  1.00  0.00     0.038 A 
HETATM   23  C   UNL     1     -40.295 -43.451  10.940  1.00  0.00     0.038 A 
ENDBRANCH  18  21
ENDBRANCH   4  15
TORSDOF 4
ENDMDL
MODEL 3
REMARK VINA RESULT:      -5.3      2.610      2.901
REMARK  4 active torsions:
REMARK  status: ('A' for Active; 'I' for Inactive)
REMARK    1  A    between atoms: C_2  and  N_3 
REMARK    2  A    between atoms: C_5  and  N_6 
REMARK       I    between atoms: N_6  and  C_7 
REMARK       I    between atoms: C_7  and  N_9 
REMARK    3  A    between atoms: N_9  and  C_10 
REMARK    4  A    between atoms: N_13  and  C_16 
ROOT
HETATM    1  N   UNL     1     -41.814 -47.479   9.902  1.00  0.00    -0.306 N 
HETATM    2  C   UNL     1     -41.547 -48.028  11.135  1.00  0.00     0.321 C 
HETATM    3  O   UNL     1     -42.341 -48.088  12.070  1.00  0.00    -0.247 OA
HETATM    4  N   UNL     1     -40.265 -48.541  11.257  1.00  0.00    -0.338 N 
HETATM    5  H   UNL     1     -41.067 -47.377   9.232  1.00  0.00     0.171 HD
HETATM    6  H   UNL     1     -39.790 -48.797  10.398  1.00  0.00     0.164 HD
ENDROOT
BRANCH   1   7
HETATM    7  C   UNL     1     -43.058 -46.958   9.566  1.00  0.00     0.070 A 
HETATM    8  C   UNL     1     -44.226 -47.650   9.351  1.00  0.00     0.141 A 
HETATM    9  N   UNL     1     -45.193 -46.728   9.089  1.00  0.00    -0.302 N 
HETATM   10  N   UNL     1     -44.731 -45.464   9.074  1.00  0.00    -0.308 N 
HETATM   11  C   UNL     1     -43.430 -45.608   9.366  1.00  0.00     0.138 A 
ATOM     12  HN  UNL     1     -45.246 -44.603   8.886  1.00  0.00     0.186 HD
BRANCH   9  13
HETATM   13  C   UNL     1     -46.595 -47.018   8.859  1.00  0.00     0.143 C 
HETATM   14  C   UNL     1     -46.879 -48.511   8.882  1.00  0.00     0.028 C 
ENDBRANCH   9  13
ENDBRANCH   1   7
BRANCH   4  15
HETATM   15  C   UNL     1     -40.002 -49.361  12.447  1.00  0.00     0.089 C 
HETATM   16  C   UNL     1     -39.897 -48.570  13.752  1.00  0.00     0.055 C 
HETATM   17  C   UNL     1     -38.494 -48.074  14.094  1.00  0.00     0.275 C 
HETATM   18  N   UNL     1     -37.418 -49.044  13.866  1.00  0.00     0.093 N 
HETATM   19  C   UNL     1     -37.478 -49.571  12.498  1.00  0.00     0.275 C 
HETATM   20  C   UNL     1     -38.798 -50.279  12.203  1.00  0.00     0.055 C 
BRANCH  18  21
HETATM   21  C   UNL     1     -37.315 -50.113  14.878  1.00  0.00     0.223 A 
HETATM   22  C   UNL     1     -37.634 -49.860  16.324  1.00  0.00     0.038 A 
HETATM   23  C   UNL     1     -36.205 -49.999  15.893  1.00  0.00     0.038 A 
ENDBRANCH  18  21
ENDBRANCH   4  15
TORSDOF 4
ENDMDL
MODEL 4
REMARK VINA RESULT:      -5.2      1.837      2.133
REMARK  4 active torsions:
REMARK  status: ('A' for Active; 'I' for Inactive)
REMARK    1  A    between atoms: C_2  and  N_3 
REMARK    2  A    between atoms: C_5  and  N_6 
REMARK       I    between atoms: N_6  and  C_7 
REMARK       I    between atoms: C_7  and  N_9 
REMARK    3  A    between atoms: N_9  and  C_10 
REMARK    4  A    between atoms: N_13  and  C_16 
ROOT
HETATM    1  N   UNL     1     -41.467 -49.381  11.109  1.00  0.00    -0.306 N 
HETATM    2  C   UNL     1     -42.117 -49.922  12.195  1.00  0.00     0.321 C 
HETATM    3  O   UNL     1     -43.014 -49.373  12.829  1.00  0.00    -0.247 OA
HETATM    4  N   UNL     1     -41.680 -51.192  12.536  1.00  0.00    -0.338 N 
HETATM    5  H   UNL     1     -40.671 -49.861  10.718  1.00  0.00     0.171 HD
HETATM    6  H   UNL     1     -41.229 -51.734  11.807  1.00  0.00     0.164 HD
ENDROOT
BRANCH   1   7
HETATM    7  C   UNL     1     -41.795 -48.138  10.581  1.00  0.00     0.070 A 
HETATM    8  C   UNL     1     -42.907 -47.808   9.843  1.00  0.00     0.141 A 
HETATM    9  N   UNL     1     -42.828 -46.476   9.577  1.00  0.00    -0.302 N 
HETATM   10  N   UNL     1     -41.708 -45.904  10.058  1.00  0.00    -0.308 N 
HETATM   11  C   UNL     1     -41.082 -46.919  10.670  1.00  0.00     0.138 A 
ATOM     12  HN  UNL     1     -41.408 -44.932   9.977  1.00  0.00     0.186 HD
BRANCH   9  13
HETATM   13  C   UNL     1     -43.826 -45.696   8.869  1.00  0.00     0.143 C 
HETATM   14  C   UNL     1     -45.195 -46.353   8.910  1.00  0.00     0.028 C 
ENDBRANCH   9  13
ENDBRANCH   1   7
BRANCH   4  15
HETATM   15  C   UNL     1     -42.499 -51.922  13.514  1.00  0.00     0.089 C 
HETATM   16  C   UNL     1     -41.954 -51.896  14.943  1.00  0.00     0.055 C 
HETATM   17  C   UNL     1     -40.988 -53.027  15.286  1.00  0.00     0.275 C 
HETATM   18  N   UNL     1     -41.380 -54.352  14.793  1.00  0.00     0.093 N 
HETATM   19  C   UNL     1     -41.660 -54.307  13.354  1.00  0.00     0.275 C 
HETATM   20  C   UNL     1     -42.790 -53.340  13.009  1.00  0.00     0.055 C 
BRANCH  18  21
HETATM   21  C   UNL     1     -42.460 -55.008  15.557  1.00  0.00     0.223 A 
HETATM   22  C   UNL     1     -42.547 -54.893  17.052  1.00  0.00     0.038 A 
HETATM   23  C   UNL     1     -42.077 -56.175  16.433  1.00  0.00     0.038 A 
ENDBRANCH  18  21
ENDBRANCH   4  15
TORSDOF 4
ENDMDL
MODEL 5
REMARK VINA RESULT:      -5.1      2.053      3.217
REMARK  4 active torsions:
REMARK  status: ('A' for Active; 'I' for Inactive)
REMARK    1  A    between atoms: C_2  and  N_3 
REMARK    2  A    between atoms: C_5  and  N_6 
REMARK       I    between atoms: N_6  and  C_7 
REMARK       I    between atoms: C_7  and  N_9 
REMARK    3  A    between atoms: N_9  and  C_10 
REMARK    4  A    between atoms: N_13  and  C_16 
ROOT
HETATM    1  N   UNL     1     -42.246 -49.514  11.590  1.00  0.00    -0.306 N 
HETATM    2  C   UNL     1     -41.210 -50.410  11.727  1.00  0.00     0.321 C 
HETATM    3  O   UNL     1     -40.061 -50.230  11.332  1.00  0.00    -0.247 OA
HETATM    4  N   UNL     1     -41.562 -51.582  12.378  1.00  0.00    -0.338 N 
HETATM    5  H   UNL     1     -43.180 -49.793  11.849  1.00  0.00     0.171 HD
HETATM    6  H   UNL     1     -42.373 -51.543  12.986  1.00  0.00     0.164 HD
ENDROOT
BRANCH   1   7
HETATM    7  C   UNL     1     -42.082 -48.262  11.010  1.00  0.00     0.070 A 
HETATM    8  C   UNL     1     -41.409 -47.181  11.526  1.00  0.00     0.141 A 
HETATM    9  N   UNL     1     -41.477 -46.188  10.597  1.00  0.00    -0.302 N 
HETATM   10  N   UNL     1     -42.192 -46.528   9.508  1.00  0.00    -0.308 N 
HETATM   11  C   UNL     1     -42.558 -47.793   9.763  1.00  0.00     0.138 A 
ATOM     12  HN  UNL     1     -42.403 -45.961   8.686  1.00  0.00     0.186 HD
BRANCH   9  13
HETATM   13  C   UNL     1     -40.848 -44.886  10.706  1.00  0.00     0.143 C 
HETATM   14  C   UNL     1     -39.501 -44.844  10.006  1.00  0.00     0.028 C 
ENDBRANCH   9  13
ENDBRANCH   1   7
BRANCH   4  15
HETATM   15  C   UNL     1     -40.456 -52.461  12.780  1.00  0.00     0.089 C 
HETATM   16  C   UNL     1     -40.859 -53.917  13.023  1.00  0.00     0.055 C 
HETATM   17  C   UNL     1     -41.298 -54.236  14.450  1.00  0.00     0.275 C 
HETATM   18  N   UNL     1     -40.474 -53.634  15.503  1.00  0.00     0.093 N 
HETATM   19  C   UNL     1     -40.343 -52.188  15.296  1.00  0.00     0.275 C 
HETATM   20  C   UNL     1     -39.691 -51.847  13.958  1.00  0.00     0.055 C 
BRANCH  18  21
HETATM   21  C   UNL     1     -39.171 -54.291  15.729  1.00  0.00     0.223 A 
HETATM   22  C   UNL     1     -39.072 -55.763  16.015  1.00  0.00     0.038 A 
HETATM   23  C   UNL     1     -38.874 -54.776  17.127  1.00  0.00     0.038 A 
ENDBRANCH  18  21
ENDBRANCH   4  15
TORSDOF 4
ENDMDL
MODEL 6
REMARK VINA RESULT:      -5.0      3.253      4.350
REMARK  4 active torsions:
REMARK  status: ('A' for Active; 'I' for Inactive)
REMARK    1  A    between atoms: C_2  and  N_3 
REMARK    2  A    between atoms: C_5  and  N_6 
REMARK       I    between atoms: N_6  and  C_7 
REMARK       I    between atoms: C_7  and  N_9 
REMARK    3  A    between atoms: N_9  and  C_10 
REMARK    4  A    between atoms: N_13  and  C_16 
ROOT
HETATM    1  N   UNL     1     -41.916 -47.850  10.913  1.00  0.00    -0.306 N 
HETATM    2  C   UNL     1     -41.793 -48.730  11.964  1.00  0.00     0.321 C 
HETATM    3  O   UNL     1     -41.167 -48.514  12.999  1.00  0.00    -0.247 OA
HETATM    4  N   UNL     1     -42.461 -49.929  11.774  1.00  0.00    -0.338 N 
HETATM    5  H   UNL     1     -42.359 -48.155  10.060  1.00  0.00     0.171 HD
HETATM    6  H   UNL     1     -43.230 -49.927  11.114  1.00  0.00     0.164 HD
ENDROOT
BRANCH   1   7
HETATM    7  C   UNL     1     -41.361 -46.575  10.933  1.00  0.00     0.070 A 
HETATM    8  C   UNL     1     -42.016 -45.379  11.099  1.00  0.00     0.141 A 
HETATM    9  N   UNL     1     -41.070 -44.401  11.090  1.00  0.00    -0.302 N 
HETATM   10  N   UNL     1     -39.824 -44.870  10.885  1.00  0.00    -0.308 N 
HETATM   11  C   UNL     1     -40.006 -46.195  10.791  1.00  0.00     0.138 A 
ATOM     12  HN  UNL     1     -38.952 -44.344  10.818  1.00  0.00     0.186 HD
BRANCH   9  13
HETATM   13  C   UNL     1     -41.316 -42.986  11.293  1.00  0.00     0.143 C 
HETATM   14  C   UNL     1     -40.278 -42.354  12.206  1.00  0.00     0.028 C 
ENDBRANCH   9  13
ENDBRANCH   1   7
BRANCH   4  15
HETATM   15  C   UNL     1     -42.582 -50.800  12.951  1.00  0.00     0.089 C 
HETATM   16  C   UNL     1     -42.363 -52.287  12.665  1.00  0.00     0.055 C 
HETATM   17  C   UNL     1     -43.621 -53.061  12.276  1.00  0.00     0.275 C 
HETATM   18  N   UNL     1     -44.814 -52.749  13.070  1.00  0.00     0.093 N 
HETATM   19  C   UNL     1     -45.061 -51.303  13.086  1.00  0.00     0.275 C 
HETATM   20  C   UNL     1     -43.897 -50.518  13.687  1.00  0.00     0.055 C 
BRANCH  18  21
HETATM   21  C   UNL     1     -44.837 -53.340  14.422  1.00  0.00     0.223 A 
HETATM   22  C   UNL     1     -44.372 -54.746  14.674  1.00  0.00     0.038 A 
HETATM   23  C   UNL     1     -45.839 -54.437  14.681  1.00  0.00     0.038 A 
ENDBRANCH  18  21
ENDBRANCH   4  15
TORSDOF 4
ENDMDL
MODEL 7
REMARK VINA RESULT:      -5.0      2.893      8.114
REMARK  4 active torsions:
REMARK  status: ('A' for Active; 'I' for Inactive)
REMARK    1  A    between atoms: C_2  and  N_3 
REMARK    2  A    between atoms: C_5  and  N_6 
REMARK       I    between atoms: N_6  and  C_7 
REMARK       I    between atoms: C_7  and  N_9 
REMARK    3  A    between atoms: N_9  and  C_10 
REMARK    4  A    between atoms: N_13  and  C_16 
ROOT
HETATM    1  N   UNL     1     -40.135 -50.466  11.620  1.00  0.00    -0.306 N 
HETATM    2  C   UNL     1     -40.952 -49.365  11.730  1.00  0.00     0.321 C 
HETATM    3  O   UNL     1     -42.046 -49.347  12.288  1.00  0.00    -0.247 OA
HETATM    4  N   UNL     1     -40.433 -48.219  11.148  1.00  0.00    -0.338 N 
HETATM    5  H   UNL     1     -39.304 -50.413  11.051  1.00  0.00     0.171 HD
HETATM    6  H   UNL     1     -39.426 -48.178  11.034  1.00  0.00     0.164 HD
ENDROOT
BRANCH   1   7
HETATM    7  C   UNL     1     -40.455 -51.697  12.181  1.00  0.00     0.070 A 
HETATM    8  C   UNL     1     -39.987 -52.228  13.359  1.00  0.00     0.141 A 
HETATM    9  N   UNL     1     -40.601 -53.431  13.527  1.00  0.00    -0.302 N 
HETATM   10  N   UNL     1     -41.420 -53.755  12.508  1.00  0.00    -0.308 N 
HETATM   11  C   UNL     1     -41.329 -52.695  11.691  1.00  0.00     0.138 A 
ATOM     12  HN  UNL     1     -41.976 -54.601  12.387  1.00  0.00     0.186 HD
BRANCH   9  13
HETATM   13  C   UNL     1     -40.442 -54.308  14.671  1.00  0.00     0.143 C 
HETATM   14  C   UNL     1     -39.017 -54.819  14.803  1.00  0.00     0.028 C 
ENDBRANCH   9  13
ENDBRANCH   1   7
BRANCH   4  15
HETATM   15  C   UNL     1     -41.131 -46.962  11.450  1.00  0.00     0.089 C 
HETATM   16  C   UNL     1     -40.950 -45.867  10.397  1.00  0.00     0.055 C 
HETATM   17  C   UNL     1     -39.744 -44.956  10.615  1.00  0.00     0.275 C 
HETATM   18  N   UNL     1     -39.529 -44.528  12.001  1.00  0.00     0.093 N 
HETATM   19  C   UNL     1     -39.491 -45.686  12.900  1.00  0.00     0.275 C 
HETATM   20  C   UNL     1     -40.787 -46.492  12.869  1.00  0.00     0.055 C 
BRANCH  18  21
HETATM   21  C   UNL     1     -40.444 -43.473  12.478  1.00  0.00     0.223 A 
HETATM   22  C   UNL     1     -40.720 -42.243  11.661  1.00  0.00     0.038 A 
HETATM   23  C   UNL     1     -39.832 -42.150  12.866  1.00  0.00     0.038 A 
ENDBRANCH  18  21
ENDBRANCH   4  15
TORSDOF 4
ENDMDL
MODEL 8
REMARK VINA RESULT:      -5.0      3.512      4.447
REMARK  4 active torsions:
REMARK  status: ('A' for Active; 'I' for Inactive)
REMARK    1  A    between atoms: C_2  and  N_3 
REMARK    2  A    between atoms: C_5  and  N_6 
REMARK       I    between atoms: N_6  and  C_7 
REMARK       I    between atoms: C_7  and  N_9 
REMARK    3  A    between atoms: N_9  and  C_10 
REMARK    4  A    between atoms: N_13  and  C_16 
ROOT
HETATM    1  N   UNL     1     -42.540 -49.156  11.389  1.00  0.00    -0.306 N 
HETATM    2  C   UNL     1     -43.064 -49.238  12.659  1.00  0.00     0.321 C 
HETATM    3  O   UNL     1     -43.154 -48.303  13.450  1.00  0.00    -0.247 OA
HETATM    4  N   UNL     1     -43.512 -50.504  13.001  1.00  0.00    -0.338 N 
HETATM    5  H   UNL     1     -42.408 -49.999  10.851  1.00  0.00     0.171 HD
HETATM    6  H   UNL     1     -43.754 -51.128  12.239  1.00  0.00     0.164 HD
ENDROOT
BRANCH   1   7
HETATM    7  C   UNL     1     -42.083 -47.963  10.842  1.00  0.00     0.070 A 
HETATM    8  C   UNL     1     -40.940 -47.274  11.169  1.00  0.00     0.141 A 
HETATM    9  N   UNL     1     -40.880 -46.188  10.352  1.00  0.00    -0.302 N 
HETATM   10  N   UNL     1     -41.938 -46.087   9.525  1.00  0.00    -0.308 N 
HETATM   11  C   UNL     1     -42.668 -47.171   9.826  1.00  0.00     0.138 A 
ATOM     12  HN  UNL     1     -42.136 -45.361   8.836  1.00  0.00     0.186 HD
BRANCH   9  13
HETATM   13  C   UNL     1     -39.804 -45.216  10.316  1.00  0.00     0.143 C 
HETATM   14  C   UNL     1     -40.178 -43.926  11.027  1.00  0.00     0.028 C 
ENDBRANCH   9  13
ENDBRANCH   1   7
BRANCH   4  15
HETATM   15  C   UNL     1     -44.308 -50.602  14.233  1.00  0.00     0.089 C 
HETATM   16  C   UNL     1     -43.528 -51.093  15.454  1.00  0.00     0.055 C 
HETATM   17  C   UNL     1     -43.513 -52.608  15.643  1.00  0.00     0.275 C 
HETATM   18  N   UNL     1     -44.798 -53.277  15.415  1.00  0.00     0.093 N 
HETATM   19  C   UNL     1     -45.348 -52.908  14.106  1.00  0.00     0.275 C 
HETATM   20  C   UNL     1     -45.588 -51.406  13.975  1.00  0.00     0.055 C 
BRANCH  18  21
HETATM   21  C   UNL     1     -45.783 -53.125  16.504  1.00  0.00     0.223 A 
HETATM   22  C   UNL     1     -45.355 -52.918  17.928  1.00  0.00     0.038 A 
HETATM   23  C   UNL     1     -45.892 -54.252  17.500  1.00  0.00     0.038 A 
ENDBRANCH  18  21
ENDBRANCH   4  15
TORSDOF 4
ENDMDL
MODEL 9
REMARK VINA RESULT:      -4.9      2.225      3.280
REMARK  4 active torsions:
REMARK  status: ('A' for Active; 'I' for Inactive)
REMARK    1  A    between atoms: C_2  and  N_3 
REMARK    2  A    between atoms: C_5  and  N_6 
REMARK       I    between atoms: N_6  and  C_7 
REMARK       I    between atoms: C_7  and  N_9 
REMARK    3  A    between atoms: N_9  and  C_10 
REMARK    4  A    between atoms: N_13  and  C_16 
ROOT
HETATM    1  N   UNL     1     -41.682 -49.427  11.054  1.00  0.00    -0.306 N 
HETATM    2  C   UNL     1     -41.871 -49.855  12.348  1.00  0.00     0.321 C 
HETATM    3  O   UNL     1     -41.952 -49.123  13.331  1.00  0.00    -0.247 OA
HETATM    4  N   UNL     1     -41.979 -51.231  12.476  1.00  0.00    -0.338 N 
HETATM    5  H   UNL     1     -41.521 -50.106  10.325  1.00  0.00     0.171 HD
HETATM    6  H   UNL     1     -42.267 -51.748  11.651  1.00  0.00     0.164 HD
ENDROOT
BRANCH   1   7
HETATM    7  C   UNL     1     -41.600 -48.082  10.712  1.00  0.00     0.070 A 
HETATM    8  C   UNL     1     -40.644 -47.176  11.103  1.00  0.00     0.141 A 
HETATM    9  N   UNL     1     -40.943 -45.994  10.497  1.00  0.00    -0.302 N 
HETATM   10  N   UNL     1     -42.068 -46.048   9.757  1.00  0.00    -0.308 N 
HETATM   11  C   UNL     1     -42.464 -47.321   9.890  1.00  0.00     0.138 A 
ATOM     12  HN  UNL     1     -42.511 -45.299   9.223  1.00  0.00     0.186 HD
BRANCH   9  13
HETATM   13  C   UNL     1     -40.160 -44.777  10.586  1.00  0.00     0.143 C 
HETATM   14  C   UNL     1     -39.096 -44.704   9.504  1.00  0.00     0.028 C 
ENDBRANCH   9  13
ENDBRANCH   1   7
BRANCH   4  15
HETATM   15  C   UNL     1     -42.433 -51.731  13.780  1.00  0.00     0.089 C 
HETATM   16  C   UNL     1     -41.306 -52.059  14.761  1.00  0.00     0.055 C 
HETATM   17  C   UNL     1     -40.777 -53.489  14.681  1.00  0.00     0.275 C 
HETATM   18  N   UNL     1     -41.805 -54.526  14.544  1.00  0.00     0.093 N 
HETATM   19  C   UNL     1     -42.699 -54.224  13.421  1.00  0.00     0.275 C 
HETATM   20  C   UNL     1     -43.420 -52.889  13.591  1.00  0.00     0.055 C 
BRANCH  18  21
HETATM   21  C   UNL     1     -42.543 -54.841  15.783  1.00  0.00     0.223 A 
HETATM   22  C   UNL     1     -41.877 -54.800  17.128  1.00  0.00     0.038 A 
HETATM   23  C   UNL     1     -42.186 -56.123  16.494  1.00  0.00     0.038 A 
ENDBRANCH  18  21
ENDBRANCH   4  15
TORSDOF 4
ENDMDL
