MODEL 1
REMARK VINA RESULT:      -6.8      0.000      0.000
REMARK  5 active torsions:
REMARK  status: ('A' for Active; 'I' for Inactive)
REMARK       I    between atoms: N_2  and  C_4 
REMARK    1  A    between atoms: C_4  and  C_6 
REMARK    2  A    between atoms: C_6  and  C_7 
REMARK       I    between atoms: N_10  and  C_13 
REMARK       I    between atoms: C_13  and  N_15 
REMARK    3  A    between atoms: N_15  and  C_16 
REMARK    4  A    between atoms: C_16  and  C_17 
REMARK    5  A    between atoms: C_17  and  C_18 
ROOT
HETATM    1  C   UNL     1     -41.774 -52.869  14.555  1.00  0.00    -0.003 C 
HETATM    2  C   UNL     1     -42.679 -51.624  14.533  1.00  0.00     0.025 C 
HETATM    3  C   UNL     1     -42.886 -51.050  13.129  1.00  0.00     0.128 C 
HETATM    4  N   UNL     1     -41.608 -50.808  12.456  1.00  0.00    -0.334 N 
HETATM    5  C   UNL     1     -40.694 -51.949  12.433  1.00  0.00     0.128 C 
HETATM    6  C   UNL     1     -40.463 -52.536  13.824  1.00  0.00     0.025 C 
HETATM    7  C   UNL     1     -41.348 -49.788  11.552  1.00  0.00     0.318 C 
HETATM    8  O   UNL     1     -40.320 -49.748  10.879  1.00  0.00    -0.247 OA
HETATM    9  N   UNL     1     -42.318 -48.821  11.427  1.00  0.00    -0.343 N 
HETATM   10  H   UNL     1     -42.792 -48.593  12.286  1.00  0.00     0.164 HD
ENDROOT
BRANCH   9  11
HETATM   11  C   UNL     1     -42.043 -47.700  10.541  1.00  0.00     0.129 C 
BRANCH  11  12
HETATM   12  C   UNL     1     -43.258 -46.804  10.301  1.00  0.00     0.060 C 
BRANCH  12  13
HETATM   13  C   UNL     1     -44.188 -47.424   9.290  1.00  0.00    -0.041 A 
HETATM   14  C   UNL     1     -45.524 -47.693   9.591  1.00  0.00     0.010 A 
HETATM   15  C   UNL     1     -46.323 -48.356   8.660  1.00  0.00     0.025 A 
HETATM   16  C   UNL     1     -45.765 -48.738   7.440  1.00  0.00     0.005 A 
HETATM   17  C   UNL     1     -46.559 -49.514   6.439  1.00  0.00     0.068 C 
HETATM   18  N   UNL     1     -44.479 -48.467   7.122  1.00  0.00    -0.369 N 
HETATM   19  C   UNL     1     -43.725 -47.825   8.043  1.00  0.00     0.095 A 
ATOM     20  HN  UNL     1     -44.090 -48.737   6.218  1.00  0.00     0.165 HD
ENDBRANCH  12  13
ENDBRANCH  11  12
ENDBRANCH   9  11
BRANCH   1  21
HETATM   21  C   UNL     1     -42.450 -54.121  13.956  1.00  0.00     0.107 C 
BRANCH  21  22
HETATM   22  C   UNL     1     -43.769 -54.490  14.631  1.00  0.00     0.219 C 
HETATM   23  N   UNL     1     -44.927 -54.306  13.879  1.00  0.00    -0.361 N 
HETATM   24  C   UNL     1     -46.186 -54.738  14.460  1.00  0.00     0.152 C 
HETATM   25  C   UNL     1     -44.946 -53.714  12.551  1.00  0.00     0.152 C 
HETATM   26  O   UNL     1     -43.805 -54.955  15.770  1.00  0.00    -0.273 OA
ENDBRANCH  21  22
ENDBRANCH   1  21
TORSDOF 5
ENDMDL
MODEL 2
REMARK VINA RESULT:      -6.4      1.797      2.496
REMARK  5 active torsions:
REMARK  status: ('A' for Active; 'I' for Inactive)
REMARK       I    between atoms: N_2  and  C_4 
REMARK    1  A    between atoms: C_4  and  C_6 
REMARK    2  A    between atoms: C_6  and  C_7 
REMARK       I    between atoms: N_10  and  C_13 
REMARK       I    between atoms: C_13  and  N_15 
REMARK    3  A    between atoms: N_15  and  C_16 
REMARK    4  A    between atoms: C_16  and  C_17 
REMARK    5  A    between atoms: C_17  and  C_18 
ROOT
HETATM    1  C   UNL     1     -42.045 -53.939  13.723  1.00  0.00    -0.003 C 
HETATM    2  C   UNL     1     -42.113 -52.793  14.749  1.00  0.00     0.025 C 
HETATM    3  C   UNL     1     -42.211 -51.408  14.105  1.00  0.00     0.128 C 
HETATM    4  N   UNL     1     -41.145 -51.199  13.123  1.00  0.00    -0.334 N 
HETATM    5  C   UNL     1     -41.020 -52.247  12.110  1.00  0.00     0.128 C 
HETATM    6  C   UNL     1     -40.912 -53.639  12.727  1.00  0.00     0.025 C 
HETATM    7  C   UNL     1     -40.531 -49.988  12.838  1.00  0.00     0.318 C 
HETATM    8  O   UNL     1     -39.780 -49.837  11.876  1.00  0.00    -0.247 OA
HETATM    9  N   UNL     1     -40.822 -48.942  13.684  1.00  0.00    -0.343 N 
HETATM   10  H   UNL     1     -40.939 -49.207  14.648  1.00  0.00     0.164 HD
ENDROOT
BRANCH   9  11
HETATM   11  C   UNL     1     -40.136 -47.679  13.455  1.00  0.00     0.129 C 
BRANCH  11  12
HETATM   12  C   UNL     1     -41.089 -46.508  13.213  1.00  0.00     0.060 C 
BRANCH  12  13
HETATM   13  C   UNL     1     -41.872 -46.710  11.941  1.00  0.00    -0.041 A 
HETATM   14  C   UNL     1     -43.141 -47.291  11.943  1.00  0.00     0.010 A 
HETATM   15  C   UNL     1     -43.787 -47.547  10.735  1.00  0.00     0.025 A 
HETATM   16  C   UNL     1     -43.147 -47.216   9.541  1.00  0.00     0.005 A 
HETATM   17  C   UNL     1     -43.766 -47.537   8.219  1.00  0.00     0.068 C 
HETATM   18  N   UNL     1     -41.926 -46.633   9.518  1.00  0.00    -0.369 N 
HETATM   19  C   UNL     1     -41.320 -46.397  10.704  1.00  0.00     0.095 A 
ATOM     20  HN  UNL     1     -41.478 -46.380   8.637  1.00  0.00     0.165 HD
ENDBRANCH  12  13
ENDBRANCH  11  12
ENDBRANCH   9  11
BRANCH   1  21
HETATM   21  C   UNL     1     -43.384 -54.182  12.995  1.00  0.00     0.107 C 
BRANCH  21  22
HETATM   22  C   UNL     1     -44.558 -54.440  13.937  1.00  0.00     0.219 C 
HETATM   23  N   UNL     1     -45.632 -53.559  13.850  1.00  0.00    -0.361 N 
HETATM   24  C   UNL     1     -46.802 -53.836  14.666  1.00  0.00     0.152 C 
HETATM   25  C   UNL     1     -45.652 -52.386  12.991  1.00  0.00     0.152 C 
HETATM   26  O   UNL     1     -44.568 -55.397  14.713  1.00  0.00    -0.273 OA
ENDBRANCH  21  22
ENDBRANCH   1  21
TORSDOF 5
ENDMDL
MODEL 3
REMARK VINA RESULT:      -6.4      3.184      7.873
REMARK  5 active torsions:
REMARK  status: ('A' for Active; 'I' for Inactive)
REMARK       I    between atoms: N_2  and  C_4 
REMARK    1  A    between atoms: C_4  and  C_6 
REMARK    2  A    between atoms: C_6  and  C_7 
REMARK       I    between atoms: N_10  and  C_13 
REMARK       I    between atoms: C_13  and  N_15 
REMARK    3  A    between atoms: N_15  and  C_16 
REMARK    4  A    between atoms: C_16  and  C_17 
REMARK    5  A    between atoms: C_17  and  C_18 
ROOT
HETATM    1  C   UNL     1     -40.569 -46.901  10.984  1.00  0.00    -0.003 C 
HETATM    2  C   UNL     1     -41.649 -47.806  10.363  1.00  0.00     0.025 C 
HETATM    3  C   UNL     1     -42.323 -48.730  11.381  1.00  0.00     0.128 C 
HETATM    4  N   UNL     1     -41.336 -49.501  12.140  1.00  0.00    -0.334 N 
HETATM    5  C   UNL     1     -40.277 -48.707  12.764  1.00  0.00     0.128 C 
HETATM    6  C   UNL     1     -39.583 -47.782  11.768  1.00  0.00     0.025 C 
HETATM    7  C   UNL     1     -41.510 -50.789  12.624  1.00  0.00     0.318 C 
HETATM    8  O   UNL     1     -40.724 -51.311  13.413  1.00  0.00    -0.247 OA
HETATM    9  N   UNL     1     -42.631 -51.458  12.190  1.00  0.00    -0.343 N 
HETATM   10  H   UNL     1     -42.888 -51.264  11.236  1.00  0.00     0.164 HD
ENDROOT
BRANCH   9  11
HETATM   11  C   UNL     1     -42.803 -52.837  12.622  1.00  0.00     0.129 C 
BRANCH  11  12
HETATM   12  C   UNL     1     -44.207 -53.383  12.361  1.00  0.00     0.060 C 
BRANCH  12  13
HETATM   13  C   UNL     1     -45.177 -52.883  13.400  1.00  0.00    -0.041 A 
HETATM   14  C   UNL     1     -46.046 -51.821  13.143  1.00  0.00     0.010 A 
HETATM   15  C   UNL     1     -46.857 -51.328  14.163  1.00  0.00     0.025 A 
HETATM   16  C   UNL     1     -46.784 -51.911  15.428  1.00  0.00     0.005 A 
HETATM   17  C   UNL     1     -47.579 -51.372  16.573  1.00  0.00     0.068 C 
HETATM   18  N   UNL     1     -45.964 -52.955  15.691  1.00  0.00    -0.369 N 
HETATM   19  C   UNL     1     -45.185 -53.413  14.685  1.00  0.00     0.095 A 
ATOM     20  HN  UNL     1     -45.934 -53.383  16.618  1.00  0.00     0.165 HD
ENDBRANCH  12  13
ENDBRANCH  11  12
ENDBRANCH   9  11
BRANCH   1  21
HETATM   21  C   UNL     1     -41.154 -45.782  11.872  1.00  0.00     0.107 C 
BRANCH  21  22
HETATM   22  C   UNL     1     -41.121 -44.400  11.223  1.00  0.00     0.219 C 
HETATM   23  N   UNL     1     -41.842 -43.395  11.861  1.00  0.00    -0.361 N 
HETATM   24  C   UNL     1     -41.752 -42.050  11.319  1.00  0.00     0.152 C 
HETATM   25  C   UNL     1     -42.673 -43.612  13.034  1.00  0.00     0.152 C 
HETATM   26  O   UNL     1     -40.465 -44.179  10.204  1.00  0.00    -0.273 OA
ENDBRANCH  21  22
ENDBRANCH   1  21
TORSDOF 5
ENDMDL
MODEL 4
REMARK VINA RESULT:      -6.1      2.606      7.142
REMARK  5 active torsions:
REMARK  status: ('A' for Active; 'I' for Inactive)
REMARK       I    between atoms: N_2  and  C_4 
REMARK    1  A    between atoms: C_4  and  C_6 
REMARK    2  A    between atoms: C_6  and  C_7 
REMARK       I    between atoms: N_10  and  C_13 
REMARK       I    between atoms: C_13  and  N_15 
REMARK    3  A    between atoms: N_15  and  C_16 
REMARK    4  A    between atoms: C_16  and  C_17 
REMARK    5  A    between atoms: C_17  and  C_18 
ROOT
HETATM    1  C   UNL     1     -40.238 -46.884  12.246  1.00  0.00    -0.003 C 
HETATM    2  C   UNL     1     -40.010 -48.148  11.396  1.00  0.00     0.025 C 
HETATM    3  C   UNL     1     -40.833 -49.350  11.866  1.00  0.00     0.128 C 
HETATM    4  N   UNL     1     -40.632 -49.610  13.293  1.00  0.00    -0.334 N 
HETATM    5  C   UNL     1     -40.835 -48.455  14.168  1.00  0.00     0.128 C 
HETATM    6  C   UNL     1     -40.020 -47.243  13.725  1.00  0.00     0.025 C 
HETATM    7  C   UNL     1     -40.651 -50.857  13.901  1.00  0.00     0.318 C 
HETATM    8  O   UNL     1     -40.667 -50.997  15.123  1.00  0.00    -0.247 OA
HETATM    9  N   UNL     1     -40.671 -51.946  13.060  1.00  0.00    -0.343 N 
HETATM   10  H   UNL     1     -40.135 -51.830  12.216  1.00  0.00     0.164 HD
ENDROOT
BRANCH   9  11
HETATM   11  C   UNL     1     -40.617 -53.267  13.667  1.00  0.00     0.129 C 
BRANCH  11  12
HETATM   12  C   UNL     1     -41.732 -54.199  13.191  1.00  0.00     0.060 C 
BRANCH  12  13
HETATM   13  C   UNL     1     -43.085 -53.597  13.467  1.00  0.00    -0.041 A 
HETATM   14  C   UNL     1     -43.999 -53.343  12.443  1.00  0.00     0.010 A 
HETATM   15  C   UNL     1     -45.200 -52.696  12.731  1.00  0.00     0.025 A 
HETATM   16  C   UNL     1     -45.464 -52.314  14.046  1.00  0.00     0.005 A 
HETATM   17  C   UNL     1     -46.704 -51.554  14.394  1.00  0.00     0.068 C 
HETATM   18  N   UNL     1     -44.601 -52.570  15.056  1.00  0.00    -0.369 N 
HETATM   19  C   UNL     1     -43.443 -53.196  14.750  1.00  0.00     0.095 A 
ATOM     20  HN  UNL     1     -44.817 -52.300  16.016  1.00  0.00     0.165 HD
ENDBRANCH  12  13
ENDBRANCH  11  12
ENDBRANCH   9  11
BRANCH   1  21
HETATM   21  C   UNL     1     -41.625 -46.244  12.021  1.00  0.00     0.107 C 
BRANCH  21  22
HETATM   22  C   UNL     1     -41.926 -45.926  10.558  1.00  0.00     0.219 C 
HETATM   23  N   UNL     1     -43.023 -46.571   9.994  1.00  0.00    -0.361 N 
HETATM   24  C   UNL     1     -43.390 -46.216   8.634  1.00  0.00     0.152 C 
HETATM   25  C   UNL     1     -43.821 -47.570  10.686  1.00  0.00     0.152 C 
HETATM   26  O   UNL     1     -41.251 -45.119   9.919  1.00  0.00    -0.273 OA
ENDBRANCH  21  22
ENDBRANCH   1  21
TORSDOF 5
ENDMDL
MODEL 5
REMARK VINA RESULT:      -6.1      4.140      7.182
REMARK  5 active torsions:
REMARK  status: ('A' for Active; 'I' for Inactive)
REMARK       I    between atoms: N_2  and  C_4 
REMARK    1  A    between atoms: C_4  and  C_6 
REMARK    2  A    between atoms: C_6  and  C_7 
REMARK       I    between atoms: N_10  and  C_13 
REMARK       I    between atoms: C_13  and  N_15 
REMARK    3  A    between atoms: N_15  and  C_16 
REMARK    4  A    between atoms: C_16  and  C_17 
REMARK    5  A    between atoms: C_17  and  C_18 
ROOT
HETATM    1  C   UNL     1     -38.353 -48.817  12.666  1.00  0.00    -0.003 C 
HETATM    2  C   UNL     1     -39.891 -48.843  12.588  1.00  0.00     0.025 C 
HETATM    3  C   UNL     1     -40.519 -49.976  13.403  1.00  0.00     0.128 C 
HETATM    4  N   UNL     1     -39.933 -51.273  13.056  1.00  0.00    -0.334 N 
HETATM    5  C   UNL     1     -38.472 -51.327  13.111  1.00  0.00     0.128 C 
HETATM    6  C   UNL     1     -37.819 -50.211  12.299  1.00  0.00     0.025 C 
HETATM    7  C   UNL     1     -40.598 -52.490  13.060  1.00  0.00     0.318 C 
HETATM    8  O   UNL     1     -40.010 -53.565  12.946  1.00  0.00    -0.247 OA
HETATM    9  N   UNL     1     -41.963 -52.440  13.220  1.00  0.00    -0.343 N 
HETATM   10  H   UNL     1     -42.405 -51.652  12.777  1.00  0.00     0.164 HD
ENDROOT
BRANCH   9  11
HETATM   11  C   UNL     1     -42.696 -53.695  13.155  1.00  0.00     0.129 C 
BRANCH  11  12
HETATM   12  C   UNL     1     -44.068 -53.562  12.491  1.00  0.00     0.060 C 
BRANCH  12  13
HETATM   13  C   UNL     1     -45.080 -53.010  13.462  1.00  0.00    -0.041 A 
HETATM   14  C   UNL     1     -45.867 -51.900  13.149  1.00  0.00     0.010 A 
HETATM   15  C   UNL     1     -46.720 -51.365  14.113  1.00  0.00     0.025 A 
HETATM   16  C   UNL     1     -46.769 -51.953  15.377  1.00  0.00     0.005 A 
HETATM   17  C   UNL     1     -47.612 -51.371  16.466  1.00  0.00     0.068 C 
HETATM   18  N   UNL     1     -46.029 -53.041  15.692  1.00  0.00    -0.369 N 
HETATM   19  C   UNL     1     -45.208 -53.540  14.740  1.00  0.00     0.095 A 
ATOM     20  HN  UNL     1     -46.089 -53.471  16.615  1.00  0.00     0.165 HD
ENDBRANCH  12  13
ENDBRANCH  11  12
ENDBRANCH   9  11
BRANCH   1  21
HETATM   21  C   UNL     1     -37.823 -48.355  14.040  1.00  0.00     0.107 C 
BRANCH  21  22
HETATM   22  C   UNL     1     -38.458 -47.059  14.540  1.00  0.00     0.219 C 
HETATM   23  N   UNL     1     -39.114 -47.119  15.766  1.00  0.00    -0.361 N 
HETATM   24  C   UNL     1     -39.644 -45.881  16.311  1.00  0.00     0.152 C 
HETATM   25  C   UNL     1     -39.295 -48.343  16.530  1.00  0.00     0.152 C 
HETATM   26  O   UNL     1     -38.367 -46.007  13.906  1.00  0.00    -0.273 OA
ENDBRANCH  21  22
ENDBRANCH   1  21
TORSDOF 5
ENDMDL
MODEL 6
REMARK VINA RESULT:      -6.1      3.875      4.904
REMARK  5 active torsions:
REMARK  status: ('A' for Active; 'I' for Inactive)
REMARK       I    between atoms: N_2  and  C_4 
REMARK    1  A    between atoms: C_4  and  C_6 
REMARK    2  A    between atoms: C_6  and  C_7 
REMARK       I    between atoms: N_10  and  C_13 
REMARK       I    between atoms: C_13  and  N_15 
REMARK    3  A    between atoms: N_15  and  C_16 
REMARK    4  A    between atoms: C_16  and  C_17 
REMARK    5  A    between atoms: C_17  and  C_18 
ROOT
HETATM    1  C   UNL     1     -42.419 -54.220  13.853  1.00  0.00    -0.003 C 
HETATM    2  C   UNL     1     -42.170 -53.101  14.881  1.00  0.00     0.025 C 
HETATM    3  C   UNL     1     -41.755 -51.774  14.243  1.00  0.00     0.128 C 
HETATM    4  N   UNL     1     -40.616 -51.948  13.339  1.00  0.00    -0.334 N 
HETATM    5  C   UNL     1     -40.781 -52.994  12.329  1.00  0.00     0.128 C 
HETATM    6  C   UNL     1     -41.187 -54.332  12.941  1.00  0.00     0.025 C 
HETATM    7  C   UNL     1     -39.615 -51.016  13.107  1.00  0.00     0.318 C 
HETATM    8  O   UNL     1     -38.793 -51.140  12.200  1.00  0.00    -0.247 OA
HETATM    9  N   UNL     1     -39.596 -49.921  13.939  1.00  0.00    -0.343 N 
HETATM   10  H   UNL     1     -39.860 -50.116  14.890  1.00  0.00     0.164 HD
ENDROOT
BRANCH   9  11
HETATM   11  C   UNL     1     -38.513 -48.963  13.768  1.00  0.00     0.129 C 
BRANCH  11  12
HETATM   12  C   UNL     1     -38.724 -47.665  14.548  1.00  0.00     0.060 C 
BRANCH  12  13
HETATM   13  C   UNL     1     -39.084 -46.535  13.618  1.00  0.00    -0.041 A 
HETATM   14  C   UNL     1     -38.904 -45.199  13.982  1.00  0.00     0.010 A 
HETATM   15  C   UNL     1     -39.341 -44.186  13.131  1.00  0.00     0.025 A 
HETATM   16  C   UNL     1     -39.953 -44.530  11.926  1.00  0.00     0.005 A 
HETATM   17  C   UNL     1     -40.504 -43.482  11.013  1.00  0.00     0.068 C 
HETATM   18  N   UNL     1     -40.117 -45.818  11.546  1.00  0.00    -0.369 N 
HETATM   19  C   UNL     1     -39.687 -46.782  12.390  1.00  0.00     0.095 A 
ATOM     20  HN  UNL     1     -40.551 -46.054  10.653  1.00  0.00     0.165 HD
ENDBRANCH  12  13
ENDBRANCH  11  12
ENDBRANCH   9  11
BRANCH   1  21
HETATM   21  C   UNL     1     -43.710 -54.013  13.033  1.00  0.00     0.107 C 
BRANCH  21  22
HETATM   22  C   UNL     1     -44.991 -54.178  13.849  1.00  0.00     0.219 C 
HETATM   23  N   UNL     1     -45.774 -53.039  14.015  1.00  0.00    -0.361 N 
HETATM   24  C   UNL     1     -47.044 -53.187  14.704  1.00  0.00     0.152 C 
HETATM   25  C   UNL     1     -45.398 -51.718  13.536  1.00  0.00     0.152 C 
HETATM   26  O   UNL     1     -45.328 -55.268  14.311  1.00  0.00    -0.273 OA
ENDBRANCH  21  22
ENDBRANCH   1  21
TORSDOF 5
ENDMDL
MODEL 7
REMARK VINA RESULT:      -6.1      2.600      4.057
REMARK  5 active torsions:
REMARK  status: ('A' for Active; 'I' for Inactive)
REMARK       I    between atoms: N_2  and  C_4 
REMARK    1  A    between atoms: C_4  and  C_6 
REMARK    2  A    between atoms: C_6  and  C_7 
REMARK       I    between atoms: N_10  and  C_13 
REMARK       I    between atoms: C_13  and  N_15 
REMARK    3  A    between atoms: N_15  and  C_16 
REMARK    4  A    between atoms: C_16  and  C_17 
REMARK    5  A    between atoms: C_17  and  C_18 
ROOT
HETATM    1  C   UNL     1     -42.574 -54.433  15.846  1.00  0.00    -0.003 C 
HETATM    2  C   UNL     1     -42.430 -52.914  16.056  1.00  0.00     0.025 C 
HETATM    3  C   UNL     1     -41.763 -52.201  14.877  1.00  0.00     0.128 C 
HETATM    4  N   UNL     1     -40.487 -52.827  14.525  1.00  0.00    -0.334 N 
HETATM    5  C   UNL     1     -40.545 -54.272  14.306  1.00  0.00     0.128 C 
HETATM    6  C   UNL     1     -41.199 -55.009  15.472  1.00  0.00     0.025 C 
HETATM    7  C   UNL     1     -39.371 -52.170  14.026  1.00  0.00     0.318 C 
HETATM    8  O   UNL     1     -38.398 -52.770  13.572  1.00  0.00    -0.247 OA
HETATM    9  N   UNL     1     -39.414 -50.795  14.044  1.00  0.00    -0.343 N 
HETATM   10  H   UNL     1     -39.885 -50.404  14.843  1.00  0.00     0.164 HD
ENDROOT
BRANCH   9  11
HETATM   11  C   UNL     1     -38.229 -50.079  13.596  1.00  0.00     0.129 C 
BRANCH  11  12
HETATM   12  C   UNL     1     -38.260 -49.729  12.107  1.00  0.00     0.060 C 
BRANCH  12  13
HETATM   13  C   UNL     1     -39.548 -49.033  11.748  1.00  0.00    -0.041 A 
HETATM   14  C   UNL     1     -39.814 -47.726  12.158  1.00  0.00     0.010 A 
HETATM   15  C   UNL     1     -41.057 -47.156  11.887  1.00  0.00     0.025 A 
HETATM   16  C   UNL     1     -42.014 -47.909  11.207  1.00  0.00     0.005 A 
HETATM   17  C   UNL     1     -43.386 -47.369  10.957  1.00  0.00     0.068 C 
HETATM   18  N   UNL     1     -41.767 -49.170  10.783  1.00  0.00    -0.369 N 
HETATM   19  C   UNL     1     -40.555 -49.701  11.061  1.00  0.00     0.095 A 
ATOM     20  HN  UNL     1     -42.471 -49.702  10.272  1.00  0.00     0.165 HD
ENDBRANCH  12  13
ENDBRANCH  11  12
ENDBRANCH   9  11
BRANCH   1  21
HETATM   21  C   UNL     1     -43.643 -54.801  14.795  1.00  0.00     0.107 C 
BRANCH  21  22
HETATM   22  C   UNL     1     -45.020 -54.205  15.083  1.00  0.00     0.219 C 
HETATM   23  N   UNL     1     -45.542 -53.350  14.116  1.00  0.00    -0.361 N 
HETATM   24  C   UNL     1     -46.889 -52.844  14.318  1.00  0.00     0.152 C 
HETATM   25  C   UNL     1     -44.823 -52.940  12.921  1.00  0.00     0.152 C 
HETATM   26  O   UNL     1     -45.648 -54.489  16.103  1.00  0.00    -0.273 OA
ENDBRANCH  21  22
ENDBRANCH   1  21
TORSDOF 5
ENDMDL
MODEL 8
REMARK VINA RESULT:      -5.8      1.953      2.093
REMARK  5 active torsions:
REMARK  status: ('A' for Active; 'I' for Inactive)
REMARK       I    between atoms: N_2  and  C_4 
REMARK    1  A    between atoms: C_4  and  C_6 
REMARK    2  A    between atoms: C_6  and  C_7 
REMARK       I    between atoms: N_10  and  C_13 
REMARK       I    between atoms: C_13  and  N_15 
REMARK    3  A    between atoms: N_15  and  C_16 
REMARK    4  A    between atoms: C_16  and  C_17 
REMARK    5  A    between atoms: C_17  and  C_18 
ROOT
HETATM    1  C   UNL     1     -43.041 -51.697  15.840  1.00  0.00    -0.003 C 
HETATM    2  C   UNL     1     -43.267 -50.186  15.647  1.00  0.00     0.025 C 
HETATM    3  C   UNL     1     -43.520 -49.793  14.189  1.00  0.00     0.128 C 
HETATM    4  N   UNL     1     -42.468 -50.304  13.308  1.00  0.00    -0.334 N 
HETATM    5  C   UNL     1     -42.198 -51.737  13.431  1.00  0.00     0.128 C 
HETATM    6  C   UNL     1     -41.934 -52.154  14.876  1.00  0.00     0.025 C 
HETATM    7  C   UNL     1     -42.000 -49.683  12.159  1.00  0.00     0.318 C 
HETATM    8  O   UNL     1     -41.254 -50.247  11.359  1.00  0.00    -0.247 OA
HETATM    9  N   UNL     1     -42.431 -48.395  11.942  1.00  0.00    -0.343 N 
HETATM   10  H   UNL     1     -42.534 -47.844  12.778  1.00  0.00     0.164 HD
ENDROOT
BRANCH   9  11
HETATM   11  C   UNL     1     -41.899 -47.692  10.784  1.00  0.00     0.129 C 
BRANCH  11  12
HETATM   12  C   UNL     1     -42.851 -46.632  10.229  1.00  0.00     0.060 C 
BRANCH  12  13
HETATM   13  C   UNL     1     -43.880 -47.260   9.324  1.00  0.00    -0.041 A 
HETATM   14  C   UNL     1     -45.182 -47.513   9.758  1.00  0.00     0.010 A 
HETATM   15  C   UNL     1     -46.073 -48.183   8.921  1.00  0.00     0.025 A 
HETATM   16  C   UNL     1     -45.640 -48.589   7.658  1.00  0.00     0.005 A 
HETATM   17  C   UNL     1     -46.534 -49.374   6.752  1.00  0.00     0.068 C 
HETATM   18  N   UNL     1     -44.389 -48.334   7.212  1.00  0.00    -0.369 N 
HETATM   19  C   UNL     1     -43.544 -47.685   8.044  1.00  0.00     0.095 A 
ATOM     20  HN  UNL     1     -44.093 -48.622   6.278  1.00  0.00     0.165 HD
ENDBRANCH  12  13
ENDBRANCH  11  12
ENDBRANCH   9  11
BRANCH   1  21
HETATM   21  C   UNL     1     -44.327 -52.530  15.657  1.00  0.00     0.107 C 
BRANCH  21  22
HETATM   22  C   UNL     1     -45.474 -52.100  16.569  1.00  0.00     0.219 C 
HETATM   23  N   UNL     1     -46.629 -51.641  15.942  1.00  0.00    -0.361 N 
HETATM   24  C   UNL     1     -47.770 -51.316  16.782  1.00  0.00     0.152 C 
HETATM   25  C   UNL     1     -46.761 -51.474  14.504  1.00  0.00     0.152 C 
HETATM   26  O   UNL     1     -45.393 -52.184  17.795  1.00  0.00    -0.273 OA
ENDBRANCH  21  22
ENDBRANCH   1  21
TORSDOF 5
ENDMDL
MODEL 9
REMARK VINA RESULT:      -5.7     13.966     15.187
REMARK  5 active torsions:
REMARK  status: ('A' for Active; 'I' for Inactive)
REMARK       I    between atoms: N_2  and  C_4 
REMARK    1  A    between atoms: C_4  and  C_6 
REMARK    2  A    between atoms: C_6  and  C_7 
REMARK       I    between atoms: N_10  and  C_13 
REMARK       I    between atoms: C_13  and  N_15 
REMARK    3  A    between atoms: N_15  and  C_16 
REMARK    4  A    between atoms: C_16  and  C_17 
REMARK    5  A    between atoms: C_17  and  C_18 
ROOT
HETATM    1  C   UNL     1     -50.820 -52.548  -0.404  1.00  0.00    -0.003 C 
HETATM    2  C   UNL     1     -50.484 -51.111   0.037  1.00  0.00     0.025 C 
HETATM    3  C   UNL     1     -49.995 -50.224  -1.111  1.00  0.00     0.128 C 
HETATM    4  N   UNL     1     -48.884 -50.848  -1.832  1.00  0.00    -0.334 N 
HETATM    5  C   UNL     1     -49.130 -52.216  -2.287  1.00  0.00     0.128 C 
HETATM    6  C   UNL     1     -49.611 -53.124  -1.159  1.00  0.00     0.025 C 
HETATM    7  C   UNL     1     -47.829 -50.177  -2.433  1.00  0.00     0.318 C 
HETATM    8  O   UNL     1     -47.031 -50.736  -3.184  1.00  0.00    -0.247 OA
HETATM    9  N   UNL     1     -47.727 -48.832  -2.162  1.00  0.00    -0.343 N 
HETATM   10  H   UNL     1     -47.989 -48.575  -1.225  1.00  0.00     0.164 HD
ENDROOT
BRANCH   9  11
HETATM   11  C   UNL     1     -46.589 -48.116  -2.719  1.00  0.00     0.129 C 
BRANCH  11  12
HETATM   12  C   UNL     1     -46.005 -47.071  -1.767  1.00  0.00     0.060 C 
BRANCH  12  13
HETATM   13  C   UNL     1     -44.499 -47.089  -1.811  1.00  0.00    -0.041 A 
HETATM   14  C   UNL     1     -43.735 -46.094  -1.200  1.00  0.00     0.010 A 
HETATM   15  C   UNL     1     -42.349 -46.097  -1.349  1.00  0.00     0.025 A 
HETATM   16  C   UNL     1     -41.752 -47.102  -2.110  1.00  0.00     0.005 A 
HETATM   17  C   UNL     1     -40.278 -47.107  -2.359  1.00  0.00     0.068 C 
HETATM   18  N   UNL     1     -42.474 -48.087  -2.691  1.00  0.00    -0.369 N 
HETATM   19  C   UNL     1     -43.816 -48.060  -2.534  1.00  0.00     0.095 A 
ATOM     20  HN  UNL     1     -42.020 -48.826  -3.230  1.00  0.00     0.165 HD
ENDBRANCH  12  13
ENDBRANCH  11  12
ENDBRANCH   9  11
BRANCH   1  21
HETATM   21  C   UNL     1     -52.108 -52.637  -1.250  1.00  0.00     0.107 C 
BRANCH  21  22
HETATM   22  C   UNL     1     -52.733 -54.029  -1.274  1.00  0.00     0.219 C 
HETATM   23  N   UNL     1     -52.736 -54.690  -2.500  1.00  0.00    -0.361 N 
HETATM   24  C   UNL     1     -53.238 -56.053  -2.532  1.00  0.00     0.152 C 
HETATM   25  C   UNL     1     -52.263 -54.099  -3.741  1.00  0.00     0.152 C 
HETATM   26  O   UNL     1     -53.185 -54.554  -0.256  1.00  0.00    -0.273 OA
ENDBRANCH  21  22
ENDBRANCH   1  21
TORSDOF 5
ENDMDL
