MODEL 1
REMARK VINA RESULT:      -6.6      0.000      0.000
REMARK  4 active torsions:
REMARK  status: ('A' for Active; 'I' for Inactive)
REMARK    1  A    between atoms: C_2  and  N_3 
REMARK    2  A    between atoms: C_7  and  N_9 
REMARK       I    between atoms: N_9  and  C_10 
REMARK       I    between atoms: C_10  and  N_12 
REMARK    3  A    between atoms: N_12  and  C_13 
REMARK    4  A    between atoms: C_16  and  N_20 
ROOT
HETATM    1  N   UNL     1     -42.504 -52.295  12.123  1.00  0.00    -0.337 N 
HETATM    2  C   UNL     1     -42.290 -50.939  12.268  1.00  0.00     0.321 C 
HETATM    3  O   UNL     1     -42.838 -50.304  13.159  1.00  0.00    -0.247 OA
HETATM    4  N   UNL     1     -41.383 -50.439  11.365  1.00  0.00    -0.308 N 
HETATM    5  H   UNL     1     -42.483 -52.656  11.180  1.00  0.00     0.164 HD
HETATM    6  H   UNL     1     -40.804 -51.113  10.893  1.00  0.00     0.170 HD
ENDROOT
BRANCH   1   7
HETATM    7  C   UNL     1     -43.388 -52.948  13.086  1.00  0.00     0.114 C 
HETATM    8  C   UNL     1     -42.817 -54.276  13.574  1.00  0.00     0.029 C 
HETATM    9  C   UNL     1     -43.753 -54.883  14.618  1.00  0.00     0.032 C 
HETATM   10  C   UNL     1     -45.194 -54.990  14.104  1.00  0.00     0.272 C 
HETATM   11  N   UNL     1     -45.754 -53.743  13.558  1.00  0.00     0.090 N 
HETATM   12  C   UNL     1     -44.832 -53.158  12.559  1.00  0.00     0.297 C 
BRANCH  11  13
HETATM   13  C   UNL     1     -46.122 -52.737  14.569  1.00  0.00     0.268 C 
HETATM   14  C   UNL     1     -46.648 -51.426  13.993  1.00  0.00     0.037 C 
ENDBRANCH  11  13
ENDBRANCH   1   7
BRANCH   4  15
HETATM   15  C   UNL     1     -40.993 -49.077  11.295  1.00  0.00     0.051 A 
HETATM   16  C   UNL     1     -40.024 -48.514  12.109  1.00  0.00     0.035 A 
HETATM   17  C   UNL     1     -39.668 -47.172  11.962  1.00  0.00     0.050 A 
HETATM   18  C   UNL     1     -40.298 -46.358  11.025  1.00  0.00     0.102 A 
HETATM   19  N   UNL     1     -41.261 -46.897  10.239  1.00  0.00    -0.350 N 
HETATM   20  C   UNL     1     -41.580 -48.215  10.380  1.00  0.00     0.119 A 
ATOM     21  HN  UNL     1     -41.743 -46.322   9.548  1.00  0.00     0.166 HD
BRANCH  18  22
HETATM   22  N   UNL     1     -39.911 -45.039  10.824  1.00  0.00    -0.376 N 
HETATM   23  C   UNL     1     -39.194 -44.725   9.593  1.00  0.00     0.150 C 
HETATM   24  C   UNL     1     -40.645 -43.917  11.400  1.00  0.00     0.150 C 
ENDBRANCH  18  22
ENDBRANCH   4  15
TORSDOF 4
ENDMDL
MODEL 2
REMARK VINA RESULT:      -5.6      2.113      3.405
REMARK  4 active torsions:
REMARK  status: ('A' for Active; 'I' for Inactive)
REMARK    1  A    between atoms: C_2  and  N_3 
REMARK    2  A    between atoms: C_7  and  N_9 
REMARK       I    between atoms: N_9  and  C_10 
REMARK       I    between atoms: C_10  and  N_12 
REMARK    3  A    between atoms: N_12  and  C_13 
REMARK    4  A    between atoms: C_16  and  N_20 
ROOT
HETATM    1  N   UNL     1     -40.708 -51.020  11.500  1.00  0.00    -0.337 N 
HETATM    2  C   UNL     1     -40.957 -49.696  11.803  1.00  0.00     0.321 C 
HETATM    3  O   UNL     1     -41.095 -49.328  12.962  1.00  0.00    -0.247 OA
HETATM    4  N   UNL     1     -40.966 -48.885  10.694  1.00  0.00    -0.308 N 
HETATM    5  H   UNL     1     -41.091 -51.363  10.631  1.00  0.00     0.164 HD
HETATM    6  H   UNL     1     -40.556 -49.266   9.858  1.00  0.00     0.170 HD
ENDROOT
BRANCH   1   7
HETATM    7  C   UNL     1     -40.592 -51.958  12.614  1.00  0.00     0.114 C 
HETATM    8  C   UNL     1     -39.182 -51.981  13.196  1.00  0.00     0.029 C 
HETATM    9  C   UNL     1     -39.135 -52.933  14.390  1.00  0.00     0.032 C 
HETATM   10  C   UNL     1     -39.671 -54.326  14.035  1.00  0.00     0.272 C 
HETATM   11  N   UNL     1     -41.000 -54.338  13.403  1.00  0.00     0.090 N 
HETATM   12  C   UNL     1     -41.037 -53.401  12.258  1.00  0.00     0.297 C 
BRANCH  11  13
HETATM   13  C   UNL     1     -42.122 -54.072  14.322  1.00  0.00     0.268 C 
HETATM   14  C   UNL     1     -43.502 -54.172  13.678  1.00  0.00     0.037 C 
ENDBRANCH  11  13
ENDBRANCH   1   7
BRANCH   4  15
HETATM   15  C   UNL     1     -41.206 -47.487  10.729  1.00  0.00     0.051 A 
HETATM   16  C   UNL     1     -42.420 -46.908  10.396  1.00  0.00     0.035 A 
HETATM   17  C   UNL     1     -42.593 -45.526  10.485  1.00  0.00     0.050 A 
HETATM   18  C   UNL     1     -41.547 -44.692  10.871  1.00  0.00     0.102 A 
HETATM   19  N   UNL     1     -40.351 -45.250  11.178  1.00  0.00    -0.350 N 
HETATM   20  C   UNL     1     -40.207 -46.604  11.109  1.00  0.00     0.119 A 
ATOM     21  HN  UNL     1     -39.567 -44.662  11.460  1.00  0.00     0.166 HD
BRANCH  18  22
HETATM   22  N   UNL     1     -41.722 -43.322  11.025  1.00  0.00    -0.376 N 
HETATM   23  C   UNL     1     -43.088 -42.825  11.147  1.00  0.00     0.150 C 
HETATM   24  C   UNL     1     -40.711 -42.475  11.648  1.00  0.00     0.150 C 
ENDBRANCH  18  22
ENDBRANCH   4  15
TORSDOF 4
ENDMDL
MODEL 3
REMARK VINA RESULT:      -5.5      3.029      7.905
REMARK  4 active torsions:
REMARK  status: ('A' for Active; 'I' for Inactive)
REMARK    1  A    between atoms: C_2  and  N_3 
REMARK    2  A    between atoms: C_7  and  N_9 
REMARK       I    between atoms: N_9  and  C_10 
REMARK       I    between atoms: C_10  and  N_12 
REMARK    3  A    between atoms: N_12  and  C_13 
REMARK    4  A    between atoms: C_16  and  N_20 
ROOT
HETATM    1  N   UNL     1     -41.161 -49.116  10.589  1.00  0.00    -0.337 N 
HETATM    2  C   UNL     1     -41.218 -49.956  11.683  1.00  0.00     0.321 C 
HETATM    3  O   UNL     1     -41.898 -49.675  12.662  1.00  0.00    -0.247 OA
HETATM    4  N   UNL     1     -40.499 -51.114  11.509  1.00  0.00    -0.308 N 
HETATM    5  H   UNL     1     -40.287 -49.092  10.085  1.00  0.00     0.164 HD
HETATM    6  H   UNL     1     -40.237 -51.339  10.564  1.00  0.00     0.170 HD
ENDROOT
BRANCH   1   7
HETATM    7  C   UNL     1     -41.959 -47.893  10.633  1.00  0.00     0.114 C 
HETATM    8  C   UNL     1     -42.878 -47.768   9.422  1.00  0.00     0.029 C 
HETATM    9  C   UNL     1     -43.727 -46.503   9.550  1.00  0.00     0.032 C 
HETATM   10  C   UNL     1     -42.866 -45.257   9.795  1.00  0.00     0.272 C 
HETATM   11  N   UNL     1     -41.915 -45.368  10.911  1.00  0.00     0.090 N 
HETATM   12  C   UNL     1     -41.109 -46.603  10.784  1.00  0.00     0.297 C 
BRANCH  11  13
HETATM   13  C   UNL     1     -42.524 -45.288  12.251  1.00  0.00     0.268 C 
HETATM   14  C   UNL     1     -42.223 -43.996  13.005  1.00  0.00     0.037 C 
ENDBRANCH  11  13
ENDBRANCH   1   7
BRANCH   4  15
HETATM   15  C   UNL     1     -40.388 -52.140  12.483  1.00  0.00     0.051 A 
HETATM   16  C   UNL     1     -41.216 -53.249  12.526  1.00  0.00     0.035 A 
HETATM   17  C   UNL     1     -41.026 -54.236  13.495  1.00  0.00     0.050 A 
HETATM   18  C   UNL     1     -40.031 -54.116  14.461  1.00  0.00     0.102 A 
HETATM   19  N   UNL     1     -39.231 -53.023  14.436  1.00  0.00    -0.350 N 
HETATM   20  C   UNL     1     -39.414 -52.080  13.469  1.00  0.00     0.119 A 
ATOM     21  HN  UNL     1     -38.497 -52.907  15.135  1.00  0.00     0.166 HD
BRANCH  18  22
HETATM   22  N   UNL     1     -39.790 -55.119  15.392  1.00  0.00    -0.376 N 
HETATM   23  C   UNL     1     -38.411 -55.325  15.822  1.00  0.00     0.150 C 
HETATM   24  C   UNL     1     -40.796 -55.536  16.362  1.00  0.00     0.150 C 
ENDBRANCH  18  22
ENDBRANCH   4  15
TORSDOF 4
ENDMDL
MODEL 4
REMARK VINA RESULT:      -5.4      1.276      2.280
REMARK  4 active torsions:
REMARK  status: ('A' for Active; 'I' for Inactive)
REMARK    1  A    between atoms: C_2  and  N_3 
REMARK    2  A    between atoms: C_7  and  N_9 
REMARK       I    between atoms: N_9  and  C_10 
REMARK       I    between atoms: C_10  and  N_12 
REMARK    3  A    between atoms: N_12  and  C_13 
REMARK    4  A    between atoms: C_16  and  N_20 
ROOT
HETATM    1  N   UNL     1     -41.889 -52.832  11.963  1.00  0.00    -0.337 N 
HETATM    2  C   UNL     1     -41.798 -51.469  12.159  1.00  0.00     0.321 C 
HETATM    3  O   UNL     1     -42.419 -50.917  13.059  1.00  0.00    -0.247 OA
HETATM    4  N   UNL     1     -40.919 -50.859  11.297  1.00  0.00    -0.308 N 
HETATM    5  H   UNL     1     -41.816 -53.155  11.009  1.00  0.00     0.164 HD
HETATM    6  H   UNL     1     -40.273 -51.463  10.817  1.00  0.00     0.170 HD
ENDROOT
BRANCH   1   7
HETATM    7  C   UNL     1     -42.733 -53.593  12.881  1.00  0.00     0.114 C 
HETATM    8  C   UNL     1     -44.206 -53.522  12.491  1.00  0.00     0.029 C 
HETATM    9  C   UNL     1     -45.032 -54.381  13.449  1.00  0.00     0.032 C 
HETATM   10  C   UNL     1     -44.770 -54.017  14.916  1.00  0.00     0.272 C 
HETATM   11  N   UNL     1     -43.353 -54.003  15.310  1.00  0.00     0.090 N 
HETATM   12  C   UNL     1     -42.562 -53.181  14.367  1.00  0.00     0.297 C 
BRANCH  11  13
HETATM   13  C   UNL     1     -42.743 -55.336  15.467  1.00  0.00     0.268 C 
HETATM   14  C   UNL     1     -41.368 -55.327  16.128  1.00  0.00     0.037 C 
ENDBRANCH  11  13
ENDBRANCH   1   7
BRANCH   4  15
HETATM   15  C   UNL     1     -40.648 -49.466  11.284  1.00  0.00     0.051 A 
HETATM   16  C   UNL     1     -39.652 -48.872  12.040  1.00  0.00     0.035 A 
HETATM   17  C   UNL     1     -39.421 -47.497  11.952  1.00  0.00     0.050 A 
HETATM   18  C   UNL     1     -40.205 -46.686  11.135  1.00  0.00     0.102 A 
HETATM   19  N   UNL     1     -41.193 -47.259  10.408  1.00  0.00    -0.350 N 
HETATM   20  C   UNL     1     -41.390 -48.606  10.488  1.00  0.00     0.119 A 
ATOM     21  HN  UNL     1     -41.785 -46.688   9.805  1.00  0.00     0.166 HD
BRANCH  18  22
HETATM   22  N   UNL     1     -39.946 -45.329  10.989  1.00  0.00    -0.376 N 
HETATM   23  C   UNL     1     -39.686 -44.556  12.198  1.00  0.00     0.150 C 
HETATM   24  C   UNL     1     -39.347 -44.779   9.778  1.00  0.00     0.150 C 
ENDBRANCH  18  22
ENDBRANCH   4  15
TORSDOF 4
ENDMDL
MODEL 5
REMARK VINA RESULT:      -5.4      1.604      2.398
REMARK  4 active torsions:
REMARK  status: ('A' for Active; 'I' for Inactive)
REMARK    1  A    between atoms: C_2  and  N_3 
REMARK    2  A    between atoms: C_7  and  N_9 
REMARK       I    between atoms: N_9  and  C_10 
REMARK       I    between atoms: C_10  and  N_12 
REMARK    3  A    between atoms: N_12  and  C_13 
REMARK    4  A    between atoms: C_16  and  N_20 
ROOT
HETATM    1  N   UNL     1     -41.455 -51.074  11.505  1.00  0.00    -0.337 N 
HETATM    2  C   UNL     1     -41.634 -49.734  11.784  1.00  0.00     0.321 C 
HETATM    3  O   UNL     1     -42.047 -49.365  12.876  1.00  0.00    -0.247 OA
HETATM    4  N   UNL     1     -41.247 -48.914  10.752  1.00  0.00    -0.308 N 
HETATM    5  H   UNL     1     -41.616 -51.360  10.550  1.00  0.00     0.164 HD
HETATM    6  H   UNL     1     -40.664 -49.331  10.045  1.00  0.00     0.170 HD
ENDROOT
BRANCH   1   7
HETATM    7  C   UNL     1     -41.755 -52.032  12.567  1.00  0.00     0.114 C 
HETATM    8  C   UNL     1     -40.771 -53.198  12.577  1.00  0.00     0.029 C 
HETATM    9  C   UNL     1     -41.098 -54.135  13.739  1.00  0.00     0.032 C 
HETATM   10  C   UNL     1     -42.567 -54.576  13.725  1.00  0.00     0.272 C 
HETATM   11  N   UNL     1     -43.545 -53.480  13.642  1.00  0.00     0.090 N 
HETATM   12  C   UNL     1     -43.209 -52.572  12.521  1.00  0.00     0.297 C 
BRANCH  11  13
HETATM   13  C   UNL     1     -43.721 -52.714  14.889  1.00  0.00     0.268 C 
HETATM   14  C   UNL     1     -44.687 -51.538  14.776  1.00  0.00     0.037 C 
ENDBRANCH  11  13
ENDBRANCH   1   7
BRANCH   4  15
HETATM   15  C   UNL     1     -41.334 -47.498  10.779  1.00  0.00     0.051 A 
HETATM   16  C   UNL     1     -42.453 -46.791  10.371  1.00  0.00     0.035 A 
HETATM   17  C   UNL     1     -42.480 -45.398  10.457  1.00  0.00     0.050 A 
HETATM   18  C   UNL     1     -41.377 -44.683  10.916  1.00  0.00     0.102 A 
HETATM   19  N   UNL     1     -40.273 -45.368  11.299  1.00  0.00    -0.350 N 
HETATM   20  C   UNL     1     -40.272 -46.729  11.231  1.00  0.00     0.119 A 
ATOM     21  HN  UNL     1     -39.449 -44.869  11.635  1.00  0.00     0.166 HD
BRANCH  18  22
HETATM   22  N   UNL     1     -41.412 -43.302  11.067  1.00  0.00    -0.376 N 
HETATM   23  C   UNL     1     -42.720 -42.655  11.068  1.00  0.00     0.150 C 
HETATM   24  C   UNL     1     -40.375 -42.573  11.789  1.00  0.00     0.150 C 
ENDBRANCH  18  22
ENDBRANCH   4  15
TORSDOF 4
ENDMDL
MODEL 6
REMARK VINA RESULT:      -5.3      2.376      3.543
REMARK  4 active torsions:
REMARK  status: ('A' for Active; 'I' for Inactive)
REMARK    1  A    between atoms: C_2  and  N_3 
REMARK    2  A    between atoms: C_7  and  N_9 
REMARK       I    between atoms: N_9  and  C_10 
REMARK       I    between atoms: C_10  and  N_12 
REMARK    3  A    between atoms: N_12  and  C_13 
REMARK    4  A    between atoms: C_16  and  N_20 
ROOT
HETATM    1  N   UNL     1     -41.005 -51.141  11.151  1.00  0.00    -0.337 N 
HETATM    2  C   UNL     1     -41.250 -49.867  11.621  1.00  0.00     0.321 C 
HETATM    3  O   UNL     1     -41.579 -49.674  12.784  1.00  0.00    -0.247 OA
HETATM    4  N   UNL     1     -41.027 -48.894  10.677  1.00  0.00    -0.308 N 
HETATM    5  H   UNL     1     -41.239 -51.317  10.185  1.00  0.00     0.164 HD
HETATM    6  H   UNL     1     -40.489 -49.168   9.871  1.00  0.00     0.170 HD
ENDROOT
BRANCH   1   7
HETATM    7  C   UNL     1     -41.130 -52.247  12.098  1.00  0.00     0.114 C 
HETATM    8  C   UNL     1     -42.589 -52.615  12.354  1.00  0.00     0.029 C 
HETATM    9  C   UNL     1     -42.657 -53.811  13.303  1.00  0.00     0.032 C 
HETATM   10  C   UNL     1     -41.853 -53.570  14.588  1.00  0.00     0.272 C 
HETATM   11  N   UNL     1     -40.461 -53.141  14.379  1.00  0.00     0.090 N 
HETATM   12  C   UNL     1     -40.408 -51.993  13.447  1.00  0.00     0.297 C 
BRANCH  11  13
HETATM   13  C   UNL     1     -39.547 -54.208  13.933  1.00  0.00     0.268 C 
HETATM   14  C   UNL     1     -38.954 -55.045  15.063  1.00  0.00     0.037 C 
ENDBRANCH  11  13
ENDBRANCH   1   7
BRANCH   4  15
HETATM   15  C   UNL     1     -41.211 -47.505  10.900  1.00  0.00     0.051 A 
HETATM   16  C   UNL     1     -40.177 -46.584  10.894  1.00  0.00     0.035 A 
HETATM   17  C   UNL     1     -40.438 -45.226  11.090  1.00  0.00     0.050 A 
HETATM   18  C   UNL     1     -41.730 -44.768  11.333  1.00  0.00     0.102 A 
HETATM   19  N   UNL     1     -42.743 -45.667  11.360  1.00  0.00    -0.350 N 
HETATM   20  C   UNL     1     -42.474 -46.986  11.143  1.00  0.00     0.119 A 
ATOM     21  HN  UNL     1     -43.699 -45.360  11.540  1.00  0.00     0.166 HD
BRANCH  18  22
HETATM   22  N   UNL     1     -42.013 -43.414  11.466  1.00  0.00    -0.376 N 
HETATM   23  C   UNL     1     -40.886 -42.495  11.569  1.00  0.00     0.150 C 
HETATM   24  C   UNL     1     -43.233 -42.820  10.930  1.00  0.00     0.150 C 
ENDBRANCH  18  22
ENDBRANCH   4  15
TORSDOF 4
ENDMDL
MODEL 7
REMARK VINA RESULT:      -5.2      2.674      7.947
REMARK  4 active torsions:
REMARK  status: ('A' for Active; 'I' for Inactive)
REMARK    1  A    between atoms: C_2  and  N_3 
REMARK    2  A    between atoms: C_7  and  N_9 
REMARK       I    between atoms: N_9  and  C_10 
REMARK       I    between atoms: C_10  and  N_12 
REMARK    3  A    between atoms: N_12  and  C_13 
REMARK    4  A    between atoms: C_16  and  N_20 
ROOT
HETATM    1  N   UNL     1     -40.733 -49.897  10.655  1.00  0.00    -0.337 N 
HETATM    2  C   UNL     1     -40.937 -50.537  11.861  1.00  0.00     0.321 C 
HETATM    3  O   UNL     1     -41.391 -49.937  12.827  1.00  0.00    -0.247 OA
HETATM    4  N   UNL     1     -40.635 -51.877  11.815  1.00  0.00    -0.308 N 
HETATM    5  H   UNL     1     -39.951 -50.217  10.102  1.00  0.00     0.164 HD
HETATM    6  H   UNL     1     -40.554 -52.286  10.899  1.00  0.00     0.170 HD
ENDROOT
BRANCH   1   7
HETATM    7  C   UNL     1     -41.102 -48.486  10.567  1.00  0.00     0.114 C 
HETATM    8  C   UNL     1     -40.194 -47.606  11.422  1.00  0.00     0.029 C 
HETATM    9  C   UNL     1     -40.589 -46.140  11.247  1.00  0.00     0.032 C 
HETATM   10  C   UNL     1     -42.083 -45.912  11.509  1.00  0.00     0.272 C 
HETATM   11  N   UNL     1     -42.988 -46.795  10.756  1.00  0.00     0.090 N 
HETATM   12  C   UNL     1     -42.587 -48.210  10.922  1.00  0.00     0.297 C 
BRANCH  11  13
HETATM   13  C   UNL     1     -43.124 -46.463   9.326  1.00  0.00     0.268 C 
HETATM   14  C   UNL     1     -44.076 -47.373   8.556  1.00  0.00     0.037 C 
ENDBRANCH  11  13
ENDBRANCH   1   7
BRANCH   4  15
HETATM   15  C   UNL     1     -40.749 -52.760  12.920  1.00  0.00     0.051 A 
HETATM   16  C   UNL     1     -41.869 -53.537  13.168  1.00  0.00     0.035 A 
HETATM   17  C   UNL     1     -41.898 -54.409  14.258  1.00  0.00     0.050 A 
HETATM   18  C   UNL     1     -40.825 -54.494  15.142  1.00  0.00     0.102 A 
HETATM   19  N   UNL     1     -39.735 -53.722  14.915  1.00  0.00    -0.350 N 
HETATM   20  C   UNL     1     -39.714 -52.893  13.833  1.00  0.00     0.119 A 
ATOM     21  HN  UNL     1     -38.937 -53.761  15.550  1.00  0.00     0.166 HD
BRANCH  18  22
HETATM   22  N   UNL     1     -40.814 -55.402  16.193  1.00  0.00    -0.376 N 
HETATM   23  C   UNL     1     -42.059 -56.099  16.497  1.00  0.00     0.150 C 
HETATM   24  C   UNL     1     -39.606 -56.119  16.587  1.00  0.00     0.150 C 
ENDBRANCH  18  22
ENDBRANCH   4  15
TORSDOF 4
ENDMDL
MODEL 8
REMARK VINA RESULT:      -5.0      1.651      2.109
REMARK  4 active torsions:
REMARK  status: ('A' for Active; 'I' for Inactive)
REMARK    1  A    between atoms: C_2  and  N_3 
REMARK    2  A    between atoms: C_7  and  N_9 
REMARK       I    between atoms: N_9  and  C_10 
REMARK       I    between atoms: C_10  and  N_12 
REMARK    3  A    between atoms: N_12  and  C_13 
REMARK    4  A    between atoms: C_16  and  N_20 
ROOT
HETATM    1  N   UNL     1     -42.249 -52.587  12.947  1.00  0.00    -0.337 N 
HETATM    2  C   UNL     1     -42.035 -51.225  13.014  1.00  0.00     0.321 C 
HETATM    3  O   UNL     1     -41.904 -50.657  14.091  1.00  0.00    -0.247 OA
HETATM    4  N   UNL     1     -41.933 -50.636  11.777  1.00  0.00    -0.308 N 
HETATM    5  H   UNL     1     -42.826 -52.915  12.186  1.00  0.00     0.164 HD
HETATM    6  H   UNL     1     -41.770 -51.254  11.000  1.00  0.00     0.170 HD
ENDROOT
BRANCH   1   7
HETATM    7  C   UNL     1     -42.290 -53.328  14.206  1.00  0.00     0.114 C 
HETATM    8  C   UNL     1     -41.028 -54.158  14.419  1.00  0.00     0.029 C 
HETATM    9  C   UNL     1     -41.101 -54.864  15.772  1.00  0.00     0.032 C 
HETATM   10  C   UNL     1     -42.397 -55.670  15.930  1.00  0.00     0.272 C 
HETATM   11  N   UNL     1     -43.633 -54.920  15.660  1.00  0.00     0.090 N 
HETATM   12  C   UNL     1     -43.544 -54.230  14.353  1.00  0.00     0.297 C 
BRANCH  11  13
HETATM   13  C   UNL     1     -44.022 -53.970  16.718  1.00  0.00     0.268 C 
HETATM   14  C   UNL     1     -45.403 -53.349  16.532  1.00  0.00     0.037 C 
ENDBRANCH  11  13
ENDBRANCH   1   7
BRANCH   4  15
HETATM   15  C   UNL     1     -41.720 -49.249  11.567  1.00  0.00     0.051 A 
HETATM   16  C   UNL     1     -42.723 -48.298  11.658  1.00  0.00     0.035 A 
HETATM   17  C   UNL     1     -42.434 -46.944  11.470  1.00  0.00     0.050 A 
HETATM   18  C   UNL     1     -41.147 -46.520  11.151  1.00  0.00     0.102 A 
HETATM   19  N   UNL     1     -40.166 -47.448  11.041  1.00  0.00    -0.350 N 
HETATM   20  C   UNL     1     -40.461 -48.762  11.251  1.00  0.00     0.119 A 
ATOM     21  HN  UNL     1     -39.215 -47.165  10.804  1.00  0.00     0.166 HD
BRANCH  18  22
HETATM   22  N   UNL     1     -40.831 -45.173  11.024  1.00  0.00    -0.376 N 
HETATM   23  C   UNL     1     -39.695 -44.822  10.179  1.00  0.00     0.150 C 
HETATM   24  C   UNL     1     -41.837 -44.125  11.154  1.00  0.00     0.150 C 
ENDBRANCH  18  22
ENDBRANCH   4  15
TORSDOF 4
ENDMDL
MODEL 9
REMARK VINA RESULT:      -4.9     15.363     17.619
REMARK  4 active torsions:
REMARK  status: ('A' for Active; 'I' for Inactive)
REMARK    1  A    between atoms: C_2  and  N_3 
REMARK    2  A    between atoms: C_7  and  N_9 
REMARK       I    between atoms: N_9  and  C_10 
REMARK       I    between atoms: C_10  and  N_12 
REMARK    3  A    between atoms: N_12  and  C_13 
REMARK    4  A    between atoms: C_16  and  N_20 
ROOT
HETATM    1  N   UNL     1     -50.039 -50.281   0.524  1.00  0.00    -0.337 N 
HETATM    2  C   UNL     1     -50.891 -51.030  -0.263  1.00  0.00     0.321 C 
HETATM    3  O   UNL     1     -51.819 -50.506  -0.866  1.00  0.00    -0.247 OA
HETATM    4  N   UNL     1     -50.539 -52.357  -0.323  1.00  0.00    -0.308 N 
HETATM    5  H   UNL     1     -49.664 -50.738   1.342  1.00  0.00     0.164 HD
HETATM    6  H   UNL     1     -49.606 -52.586  -0.023  1.00  0.00     0.170 HD
ENDROOT
BRANCH   1   7
HETATM    7  C   UNL     1     -50.271 -48.840   0.591  1.00  0.00     0.114 C 
HETATM    8  C   UNL     1     -48.967 -48.050   0.544  1.00  0.00     0.029 C 
HETATM    9  C   UNL     1     -49.273 -46.553   0.559  1.00  0.00     0.032 C 
HETATM   10  C   UNL     1     -50.180 -46.165   1.734  1.00  0.00     0.272 C 
HETATM   11  N   UNL     1     -51.414 -46.956   1.854  1.00  0.00     0.090 N 
HETATM   12  C   UNL     1     -51.106 -48.403   1.824  1.00  0.00     0.297 C 
BRANCH  11  13
HETATM   13  C   UNL     1     -52.455 -46.631   0.862  1.00  0.00     0.268 C 
HETATM   14  C   UNL     1     -53.744 -47.432   1.013  1.00  0.00     0.037 C 
ENDBRANCH  11  13
ENDBRANCH   1   7
BRANCH   4  15
HETATM   15  C   UNL     1     -51.252 -53.340  -1.055  1.00  0.00     0.051 A 
HETATM   16  C   UNL     1     -52.452 -53.890  -0.634  1.00  0.00     0.035 A 
HETATM   17  C   UNL     1     -53.115 -54.832  -1.424  1.00  0.00     0.050 A 
HETATM   18  C   UNL     1     -52.575 -55.269  -2.630  1.00  0.00     0.102 A 
HETATM   19  N   UNL     1     -51.392 -54.749  -3.038  1.00  0.00    -0.350 N 
HETATM   20  C   UNL     1     -50.770 -53.813  -2.267  1.00  0.00     0.119 A 
ATOM     21  HN  UNL     1     -50.972 -55.055  -3.916  1.00  0.00     0.166 HD
BRANCH  18  22
HETATM   22  N   UNL     1     -53.253 -56.157  -3.456  1.00  0.00    -0.376 N 
HETATM   23  C   UNL     1     -53.509 -57.498  -2.942  1.00  0.00     0.150 C 
HETATM   24  C   UNL     1     -54.201 -55.705  -4.469  1.00  0.00     0.150 C 
ENDBRANCH  18  22
ENDBRANCH   4  15
TORSDOF 4
ENDMDL
