MODEL 1
REMARK VINA RESULT:      -6.8      0.000      0.000
REMARK  6 active torsions:
REMARK  status: ('A' for Active; 'I' for Inactive)
REMARK    1  A    between atoms: C_2  and  C_3 
REMARK       I    between atoms: C_2  and  N_19 
REMARK    2  A    between atoms: C_3  and  N_4 
REMARK    3  A    between atoms: C_7  and  C_8 
REMARK    4  A    between atoms: C_8  and  N_9 
REMARK    5  A    between atoms: N_13  and  C_14 
REMARK    6  A    between atoms: N_19  and  C_20 
ROOT
HETATM    1  N   UNL     1     -44.149 -52.951  14.263  1.00  0.00    -0.256 N 
HETATM    2  C   UNL     1     -44.996 -52.968  13.163  1.00  0.00     0.273 C 
HETATM    3  O   UNL     1     -44.879 -53.755  12.226  1.00  0.00    -0.266 OA
HETATM    4  C   UNL     1     -46.105 -51.989  13.182  1.00  0.00     0.110 C 
HETATM    5  C   UNL     1     -46.436 -51.434  14.354  1.00  0.00     0.123 C 
HETATM    6  N   UNL     1     -45.740 -51.722  15.510  1.00  0.00    -0.303 N 
HETATM    7  C   UNL     1     -44.567 -52.486  15.507  1.00  0.00     0.332 C 
HETATM    8  O   UNL     1     -43.973 -52.766  16.549  1.00  0.00    -0.246 OA
ENDROOT
BRANCH   1   9
HETATM    9  C   UNL     1     -43.030 -53.883  14.278  1.00  0.00     0.239 C 
BRANCH   9  10
HETATM   10  C   UNL     1     -41.771 -53.345  13.592  1.00  0.00     0.236 C 
HETATM   11  O   UNL     1     -41.045 -54.031  12.882  1.00  0.00    -0.272 OA
HETATM   12  N   UNL     1     -41.531 -52.026  13.925  1.00  0.00    -0.355 N 
HETATM   13  H   UNL     1     -41.779 -51.840  14.900  1.00  0.00     0.162 HD
BRANCH  12  14
HETATM   14  C   UNL     1     -40.375 -51.255  13.450  1.00  0.00     0.084 C 
HETATM   15  C   UNL     1     -39.283 -51.373  14.528  1.00  0.00     0.025 C 
HETATM   16  C   UNL     1     -37.915 -50.766  14.235  1.00  0.00     0.002 C 
HETATM   17  C   UNL     1     -37.365 -51.089  12.848  1.00  0.00     0.000 C 
HETATM   18  C   UNL     1     -37.493 -49.954  11.829  1.00  0.00     0.000 C 
HETATM   19  C   UNL     1     -38.904 -49.546  11.402  1.00  0.00     0.000 C 
HETATM   20  C   UNL     1     -39.742 -48.893  12.501  1.00  0.00     0.002 C 
HETATM   21  C   UNL     1     -40.785 -49.803  13.159  1.00  0.00     0.025 C 
ENDBRANCH  12  14
ENDBRANCH   9  10
ENDBRANCH   1   9
BRANCH   4  22
HETATM   22  C   UNL     1     -46.848 -51.669  11.896  1.00  0.00    -0.030 C 
BRANCH  22  23
HETATM   23  N   UNL     1     -47.464 -51.403  10.828  1.00  0.00    -0.365 N 
ATOM     24  HN2 UNL     1     -46.969 -51.634  11.689  1.00  0.00     0.165 HD
ATOM     25  HN1 UNL     1     -47.963 -51.187   9.965  1.00  0.00     0.165 HD
ENDBRANCH  22  23
ENDBRANCH   4  22
BRANCH   6  26
HETATM   26  C   UNL     1     -46.188 -51.213  16.795  1.00  0.00     0.094 A 
HETATM   27  C   UNL     1     -47.085 -52.105  17.631  1.00  0.00     0.028 A 
HETATM   28  C   UNL     1     -47.559 -50.750  17.206  1.00  0.00     0.028 A 
ENDBRANCH   6  26
TORSDOF 6
ENDMDL
MODEL 2
REMARK VINA RESULT:      -6.8      3.087      7.880
REMARK  6 active torsions:
REMARK  status: ('A' for Active; 'I' for Inactive)
REMARK    1  A    between atoms: C_2  and  C_3 
REMARK       I    between atoms: C_2  and  N_19 
REMARK    2  A    between atoms: C_3  and  N_4 
REMARK    3  A    between atoms: C_7  and  C_8 
REMARK    4  A    between atoms: C_8  and  N_9 
REMARK    5  A    between atoms: N_13  and  C_14 
REMARK    6  A    between atoms: N_19  and  C_20 
ROOT
HETATM    1  N   UNL     1     -40.261 -49.481  12.244  1.00  0.00    -0.256 N 
HETATM    2  C   UNL     1     -39.068 -49.419  12.951  1.00  0.00     0.273 C 
HETATM    3  O   UNL     1     -38.359 -50.398  13.175  1.00  0.00    -0.266 OA
HETATM    4  C   UNL     1     -38.654 -48.076  13.412  1.00  0.00     0.110 C 
HETATM    5  C   UNL     1     -39.220 -47.009  12.833  1.00  0.00     0.123 C 
HETATM    6  N   UNL     1     -40.195 -47.146  11.867  1.00  0.00    -0.303 N 
HETATM    7  C   UNL     1     -40.758 -48.386  11.541  1.00  0.00     0.332 C 
HETATM    8  O   UNL     1     -41.603 -48.502  10.653  1.00  0.00    -0.246 OA
ENDROOT
BRANCH   1   9
HETATM    9  C   UNL     1     -40.719 -50.787  11.789  1.00  0.00     0.239 C 
BRANCH   9  10
HETATM   10  C   UNL     1     -41.626 -51.504  12.792  1.00  0.00     0.236 C 
HETATM   11  O   UNL     1     -41.203 -52.130  13.756  1.00  0.00    -0.272 OA
HETATM   12  N   UNL     1     -42.958 -51.410  12.435  1.00  0.00    -0.355 N 
HETATM   13  H   UNL     1     -43.073 -51.456  11.419  1.00  0.00     0.162 HD
BRANCH  12  14
HETATM   14  C   UNL     1     -44.056 -52.033  13.186  1.00  0.00     0.084 C 
HETATM   15  C   UNL     1     -44.216 -53.464  12.642  1.00  0.00     0.025 C 
HETATM   16  C   UNL     1     -45.212 -54.389  13.334  1.00  0.00     0.002 C 
HETATM   17  C   UNL     1     -45.129 -54.379  14.858  1.00  0.00     0.000 C 
HETATM   18  C   UNL     1     -46.221 -53.562  15.552  1.00  0.00     0.000 C 
HETATM   19  C   UNL     1     -46.214 -52.048  15.335  1.00  0.00     0.000 C 
HETATM   20  C   UNL     1     -46.541 -51.604  13.909  1.00  0.00     0.002 C 
HETATM   21  C   UNL     1     -45.335 -51.190  13.059  1.00  0.00     0.025 C 
ENDBRANCH  12  14
ENDBRANCH   9  10
ENDBRANCH   1   9
BRANCH   4  22
HETATM   22  C   UNL     1     -37.592 -47.944  14.490  1.00  0.00    -0.030 C 
BRANCH  22  23
HETATM   23  N   UNL     1     -36.711 -47.835  15.386  1.00  0.00    -0.365 N 
ATOM     24  HN2 UNL     1     -37.414 -47.914  14.651  1.00  0.00     0.165 HD
ATOM     25  HN1 UNL     1     -35.999 -47.747  16.110  1.00  0.00     0.165 HD
ENDBRANCH  22  23
ENDBRANCH   4  22
BRANCH   6  26
HETATM   26  C   UNL     1     -40.708 -45.987  11.157  1.00  0.00     0.094 A 
HETATM   27  C   UNL     1     -39.757 -45.248  10.237  1.00  0.00     0.028 A 
HETATM   28  C   UNL     1     -40.406 -44.530  11.379  1.00  0.00     0.028 A 
ENDBRANCH   6  26
TORSDOF 6
ENDMDL
MODEL 3
REMARK VINA RESULT:      -6.5      2.617      7.352
REMARK  6 active torsions:
REMARK  status: ('A' for Active; 'I' for Inactive)
REMARK    1  A    between atoms: C_2  and  C_3 
REMARK       I    between atoms: C_2  and  N_19 
REMARK    2  A    between atoms: C_3  and  N_4 
REMARK    3  A    between atoms: C_7  and  C_8 
REMARK    4  A    between atoms: C_8  and  N_9 
REMARK    5  A    between atoms: N_13  and  C_14 
REMARK    6  A    between atoms: N_19  and  C_20 
ROOT
HETATM    1  N   UNL     1     -38.843 -52.178  14.848  1.00  0.00    -0.256 N 
HETATM    2  C   UNL     1     -38.928 -51.716  13.542  1.00  0.00     0.273 C 
HETATM    3  O   UNL     1     -39.729 -52.152  12.718  1.00  0.00    -0.266 OA
HETATM    4  C   UNL     1     -38.007 -50.616  13.180  1.00  0.00     0.110 C 
HETATM    5  C   UNL     1     -37.444 -49.914  14.171  1.00  0.00     0.123 C 
HETATM    6  N   UNL     1     -37.670 -50.228  15.496  1.00  0.00    -0.303 N 
HETATM    7  C   UNL     1     -38.372 -51.375  15.884  1.00  0.00     0.332 C 
HETATM    8  O   UNL     1     -38.598 -51.627  17.069  1.00  0.00    -0.246 OA
ENDROOT
BRANCH   1   9
HETATM    9  C   UNL     1     -39.716 -53.275  15.244  1.00  0.00     0.239 C 
BRANCH   9  10
HETATM   10  C   UNL     1     -41.179 -52.862  15.426  1.00  0.00     0.236 C 
HETATM   11  O   UNL     1     -41.598 -52.287  16.424  1.00  0.00    -0.272 OA
HETATM   12  N   UNL     1     -41.963 -53.274  14.365  1.00  0.00    -0.355 N 
HETATM   13  H   UNL     1     -41.662 -54.188  14.016  1.00  0.00     0.162 HD
BRANCH  12  14
HETATM   14  C   UNL     1     -43.412 -53.055  14.281  1.00  0.00     0.084 C 
HETATM   15  C   UNL     1     -44.041 -54.382  13.818  1.00  0.00     0.025 C 
HETATM   16  C   UNL     1     -45.562 -54.477  13.764  1.00  0.00     0.002 C 
HETATM   17  C   UNL     1     -46.272 -53.925  14.997  1.00  0.00     0.000 C 
HETATM   18  C   UNL     1     -46.887 -52.536  14.813  1.00  0.00     0.000 C 
HETATM   19  C   UNL     1     -45.928 -51.365  14.586  1.00  0.00     0.000 C 
HETATM   20  C   UNL     1     -45.174 -51.404  13.256  1.00  0.00     0.002 C 
HETATM   21  C   UNL     1     -43.720 -51.879  13.341  1.00  0.00     0.025 C 
ENDBRANCH  12  14
ENDBRANCH   9  10
ENDBRANCH   1   9
BRANCH   4  22
HETATM   22  C   UNL     1     -37.755 -50.297  11.717  1.00  0.00    -0.030 C 
BRANCH  22  23
HETATM   23  N   UNL     1     -37.545 -50.031  10.502  1.00  0.00    -0.365 N 
ATOM     24  HN2 UNL     1     -37.698 -50.244  11.487  1.00  0.00     0.165 HD
ATOM     25  HN1 UNL     1     -37.376 -49.817   9.519  1.00  0.00     0.165 HD
ENDBRANCH  22  23
ENDBRANCH   4  22
BRANCH   6  26
HETATM   26  C   UNL     1     -37.156 -49.382  16.560  1.00  0.00     0.094 A 
HETATM   27  C   UNL     1     -37.815 -48.032  16.765  1.00  0.00     0.028 A 
HETATM   28  C   UNL     1     -36.352 -48.115  16.458  1.00  0.00     0.028 A 
ENDBRANCH   6  26
TORSDOF 6
ENDMDL
MODEL 4
REMARK VINA RESULT:      -6.3      2.878      7.604
REMARK  6 active torsions:
REMARK  status: ('A' for Active; 'I' for Inactive)
REMARK    1  A    between atoms: C_2  and  C_3 
REMARK       I    between atoms: C_2  and  N_19 
REMARK    2  A    between atoms: C_3  and  N_4 
REMARK    3  A    between atoms: C_7  and  C_8 
REMARK    4  A    between atoms: C_8  and  N_9 
REMARK    5  A    between atoms: N_13  and  C_14 
REMARK    6  A    between atoms: N_19  and  C_20 
ROOT
HETATM    1  N   UNL     1     -40.104 -49.226  14.059  1.00  0.00    -0.256 N 
HETATM    2  C   UNL     1     -39.553 -49.142  12.787  1.00  0.00     0.273 C 
HETATM    3  O   UNL     1     -40.129 -48.632  11.829  1.00  0.00    -0.266 OA
HETATM    4  C   UNL     1     -38.183 -49.679  12.636  1.00  0.00     0.110 C 
HETATM    5  C   UNL     1     -37.450 -49.859  13.742  1.00  0.00     0.123 C 
HETATM    6  N   UNL     1     -37.964 -49.600  14.996  1.00  0.00    -0.303 N 
HETATM    7  C   UNL     1     -39.311 -49.280  15.203  1.00  0.00     0.332 C 
HETATM    8  O   UNL     1     -39.751 -49.017  16.323  1.00  0.00    -0.246 OA
ENDROOT
BRANCH   1   9
HETATM    9  C   UNL     1     -41.459 -48.729  14.251  1.00  0.00     0.239 C 
BRANCH   9  10
HETATM   10  C   UNL     1     -42.467 -49.818  14.628  1.00  0.00     0.236 C 
HETATM   11  O   UNL     1     -42.760 -50.094  15.785  1.00  0.00    -0.272 OA
HETATM   12  N   UNL     1     -42.944 -50.482  13.513  1.00  0.00    -0.355 N 
HETATM   13  H   UNL     1     -42.210 -50.595  12.808  1.00  0.00     0.162 HD
BRANCH  12  14
HETATM   14  C   UNL     1     -43.892 -51.601  13.566  1.00  0.00     0.084 C 
HETATM   15  C   UNL     1     -43.339 -52.703  12.645  1.00  0.00     0.025 C 
HETATM   16  C   UNL     1     -44.068 -54.042  12.607  1.00  0.00     0.002 C 
HETATM   17  C   UNL     1     -44.438 -54.598  13.980  1.00  0.00     0.000 C 
HETATM   18  C   UNL     1     -45.907 -54.417  14.369  1.00  0.00     0.000 C 
HETATM   19  C   UNL     1     -46.407 -52.987  14.584  1.00  0.00     0.000 C 
HETATM   20  C   UNL     1     -46.450 -52.127  13.321  1.00  0.00     0.002 C 
HETATM   21  C   UNL     1     -45.299 -51.128  13.168  1.00  0.00     0.025 C 
ENDBRANCH  12  14
ENDBRANCH   9  10
ENDBRANCH   1   9
BRANCH   4  22
HETATM   22  C   UNL     1     -37.640 -49.977  11.248  1.00  0.00    -0.030 C 
BRANCH  22  23
HETATM   23  N   UNL     1     -37.190 -50.224  10.097  1.00  0.00    -0.365 N 
ATOM     24  HN2 UNL     1     -37.563 -50.011  11.021  1.00  0.00     0.165 HD
ATOM     25  HN1 UNL     1     -36.825 -50.424   9.166  1.00  0.00     0.165 HD
ENDBRANCH  22  23
ENDBRANCH   4  22
BRANCH   6  26
HETATM   26  C   UNL     1     -37.120 -49.677  16.177  1.00  0.00     0.094 A 
HETATM   27  C   UNL     1     -36.172 -48.524  16.441  1.00  0.00     0.028 A 
HETATM   28  C   UNL     1     -35.637 -49.911  16.268  1.00  0.00     0.028 A 
ENDBRANCH   6  26
TORSDOF 6
ENDMDL
MODEL 5
REMARK VINA RESULT:      -6.1      3.111      5.089
REMARK  6 active torsions:
REMARK  status: ('A' for Active; 'I' for Inactive)
REMARK    1  A    between atoms: C_2  and  C_3 
REMARK       I    between atoms: C_2  and  N_19 
REMARK    2  A    between atoms: C_3  and  N_4 
REMARK    3  A    between atoms: C_7  and  C_8 
REMARK    4  A    between atoms: C_8  and  N_9 
REMARK    5  A    between atoms: N_13  and  C_14 
REMARK    6  A    between atoms: N_19  and  C_20 
ROOT
HETATM    1  N   UNL     1     -41.568 -53.027  13.015  1.00  0.00    -0.256 N 
HETATM    2  C   UNL     1     -42.891 -53.443  13.069  1.00  0.00     0.273 C 
HETATM    3  O   UNL     1     -43.694 -53.278  12.153  1.00  0.00    -0.266 OA
HETATM    4  C   UNL     1     -43.301 -54.148  14.304  1.00  0.00     0.110 C 
HETATM    5  C   UNL     1     -42.341 -54.651  15.090  1.00  0.00     0.123 C 
HETATM    6  N   UNL     1     -41.004 -54.481  14.794  1.00  0.00    -0.303 N 
HETATM    7  C   UNL     1     -40.567 -53.658  13.749  1.00  0.00     0.332 C 
HETATM    8  O   UNL     1     -39.372 -53.541  13.472  1.00  0.00    -0.246 OA
ENDROOT
BRANCH   1   9
HETATM    9  C   UNL     1     -41.125 -52.309  11.827  1.00  0.00     0.239 C 
BRANCH   9  10
HETATM   10  C   UNL     1     -40.888 -50.815  12.064  1.00  0.00     0.236 C 
HETATM   11  O   UNL     1     -39.968 -50.379  12.746  1.00  0.00    -0.272 OA
HETATM   12  N   UNL     1     -41.867 -50.041  11.471  1.00  0.00    -0.355 N 
HETATM   13  H   UNL     1     -42.782 -50.495  11.530  1.00  0.00     0.162 HD
BRANCH  12  14
HETATM   14  C   UNL     1     -41.923 -48.577  11.561  1.00  0.00     0.084 C 
HETATM   15  C   UNL     1     -42.895 -48.235  12.705  1.00  0.00     0.025 C 
HETATM   16  C   UNL     1     -43.049 -46.770  13.104  1.00  0.00     0.002 C 
HETATM   17  C   UNL     1     -41.731 -46.014  13.249  1.00  0.00     0.000 C 
HETATM   18  C   UNL     1     -41.385 -45.101  12.071  1.00  0.00     0.000 C 
HETATM   19  C   UNL     1     -41.094 -45.768  10.724  1.00  0.00     0.000 C 
HETATM   20  C   UNL     1     -42.297 -46.449  10.073  1.00  0.00     0.002 C 
HETATM   21  C   UNL     1     -42.341 -47.974  10.210  1.00  0.00     0.025 C 
ENDBRANCH  12  14
ENDBRANCH   9  10
ENDBRANCH   1   9
BRANCH   4  22
HETATM   22  C   UNL     1     -44.777 -54.309  14.624  1.00  0.00    -0.030 C 
BRANCH  22  23
HETATM   23  N   UNL     1     -46.002 -54.442  14.890  1.00  0.00    -0.365 N 
ATOM     24  HN2 UNL     1     -45.012 -54.319  14.682  1.00  0.00     0.165 HD
ATOM     25  HN1 UNL     1     -46.993 -54.551  15.104  1.00  0.00     0.165 HD
ENDBRANCH  22  23
ENDBRANCH   4  22
BRANCH   6  26
HETATM   26  C   UNL     1     -39.977 -55.138  15.584  1.00  0.00     0.094 A 
HETATM   27  C   UNL     1     -40.429 -56.043  16.714  1.00  0.00     0.028 A 
HETATM   28  C   UNL     1     -39.551 -54.865  17.001  1.00  0.00     0.028 A 
ENDBRANCH   6  26
TORSDOF 6
ENDMDL
MODEL 6
REMARK VINA RESULT:      -6.0      3.016      7.222
REMARK  6 active torsions:
REMARK  status: ('A' for Active; 'I' for Inactive)
REMARK    1  A    between atoms: C_2  and  C_3 
REMARK       I    between atoms: C_2  and  N_19 
REMARK    2  A    between atoms: C_3  and  N_4 
REMARK    3  A    between atoms: C_7  and  C_8 
REMARK    4  A    between atoms: C_8  and  N_9 
REMARK    5  A    between atoms: N_13  and  C_14 
REMARK    6  A    between atoms: N_19  and  C_20 
ROOT
HETATM    1  N   UNL     1     -41.317 -48.639  13.938  1.00  0.00    -0.256 N 
HETATM    2  C   UNL     1     -41.790 -47.724  13.006  1.00  0.00     0.273 C 
HETATM    3  O   UNL     1     -42.708 -46.938  13.231  1.00  0.00    -0.266 OA
HETATM    4  C   UNL     1     -41.099 -47.711  11.699  1.00  0.00     0.110 C 
HETATM    5  C   UNL     1     -39.888 -48.279  11.620  1.00  0.00     0.123 C 
HETATM    6  N   UNL     1     -39.313 -48.902  12.708  1.00  0.00    -0.303 N 
HETATM    7  C   UNL     1     -40.008 -49.112  13.906  1.00  0.00     0.332 C 
HETATM    8  O   UNL     1     -39.473 -49.639  14.882  1.00  0.00    -0.246 OA
ENDROOT
BRANCH   1   9
HETATM    9  C   UNL     1     -41.982 -48.702  15.232  1.00  0.00     0.239 C 
BRANCH   9  10
HETATM   10  C   UNL     1     -43.125 -49.720  15.288  1.00  0.00     0.236 C 
HETATM   11  O   UNL     1     -43.953 -49.755  16.191  1.00  0.00    -0.272 OA
HETATM   12  N   UNL     1     -43.062 -50.618  14.239  1.00  0.00    -0.355 N 
HETATM   13  H   UNL     1     -42.093 -50.852  14.011  1.00  0.00     0.162 HD
BRANCH  12  14
HETATM   14  C   UNL     1     -44.002 -51.730  14.052  1.00  0.00     0.084 C 
HETATM   15  C   UNL     1     -43.321 -52.740  13.112  1.00  0.00     0.025 C 
HETATM   16  C   UNL     1     -44.029 -54.064  12.844  1.00  0.00     0.002 C 
HETATM   17  C   UNL     1     -44.580 -54.749  14.092  1.00  0.00     0.000 C 
HETATM   18  C   UNL     1     -46.089 -54.596  14.292  1.00  0.00     0.000 C 
HETATM   19  C   UNL     1     -46.624 -53.190  14.574  1.00  0.00     0.000 C 
HETATM   20  C   UNL     1     -46.499 -52.211  13.407  1.00  0.00     0.002 C 
HETATM   21  C   UNL     1     -45.344 -51.210  13.512  1.00  0.00     0.025 C 
ENDBRANCH  12  14
ENDBRANCH   9  10
ENDBRANCH   1   9
BRANCH   4  22
HETATM   22  C   UNL     1     -41.756 -47.037  10.506  1.00  0.00    -0.030 C 
BRANCH  22  23
HETATM   23  N   UNL     1     -42.300 -46.478   9.516  1.00  0.00    -0.365 N 
ATOM     24  HN2 UNL     1     -41.860 -46.915  10.325  1.00  0.00     0.165 HD
ATOM     25  HN1 UNL     1     -42.741 -46.025   8.715  1.00  0.00     0.165 HD
ENDBRANCH  22  23
ENDBRANCH   4  22
BRANCH   6  26
HETATM   26  C   UNL     1     -37.950 -49.401  12.646  1.00  0.00     0.094 A 
HETATM   27  C   UNL     1     -37.450 -49.919  11.312  1.00  0.00     0.028 A 
HETATM   28  C   UNL     1     -37.464 -50.817  12.509  1.00  0.00     0.028 A 
ENDBRANCH   6  26
TORSDOF 6
ENDMDL
MODEL 7
REMARK VINA RESULT:      -5.9      3.416      5.105
REMARK  6 active torsions:
REMARK  status: ('A' for Active; 'I' for Inactive)
REMARK    1  A    between atoms: C_2  and  C_3 
REMARK       I    between atoms: C_2  and  N_19 
REMARK    2  A    between atoms: C_3  and  N_4 
REMARK    3  A    between atoms: C_7  and  C_8 
REMARK    4  A    between atoms: C_8  and  N_9 
REMARK    5  A    between atoms: N_13  and  C_14 
REMARK    6  A    between atoms: N_19  and  C_20 
ROOT
HETATM    1  N   UNL     1     -42.968 -54.357  14.722  1.00  0.00    -0.256 N 
HETATM    2  C   UNL     1     -42.184 -53.951  13.652  1.00  0.00     0.273 C 
HETATM    3  O   UNL     1     -41.177 -54.551  13.280  1.00  0.00    -0.266 OA
HETATM    4  C   UNL     1     -42.642 -52.743  12.931  1.00  0.00     0.110 C 
HETATM    5  C   UNL     1     -43.912 -52.353  13.100  1.00  0.00     0.123 C 
HETATM    6  N   UNL     1     -44.764 -53.021  13.955  1.00  0.00    -0.303 N 
HETATM    7  C   UNL     1     -44.323 -54.044  14.804  1.00  0.00     0.332 C 
HETATM    8  O   UNL     1     -45.098 -54.658  15.538  1.00  0.00    -0.246 OA
ENDROOT
BRANCH   1   9
HETATM    9  C   UNL     1     -42.543 -55.530  15.475  1.00  0.00     0.239 C 
BRANCH   9  10
HETATM   10  C   UNL     1     -41.555 -55.213  16.601  1.00  0.00     0.236 C 
HETATM   11  O   UNL     1     -41.902 -54.890  17.732  1.00  0.00    -0.272 OA
HETATM   12  N   UNL     1     -40.245 -55.273  16.165  1.00  0.00    -0.355 N 
HETATM   13  H   UNL     1     -40.158 -54.923  15.207  1.00  0.00     0.162 HD
BRANCH  12  14
HETATM   14  C   UNL     1     -39.083 -54.980  17.012  1.00  0.00     0.084 C 
HETATM   15  C   UNL     1     -38.792 -53.475  16.870  1.00  0.00     0.025 C 
HETATM   16  C   UNL     1     -37.702 -52.867  17.747  1.00  0.00     0.002 C 
HETATM   17  C   UNL     1     -37.765 -53.286  19.213  1.00  0.00     0.000 C 
HETATM   18  C   UNL     1     -36.748 -54.355  19.618  1.00  0.00     0.000 C 
HETATM   19  C   UNL     1     -36.904 -55.746  18.999  1.00  0.00     0.000 C 
HETATM   20  C   UNL     1     -36.642 -55.811  17.494  1.00  0.00     0.002 C 
HETATM   21  C   UNL     1     -37.893 -55.867  16.612  1.00  0.00     0.025 C 
ENDBRANCH  12  14
ENDBRANCH   9  10
ENDBRANCH   1   9
BRANCH   4  22
HETATM   22  C   UNL     1     -41.685 -52.008  12.008  1.00  0.00    -0.030 C 
BRANCH  22  23
HETATM   23  N   UNL     1     -40.890 -51.398  11.243  1.00  0.00    -0.365 N 
ATOM     24  HN2 UNL     1     -41.542 -51.877  11.863  1.00  0.00     0.165 HD
ATOM     25  HN1 UNL     1     -40.247 -50.905  10.624  1.00  0.00     0.165 HD
ENDBRANCH  22  23
ENDBRANCH   4  22
BRANCH   6  26
HETATM   26  C   UNL     1     -46.171 -52.666  14.033  1.00  0.00     0.094 A 
HETATM   27  C   UNL     1     -46.659 -51.530  13.156  1.00  0.00     0.028 A 
HETATM   28  C   UNL     1     -46.808 -51.448  14.643  1.00  0.00     0.028 A 
ENDBRANCH   6  26
TORSDOF 6
ENDMDL
MODEL 8
REMARK VINA RESULT:      -5.9      2.547      8.056
REMARK  6 active torsions:
REMARK  status: ('A' for Active; 'I' for Inactive)
REMARK    1  A    between atoms: C_2  and  C_3 
REMARK       I    between atoms: C_2  and  N_19 
REMARK    2  A    between atoms: C_3  and  N_4 
REMARK    3  A    between atoms: C_7  and  C_8 
REMARK    4  A    between atoms: C_8  and  N_9 
REMARK    5  A    between atoms: N_13  and  C_14 
REMARK    6  A    between atoms: N_19  and  C_20 
ROOT
HETATM    1  N   UNL     1     -39.226 -51.938  15.144  1.00  0.00    -0.256 N 
HETATM    2  C   UNL     1     -38.315 -51.372  16.026  1.00  0.00     0.273 C 
HETATM    3  O   UNL     1     -38.071 -51.833  17.139  1.00  0.00    -0.266 OA
HETATM    4  C   UNL     1     -37.601 -50.171  15.541  1.00  0.00     0.110 C 
HETATM    5  C   UNL     1     -37.593 -49.931  14.224  1.00  0.00     0.123 C 
HETATM    6  N   UNL     1     -38.266 -50.747  13.339  1.00  0.00    -0.303 N 
HETATM    7  C   UNL     1     -39.113 -51.777  13.765  1.00  0.00     0.332 C 
HETATM    8  O   UNL     1     -39.682 -52.522  12.966  1.00  0.00    -0.246 OA
ENDROOT
BRANCH   1   9
HETATM    9  C   UNL     1     -39.968 -53.111  15.586  1.00  0.00     0.239 C 
BRANCH   9  10
HETATM   10  C   UNL     1     -41.473 -52.867  15.734  1.00  0.00     0.236 C 
HETATM   11  O   UNL     1     -41.990 -52.446  16.762  1.00  0.00    -0.272 OA
HETATM   12  N   UNL     1     -42.165 -53.239  14.597  1.00  0.00    -0.355 N 
HETATM   13  H   UNL     1     -41.756 -54.076  14.172  1.00  0.00     0.162 HD
BRANCH  12  14
HETATM   14  C   UNL     1     -43.625 -53.157  14.460  1.00  0.00     0.084 C 
HETATM   15  C   UNL     1     -44.109 -54.539  13.984  1.00  0.00     0.025 C 
HETATM   16  C   UNL     1     -45.612 -54.777  13.878  1.00  0.00     0.002 C 
HETATM   17  C   UNL     1     -46.414 -54.290  15.081  1.00  0.00     0.000 C 
HETATM   18  C   UNL     1     -47.150 -52.965  14.867  1.00  0.00     0.000 C 
HETATM   19  C   UNL     1     -46.297 -51.711  14.666  1.00  0.00     0.000 C 
HETATM   20  C   UNL     1     -45.496 -51.682  13.364  1.00  0.00     0.002 C 
HETATM   21  C   UNL     1     -44.008 -52.018  13.502  1.00  0.00     0.025 C 
ENDBRANCH  12  14
ENDBRANCH   9  10
ENDBRANCH   1   9
BRANCH   4  22
HETATM   22  C   UNL     1     -36.882 -49.272  16.533  1.00  0.00    -0.030 C 
BRANCH  22  23
HETATM   23  N   UNL     1     -36.284 -48.526  17.355  1.00  0.00    -0.365 N 
ATOM     24  HN2 UNL     1     -36.774 -49.116  16.683  1.00  0.00     0.165 HD
ATOM     25  HN1 UNL     1     -35.802 -47.923  18.021  1.00  0.00     0.165 HD
ENDBRANCH  22  23
ENDBRANCH   4  22
BRANCH   6  26
HETATM   26  C   UNL     1     -38.144 -50.550  11.904  1.00  0.00     0.094 A 
HETATM   27  C   UNL     1     -36.858 -51.002  11.239  1.00  0.00     0.028 A 
HETATM   28  C   UNL     1     -37.286 -49.571  11.152  1.00  0.00     0.028 A 
ENDBRANCH   6  26
TORSDOF 6
ENDMDL
MODEL 9
REMARK VINA RESULT:      -5.9      2.524      4.364
REMARK  6 active torsions:
REMARK  status: ('A' for Active; 'I' for Inactive)
REMARK    1  A    between atoms: C_2  and  C_3 
REMARK       I    between atoms: C_2  and  N_19 
REMARK    2  A    between atoms: C_3  and  N_4 
REMARK    3  A    between atoms: C_7  and  C_8 
REMARK    4  A    between atoms: C_8  and  N_9 
REMARK    5  A    between atoms: N_13  and  C_14 
REMARK    6  A    between atoms: N_19  and  C_20 
ROOT
HETATM    1  N   UNL     1     -42.630 -53.288  13.106  1.00  0.00    -0.256 N 
HETATM    2  C   UNL     1     -42.016 -54.010  14.120  1.00  0.00     0.273 C 
HETATM    3  O   UNL     1     -40.797 -54.128  14.228  1.00  0.00    -0.266 OA
HETATM    4  C   UNL     1     -42.917 -54.625  15.119  1.00  0.00     0.110 C 
HETATM    5  C   UNL     1     -44.172 -54.165  15.202  1.00  0.00     0.123 C 
HETATM    6  N   UNL     1     -44.637 -53.180  14.355  1.00  0.00    -0.303 N 
HETATM    7  C   UNL     1     -43.886 -52.709  13.271  1.00  0.00     0.332 C 
HETATM    8  O   UNL     1     -44.296 -51.805  12.542  1.00  0.00    -0.246 OA
ENDROOT
BRANCH   1   9
HETATM    9  C   UNL     1     -41.782 -52.683  12.088  1.00  0.00     0.239 C 
BRANCH   9  10
HETATM   10  C   UNL     1     -41.301 -51.274  12.446  1.00  0.00     0.236 C 
HETATM   11  O   UNL     1     -40.431 -51.051  13.280  1.00  0.00    -0.272 OA
HETATM   12  N   UNL     1     -42.008 -50.302  11.763  1.00  0.00    -0.355 N 
HETATM   13  H   UNL     1     -42.992 -50.566  11.660  1.00  0.00     0.162 HD
BRANCH  12  14
HETATM   14  C   UNL     1     -41.794 -48.860  11.932  1.00  0.00     0.084 C 
HETATM   15  C   UNL     1     -42.963 -48.329  12.781  1.00  0.00     0.025 C 
HETATM   16  C   UNL     1     -42.928 -46.868  13.219  1.00  0.00     0.002 C 
HETATM   17  C   UNL     1     -41.583 -46.407  13.773  1.00  0.00     0.000 C 
HETATM   18  C   UNL     1     -40.741 -45.579  12.800  1.00  0.00     0.000 C 
HETATM   19  C   UNL     1     -40.218 -46.282  11.546  1.00  0.00     0.000 C 
HETATM   20  C   UNL     1     -41.297 -46.690  10.543  1.00  0.00     0.002 C 
HETATM   21  C   UNL     1     -41.682 -48.173  10.561  1.00  0.00     0.025 C 
ENDBRANCH  12  14
ENDBRANCH   9  10
ENDBRANCH   1   9
BRANCH   4  22
HETATM   22  C   UNL     1     -42.395 -55.722  16.031  1.00  0.00    -0.030 C 
BRANCH  22  23
HETATM   23  N   UNL     1     -41.961 -56.633  16.787  1.00  0.00    -0.365 N 
ATOM     24  HN2 UNL     1     -42.299 -55.886  16.180  1.00  0.00     0.165 HD
ATOM     25  HN1 UNL     1     -41.611 -57.369  17.400  1.00  0.00     0.165 HD
ENDBRANCH  22  23
ENDBRANCH   4  22
BRANCH   6  26
HETATM   26  C   UNL     1     -45.957 -52.602  14.539  1.00  0.00     0.094 A 
HETATM   27  C   UNL     1     -46.063 -51.342  15.376  1.00  0.00     0.028 A 
HETATM   28  C   UNL     1     -46.816 -52.573  15.773  1.00  0.00     0.028 A 
ENDBRANCH   6  26
TORSDOF 6
ENDMDL
