MODEL 1
REMARK VINA RESULT:      -5.7      0.000      0.000
REMARK  5 active torsions:
REMARK  status: ('A' for Active; 'I' for Inactive)
REMARK    1  A    between atoms: C_2  and  C_3 
REMARK    2  A    between atoms: C_2  and  N_14 
REMARK       I    between atoms: C_3  and  N_5 
REMARK    3  A    between atoms: N_5  and  C_6 
REMARK    4  A    between atoms: C_6  and  C_7 
REMARK    5  A    between atoms: C_7  and  N_8 
ROOT
HETATM    1  C   UNL     1     -41.945 -49.027  11.436  1.00  0.00     0.242 C 
HETATM    2  O   UNL     1     -40.877 -49.540  11.102  1.00  0.00    -0.271 OA
HETATM    3  N   UNL     1     -42.884 -49.715  12.192  1.00  0.00    -0.358 N 
HETATM    4  H   UNL     1     -43.586 -49.182  12.698  1.00  0.00     0.162 HD
ENDROOT
BRANCH   1   5
HETATM    5  C   UNL     1     -42.326 -47.623  10.989  1.00  0.00     0.196 C 
HETATM    6  C   UNL     1     -43.066 -46.875  12.101  1.00  0.00     0.044 C 
BRANCH   5   7
HETATM    7  N   UNL     1     -43.123 -47.662   9.777  1.00  0.00    -0.273 N 
HETATM    8  C   UNL     1     -44.414 -47.270   9.598  1.00  0.00     0.202 A 
HETATM    9  N   UNL     1     -44.737 -47.398   8.331  1.00  0.00    -0.346 N 
HETATM   10  C   UNL     1     -43.592 -47.879   7.766  1.00  0.00     0.198 A 
ATOM     11  HN  UNL     1     -45.627 -47.190   7.880  1.00  0.00     0.167 HD
HETATM   12  N   UNL     1     -42.582 -48.084   8.616  1.00  0.00    -0.292 N 
ATOM     13  HN  UNL     1     -41.651 -48.460   8.435  1.00  0.00     0.188 HD
ENDBRANCH   5   7
ENDBRANCH   1   5
BRANCH   3  14
HETATM   14  C   UNL     1     -42.533 -51.041  12.685  1.00  0.00     0.152 C 
BRANCH  14  15
HETATM   15  C   UNL     1     -43.556 -51.676  13.648  1.00  0.00     0.292 C 
BRANCH  15  16
HETATM   16  N   UNL     1     -44.703 -52.286  12.941  1.00  0.00     0.090 N 
HETATM   17  C   UNL     1     -45.944 -51.496  13.000  1.00  0.00     0.272 C 
HETATM   18  C   UNL     1     -46.604 -51.488  14.379  1.00  0.00     0.030 C 
HETATM   19  C   UNL     1     -46.906 -52.911  14.828  1.00  0.00     0.003 C 
HETATM   20  C   UNL     1     -45.653 -53.785  14.741  1.00  0.00     0.030 C 
HETATM   21  C   UNL     1     -44.969 -53.667  13.376  1.00  0.00     0.272 C 
ENDBRANCH  15  16
ENDBRANCH  14  15
ENDBRANCH   3  14
TORSDOF 5
ENDMDL
MODEL 2
REMARK VINA RESULT:      -5.7      1.305      1.953
REMARK  5 active torsions:
REMARK  status: ('A' for Active; 'I' for Inactive)
REMARK    1  A    between atoms: C_2  and  C_3 
REMARK    2  A    between atoms: C_2  and  N_14 
REMARK       I    between atoms: C_3  and  N_5 
REMARK    3  A    between atoms: N_5  and  C_6 
REMARK    4  A    between atoms: C_6  and  C_7 
REMARK    5  A    between atoms: C_7  and  N_8 
ROOT
HETATM    1  C   UNL     1     -42.084 -48.915  11.527  1.00  0.00     0.242 C 
HETATM    2  O   UNL     1     -42.576 -48.516  12.582  1.00  0.00    -0.271 OA
HETATM    3  N   UNL     1     -41.581 -50.202  11.393  1.00  0.00    -0.358 N 
HETATM    4  H   UNL     1     -41.474 -50.587  10.458  1.00  0.00     0.162 HD
ENDROOT
BRANCH   1   5
HETATM    5  C   UNL     1     -41.943 -47.999  10.319  1.00  0.00     0.196 C 
HETATM    6  C   UNL     1     -41.261 -46.684  10.704  1.00  0.00     0.044 C 
BRANCH   5   7
HETATM    7  N   UNL     1     -43.233 -47.749   9.704  1.00  0.00    -0.273 N 
HETATM    8  C   UNL     1     -43.536 -47.639   8.382  1.00  0.00     0.202 A 
HETATM    9  N   UNL     1     -44.833 -47.489   8.241  1.00  0.00    -0.346 N 
HETATM   10  C   UNL     1     -45.289 -47.514   9.527  1.00  0.00     0.198 A 
ATOM     11  HN  UNL     1     -45.369 -47.379   7.381  1.00  0.00     0.167 HD
HETATM   12  N   UNL     1     -44.344 -47.645  10.462  1.00  0.00    -0.292 N 
ATOM     13  HN  UNL     1     -44.437 -47.661  11.478  1.00  0.00     0.188 HD
ENDBRANCH   5   7
ENDBRANCH   1   5
BRANCH   3  14
HETATM   14  C   UNL     1     -41.746 -51.126  12.508  1.00  0.00     0.152 C 
BRANCH  14  15
HETATM   15  C   UNL     1     -42.618 -52.362  12.214  1.00  0.00     0.292 C 
BRANCH  15  16
HETATM   16  N   UNL     1     -43.341 -52.847  13.410  1.00  0.00     0.090 N 
HETATM   17  C   UNL     1     -44.553 -53.630  13.113  1.00  0.00     0.272 C 
HETATM   18  C   UNL     1     -45.709 -52.791  12.568  1.00  0.00     0.030 C 
HETATM   19  C   UNL     1     -46.068 -51.684  13.550  1.00  0.00     0.003 C 
HETATM   20  C   UNL     1     -44.828 -50.869  13.925  1.00  0.00     0.030 C 
HETATM   21  C   UNL     1     -43.664 -51.766  14.355  1.00  0.00     0.272 C 
ENDBRANCH  15  16
ENDBRANCH  14  15
ENDBRANCH   3  14
TORSDOF 5
ENDMDL
MODEL 3
REMARK VINA RESULT:      -5.7      1.674      2.269
REMARK  5 active torsions:
REMARK  status: ('A' for Active; 'I' for Inactive)
REMARK    1  A    between atoms: C_2  and  C_3 
REMARK    2  A    between atoms: C_2  and  N_14 
REMARK       I    between atoms: C_3  and  N_5 
REMARK    3  A    between atoms: N_5  and  C_6 
REMARK    4  A    between atoms: C_6  and  C_7 
REMARK    5  A    between atoms: C_7  and  N_8 
ROOT
HETATM    1  C   UNL     1     -42.118 -48.653  11.597  1.00  0.00     0.242 C 
HETATM    2  O   UNL     1     -42.457 -48.093  12.640  1.00  0.00    -0.271 OA
HETATM    3  N   UNL     1     -41.769 -49.996  11.567  1.00  0.00    -0.358 N 
HETATM    4  H   UNL     1     -41.798 -50.486  10.676  1.00  0.00     0.162 HD
ENDROOT
BRANCH   1   5
HETATM    5  C   UNL     1     -42.006 -47.890  10.285  1.00  0.00     0.196 C 
HETATM    6  C   UNL     1     -41.334 -46.531  10.496  1.00  0.00     0.044 C 
BRANCH   5   7
HETATM    7  N   UNL     1     -43.308 -47.730   9.664  1.00  0.00    -0.273 N 
HETATM    8  C   UNL     1     -43.611 -47.639   8.341  1.00  0.00     0.202 A 
HETATM    9  N   UNL     1     -44.915 -47.579   8.195  1.00  0.00    -0.346 N 
HETATM   10  C   UNL     1     -45.374 -47.639   9.478  1.00  0.00     0.198 A 
ATOM     11  HN  UNL     1     -45.454 -47.506   7.332  1.00  0.00     0.167 HD
HETATM   12  N   UNL     1     -44.426 -47.705  10.417  1.00  0.00    -0.292 N 
ATOM     13  HN  UNL     1     -44.523 -47.728  11.433  1.00  0.00     0.188 HD
ENDBRANCH   5   7
ENDBRANCH   1   5
BRANCH   3  14
HETATM   14  C   UNL     1     -41.916 -50.774  12.790  1.00  0.00     0.152 C 
BRANCH  14  15
HETATM   15  C   UNL     1     -43.225 -51.580  12.904  1.00  0.00     0.292 C 
BRANCH  15  16
HETATM   16  N   UNL     1     -43.082 -52.971  12.423  1.00  0.00     0.090 N 
HETATM   17  C   UNL     1     -44.294 -53.795  12.576  1.00  0.00     0.272 C 
HETATM   18  C   UNL     1     -44.607 -54.167  14.025  1.00  0.00     0.030 C 
HETATM   19  C   UNL     1     -43.430 -54.906  14.647  1.00  0.00     0.003 C 
HETATM   20  C   UNL     1     -42.136 -54.107  14.474  1.00  0.00     0.030 C 
HETATM   21  C   UNL     1     -41.930 -53.663  13.023  1.00  0.00     0.272 C 
ENDBRANCH  15  16
ENDBRANCH  14  15
ENDBRANCH   3  14
TORSDOF 5
ENDMDL
MODEL 4
REMARK VINA RESULT:      -5.5      1.498      2.241
REMARK  5 active torsions:
REMARK  status: ('A' for Active; 'I' for Inactive)
REMARK    1  A    between atoms: C_2  and  C_3 
REMARK    2  A    between atoms: C_2  and  N_14 
REMARK       I    between atoms: C_3  and  N_5 
REMARK    3  A    between atoms: N_5  and  C_6 
REMARK    4  A    between atoms: C_6  and  C_7 
REMARK    5  A    between atoms: C_7  and  N_8 
ROOT
HETATM    1  C   UNL     1     -42.003 -48.744  11.524  1.00  0.00     0.242 C 
HETATM    2  O   UNL     1     -42.365 -48.263  12.597  1.00  0.00    -0.271 OA
HETATM    3  N   UNL     1     -41.603 -50.069  11.412  1.00  0.00    -0.358 N 
HETATM    4  H   UNL     1     -41.612 -50.503  10.492  1.00  0.00     0.162 HD
ENDROOT
BRANCH   1   5
HETATM    5  C   UNL     1     -41.917 -47.897  10.262  1.00  0.00     0.196 C 
HETATM    6  C   UNL     1     -41.249 -46.550  10.549  1.00  0.00     0.044 C 
BRANCH   5   7
HETATM    7  N   UNL     1     -43.230 -47.706   9.674  1.00  0.00    -0.273 N 
HETATM    8  C   UNL     1     -43.563 -47.599   8.359  1.00  0.00     0.202 A 
HETATM    9  N   UNL     1     -44.869 -47.512   8.245  1.00  0.00    -0.346 N 
HETATM   10  C   UNL     1     -45.298 -47.572   9.539  1.00  0.00     0.198 A 
ATOM     11  HN  UNL     1     -45.426 -47.421   7.396  1.00  0.00     0.167 HD
HETATM   12  N   UNL     1     -44.329 -47.664  10.454  1.00  0.00    -0.292 N 
ATOM     13  HN  UNL     1     -44.402 -47.694  11.472  1.00  0.00     0.188 HD
ENDBRANCH   5   7
ENDBRANCH   1   5
BRANCH   3  14
HETATM   14  C   UNL     1     -41.723 -50.926  12.584  1.00  0.00     0.152 C 
BRANCH  14  15
HETATM   15  C   UNL     1     -42.790 -52.033  12.483  1.00  0.00     0.292 C 
BRANCH  15  16
HETATM   16  N   UNL     1     -43.592 -52.167  13.719  1.00  0.00     0.090 N 
HETATM   17  C   UNL     1     -42.874 -52.787  14.846  1.00  0.00     0.272 C 
HETATM   18  C   UNL     1     -42.623 -54.284  14.666  1.00  0.00     0.030 C 
HETATM   19  C   UNL     1     -43.939 -55.020  14.458  1.00  0.00     0.003 C 
HETATM   20  C   UNL     1     -44.744 -54.382  13.323  1.00  0.00     0.030 C 
HETATM   21  C   UNL     1     -44.868 -52.865  13.495  1.00  0.00     0.272 C 
ENDBRANCH  15  16
ENDBRANCH  14  15
ENDBRANCH   3  14
TORSDOF 5
ENDMDL
MODEL 5
REMARK VINA RESULT:      -5.5      2.980      4.165
REMARK  5 active torsions:
REMARK  status: ('A' for Active; 'I' for Inactive)
REMARK    1  A    between atoms: C_2  and  C_3 
REMARK    2  A    between atoms: C_2  and  N_14 
REMARK       I    between atoms: C_3  and  N_5 
REMARK    3  A    between atoms: N_5  and  C_6 
REMARK    4  A    between atoms: C_6  and  C_7 
REMARK    5  A    between atoms: C_7  and  N_8 
ROOT
HETATM    1  C   UNL     1     -41.523 -51.570  12.139  1.00  0.00     0.242 C 
HETATM    2  O   UNL     1     -40.916 -52.516  11.636  1.00  0.00    -0.271 OA
HETATM    3  N   UNL     1     -42.860 -51.665  12.499  1.00  0.00    -0.358 N 
HETATM    4  H   UNL     1     -43.231 -51.000  13.172  1.00  0.00     0.162 HD
ENDROOT
BRANCH   1   5
HETATM    5  C   UNL     1     -40.856 -50.217  12.344  1.00  0.00     0.196 C 
HETATM    6  C   UNL     1     -41.395 -49.184  11.351  1.00  0.00     0.044 C 
BRANCH   5   7
HETATM    7  N   UNL     1     -39.413 -50.328  12.240  1.00  0.00    -0.273 N 
HETATM    8  C   UNL     1     -38.521 -50.709  13.194  1.00  0.00     0.202 A 
HETATM    9  N   UNL     1     -37.316 -50.751  12.673  1.00  0.00    -0.346 N 
HETATM   10  C   UNL     1     -37.526 -50.382  11.377  1.00  0.00     0.198 A 
ATOM     11  HN  UNL     1     -36.437 -50.998  13.128  1.00  0.00     0.167 HD
HETATM   12  N   UNL     1     -38.791 -50.086  11.068  1.00  0.00    -0.292 N 
ATOM     13  HN  UNL     1     -39.182 -49.762  10.183  1.00  0.00     0.188 HD
ENDBRANCH   5   7
ENDBRANCH   1   5
BRANCH   3  14
HETATM   14  C   UNL     1     -43.518 -52.959  12.369  1.00  0.00     0.152 C 
BRANCH  14  15
HETATM   15  C   UNL     1     -44.142 -53.512  13.665  1.00  0.00     0.292 C 
BRANCH  15  16
HETATM   16  N   UNL     1     -45.604 -53.713  13.554  1.00  0.00     0.090 N 
HETATM   17  C   UNL     1     -46.344 -52.537  13.065  1.00  0.00     0.272 C 
HETATM   18  C   UNL     1     -46.425 -51.396  14.078  1.00  0.00     0.030 C 
HETATM   19  C   UNL     1     -47.071 -51.880  15.369  1.00  0.00     0.003 C 
HETATM   20  C   UNL     1     -46.362 -53.131  15.894  1.00  0.00     0.030 C 
HETATM   21  C   UNL     1     -46.207 -54.197  14.806  1.00  0.00     0.272 C 
ENDBRANCH  15  16
ENDBRANCH  14  15
ENDBRANCH   3  14
TORSDOF 5
ENDMDL
MODEL 6
REMARK VINA RESULT:      -5.5      3.670      5.024
REMARK  5 active torsions:
REMARK  status: ('A' for Active; 'I' for Inactive)
REMARK    1  A    between atoms: C_2  and  C_3 
REMARK    2  A    between atoms: C_2  and  N_14 
REMARK       I    between atoms: C_3  and  N_5 
REMARK    3  A    between atoms: N_5  and  C_6 
REMARK    4  A    between atoms: C_6  and  C_7 
REMARK    5  A    between atoms: C_7  and  N_8 
ROOT
HETATM    1  C   UNL     1     -42.247 -53.793  13.185  1.00  0.00     0.242 C 
HETATM    2  O   UNL     1     -43.177 -53.194  12.645  1.00  0.00    -0.271 OA
HETATM    3  N   UNL     1     -42.446 -54.617  14.285  1.00  0.00    -0.358 N 
HETATM    4  H   UNL     1     -41.740 -55.316  14.503  1.00  0.00     0.162 HD
ENDROOT
BRANCH   1   5
HETATM    5  C   UNL     1     -40.810 -53.622  12.714  1.00  0.00     0.196 C 
HETATM    6  C   UNL     1     -39.827 -54.233  13.715  1.00  0.00     0.044 C 
BRANCH   5   7
HETATM    7  N   UNL     1     -40.504 -52.223  12.481  1.00  0.00    -0.273 N 
HETATM    8  C   UNL     1     -39.694 -51.400  13.201  1.00  0.00     0.202 A 
HETATM    9  N   UNL     1     -39.626 -50.228  12.612  1.00  0.00    -0.346 N 
HETATM   10  C   UNL     1     -40.423 -50.386  11.516  1.00  0.00     0.198 A 
ATOM     11  HN  UNL     1     -39.104 -49.402  12.903  1.00  0.00     0.167 HD
HETATM   12  N   UNL     1     -41.006 -51.582  11.405  1.00  0.00    -0.292 N 
ATOM     13  HN  UNL     1     -41.658 -51.921  10.697  1.00  0.00     0.188 HD
ENDBRANCH   5   7
ENDBRANCH   1   5
BRANCH   3  14
HETATM   14  C   UNL     1     -43.813 -54.851  14.732  1.00  0.00     0.152 C 
BRANCH  14  15
HETATM   15  C   UNL     1     -44.321 -53.889  15.824  1.00  0.00     0.292 C 
BRANCH  15  16
HETATM   16  N   UNL     1     -45.796 -53.876  15.931  1.00  0.00     0.090 N 
HETATM   17  C   UNL     1     -46.500 -53.826  14.638  1.00  0.00     0.272 C 
HETATM   18  C   UNL     1     -46.388 -52.478  13.927  1.00  0.00     0.030 C 
HETATM   19  C   UNL     1     -46.921 -51.365  14.819  1.00  0.00     0.003 C 
HETATM   20  C   UNL     1     -46.250 -51.403  16.194  1.00  0.00     0.030 C 
HETATM   21  C   UNL     1     -46.292 -52.804  16.810  1.00  0.00     0.272 C 
ENDBRANCH  15  16
ENDBRANCH  14  15
ENDBRANCH   3  14
TORSDOF 5
ENDMDL
MODEL 7
REMARK VINA RESULT:      -5.4      3.040      3.817
REMARK  5 active torsions:
REMARK  status: ('A' for Active; 'I' for Inactive)
REMARK    1  A    between atoms: C_2  and  C_3 
REMARK    2  A    between atoms: C_2  and  N_14 
REMARK       I    between atoms: C_3  and  N_5 
REMARK    3  A    between atoms: N_5  and  C_6 
REMARK    4  A    between atoms: C_6  and  C_7 
REMARK    5  A    between atoms: C_7  and  N_8 
ROOT
HETATM    1  C   UNL     1     -39.825 -51.112  12.063  1.00  0.00     0.242 C 
HETATM    2  O   UNL     1     -39.417 -51.914  12.905  1.00  0.00    -0.271 OA
HETATM    3  N   UNL     1     -41.114 -51.178  11.552  1.00  0.00    -0.358 N 
HETATM    4  H   UNL     1     -41.506 -50.348  11.114  1.00  0.00     0.162 HD
ENDROOT
BRANCH   1   5
HETATM    5  C   UNL     1     -38.918 -50.033  11.489  1.00  0.00     0.196 C 
HETATM    6  C   UNL     1     -37.455 -50.293  11.857  1.00  0.00     0.044 C 
BRANCH   5   7
HETATM    7  N   UNL     1     -39.334 -48.716  11.931  1.00  0.00    -0.273 N 
HETATM    8  C   UNL     1     -39.283 -48.186  13.184  1.00  0.00     0.202 A 
HETATM    9  N   UNL     1     -39.685 -46.936  13.146  1.00  0.00    -0.346 N 
HETATM   10  C   UNL     1     -39.975 -46.743  11.827  1.00  0.00     0.198 A 
ATOM     11  HN  UNL     1     -39.762 -46.271  13.916  1.00  0.00     0.167 HD
HETATM   12  N   UNL     1     -39.802 -47.813  11.045  1.00  0.00    -0.292 N 
ATOM     13  HN  UNL     1     -39.978 -47.919  10.046  1.00  0.00     0.188 HD
ENDBRANCH   5   7
ENDBRANCH   1   5
BRANCH   3  14
HETATM   14  C   UNL     1     -42.029 -52.162  12.116  1.00  0.00     0.152 C 
BRANCH  14  15
HETATM   15  C   UNL     1     -43.093 -51.596  13.076  1.00  0.00     0.292 C 
BRANCH  15  16
HETATM   16  N   UNL     1     -44.043 -52.627  13.548  1.00  0.00     0.090 N 
HETATM   17  C   UNL     1     -45.228 -52.801  12.689  1.00  0.00     0.272 C 
HETATM   18  C   UNL     1     -46.218 -51.639  12.763  1.00  0.00     0.030 C 
HETATM   19  C   UNL     1     -46.679 -51.428  14.199  1.00  0.00     0.003 C 
HETATM   20  C   UNL     1     -45.479 -51.287  15.138  1.00  0.00     0.030 C 
HETATM   21  C   UNL     1     -44.464 -52.417  14.942  1.00  0.00     0.272 C 
ENDBRANCH  15  16
ENDBRANCH  14  15
ENDBRANCH   3  14
TORSDOF 5
ENDMDL
MODEL 8
REMARK VINA RESULT:      -5.1      4.109      4.813
REMARK  5 active torsions:
REMARK  status: ('A' for Active; 'I' for Inactive)
REMARK    1  A    between atoms: C_2  and  C_3 
REMARK    2  A    between atoms: C_2  and  N_14 
REMARK       I    between atoms: C_3  and  N_5 
REMARK    3  A    between atoms: N_5  and  C_6 
REMARK    4  A    between atoms: C_6  and  C_7 
REMARK    5  A    between atoms: C_7  and  N_8 
ROOT
HETATM    1  C   UNL     1     -39.760 -52.546  14.092  1.00  0.00     0.242 C 
HETATM    2  O   UNL     1     -39.083 -53.333  13.431  1.00  0.00    -0.271 OA
HETATM    3  N   UNL     1     -40.830 -52.972  14.868  1.00  0.00    -0.358 N 
HETATM    4  H   UNL     1     -41.157 -52.368  15.618  1.00  0.00     0.162 HD
ENDROOT
BRANCH   1   5
HETATM    5  C   UNL     1     -39.500 -51.047  14.054  1.00  0.00     0.196 C 
HETATM    6  C   UNL     1     -40.796 -50.259  14.265  1.00  0.00     0.044 C 
BRANCH   5   7
HETATM    7  N   UNL     1     -38.860 -50.662  12.810  1.00  0.00    -0.273 N 
HETATM    8  C   UNL     1     -39.409 -50.041  11.731  1.00  0.00     0.202 A 
HETATM    9  N   UNL     1     -38.472 -49.802  10.841  1.00  0.00    -0.346 N 
HETATM   10  C   UNL     1     -37.349 -50.303  11.432  1.00  0.00     0.198 A 
ATOM     11  HN  UNL     1     -38.562 -49.353   9.930  1.00  0.00     0.167 HD
HETATM   12  N   UNL     1     -37.539 -50.865  12.629  1.00  0.00    -0.292 N 
ATOM     13  HN  UNL     1     -36.866 -51.326  13.242  1.00  0.00     0.188 HD
ENDBRANCH   5   7
ENDBRANCH   1   5
BRANCH   3  14
HETATM   14  C   UNL     1     -41.077 -54.404  14.974  1.00  0.00     0.152 C 
BRANCH  14  15
HETATM   15  C   UNL     1     -42.561 -54.819  14.939  1.00  0.00     0.292 C 
BRANCH  15  16
HETATM   16  N   UNL     1     -43.441 -53.749  14.423  1.00  0.00     0.090 N 
HETATM   17  C   UNL     1     -44.264 -53.089  15.451  1.00  0.00     0.272 C 
HETATM   18  C   UNL     1     -45.394 -53.966  15.991  1.00  0.00     0.030 C 
HETATM   19  C   UNL     1     -46.299 -54.421  14.854  1.00  0.00     0.003 C 
HETATM   20  C   UNL     1     -45.481 -55.074  13.738  1.00  0.00     0.030 C 
HETATM   21  C   UNL     1     -44.296 -54.202  13.314  1.00  0.00     0.272 C 
ENDBRANCH  15  16
ENDBRANCH  14  15
ENDBRANCH   3  14
TORSDOF 5
ENDMDL
MODEL 9
REMARK VINA RESULT:      -5.0      4.001      6.484
REMARK  5 active torsions:
REMARK  status: ('A' for Active; 'I' for Inactive)
REMARK    1  A    between atoms: C_2  and  C_3 
REMARK    2  A    between atoms: C_2  and  N_14 
REMARK       I    between atoms: C_3  and  N_5 
REMARK    3  A    between atoms: N_5  and  C_6 
REMARK    4  A    between atoms: C_6  and  C_7 
REMARK    5  A    between atoms: C_7  and  N_8 
ROOT
HETATM    1  C   UNL     1     -44.784 -53.041  12.598  1.00  0.00     0.242 C 
HETATM    2  O   UNL     1     -44.368 -54.173  12.350  1.00  0.00    -0.271 OA
HETATM    3  N   UNL     1     -43.929 -51.952  12.696  1.00  0.00    -0.358 N 
HETATM    4  H   UNL     1     -44.318 -51.018  12.592  1.00  0.00     0.162 HD
ENDROOT
BRANCH   1   5
HETATM    5  C   UNL     1     -46.258 -52.778  12.870  1.00  0.00     0.196 C 
HETATM    6  C   UNL     1     -46.781 -51.634  11.997  1.00  0.00     0.044 C 
BRANCH   5   7
HETATM    7  N   UNL     1     -46.485 -52.499  14.275  1.00  0.00    -0.273 N 
HETATM    8  C   UNL     1     -46.249 -53.301  15.348  1.00  0.00     0.202 A 
HETATM    9  N   UNL     1     -46.519 -52.644  16.453  1.00  0.00    -0.346 N 
HETATM   10  C   UNL     1     -46.923 -51.424  15.997  1.00  0.00     0.198 A 
ATOM     11  HN  UNL     1     -46.446 -52.968  17.418  1.00  0.00     0.167 HD
HETATM   12  N   UNL     1     -46.946 -51.293  14.668  1.00  0.00    -0.292 N 
ATOM     13  HN  UNL     1     -47.235 -50.496  14.101  1.00  0.00     0.188 HD
ENDBRANCH   5   7
ENDBRANCH   1   5
BRANCH   3  14
HETATM   14  C   UNL     1     -42.519 -52.152  12.389  1.00  0.00     0.152 C 
BRANCH  14  15
HETATM   15  C   UNL     1     -41.544 -51.837  13.540  1.00  0.00     0.292 C 
BRANCH  15  16
HETATM   16  N   UNL     1     -41.587 -52.849  14.618  1.00  0.00     0.090 N 
HETATM   17  C   UNL     1     -40.715 -52.552  15.767  1.00  0.00     0.272 C 
HETATM   18  C   UNL     1     -39.225 -52.714  15.468  1.00  0.00     0.030 C 
HETATM   19  C   UNL     1     -38.934 -54.128  14.983  1.00  0.00     0.003 C 
HETATM   20  C   UNL     1     -39.850 -54.500  13.815  1.00  0.00     0.030 C 
HETATM   21  C   UNL     1     -41.321 -54.211  14.128  1.00  0.00     0.272 C 
ENDBRANCH  15  16
ENDBRANCH  14  15
ENDBRANCH   3  14
TORSDOF 5
ENDMDL
