MODEL 1
REMARK VINA RESULT:      -5.3      0.000      0.000
REMARK  7 active torsions:
REMARK  status: ('A' for Active; 'I' for Inactive)
REMARK    1  A    between atoms: C_2  and  C_3 
REMARK       I    between atoms: C_2  and  N_13 
REMARK    2  A    between atoms: C_3  and  N_4 
REMARK    3  A    between atoms: N_4  and  C_5 
REMARK    4  A    between atoms: C_5  and  C_6 
REMARK    5  A    between atoms: C_6  and  N_7 
REMARK    6  A    between atoms: N_13  and  C_14 
REMARK    7  A    between atoms: C_14  and  C_15 
ROOT
HETATM    1  N   UNL     1     -42.533 -48.566  10.678  1.00  0.00     0.093 N 
HETATM    2  H   UNL     1     -43.208 -48.696  11.437  1.00  0.00     0.316 HD
ENDROOT
BRANCH   1   3
HETATM    3  C   UNL     1     -41.187 -48.564  11.293  1.00  0.00     0.371 C 
BRANCH   3   4
HETATM    4  C   UNL     1     -40.692 -49.981  11.577  1.00  0.00     0.245 C 
HETATM    5  O   UNL     1     -39.498 -50.265  11.539  1.00  0.00    -0.272 OA
HETATM    6  N   UNL     1     -41.693 -50.909  11.765  1.00  0.00    -0.359 N 
HETATM    7  H   UNL     1     -42.638 -50.566  11.894  1.00  0.00     0.162 HD
BRANCH   6   8
HETATM    8  C   UNL     1     -41.418 -52.323  11.767  1.00  0.00     0.127 C 
BRANCH   8   9
HETATM    9  C   UNL     1     -41.334 -52.874  13.154  1.00  0.00     0.003 A 
HETATM   10  C   UNL     1     -40.618 -54.161  13.490  1.00  0.00     0.007 A 
HETATM   11  C   UNL     1     -42.119 -54.122  13.484  1.00  0.00     0.007 A 
ENDBRANCH   8   9
ENDBRANCH   6   8
ENDBRANCH   3   4
ENDBRANCH   1   3
BRANCH   1  12
HETATM   12  C   UNL     1     -42.810 -47.250  10.056  1.00  0.00     0.291 C 
BRANCH  12  13
HETATM   13  C   UNL     1     -43.332 -47.349   8.618  1.00  0.00     0.178 C 
BRANCH  13  14
HETATM   14  N   UNL     1     -44.730 -47.727   8.543  1.00  0.00    -0.302 N 
HETATM   15  C   UNL     1     -45.712 -47.406   9.435  1.00  0.00     0.111 A 
HETATM   16  C   UNL     1     -46.838 -48.076   9.019  1.00  0.00     0.037 A 
HETATM   17  C   UNL     1     -46.432 -48.779   7.871  1.00  0.00     0.108 A 
HETATM   18  N   UNL     1     -45.144 -48.573   7.578  1.00  0.00    -0.310 N 
ATOM     19  HN  UNL     1     -44.603 -48.964   6.807  1.00  0.00     0.186 HD
ENDBRANCH  13  14
ENDBRANCH  12  13
ENDBRANCH   1  12
TORSDOF 7
ENDMDL
MODEL 2
REMARK VINA RESULT:      -5.3      2.737      4.460
REMARK  7 active torsions:
REMARK  status: ('A' for Active; 'I' for Inactive)
REMARK    1  A    between atoms: C_2  and  C_3 
REMARK       I    between atoms: C_2  and  N_13 
REMARK    2  A    between atoms: C_3  and  N_4 
REMARK    3  A    between atoms: N_4  and  C_5 
REMARK    4  A    between atoms: C_5  and  C_6 
REMARK    5  A    between atoms: C_6  and  N_7 
REMARK    6  A    between atoms: N_13  and  C_14 
REMARK    7  A    between atoms: C_14  and  C_15 
ROOT
HETATM    1  N   UNL     1     -40.825 -52.004  11.385  1.00  0.00     0.093 N 
HETATM    2  H   UNL     1     -41.789 -51.831  11.084  1.00  0.00     0.316 HD
ENDROOT
BRANCH   1   3
HETATM    3  C   UNL     1     -40.867 -53.139  12.334  1.00  0.00     0.371 C 
BRANCH   3   4
HETATM    4  C   UNL     1     -42.251 -53.306  12.958  1.00  0.00     0.245 C 
HETATM    5  O   UNL     1     -42.405 -53.866  14.039  1.00  0.00    -0.272 OA
HETATM    6  N   UNL     1     -43.291 -52.881  12.161  1.00  0.00    -0.359 N 
HETATM    7  H   UNL     1     -43.065 -52.330  11.340  1.00  0.00     0.162 HD
BRANCH   6   8
HETATM    8  C   UNL     1     -44.660 -53.213  12.468  1.00  0.00     0.127 C 
BRANCH   8   9
HETATM    9  C   UNL     1     -45.400 -52.052  13.047  1.00  0.00     0.003 A 
HETATM   10  C   UNL     1     -46.683 -52.198  13.831  1.00  0.00     0.007 A 
HETATM   11  C   UNL     1     -46.722 -51.658  12.431  1.00  0.00     0.007 A 
ENDBRANCH   8   9
ENDBRANCH   6   8
ENDBRANCH   3   4
ENDBRANCH   1   3
BRANCH   1  12
HETATM   12  C   UNL     1     -40.349 -50.782  12.074  1.00  0.00     0.291 C 
BRANCH  12  13
HETATM   13  C   UNL     1     -40.164 -49.583  11.138  1.00  0.00     0.178 C 
BRANCH  13  14
HETATM   14  N   UNL     1     -41.372 -48.798  10.970  1.00  0.00    -0.302 N 
HETATM   15  C   UNL     1     -42.325 -48.552  11.916  1.00  0.00     0.111 A 
HETATM   16  C   UNL     1     -43.331 -47.871  11.274  1.00  0.00     0.037 A 
HETATM   17  C   UNL     1     -42.895 -47.760   9.942  1.00  0.00     0.108 A 
HETATM   18  N   UNL     1     -41.701 -48.329   9.750  1.00  0.00    -0.310 N 
ATOM     19  HN  UNL     1     -41.165 -48.392   8.884  1.00  0.00     0.186 HD
ENDBRANCH  13  14
ENDBRANCH  12  13
ENDBRANCH   1  12
TORSDOF 7
ENDMDL
MODEL 3
REMARK VINA RESULT:      -5.1      2.853      3.472
REMARK  7 active torsions:
REMARK  status: ('A' for Active; 'I' for Inactive)
REMARK    1  A    between atoms: C_2  and  C_3 
REMARK       I    between atoms: C_2  and  N_13 
REMARK    2  A    between atoms: C_3  and  N_4 
REMARK    3  A    between atoms: N_4  and  C_5 
REMARK    4  A    between atoms: C_5  and  C_6 
REMARK    5  A    between atoms: C_6  and  N_7 
REMARK    6  A    between atoms: N_13  and  C_14 
REMARK    7  A    between atoms: C_14  and  C_15 
ROOT
HETATM    1  N   UNL     1     -41.628 -50.148  11.313  1.00  0.00     0.093 N 
HETATM    2  H   UNL     1     -42.491 -50.534  10.917  1.00  0.00     0.316 HD
ENDROOT
BRANCH   1   3
HETATM    3  C   UNL     1     -41.307 -50.953  12.513  1.00  0.00     0.371 C 
BRANCH   3   4
HETATM    4  C   UNL     1     -42.465 -51.867  12.910  1.00  0.00     0.245 C 
HETATM    5  O   UNL     1     -42.896 -52.726  12.147  1.00  0.00    -0.272 OA
HETATM    6  N   UNL     1     -43.037 -51.567  14.127  1.00  0.00    -0.359 N 
HETATM    7  H   UNL     1     -42.547 -50.921  14.735  1.00  0.00     0.162 HD
BRANCH   6   8
HETATM    8  C   UNL     1     -44.299 -52.138  14.526  1.00  0.00     0.127 C 
BRANCH   8   9
HETATM    9  C   UNL     1     -45.435 -51.191  14.310  1.00  0.00     0.003 A 
HETATM   10  C   UNL     1     -46.836 -51.454  14.807  1.00  0.00     0.007 A 
HETATM   11  C   UNL     1     -46.528 -51.583  13.344  1.00  0.00     0.007 A 
ENDBRANCH   8   9
ENDBRANCH   6   8
ENDBRANCH   3   4
ENDBRANCH   1   3
BRANCH   1  12
HETATM   12  C   UNL     1     -41.904 -48.745  11.700  1.00  0.00     0.291 C 
BRANCH  12  13
HETATM   13  C   UNL     1     -41.720 -47.745  10.554  1.00  0.00     0.178 C 
BRANCH  13  14
HETATM   14  N   UNL     1     -42.878 -47.652   9.685  1.00  0.00    -0.302 N 
HETATM   15  C   UNL     1     -44.159 -47.366  10.060  1.00  0.00     0.111 A 
HETATM   16  C   UNL     1     -44.926 -47.505   8.928  1.00  0.00     0.037 A 
HETATM   17  C   UNL     1     -44.017 -47.883   7.924  1.00  0.00     0.108 A 
HETATM   18  N   UNL     1     -42.766 -47.979   8.382  1.00  0.00    -0.310 N 
ATOM     19  HN  UNL     1     -41.924 -48.238   7.867  1.00  0.00     0.186 HD
ENDBRANCH  13  14
ENDBRANCH  12  13
ENDBRANCH   1  12
TORSDOF 7
ENDMDL
MODEL 4
REMARK VINA RESULT:      -5.1      1.820      6.530
REMARK  7 active torsions:
REMARK  status: ('A' for Active; 'I' for Inactive)
REMARK    1  A    between atoms: C_2  and  C_3 
REMARK       I    between atoms: C_2  and  N_13 
REMARK    2  A    between atoms: C_3  and  N_4 
REMARK    3  A    between atoms: N_4  and  C_5 
REMARK    4  A    between atoms: C_5  and  C_6 
REMARK    5  A    between atoms: C_6  and  N_7 
REMARK    6  A    between atoms: N_13  and  C_14 
REMARK    7  A    between atoms: C_14  and  C_15 
ROOT
HETATM    1  N   UNL     1     -41.082 -51.003  11.280  1.00  0.00     0.093 N 
HETATM    2  H   UNL     1     -40.733 -51.627  10.546  1.00  0.00     0.316 HD
ENDROOT
BRANCH   1   3
HETATM    3  C   UNL     1     -40.214 -49.804  11.276  1.00  0.00     0.371 C 
BRANCH   3   4
HETATM    4  C   UNL     1     -41.011 -48.527  11.017  1.00  0.00     0.245 C 
HETATM    5  O   UNL     1     -40.523 -47.416  11.199  1.00  0.00    -0.272 OA
HETATM    6  N   UNL     1     -42.330 -48.737  10.678  1.00  0.00    -0.359 N 
HETATM    7  H   UNL     1     -42.613 -49.681  10.440  1.00  0.00     0.162 HD
BRANCH   6   8
HETATM    8  C   UNL     1     -43.286 -47.659  10.671  1.00  0.00     0.127 C 
BRANCH   8   9
HETATM    9  C   UNL     1     -43.879 -47.446   9.316  1.00  0.00     0.003 A 
HETATM   10  C   UNL     1     -44.637 -46.198   8.932  1.00  0.00     0.007 A 
HETATM   11  C   UNL     1     -45.382 -47.479   9.172  1.00  0.00     0.007 A 
ENDBRANCH   8   9
ENDBRANCH   6   8
ENDBRANCH   3   4
ENDBRANCH   1   3
BRANCH   1  12
HETATM   12  C   UNL     1     -40.955 -51.720  12.570  1.00  0.00     0.291 C 
BRANCH  12  13
HETATM   13  C   UNL     1     -41.188 -53.230  12.458  1.00  0.00     0.178 C 
BRANCH  13  14
HETATM   14  N   UNL     1     -42.484 -53.647  12.956  1.00  0.00    -0.302 N 
HETATM   15  C   UNL     1     -42.740 -54.286  14.135  1.00  0.00     0.111 A 
HETATM   16  C   UNL     1     -44.082 -54.582  14.125  1.00  0.00     0.037 A 
HETATM   17  C   UNL     1     -44.547 -54.086  12.894  1.00  0.00     0.108 A 
HETATM   18  N   UNL     1     -43.575 -53.519  12.175  1.00  0.00    -0.310 N 
ATOM     19  HN  UNL     1     -43.642 -53.089  11.251  1.00  0.00     0.186 HD
ENDBRANCH  13  14
ENDBRANCH  12  13
ENDBRANCH   1  12
TORSDOF 7
ENDMDL
MODEL 5
REMARK VINA RESULT:      -5.1      1.839      2.764
REMARK  7 active torsions:
REMARK  status: ('A' for Active; 'I' for Inactive)
REMARK    1  A    between atoms: C_2  and  C_3 
REMARK       I    between atoms: C_2  and  N_13 
REMARK    2  A    between atoms: C_3  and  N_4 
REMARK    3  A    between atoms: N_4  and  C_5 
REMARK    4  A    between atoms: C_5  and  C_6 
REMARK    5  A    between atoms: C_6  and  N_7 
REMARK    6  A    between atoms: N_13  and  C_14 
REMARK    7  A    between atoms: C_14  and  C_15 
ROOT
HETATM    1  N   UNL     1     -41.811 -50.302  11.463  1.00  0.00     0.093 N 
HETATM    2  H   UNL     1     -42.666 -50.707  11.857  1.00  0.00     0.316 HD
ENDROOT
BRANCH   1   3
HETATM    3  C   UNL     1     -40.670 -50.968  12.130  1.00  0.00     0.371 C 
BRANCH   3   4
HETATM    4  C   UNL     1     -41.048 -52.353  12.652  1.00  0.00     0.245 C 
HETATM    5  O   UNL     1     -40.457 -53.363  12.281  1.00  0.00    -0.272 OA
HETATM    6  N   UNL     1     -42.158 -52.372  13.467  1.00  0.00    -0.359 N 
HETATM    7  H   UNL     1     -42.510 -51.485  13.810  1.00  0.00     0.162 HD
BRANCH   6   8
HETATM    8  C   UNL     1     -42.813 -53.607  13.819  1.00  0.00     0.127 C 
BRANCH   8   9
HETATM    9  C   UNL     1     -43.924 -53.938  12.876  1.00  0.00     0.003 A 
HETATM   10  C   UNL     1     -45.248 -53.212  12.871  1.00  0.00     0.007 A 
HETATM   11  C   UNL     1     -45.164 -54.604  13.426  1.00  0.00     0.007 A 
ENDBRANCH   8   9
ENDBRANCH   6   8
ENDBRANCH   3   4
ENDBRANCH   1   3
BRANCH   1  12
HETATM   12  C   UNL     1     -41.816 -48.856  11.785  1.00  0.00     0.291 C 
BRANCH  12  13
HETATM   13  C   UNL     1     -41.595 -47.955  10.565  1.00  0.00     0.178 C 
BRANCH  13  14
HETATM   14  N   UNL     1     -42.803 -47.731   9.795  1.00  0.00    -0.302 N 
HETATM   15  C   UNL     1     -44.037 -47.411  10.285  1.00  0.00     0.111 A 
HETATM   16  C   UNL     1     -44.888 -47.416   9.205  1.00  0.00     0.037 A 
HETATM   17  C   UNL     1     -44.074 -47.755   8.110  1.00  0.00     0.108 A 
HETATM   18  N   UNL     1     -42.801 -47.953   8.465  1.00  0.00    -0.310 N 
ATOM     19  HN  UNL     1     -42.013 -48.211   7.870  1.00  0.00     0.186 HD
ENDBRANCH  13  14
ENDBRANCH  12  13
ENDBRANCH   1  12
TORSDOF 7
ENDMDL
MODEL 6
REMARK VINA RESULT:      -5.0      3.122      7.265
REMARK  7 active torsions:
REMARK  status: ('A' for Active; 'I' for Inactive)
REMARK    1  A    between atoms: C_2  and  C_3 
REMARK       I    between atoms: C_2  and  N_13 
REMARK    2  A    between atoms: C_3  and  N_4 
REMARK    3  A    between atoms: N_4  and  C_5 
REMARK    4  A    between atoms: C_5  and  C_6 
REMARK    5  A    between atoms: C_6  and  N_7 
REMARK    6  A    between atoms: N_13  and  C_14 
REMARK    7  A    between atoms: C_14  and  C_15 
ROOT
HETATM    1  N   UNL     1     -40.620 -47.126  10.538  1.00  0.00     0.093 N 
HETATM    2  H   UNL     1     -39.682 -46.712  10.534  1.00  0.00     0.316 HD
ENDROOT
BRANCH   1   3
HETATM    3  C   UNL     1     -41.580 -46.019  10.746  1.00  0.00     0.371 C 
BRANCH   3   4
HETATM    4  C   UNL     1     -42.694 -46.031   9.700  1.00  0.00     0.245 C 
HETATM    5  O   UNL     1     -43.303 -45.010   9.399  1.00  0.00    -0.272 OA
HETATM    6  N   UNL     1     -43.015 -47.283   9.223  1.00  0.00    -0.359 N 
HETATM    7  H   UNL     1     -42.386 -48.048   9.439  1.00  0.00     0.162 HD
BRANCH   6   8
HETATM    8  C   UNL     1     -44.210 -47.511   8.451  1.00  0.00     0.127 C 
BRANCH   8   9
HETATM    9  C   UNL     1     -45.400 -47.753   9.322  1.00  0.00     0.003 A 
HETATM   10  C   UNL     1     -46.656 -48.435   8.835  1.00  0.00     0.007 A 
HETATM   11  C   UNL     1     -46.656 -46.952   9.068  1.00  0.00     0.007 A 
ENDBRANCH   8   9
ENDBRANCH   6   8
ENDBRANCH   3   4
ENDBRANCH   1   3
BRANCH   1  12
HETATM   12  C   UNL     1     -40.681 -48.074  11.675  1.00  0.00     0.291 C 
BRANCH  12  13
HETATM   13  C   UNL     1     -40.080 -49.449  11.361  1.00  0.00     0.178 C 
BRANCH  13  14
HETATM   14  N   UNL     1     -39.025 -49.833  12.278  1.00  0.00    -0.302 N 
HETATM   15  C   UNL     1     -37.957 -50.639  12.004  1.00  0.00     0.111 A 
HETATM   16  C   UNL     1     -37.297 -50.816  13.197  1.00  0.00     0.037 A 
HETATM   17  C   UNL     1     -38.048 -50.082  14.132  1.00  0.00     0.108 A 
HETATM   18  N   UNL     1     -39.107 -49.485  13.578  1.00  0.00    -0.310 N 
ATOM     19  HN  UNL     1     -39.811 -48.901  14.031  1.00  0.00     0.186 HD
ENDBRANCH  13  14
ENDBRANCH  12  13
ENDBRANCH   1  12
TORSDOF 7
ENDMDL
MODEL 7
REMARK VINA RESULT:      -4.9      2.925      5.972
REMARK  7 active torsions:
REMARK  status: ('A' for Active; 'I' for Inactive)
REMARK    1  A    between atoms: C_2  and  C_3 
REMARK       I    between atoms: C_2  and  N_13 
REMARK    2  A    between atoms: C_3  and  N_4 
REMARK    3  A    between atoms: N_4  and  C_5 
REMARK    4  A    between atoms: C_5  and  C_6 
REMARK    5  A    between atoms: C_6  and  N_7 
REMARK    6  A    between atoms: N_13  and  C_14 
REMARK    7  A    between atoms: C_14  and  C_15 
ROOT
HETATM    1  N   UNL     1     -42.202 -52.405  11.660  1.00  0.00     0.093 N 
HETATM    2  H   UNL     1     -42.012 -53.088  10.920  1.00  0.00     0.316 HD
ENDROOT
BRANCH   1   3
HETATM    3  C   UNL     1     -40.899 -51.827  12.060  1.00  0.00     0.371 C 
BRANCH   3   4
HETATM    4  C   UNL     1     -40.750 -50.383  11.585  1.00  0.00     0.245 C 
HETATM    5  O   UNL     1     -39.646 -49.865  11.442  1.00  0.00    -0.272 OA
HETATM    6  N   UNL     1     -41.939 -49.703  11.443  1.00  0.00    -0.359 N 
HETATM    7  H   UNL     1     -42.798 -50.240  11.470  1.00  0.00     0.162 HD
BRANCH   6   8
HETATM    8  C   UNL     1     -41.972 -48.272  11.275  1.00  0.00     0.127 C 
BRANCH   8   9
HETATM    9  C   UNL     1     -42.591 -47.876   9.974  1.00  0.00     0.003 A 
HETATM   10  C   UNL     1     -42.887 -46.443   9.602  1.00  0.00     0.007 A 
HETATM   11  C   UNL     1     -44.012 -47.364   9.976  1.00  0.00     0.007 A 
ENDBRANCH   8   9
ENDBRANCH   6   8
ENDBRANCH   3   4
ENDBRANCH   1   3
BRANCH   1  12
HETATM   12  C   UNL     1     -42.805 -53.138  12.798  1.00  0.00     0.291 C 
BRANCH  12  13
HETATM   13  C   UNL     1     -44.192 -53.713  12.490  1.00  0.00     0.178 C 
BRANCH  13  14
HETATM   14  N   UNL     1     -45.263 -53.021  13.181  1.00  0.00    -0.302 N 
HETATM   15  C   UNL     1     -45.389 -51.672  13.351  1.00  0.00     0.111 A 
HETATM   16  C   UNL     1     -46.484 -51.491  14.162  1.00  0.00     0.037 A 
HETATM   17  C   UNL     1     -46.946 -52.791  14.433  1.00  0.00     0.108 A 
HETATM   18  N   UNL     1     -46.202 -53.729  13.841  1.00  0.00    -0.310 N 
ATOM     19  HN  UNL     1     -46.317 -54.742  13.879  1.00  0.00     0.186 HD
ENDBRANCH  13  14
ENDBRANCH  12  13
ENDBRANCH   1  12
TORSDOF 7
ENDMDL
MODEL 8
REMARK VINA RESULT:      -4.9      4.850      7.055
REMARK  7 active torsions:
REMARK  status: ('A' for Active; 'I' for Inactive)
REMARK    1  A    between atoms: C_2  and  C_3 
REMARK       I    between atoms: C_2  and  N_13 
REMARK    2  A    between atoms: C_3  and  N_4 
REMARK    3  A    between atoms: N_4  and  C_5 
REMARK    4  A    between atoms: C_5  and  C_6 
REMARK    5  A    between atoms: C_6  and  N_7 
REMARK    6  A    between atoms: N_13  and  C_14 
REMARK    7  A    between atoms: C_14  and  C_15 
ROOT
HETATM    1  N   UNL     1     -42.747 -52.718  11.842  1.00  0.00     0.093 N 
HETATM    2  H   UNL     1     -43.457 -51.981  11.906  1.00  0.00     0.316 HD
ENDROOT
BRANCH   1   3
HETATM    3  C   UNL     1     -42.818 -53.494  13.100  1.00  0.00     0.371 C 
BRANCH   3   4
HETATM    4  C   UNL     1     -44.230 -54.010  13.370  1.00  0.00     0.245 C 
HETATM    5  O   UNL     1     -44.909 -54.520  12.483  1.00  0.00    -0.272 OA
HETATM    6  N   UNL     1     -44.698 -53.755  14.640  1.00  0.00    -0.359 N 
HETATM    7  H   UNL     1     -44.033 -53.436  15.335  1.00  0.00     0.162 HD
BRANCH   6   8
HETATM    8  C   UNL     1     -46.090 -53.920  14.977  1.00  0.00     0.127 C 
BRANCH   8   9
HETATM    9  C   UNL     1     -46.890 -52.697  14.664  1.00  0.00     0.003 A 
HETATM   10  C   UNL     1     -46.322 -51.299  14.729  1.00  0.00     0.007 A 
HETATM   11  C   UNL     1     -47.267 -51.771  15.796  1.00  0.00     0.007 A 
ENDBRANCH   8   9
ENDBRANCH   6   8
ENDBRANCH   3   4
ENDBRANCH   1   3
BRANCH   1  12
HETATM   12  C   UNL     1     -41.427 -52.057  11.725  1.00  0.00     0.291 C 
BRANCH  12  13
HETATM   13  C   UNL     1     -40.547 -52.219  12.969  1.00  0.00     0.178 C 
BRANCH  13  14
HETATM   14  N   UNL     1     -39.307 -51.471  12.893  1.00  0.00    -0.302 N 
HETATM   15  C   UNL     1     -38.413 -51.265  13.904  1.00  0.00     0.111 A 
HETATM   16  C   UNL     1     -37.462 -50.409  13.403  1.00  0.00     0.037 A 
HETATM   17  C   UNL     1     -37.873 -50.151  12.083  1.00  0.00     0.108 A 
HETATM   18  N   UNL     1     -39.001 -50.794  11.768  1.00  0.00    -0.310 N 
ATOM     19  HN  UNL     1     -39.512 -50.776  10.885  1.00  0.00     0.186 HD
ENDBRANCH  13  14
ENDBRANCH  12  13
ENDBRANCH   1  12
TORSDOF 7
ENDMDL
MODEL 9
REMARK VINA RESULT:      -4.8      2.610      3.810
REMARK  7 active torsions:
REMARK  status: ('A' for Active; 'I' for Inactive)
REMARK    1  A    between atoms: C_2  and  C_3 
REMARK       I    between atoms: C_2  and  N_13 
REMARK    2  A    between atoms: C_3  and  N_4 
REMARK    3  A    between atoms: N_4  and  C_5 
REMARK    4  A    between atoms: C_5  and  C_6 
REMARK    5  A    between atoms: C_6  and  N_7 
REMARK    6  A    between atoms: N_13  and  C_14 
REMARK    7  A    between atoms: C_14  and  C_15 
ROOT
HETATM    1  N   UNL     1     -40.679 -50.680  11.057  1.00  0.00     0.093 N 
HETATM    2  H   UNL     1     -41.581 -50.303  10.751  1.00  0.00     0.316 HD
ENDROOT
BRANCH   1   3
HETATM    3  C   UNL     1     -40.962 -51.659  12.130  1.00  0.00     0.371 C 
BRANCH   3   4
HETATM    4  C   UNL     1     -42.458 -51.768  12.418  1.00  0.00     0.245 C 
HETATM    5  O   UNL     1     -43.050 -50.918  13.077  1.00  0.00    -0.272 OA
HETATM    6  N   UNL     1     -43.040 -52.936  11.975  1.00  0.00    -0.359 N 
HETATM    7  H   UNL     1     -42.506 -53.522  11.344  1.00  0.00     0.162 HD
BRANCH   6   8
HETATM    8  C   UNL     1     -44.362 -53.326  12.399  1.00  0.00     0.127 C 
BRANCH   8   9
HETATM    9  C   UNL     1     -44.336 -54.553  13.251  1.00  0.00     0.003 A 
HETATM   10  C   UNL     1     -45.573 -55.149  13.879  1.00  0.00     0.007 A 
HETATM   11  C   UNL     1     -44.587 -54.407  14.734  1.00  0.00     0.007 A 
ENDBRANCH   8   9
ENDBRANCH   6   8
ENDBRANCH   3   4
ENDBRANCH   1   3
BRANCH   1  12
HETATM   12  C   UNL     1     -39.883 -49.551  11.594  1.00  0.00     0.291 C 
BRANCH  12  13
HETATM   13  C   UNL     1     -40.731 -48.482  12.292  1.00  0.00     0.178 C 
BRANCH  13  14
HETATM   14  N   UNL     1     -41.754 -47.914  11.435  1.00  0.00    -0.302 N 
HETATM   15  C   UNL     1     -41.594 -46.904  10.531  1.00  0.00     0.111 A 
HETATM   16  C   UNL     1     -42.850 -46.626  10.045  1.00  0.00     0.037 A 
HETATM   17  C   UNL     1     -43.700 -47.519  10.722  1.00  0.00     0.108 A 
HETATM   18  N   UNL     1     -43.037 -48.304  11.575  1.00  0.00    -0.310 N 
ATOM     19  HN  UNL     1     -43.412 -49.028  12.188  1.00  0.00     0.186 HD
ENDBRANCH  13  14
ENDBRANCH  12  13
ENDBRANCH   1  12
TORSDOF 7
ENDMDL
