MODEL 1
REMARK VINA RESULT:      -5.8      0.000      0.000
REMARK  3 active torsions:
REMARK  status: ('A' for Active; 'I' for Inactive)
REMARK    1  A    between atoms: C_2  and  C_3 
REMARK       I    between atoms: C_2  and  N_12 
REMARK    2  A    between atoms: C_3  and  N_4 
REMARK    3  A    between atoms: N_12  and  C_13 
ROOT
HETATM    1  O   UNL     1     -42.230 -52.398  11.975  1.00  0.00    -0.272 OA
HETATM    2  C   UNL     1     -42.485 -52.204  13.160  1.00  0.00     0.236 C 
HETATM    3  N   UNL     1     -43.757 -52.266  13.692  1.00  0.00    -0.355 N 
HETATM    4  H   UNL     1     -43.808 -52.423  14.690  1.00  0.00     0.162 HD
ENDROOT
BRANCH   2   5
HETATM    5  C   UNL     1     -41.410 -51.847  14.196  1.00  0.00     0.235 C 
BRANCH   5   6
HETATM    6  N   UNL     1     -40.587 -53.008  14.521  1.00  0.00    -0.301 N 
HETATM    7  C   UNL     1     -41.030 -53.936  15.439  1.00  0.00     0.102 A 
HETATM    8  C   UNL     1     -40.283 -54.982  15.795  1.00  0.00     0.092 A 
HETATM    9  C   UNL     1     -38.945 -55.136  15.198  1.00  0.00     0.250 A 
HETATM   10  O   UNL     1     -38.197 -56.040  15.547  1.00  0.00    -0.268 OA
HETATM   11  N   UNL     1     -38.607 -54.212  14.253  1.00  0.00    -0.275 N 
HETATM   12  C   UNL     1     -39.346 -53.111  13.908  1.00  0.00     0.329 A 
HETATM   13  H   UNL     1     -37.691 -54.291  13.843  1.00  0.00     0.173 HD
HETATM   14  O   UNL     1     -38.913 -52.282  13.108  1.00  0.00    -0.246 OA
ENDBRANCH   5   6
ENDBRANCH   2   5
BRANCH   3  15
HETATM   15  C   UNL     1     -44.931 -52.662  12.913  1.00  0.00     0.084 C 
HETATM   16  C   UNL     1     -46.001 -51.564  12.975  1.00  0.00     0.025 C 
HETATM   17  C   UNL     1     -46.568 -51.395  14.386  1.00  0.00     0.002 C 
HETATM   18  C   UNL     1     -47.106 -52.712  14.942  1.00  0.00     0.000 C 
HETATM   19  C   UNL     1     -46.104 -53.860  14.826  1.00  0.00     0.002 C 
HETATM   20  C   UNL     1     -45.519 -53.988  13.417  1.00  0.00     0.025 C 
ENDBRANCH   3  15
TORSDOF 3
ENDMDL
MODEL 2
REMARK VINA RESULT:      -5.6      3.371      5.313
REMARK  3 active torsions:
REMARK  status: ('A' for Active; 'I' for Inactive)
REMARK    1  A    between atoms: C_2  and  C_3 
REMARK       I    between atoms: C_2  and  N_12 
REMARK    2  A    between atoms: C_3  and  N_4 
REMARK    3  A    between atoms: N_12  and  C_13 
ROOT
HETATM    1  O   UNL     1     -42.064 -52.536  11.922  1.00  0.00    -0.272 OA
HETATM    2  C   UNL     1     -42.571 -51.626  12.570  1.00  0.00     0.236 C 
HETATM    3  N   UNL     1     -43.900 -51.597  12.942  1.00  0.00    -0.355 N 
HETATM    4  H   UNL     1     -44.122 -51.001  13.729  1.00  0.00     0.162 HD
ENDROOT
BRANCH   2   5
HETATM    5  C   UNL     1     -41.785 -50.390  13.030  1.00  0.00     0.235 C 
BRANCH   5   6
HETATM    6  N   UNL     1     -41.974 -49.274  12.110  1.00  0.00    -0.301 N 
HETATM    7  C   UNL     1     -43.072 -48.449  12.236  1.00  0.00     0.102 A 
HETATM    8  C   UNL     1     -43.301 -47.450  11.383  1.00  0.00     0.092 A 
HETATM    9  C   UNL     1     -42.358 -47.235  10.271  1.00  0.00     0.250 A 
HETATM   10  O   UNL     1     -42.566 -46.376   9.424  1.00  0.00    -0.268 OA
HETATM   11  N   UNL     1     -41.266 -48.052  10.252  1.00  0.00    -0.275 N 
HETATM   12  C   UNL     1     -41.040 -49.107  11.097  1.00  0.00     0.329 A 
HETATM   13  H   UNL     1     -40.617 -47.931   9.492  1.00  0.00     0.173 HD
HETATM   14  O   UNL     1     -40.066 -49.845  10.943  1.00  0.00    -0.246 OA
ENDBRANCH   5   6
ENDBRANCH   2   5
BRANCH   3  15
HETATM   15  C   UNL     1     -44.828 -52.699  12.681  1.00  0.00     0.084 C 
HETATM   16  C   UNL     1     -46.256 -52.160  12.523  1.00  0.00     0.025 C 
HETATM   17  C   UNL     1     -46.791 -51.564  13.826  1.00  0.00     0.002 C 
HETATM   18  C   UNL     1     -46.709 -52.560  14.981  1.00  0.00     0.000 C 
HETATM   19  C   UNL     1     -45.324 -53.188  15.128  1.00  0.00     0.002 C 
HETATM   20  C   UNL     1     -44.788 -53.744  13.806  1.00  0.00     0.025 C 
ENDBRANCH   3  15
TORSDOF 3
ENDMDL
MODEL 3
REMARK VINA RESULT:      -5.5      2.675      3.586
REMARK  3 active torsions:
REMARK  status: ('A' for Active; 'I' for Inactive)
REMARK    1  A    between atoms: C_2  and  C_3 
REMARK       I    between atoms: C_2  and  N_12 
REMARK    2  A    between atoms: C_3  and  N_4 
REMARK    3  A    between atoms: N_12  and  C_13 
ROOT
HETATM    1  O   UNL     1     -41.849 -53.085  12.556  1.00  0.00    -0.272 OA
HETATM    2  C   UNL     1     -42.372 -52.065  12.995  1.00  0.00     0.236 C 
HETATM    3  N   UNL     1     -43.735 -51.844  13.005  1.00  0.00    -0.355 N 
HETATM    4  H   UNL     1     -44.062 -51.156  13.671  1.00  0.00     0.162 HD
ENDROOT
BRANCH   2   5
HETATM    5  C   UNL     1     -41.563 -50.895  13.572  1.00  0.00     0.235 C 
BRANCH   5   6
HETATM    6  N   UNL     1     -40.342 -50.671  12.804  1.00  0.00    -0.301 N 
HETATM    7  C   UNL     1     -39.130 -51.121  13.283  1.00  0.00     0.102 A 
HETATM    8  C   UNL     1     -37.990 -50.892  12.632  1.00  0.00     0.092 A 
HETATM    9  C   UNL     1     -38.032 -50.125  11.374  1.00  0.00     0.250 A 
HETATM   10  O   UNL     1     -37.003 -49.830  10.779  1.00  0.00    -0.268 OA
HETATM   11  N   UNL     1     -39.274 -49.771  10.936  1.00  0.00    -0.275 N 
HETATM   12  C   UNL     1     -40.448 -49.964  11.615  1.00  0.00     0.329 A 
HETATM   13  H   UNL     1     -39.323 -49.235  10.085  1.00  0.00     0.173 HD
HETATM   14  O   UNL     1     -41.512 -49.526  11.178  1.00  0.00    -0.246 OA
ENDBRANCH   5   6
ENDBRANCH   2   5
BRANCH   3  15
HETATM   15  C   UNL     1     -44.710 -52.847  12.576  1.00  0.00     0.084 C 
HETATM   16  C   UNL     1     -46.068 -52.183  12.312  1.00  0.00     0.025 C 
HETATM   17  C   UNL     1     -46.692 -51.625  13.591  1.00  0.00     0.002 C 
HETATM   18  C   UNL     1     -46.810 -52.693  14.677  1.00  0.00     0.000 C 
HETATM   19  C   UNL     1     -45.500 -53.442  14.920  1.00  0.00     0.002 C 
HETATM   20  C   UNL     1     -44.871 -53.959  13.623  1.00  0.00     0.025 C 
ENDBRANCH   3  15
TORSDOF 3
ENDMDL
MODEL 4
REMARK VINA RESULT:      -5.5      2.578      6.101
REMARK  3 active torsions:
REMARK  status: ('A' for Active; 'I' for Inactive)
REMARK    1  A    between atoms: C_2  and  C_3 
REMARK       I    between atoms: C_2  and  N_12 
REMARK    2  A    between atoms: C_3  and  N_4 
REMARK    3  A    between atoms: N_12  and  C_13 
ROOT
HETATM    1  O   UNL     1     -39.977 -52.716  15.702  1.00  0.00    -0.272 OA
HETATM    2  C   UNL     1     -39.824 -52.941  14.505  1.00  0.00     0.236 C 
HETATM    3  N   UNL     1     -39.095 -52.130  13.659  1.00  0.00    -0.355 N 
HETATM    4  H   UNL     1     -38.763 -52.569  12.810  1.00  0.00     0.162 HD
ENDROOT
BRANCH   2   5
HETATM    5  C   UNL     1     -40.451 -54.150  13.797  1.00  0.00     0.235 C 
BRANCH   5   6
HETATM    6  N   UNL     1     -41.845 -53.892  13.450  1.00  0.00    -0.301 N 
HETATM    7  C   UNL     1     -42.859 -54.472  14.181  1.00  0.00     0.102 A 
HETATM    8  C   UNL     1     -44.142 -54.297  13.861  1.00  0.00     0.092 A 
HETATM    9  C   UNL     1     -44.476 -53.471  12.688  1.00  0.00     0.250 A 
HETATM   10  O   UNL     1     -45.636 -53.340  12.316  1.00  0.00    -0.268 OA
HETATM   11  N   UNL     1     -43.420 -52.882  12.057  1.00  0.00    -0.275 N 
HETATM   12  C   UNL     1     -42.097 -53.086  12.348  1.00  0.00     0.329 A 
HETATM   13  H   UNL     1     -43.626 -52.324  11.244  1.00  0.00     0.173 HD
HETATM   14  O   UNL     1     -41.211 -52.578  11.662  1.00  0.00    -0.246 OA
ENDBRANCH   5   6
ENDBRANCH   2   5
BRANCH   3  15
HETATM   15  C   UNL     1     -38.345 -50.961  14.121  1.00  0.00     0.084 C 
HETATM   16  C   UNL     1     -39.256 -49.726  14.149  1.00  0.00     0.025 C 
HETATM   17  C   UNL     1     -39.705 -49.313  12.746  1.00  0.00     0.002 C 
HETATM   18  C   UNL     1     -38.515 -49.091  11.814  1.00  0.00     0.000 C 
HETATM   19  C   UNL     1     -37.533 -50.262  11.813  1.00  0.00     0.002 C 
HETATM   20  C   UNL     1     -37.127 -50.687  13.227  1.00  0.00     0.025 C 
ENDBRANCH   3  15
TORSDOF 3
ENDMDL
MODEL 5
REMARK VINA RESULT:      -5.5      4.584      6.798
REMARK  3 active torsions:
REMARK  status: ('A' for Active; 'I' for Inactive)
REMARK    1  A    between atoms: C_2  and  C_3 
REMARK       I    between atoms: C_2  and  N_12 
REMARK    2  A    between atoms: C_3  and  N_4 
REMARK    3  A    between atoms: N_12  and  C_13 
ROOT
HETATM    1  O   UNL     1     -42.910 -48.701  13.948  1.00  0.00    -0.272 OA
HETATM    2  C   UNL     1     -42.931 -49.438  12.966  1.00  0.00     0.236 C 
HETATM    3  N   UNL     1     -43.722 -50.565  12.869  1.00  0.00    -0.355 N 
HETATM    4  H   UNL     1     -43.908 -50.889  11.928  1.00  0.00     0.162 HD
ENDROOT
BRANCH   2   5
HETATM    5  C   UNL     1     -42.055 -49.201  11.728  1.00  0.00     0.235 C 
BRANCH   5   6
HETATM    6  N   UNL     1     -42.517 -48.042  10.971  1.00  0.00    -0.301 N 
HETATM    7  C   UNL     1     -43.836 -47.948  10.584  1.00  0.00     0.102 A 
HETATM    8  C   UNL     1     -44.282 -46.927   9.851  1.00  0.00     0.092 A 
HETATM    9  C   UNL     1     -43.330 -45.881   9.436  1.00  0.00     0.250 A 
HETATM   10  O   UNL     1     -43.678 -44.964   8.705  1.00  0.00    -0.268 OA
HETATM   11  N   UNL     1     -42.058 -46.014   9.912  1.00  0.00    -0.275 N 
HETATM   12  C   UNL     1     -41.578 -47.078  10.631  1.00  0.00     0.329 A 
HETATM   13  H   UNL     1     -41.388 -45.317   9.629  1.00  0.00     0.173 HD
HETATM   14  O   UNL     1     -40.389 -47.149  10.938  1.00  0.00    -0.246 OA
ENDBRANCH   5   6
ENDBRANCH   2   5
BRANCH   3  15
HETATM   15  C   UNL     1     -44.693 -50.951  13.893  1.00  0.00     0.084 C 
HETATM   16  C   UNL     1     -44.126 -52.084  14.758  1.00  0.00     0.025 C 
HETATM   17  C   UNL     1     -43.937 -53.375  13.961  1.00  0.00     0.002 C 
HETATM   18  C   UNL     1     -45.230 -53.811  13.274  1.00  0.00     0.000 C 
HETATM   19  C   UNL     1     -45.880 -52.690  12.463  1.00  0.00     0.002 C 
HETATM   20  C   UNL     1     -46.024 -51.394  13.266  1.00  0.00     0.025 C 
ENDBRANCH   3  15
TORSDOF 3
ENDMDL
MODEL 6
REMARK VINA RESULT:      -5.3      2.018      3.316
REMARK  3 active torsions:
REMARK  status: ('A' for Active; 'I' for Inactive)
REMARK    1  A    between atoms: C_2  and  C_3 
REMARK       I    between atoms: C_2  and  N_12 
REMARK    2  A    between atoms: C_3  and  N_4 
REMARK    3  A    between atoms: N_12  and  C_13 
ROOT
HETATM    1  O   UNL     1     -43.591 -55.582  14.909  1.00  0.00    -0.272 OA
HETATM    2  C   UNL     1     -43.295 -54.406  14.713  1.00  0.00     0.236 C 
HETATM    3  N   UNL     1     -44.157 -53.480  14.162  1.00  0.00    -0.355 N 
HETATM    4  H   UNL     1     -43.939 -52.510  14.355  1.00  0.00     0.162 HD
ENDROOT
BRANCH   2   5
HETATM    5  C   UNL     1     -41.911 -53.829  15.042  1.00  0.00     0.235 C 
BRANCH   5   6
HETATM    6  N   UNL     1     -41.504 -52.842  14.047  1.00  0.00    -0.301 N 
HETATM    7  C   UNL     1     -41.684 -51.497  14.292  1.00  0.00     0.102 A 
HETATM    8  C   UNL     1     -41.368 -50.571  13.385  1.00  0.00     0.092 A 
HETATM    9  C   UNL     1     -40.824 -51.005  12.086  1.00  0.00     0.250 A 
HETATM   10  O   UNL     1     -40.586 -50.195  11.199  1.00  0.00    -0.268 OA
HETATM   11  N   UNL     1     -40.617 -52.346  11.947  1.00  0.00    -0.275 N 
HETATM   12  C   UNL     1     -40.975 -53.310  12.852  1.00  0.00     0.329 A 
HETATM   13  H   UNL     1     -40.260 -52.664  11.061  1.00  0.00     0.173 HD
HETATM   14  O   UNL     1     -40.830 -54.505  12.596  1.00  0.00    -0.246 OA
ENDBRANCH   5   6
ENDBRANCH   2   5
BRANCH   3  15
HETATM   15  C   UNL     1     -45.552 -53.780  13.837  1.00  0.00     0.084 C 
HETATM   16  C   UNL     1     -46.122 -52.699  12.908  1.00  0.00     0.025 C 
HETATM   17  C   UNL     1     -46.216 -51.339  13.600  1.00  0.00     0.002 C 
HETATM   18  C   UNL     1     -47.017 -51.418  14.898  1.00  0.00     0.000 C 
HETATM   19  C   UNL     1     -46.540 -52.536  15.825  1.00  0.00     0.002 C 
HETATM   20  C   UNL     1     -46.414 -53.881  15.104  1.00  0.00     0.025 C 
ENDBRANCH   3  15
TORSDOF 3
ENDMDL
MODEL 7
REMARK VINA RESULT:      -5.1      2.809      6.191
REMARK  3 active torsions:
REMARK  status: ('A' for Active; 'I' for Inactive)
REMARK    1  A    between atoms: C_2  and  C_3 
REMARK       I    between atoms: C_2  and  N_12 
REMARK    2  A    between atoms: C_3  and  N_4 
REMARK    3  A    between atoms: N_12  and  C_13 
ROOT
HETATM    1  O   UNL     1     -40.214 -53.710  12.849  1.00  0.00    -0.272 OA
HETATM    2  C   UNL     1     -40.658 -52.565  12.855  1.00  0.00     0.236 C 
HETATM    3  N   UNL     1     -39.929 -51.462  13.251  1.00  0.00    -0.355 N 
HETATM    4  H   UNL     1     -40.262 -50.571  12.906  1.00  0.00     0.162 HD
ENDROOT
BRANCH   2   5
HETATM    5  C   UNL     1     -42.096 -52.226  12.439  1.00  0.00     0.235 C 
BRANCH   5   6
HETATM    6  N   UNL     1     -43.064 -52.912  13.289  1.00  0.00    -0.301 N 
HETATM    7  C   UNL     1     -43.816 -53.951  12.783  1.00  0.00     0.102 A 
HETATM    8  C   UNL     1     -44.744 -54.568  13.517  1.00  0.00     0.092 A 
HETATM    9  C   UNL     1     -44.974 -54.113  14.900  1.00  0.00     0.250 A 
HETATM   10  O   UNL     1     -45.863 -54.602  15.586  1.00  0.00    -0.268 OA
HETATM   11  N   UNL     1     -44.148 -53.123  15.345  1.00  0.00    -0.275 N 
HETATM   12  C   UNL     1     -43.220 -52.454  14.590  1.00  0.00     0.329 A 
HETATM   13  H   UNL     1     -44.298 -52.788  16.282  1.00  0.00     0.173 HD
HETATM   14  O   UNL     1     -42.583 -51.511  15.058  1.00  0.00    -0.246 OA
ENDBRANCH   5   6
ENDBRANCH   2   5
BRANCH   3  15
HETATM   15  C   UNL     1     -38.514 -51.528  13.618  1.00  0.00     0.084 C 
HETATM   16  C   UNL     1     -38.288 -50.848  14.975  1.00  0.00     0.025 C 
HETATM   17  C   UNL     1     -38.556 -49.343  14.914  1.00  0.00     0.002 C 
HETATM   18  C   UNL     1     -37.732 -48.665  13.821  1.00  0.00     0.000 C 
HETATM   19  C   UNL     1     -37.858 -49.357  12.465  1.00  0.00     0.002 C 
HETATM   20  C   UNL     1     -37.626 -50.868  12.553  1.00  0.00     0.025 C 
ENDBRANCH   3  15
TORSDOF 3
ENDMDL
MODEL 8
REMARK VINA RESULT:      -5.1      2.089      3.576
REMARK  3 active torsions:
REMARK  status: ('A' for Active; 'I' for Inactive)
REMARK    1  A    between atoms: C_2  and  C_3 
REMARK       I    between atoms: C_2  and  N_12 
REMARK    2  A    between atoms: C_3  and  N_4 
REMARK    3  A    between atoms: N_12  and  C_13 
ROOT
HETATM    1  O   UNL     1     -41.576 -52.725  16.196  1.00  0.00    -0.272 OA
HETATM    2  C   UNL     1     -41.892 -53.108  15.073  1.00  0.00     0.236 C 
HETATM    3  N   UNL     1     -43.183 -53.075  14.586  1.00  0.00    -0.355 N 
HETATM    4  H   UNL     1     -43.271 -53.090  13.578  1.00  0.00     0.162 HD
ENDROOT
BRANCH   2   5
HETATM    5  C   UNL     1     -40.881 -53.693  14.077  1.00  0.00     0.235 C 
BRANCH   5   6
HETATM    6  N   UNL     1     -40.122 -52.636  13.417  1.00  0.00    -0.301 N 
HETATM    7  C   UNL     1     -38.912 -52.225  13.935  1.00  0.00     0.102 A 
HETATM    8  C   UNL     1     -38.216 -51.229  13.385  1.00  0.00     0.092 A 
HETATM    9  C   UNL     1     -38.765 -50.547  12.200  1.00  0.00     0.250 A 
HETATM   10  O   UNL     1     -38.196 -49.584  11.704  1.00  0.00    -0.268 OA
HETATM   11  N   UNL     1     -39.934 -51.055  11.711  1.00  0.00    -0.275 N 
HETATM   12  C   UNL     1     -40.680 -52.048  12.290  1.00  0.00     0.329 A 
HETATM   13  H   UNL     1     -40.333 -50.594  10.910  1.00  0.00     0.173 HD
HETATM   14  O   UNL     1     -41.769 -52.376  11.822  1.00  0.00    -0.246 OA
ENDBRANCH   5   6
ENDBRANCH   2   5
BRANCH   3  15
HETATM   15  C   UNL     1     -44.302 -52.490  15.327  1.00  0.00     0.084 C 
HETATM   16  C   UNL     1     -45.564 -53.343  15.134  1.00  0.00     0.025 C 
HETATM   17  C   UNL     1     -46.059 -53.316  13.688  1.00  0.00     0.002 C 
HETATM   18  C   UNL     1     -46.285 -51.888  13.193  1.00  0.00     0.000 C 
HETATM   19  C   UNL     1     -45.084 -50.976  13.437  1.00  0.00     0.002 C 
HETATM   20  C   UNL     1     -44.578 -51.047  14.881  1.00  0.00     0.025 C 
ENDBRANCH   3  15
TORSDOF 3
ENDMDL
MODEL 9
REMARK VINA RESULT:      -5.1      2.721      6.638
REMARK  3 active torsions:
REMARK  status: ('A' for Active; 'I' for Inactive)
REMARK    1  A    between atoms: C_2  and  C_3 
REMARK       I    between atoms: C_2  and  N_12 
REMARK    2  A    between atoms: C_3  and  N_4 
REMARK    3  A    between atoms: N_12  and  C_13 
ROOT
HETATM    1  O   UNL     1     -41.007 -53.276  14.337  1.00  0.00    -0.272 OA
HETATM    2  C   UNL     1     -41.005 -52.610  13.305  1.00  0.00     0.236 C 
HETATM    3  N   UNL     1     -40.016 -51.703  12.979  1.00  0.00    -0.355 N 
HETATM    4  H   UNL     1     -39.938 -51.476  11.996  1.00  0.00     0.162 HD
ENDROOT
BRANCH   2   5
HETATM    5  C   UNL     1     -42.122 -52.694  12.256  1.00  0.00     0.235 C 
BRANCH   5   6
HETATM    6  N   UNL     1     -43.402 -52.272  12.816  1.00  0.00    -0.301 N 
HETATM    7  C   UNL     1     -43.521 -51.037  13.417  1.00  0.00     0.102 A 
HETATM    8  C   UNL     1     -44.662 -50.639  13.982  1.00  0.00     0.092 A 
HETATM    9  C   UNL     1     -45.817 -51.553  13.971  1.00  0.00     0.250 A 
HETATM   10  O   UNL     1     -46.862 -51.259  14.538  1.00  0.00    -0.268 OA
HETATM   11  N   UNL     1     -45.638 -52.729  13.302  1.00  0.00    -0.275 N 
HETATM   12  C   UNL     1     -44.461 -53.167  12.754  1.00  0.00     0.329 A 
HETATM   13  H   UNL     1     -46.411 -53.374  13.295  1.00  0.00     0.173 HD
HETATM   14  O   UNL     1     -44.375 -54.286  12.249  1.00  0.00    -0.246 OA
ENDBRANCH   5   6
ENDBRANCH   2   5
BRANCH   3  15
HETATM   15  C   UNL     1     -38.813 -51.507  13.789  1.00  0.00     0.084 C 
HETATM   16  C   UNL     1     -39.048 -50.397  14.822  1.00  0.00     0.025 C 
HETATM   17  C   UNL     1     -39.244 -49.031  14.163  1.00  0.00     0.002 C 
HETATM   18  C   UNL     1     -38.081 -48.677  13.238  1.00  0.00     0.000 C 
HETATM   19  C   UNL     1     -37.753 -49.788  12.241  1.00  0.00     0.002 C 
HETATM   20  C   UNL     1     -37.600 -51.154  12.916  1.00  0.00     0.025 C 
ENDBRANCH   3  15
TORSDOF 3
ENDMDL
