MODEL 1
REMARK VINA RESULT:      -7.0      0.000      0.000
REMARK  5 active torsions:
REMARK  status: ('A' for Active; 'I' for Inactive)
REMARK    1  A    between atoms: C_2  and  C_4 
REMARK    2  A    between atoms: C_2  and  N_21 
REMARK    3  A    between atoms: C_4  and  N_5 
REMARK       I    between atoms: N_5  and  C_6 
REMARK       I    between atoms: C_6  and  N_8 
REMARK    4  A    between atoms: N_8  and  C_9 
REMARK    5  A    between atoms: C_12  and  N_16 
ROOT
HETATM    1  N   UNL     1     -41.331 -52.809  12.933  1.00  0.00    -0.340 N 
HETATM    2  C   UNL     1     -40.082 -52.298  13.097  1.00  0.00     0.320 C 
HETATM    3  O   UNL     1     -39.129 -52.951  13.522  1.00  0.00    -0.247 OA
HETATM    4  N   UNL     1     -39.941 -50.951  12.896  1.00  0.00    -0.308 N 
HETATM    5  H   UNL     1     -42.108 -52.166  12.849  1.00  0.00     0.164 HD
HETATM    6  H   UNL     1     -39.144 -50.571  13.379  1.00  0.00     0.170 HD
ENDROOT
BRANCH   1   7
HETATM    7  C   UNL     1     -41.669 -54.155  13.361  1.00  0.00     0.165 C 
BRANCH   7   8
HETATM    8  C   UNL     1     -43.004 -54.214  14.195  1.00  0.00     0.168 C 
HETATM    9  C   UNL     1     -42.809 -55.318  15.253  1.00  0.00     0.050 C 
HETATM   10  C   UNL     1     -43.098 -52.865  14.965  1.00  0.00     0.050 C 
BRANCH   8  11
HETATM   11  N   UNL     1     -44.218 -54.354  13.338  1.00  0.00     0.103 N 
HETATM   12  C   UNL     1     -44.708 -53.138  12.649  1.00  0.00     0.299 C 
HETATM   13  C   UNL     1     -45.696 -52.282  13.461  1.00  0.00     0.198 C 
HETATM   14  O   UNL     1     -46.820 -53.056  13.892  1.00  0.00    -0.388 OA
HETATM   15  C   UNL     1     -46.389 -54.174  14.675  1.00  0.00     0.198 C 
HETATM   16  C   UNL     1     -45.389 -55.057  13.908  1.00  0.00     0.299 C 
ENDBRANCH   8  11
ENDBRANCH   7   8
ENDBRANCH   1   7
BRANCH   4  17
HETATM   17  C   UNL     1     -40.832 -50.063  12.277  1.00  0.00     0.051 A 
HETATM   18  C   UNL     1     -41.956 -49.559  12.914  1.00  0.00     0.035 A 
HETATM   19  C   UNL     1     -42.775 -48.655  12.237  1.00  0.00     0.051 A 
HETATM   20  C   UNL     1     -42.468 -48.257  10.936  1.00  0.00     0.103 A 
HETATM   21  N   UNL     1     -41.400 -48.791  10.300  1.00  0.00    -0.350 N 
HETATM   22  C   UNL     1     -40.623 -49.681  10.964  1.00  0.00     0.119 A 
ATOM     23  HN  UNL     1     -41.183 -48.528   9.338  1.00  0.00     0.166 HD
BRANCH  20  24
HETATM   24  N   UNL     1     -43.199 -47.307  10.280  1.00  0.00    -0.367 N 
HETATM   25  C   UNL     1     -42.720 -46.003   9.863  1.00  0.00     0.124 C 
HETATM   26  C   UNL     1     -43.873 -45.407   9.053  1.00  0.00     0.021 C 
HETATM   27  C   UNL     1     -44.851 -46.555   8.836  1.00  0.00     0.021 C 
HETATM   28  C   UNL     1     -44.616 -47.476  10.025  1.00  0.00     0.124 C 
ENDBRANCH  20  24
ENDBRANCH   4  17
TORSDOF 5
ENDMDL
MODEL 2
REMARK VINA RESULT:      -6.8      2.354      3.272
REMARK  5 active torsions:
REMARK  status: ('A' for Active; 'I' for Inactive)
REMARK    1  A    between atoms: C_2  and  C_4 
REMARK    2  A    between atoms: C_2  and  N_21 
REMARK    3  A    between atoms: C_4  and  N_5 
REMARK       I    between atoms: N_5  and  C_6 
REMARK       I    between atoms: C_6  and  N_8 
REMARK    4  A    between atoms: N_8  and  C_9 
REMARK    5  A    between atoms: C_12  and  N_16 
ROOT
HETATM    1  N   UNL     1     -42.319 -51.605  12.335  1.00  0.00    -0.340 N 
HETATM    2  C   UNL     1     -41.089 -52.126  12.077  1.00  0.00     0.320 C 
HETATM    3  O   UNL     1     -40.877 -53.330  11.929  1.00  0.00    -0.247 OA
HETATM    4  N   UNL     1     -40.035 -51.255  12.120  1.00  0.00    -0.308 N 
HETATM    5  H   UNL     1     -42.376 -50.668  12.711  1.00  0.00     0.164 HD
HETATM    6  H   UNL     1     -39.160 -51.718  12.302  1.00  0.00     0.170 HD
ENDROOT
BRANCH   1   7
HETATM    7  C   UNL     1     -43.473 -52.452  12.575  1.00  0.00     0.165 C 
BRANCH   7   8
HETATM    8  C   UNL     1     -44.464 -51.849  13.640  1.00  0.00     0.168 C 
HETATM    9  C   UNL     1     -43.872 -50.491  14.067  1.00  0.00     0.050 C 
HETATM   10  C   UNL     1     -45.788 -51.544  12.881  1.00  0.00     0.050 C 
BRANCH   8  11
HETATM   11  N   UNL     1     -44.766 -52.796  14.754  1.00  0.00     0.103 N 
HETATM   12  C   UNL     1     -43.623 -53.512  15.365  1.00  0.00     0.299 C 
HETATM   13  C   UNL     1     -43.244 -54.839  14.684  1.00  0.00     0.198 C 
HETATM   14  O   UNL     1     -44.366 -55.725  14.618  1.00  0.00    -0.388 OA
HETATM   15  C   UNL     1     -45.451 -55.111  13.916  1.00  0.00     0.198 C 
HETATM   16  C   UNL     1     -45.860 -53.771  14.554  1.00  0.00     0.299 C 
ENDBRANCH   8  11
ENDBRANCH   7   8
ENDBRANCH   1   7
BRANCH   4  17
HETATM   17  C   UNL     1     -40.060 -49.853  12.118  1.00  0.00     0.051 A 
HETATM   18  C   UNL     1     -39.722 -49.093  13.227  1.00  0.00     0.035 A 
HETATM   19  C   UNL     1     -39.744 -47.701  13.132  1.00  0.00     0.051 A 
HETATM   20  C   UNL     1     -40.096 -47.078  11.936  1.00  0.00     0.103 A 
HETATM   21  N   UNL     1     -40.474 -47.822  10.871  1.00  0.00    -0.350 N 
HETATM   22  C   UNL     1     -40.465 -49.173  10.983  1.00  0.00     0.119 A 
ATOM     23  HN  UNL     1     -40.761 -47.376  10.000  1.00  0.00     0.166 HD
BRANCH  20  24
HETATM   24  N   UNL     1     -40.039 -45.721  11.784  1.00  0.00    -0.367 N 
HETATM   25  C   UNL     1     -40.546 -44.969  10.652  1.00  0.00     0.124 C 
HETATM   26  C   UNL     1     -40.367 -43.502  11.050  1.00  0.00     0.021 C 
HETATM   27  C   UNL     1     -40.008 -43.525  12.530  1.00  0.00     0.021 C 
HETATM   28  C   UNL     1     -39.338 -44.876  12.732  1.00  0.00     0.124 C 
ENDBRANCH  20  24
ENDBRANCH   4  17
TORSDOF 5
ENDMDL
MODEL 3
REMARK VINA RESULT:      -6.7      2.277      3.131
REMARK  5 active torsions:
REMARK  status: ('A' for Active; 'I' for Inactive)
REMARK    1  A    between atoms: C_2  and  C_4 
REMARK    2  A    between atoms: C_2  and  N_21 
REMARK    3  A    between atoms: C_4  and  N_5 
REMARK       I    between atoms: N_5  and  C_6 
REMARK       I    between atoms: C_6  and  N_8 
REMARK    4  A    between atoms: N_8  and  C_9 
REMARK    5  A    between atoms: C_12  and  N_16 
ROOT
HETATM    1  N   UNL     1     -42.928 -52.240  12.294  1.00  0.00    -0.340 N 
HETATM    2  C   UNL     1     -41.708 -52.787  12.540  1.00  0.00     0.320 C 
HETATM    3  O   UNL     1     -41.511 -53.998  12.636  1.00  0.00    -0.247 OA
HETATM    4  N   UNL     1     -40.692 -51.913  12.821  1.00  0.00    -0.308 N 
HETATM    5  H   UNL     1     -43.067 -51.259  12.499  1.00  0.00     0.164 HD
HETATM    6  H   UNL     1     -39.950 -52.342  13.349  1.00  0.00     0.170 HD
ENDROOT
BRANCH   1   7
HETATM    7  C   UNL     1     -44.132 -53.049  12.240  1.00  0.00     0.165 C 
BRANCH   7   8
HETATM    8  C   UNL     1     -45.283 -52.498  13.164  1.00  0.00     0.168 C 
HETATM    9  C   UNL     1     -44.765 -51.176  13.763  1.00  0.00     0.050 C 
HETATM   10  C   UNL     1     -46.464 -52.133  12.219  1.00  0.00     0.050 C 
BRANCH   8  11
HETATM   11  N   UNL     1     -45.764 -53.506  14.154  1.00  0.00     0.103 N 
HETATM   12  C   UNL     1     -45.753 -53.115  15.582  1.00  0.00     0.299 C 
HETATM   13  C   UNL     1     -44.435 -53.395  16.326  1.00  0.00     0.198 C 
HETATM   14  O   UNL     1     -44.063 -54.773  16.219  1.00  0.00    -0.388 OA
HETATM   15  C   UNL     1     -43.937 -55.154  14.845  1.00  0.00     0.198 C 
HETATM   16  C   UNL     1     -45.230 -54.882  14.055  1.00  0.00     0.299 C 
ENDBRANCH   8  11
ENDBRANCH   7   8
ENDBRANCH   1   7
BRANCH   4  17
HETATM   17  C   UNL     1     -40.654 -50.526  12.622  1.00  0.00     0.051 A 
HETATM   18  C   UNL     1     -40.954 -49.614  13.623  1.00  0.00     0.035 A 
HETATM   19  C   UNL     1     -40.863 -48.249  13.351  1.00  0.00     0.051 A 
HETATM   20  C   UNL     1     -40.467 -47.803  12.091  1.00  0.00     0.103 A 
HETATM   21  N   UNL     1     -40.225 -48.694  11.103  1.00  0.00    -0.350 N 
HETATM   22  C   UNL     1     -40.335 -50.017  11.376  1.00  0.00     0.119 A 
ATOM     23  HN  UNL     1     -39.963 -48.377  10.169  1.00  0.00     0.166 HD
BRANCH  20  24
HETATM   24  N   UNL     1     -40.280 -46.476  11.821  1.00  0.00    -0.367 N 
HETATM   25  C   UNL     1     -39.803 -45.476  12.757  1.00  0.00     0.124 C 
HETATM   26  C   UNL     1     -39.635 -44.208  11.917  1.00  0.00     0.021 C 
HETATM   27  C   UNL     1     -39.776 -44.660  10.469  1.00  0.00     0.021 C 
HETATM   28  C   UNL     1     -40.661 -45.896  10.547  1.00  0.00     0.124 C 
ENDBRANCH  20  24
ENDBRANCH   4  17
TORSDOF 5
ENDMDL
MODEL 4
REMARK VINA RESULT:      -6.4      4.114      8.283
REMARK  5 active torsions:
REMARK  status: ('A' for Active; 'I' for Inactive)
REMARK    1  A    between atoms: C_2  and  C_4 
REMARK    2  A    between atoms: C_2  and  N_21 
REMARK    3  A    between atoms: C_4  and  N_5 
REMARK       I    between atoms: N_5  and  C_6 
REMARK       I    between atoms: C_6  and  N_8 
REMARK    4  A    between atoms: N_8  and  C_9 
REMARK    5  A    between atoms: C_12  and  N_16 
ROOT
HETATM    1  N   UNL     1     -40.145 -46.272  12.362  1.00  0.00    -0.340 N 
HETATM    2  C   UNL     1     -40.171 -46.348  11.004  1.00  0.00     0.320 C 
HETATM    3  O   UNL     1     -39.779 -45.446  10.264  1.00  0.00    -0.247 OA
HETATM    4  N   UNL     1     -40.790 -47.443  10.465  1.00  0.00    -0.308 N 
HETATM    5  H   UNL     1     -40.722 -46.912  12.892  1.00  0.00     0.164 HD
HETATM    6  H   UNL     1     -41.115 -47.279   9.527  1.00  0.00     0.170 HD
ENDROOT
BRANCH   1   7
HETATM    7  C   UNL     1     -39.756 -45.055  13.052  1.00  0.00     0.165 C 
BRANCH   7   8
HETATM    8  C   UNL     1     -40.843 -44.558  14.077  1.00  0.00     0.168 C 
HETATM    9  C   UNL     1     -41.792 -45.749  14.318  1.00  0.00     0.050 C 
HETATM   10  C   UNL     1     -40.094 -44.300  15.417  1.00  0.00     0.050 C 
BRANCH   8  11
HETATM   11  N   UNL     1     -41.504 -43.288  13.653  1.00  0.00     0.103 N 
HETATM   12  C   UNL     1     -42.767 -43.402  12.888  1.00  0.00     0.299 C 
HETATM   13  C   UNL     1     -42.598 -43.521  11.363  1.00  0.00     0.198 C 
HETATM   14  O   UNL     1     -41.834 -42.430  10.840  1.00  0.00    -0.388 OA
HETATM   15  C   UNL     1     -40.550 -42.369  11.468  1.00  0.00     0.198 C 
HETATM   16  C   UNL     1     -40.666 -42.260  12.998  1.00  0.00     0.299 C 
ENDBRANCH   8  11
ENDBRANCH   7   8
ENDBRANCH   1   7
BRANCH   4  17
HETATM   17  C   UNL     1     -41.161 -48.637  11.100  1.00  0.00     0.051 A 
HETATM   18  C   UNL     1     -42.295 -48.749  11.890  1.00  0.00     0.035 A 
HETATM   19  C   UNL     1     -42.609 -49.982  12.462  1.00  0.00     0.051 A 
HETATM   20  C   UNL     1     -41.798 -51.093  12.239  1.00  0.00     0.103 A 
HETATM   21  N   UNL     1     -40.664 -50.968  11.510  1.00  0.00    -0.350 N 
HETATM   22  C   UNL     1     -40.362 -49.760  10.976  1.00  0.00     0.119 A 
ATOM     23  HN  UNL     1     -40.049 -51.769  11.366  1.00  0.00     0.166 HD
BRANCH  20  24
HETATM   24  N   UNL     1     -42.127 -52.333  12.709  1.00  0.00    -0.367 N 
HETATM   25  C   UNL     1     -41.206 -53.301  13.276  1.00  0.00     0.124 C 
HETATM   26  C   UNL     1     -42.098 -54.439  13.774  1.00  0.00     0.021 C 
HETATM   27  C   UNL     1     -43.522 -53.903  13.695  1.00  0.00     0.021 C 
HETATM   28  C   UNL     1     -43.470 -52.866  12.581  1.00  0.00     0.124 C 
ENDBRANCH  20  24
ENDBRANCH   4  17
TORSDOF 5
ENDMDL
MODEL 5
REMARK VINA RESULT:      -6.4      2.881      7.284
REMARK  5 active torsions:
REMARK  status: ('A' for Active; 'I' for Inactive)
REMARK    1  A    between atoms: C_2  and  C_4 
REMARK    2  A    between atoms: C_2  and  N_21 
REMARK    3  A    between atoms: C_4  and  N_5 
REMARK       I    between atoms: N_5  and  C_6 
REMARK       I    between atoms: C_6  and  N_8 
REMARK    4  A    between atoms: N_8  and  C_9 
REMARK    5  A    between atoms: C_12  and  N_16 
ROOT
HETATM    1  N   UNL     1     -39.763 -49.090  12.452  1.00  0.00    -0.340 N 
HETATM    2  C   UNL     1     -38.788 -50.004  12.201  1.00  0.00     0.320 C 
HETATM    3  O   UNL     1     -37.623 -49.703  11.940  1.00  0.00    -0.247 OA
HETATM    4  N   UNL     1     -39.184 -51.312  12.112  1.00  0.00    -0.308 N 
HETATM    5  H   UNL     1     -40.729 -49.385  12.385  1.00  0.00     0.164 HD
HETATM    6  H   UNL     1     -38.545 -51.871  11.571  1.00  0.00     0.170 HD
ENDROOT
BRANCH   1   7
HETATM    7  C   UNL     1     -39.528 -47.664  12.315  1.00  0.00     0.165 C 
BRANCH   7   8
HETATM    8  C   UNL     1     -40.326 -46.809  13.370  1.00  0.00     0.168 C 
HETATM    9  C   UNL     1     -41.396 -47.742  13.969  1.00  0.00     0.050 C 
HETATM   10  C   UNL     1     -39.323 -46.481  14.514  1.00  0.00     0.050 C 
BRANCH   8  11
HETATM   11  N   UNL     1     -40.837 -45.524  12.808  1.00  0.00     0.103 N 
HETATM   12  C   UNL     1     -42.200 -45.530  12.228  1.00  0.00     0.299 C 
HETATM   13  C   UNL     1     -42.273 -45.913  10.739  1.00  0.00     0.198 C 
HETATM   14  O   UNL     1     -41.434 -45.067   9.945  1.00  0.00    -0.388 OA
HETATM   15  C   UNL     1     -40.079 -45.136  10.398  1.00  0.00     0.198 C 
HETATM   16  C   UNL     1     -39.955 -44.772  11.889  1.00  0.00     0.299 C 
ENDBRANCH   8  11
ENDBRANCH   7   8
ENDBRANCH   1   7
BRANCH   4  17
HETATM   17  C   UNL     1     -40.398 -51.885  12.514  1.00  0.00     0.051 A 
HETATM   18  C   UNL     1     -40.677 -52.207  13.833  1.00  0.00     0.035 A 
HETATM   19  C   UNL     1     -41.923 -52.747  14.154  1.00  0.00     0.051 A 
HETATM   20  C   UNL     1     -42.881 -52.957  13.163  1.00  0.00     0.103 A 
HETATM   21  N   UNL     1     -42.586 -52.690  11.870  1.00  0.00    -0.350 N 
HETATM   22  C   UNL     1     -41.365 -52.183  11.570  1.00  0.00     0.119 A 
ATOM     23  HN  UNL     1     -43.269 -52.867  11.134  1.00  0.00     0.166 HD
BRANCH  20  24
HETATM   24  N   UNL     1     -44.140 -53.399  13.458  1.00  0.00    -0.367 N 
HETATM   25  C   UNL     1     -44.472 -54.651  14.110  1.00  0.00     0.124 C 
HETATM   26  C   UNL     1     -45.984 -54.584  14.332  1.00  0.00     0.021 C 
HETATM   27  C   UNL     1     -46.375 -53.144  14.023  1.00  0.00     0.021 C 
HETATM   28  C   UNL     1     -45.322 -52.675  13.030  1.00  0.00     0.124 C 
ENDBRANCH  20  24
ENDBRANCH   4  17
TORSDOF 5
ENDMDL
MODEL 6
REMARK VINA RESULT:      -6.3      2.396      2.841
REMARK  5 active torsions:
REMARK  status: ('A' for Active; 'I' for Inactive)
REMARK    1  A    between atoms: C_2  and  C_4 
REMARK    2  A    between atoms: C_2  and  N_21 
REMARK    3  A    between atoms: C_4  and  N_5 
REMARK       I    between atoms: N_5  and  C_6 
REMARK       I    between atoms: C_6  and  N_8 
REMARK    4  A    between atoms: N_8  and  C_9 
REMARK    5  A    between atoms: C_12  and  N_16 
ROOT
HETATM    1  N   UNL     1     -40.699 -53.143  13.143  1.00  0.00    -0.340 N 
HETATM    2  C   UNL     1     -39.525 -53.355  13.796  1.00  0.00     0.320 C 
HETATM    3  O   UNL     1     -39.163 -54.459  14.206  1.00  0.00    -0.247 OA
HETATM    4  N   UNL     1     -38.793 -52.243  14.115  1.00  0.00    -0.308 N 
HETATM    5  H   UNL     1     -41.053 -52.197  13.084  1.00  0.00     0.164 HD
HETATM    6  H   UNL     1     -38.171 -52.401  14.891  1.00  0.00     0.170 HD
ENDROOT
BRANCH   1   7
HETATM    7  C   UNL     1     -41.684 -54.197  12.978  1.00  0.00     0.165 C 
BRANCH   7   8
HETATM    8  C   UNL     1     -42.936 -54.018  13.916  1.00  0.00     0.168 C 
HETATM    9  C   UNL     1     -42.715 -54.953  15.122  1.00  0.00     0.050 C 
HETATM   10  C   UNL     1     -42.870 -52.561  14.458  1.00  0.00     0.050 C 
BRANCH   8  11
HETATM   11  N   UNL     1     -44.231 -54.196  13.196  1.00  0.00     0.103 N 
HETATM   12  C   UNL     1     -44.852 -52.988  12.605  1.00  0.00     0.299 C 
HETATM   13  C   UNL     1     -45.781 -52.203  13.549  1.00  0.00     0.198 C 
HETATM   14  O   UNL     1     -46.811 -53.044  14.078  1.00  0.00    -0.388 OA
HETATM   15  C   UNL     1     -46.243 -54.159  14.771  1.00  0.00     0.198 C 
HETATM   16  C   UNL     1     -45.296 -54.971  13.870  1.00  0.00     0.299 C 
ENDBRANCH   8  11
ENDBRANCH   7   8
ENDBRANCH   1   7
BRANCH   4  17
HETATM   17  C   UNL     1     -38.934 -50.937  13.627  1.00  0.00     0.051 A 
HETATM   18  C   UNL     1     -38.339 -50.505  12.451  1.00  0.00     0.035 A 
HETATM   19  C   UNL     1     -38.553 -49.196  12.019  1.00  0.00     0.051 A 
HETATM   20  C   UNL     1     -39.362 -48.331  12.755  1.00  0.00     0.103 A 
HETATM   21  N   UNL     1     -39.899 -48.740  13.928  1.00  0.00    -0.350 N 
HETATM   22  C   UNL     1     -39.667 -50.008  14.345  1.00  0.00     0.119 A 
ATOM     23  HN  UNL     1     -40.468 -48.105  14.489  1.00  0.00     0.166 HD
BRANCH  20  24
HETATM   24  N   UNL     1     -39.665 -47.074  12.313  1.00  0.00    -0.367 N 
HETATM   25  C   UNL     1     -39.456 -45.840  13.046  1.00  0.00     0.124 C 
HETATM   26  C   UNL     1     -39.818 -44.733  12.054  1.00  0.00     0.021 C 
HETATM   27  C   UNL     1     -39.954 -45.428  10.705  1.00  0.00     0.021 C 
HETATM   28  C   UNL     1     -40.355 -46.853  11.056  1.00  0.00     0.124 C 
ENDBRANCH  20  24
ENDBRANCH   4  17
TORSDOF 5
ENDMDL
MODEL 7
REMARK VINA RESULT:      -6.0      3.592      5.868
REMARK  5 active torsions:
REMARK  status: ('A' for Active; 'I' for Inactive)
REMARK    1  A    between atoms: C_2  and  C_4 
REMARK    2  A    between atoms: C_2  and  N_21 
REMARK    3  A    between atoms: C_4  and  N_5 
REMARK       I    between atoms: N_5  and  C_6 
REMARK       I    between atoms: C_6  and  N_8 
REMARK    4  A    between atoms: N_8  and  C_9 
REMARK    5  A    between atoms: C_12  and  N_16 
ROOT
HETATM    1  N   UNL     1     -44.886 -53.647  15.311  1.00  0.00    -0.340 N 
HETATM    2  C   UNL     1     -45.005 -54.520  14.275  1.00  0.00     0.320 C 
HETATM    3  O   UNL     1     -45.977 -55.257  14.114  1.00  0.00    -0.247 OA
HETATM    4  N   UNL     1     -43.912 -54.655  13.462  1.00  0.00    -0.308 N 
HETATM    5  H   UNL     1     -43.968 -53.284  15.534  1.00  0.00     0.164 HD
HETATM    6  H   UNL     1     -43.899 -55.538  12.978  1.00  0.00     0.170 HD
ENDROOT
BRANCH   1   7
HETATM    7  C   UNL     1     -45.860 -53.600  16.387  1.00  0.00     0.165 C 
BRANCH   7   8
HETATM    8  C   UNL     1     -46.337 -52.136  16.718  1.00  0.00     0.168 C 
HETATM    9  C   UNL     1     -45.065 -51.268  16.784  1.00  0.00     0.050 C 
HETATM   10  C   UNL     1     -47.150 -51.652  15.482  1.00  0.00     0.050 C 
BRANCH   8  11
HETATM   11  N   UNL     1     -47.221 -52.071  17.920  1.00  0.00     0.103 N 
HETATM   12  C   UNL     1     -48.301 -51.058  17.915  1.00  0.00     0.299 C 
HETATM   13  C   UNL     1     -47.899 -49.673  18.455  1.00  0.00     0.198 C 
HETATM   14  O   UNL     1     -47.358 -49.771  19.777  1.00  0.00    -0.388 OA
HETATM   15  C   UNL     1     -46.226 -50.646  19.793  1.00  0.00     0.198 C 
HETATM   16  C   UNL     1     -46.576 -52.043  19.251  1.00  0.00     0.299 C 
ENDBRANCH   8  11
ENDBRANCH   7   8
ENDBRANCH   1   7
BRANCH   4  17
HETATM   17  C   UNL     1     -42.785 -53.826  13.369  1.00  0.00     0.051 A 
HETATM   18  C   UNL     1     -41.589 -54.109  14.010  1.00  0.00     0.035 A 
HETATM   19  C   UNL     1     -40.505 -53.248  13.842  1.00  0.00     0.051 A 
HETATM   20  C   UNL     1     -40.617 -52.117  13.034  1.00  0.00     0.103 A 
HETATM   21  N   UNL     1     -41.801 -51.817  12.451  1.00  0.00    -0.350 N 
HETATM   22  C   UNL     1     -42.851 -52.653  12.639  1.00  0.00     0.119 A 
ATOM     23  HN  UNL     1     -41.901 -50.977  11.882  1.00  0.00     0.166 HD
BRANCH  20  24
HETATM   24  N   UNL     1     -39.549 -51.305  12.776  1.00  0.00    -0.367 N 
HETATM   25  C   UNL     1     -38.250 -51.376  13.419  1.00  0.00     0.124 C 
HETATM   26  C   UNL     1     -37.390 -50.358  12.669  1.00  0.00     0.021 C 
HETATM   27  C   UNL     1     -38.206 -49.962  11.445  1.00  0.00     0.021 C 
HETATM   28  C   UNL     1     -39.651 -50.174  11.874  1.00  0.00     0.124 C 
ENDBRANCH  20  24
ENDBRANCH   4  17
TORSDOF 5
ENDMDL
MODEL 8
REMARK VINA RESULT:      -5.8      3.456      5.482
REMARK  5 active torsions:
REMARK  status: ('A' for Active; 'I' for Inactive)
REMARK    1  A    between atoms: C_2  and  C_4 
REMARK    2  A    between atoms: C_2  and  N_21 
REMARK    3  A    between atoms: C_4  and  N_5 
REMARK       I    between atoms: N_5  and  C_6 
REMARK       I    between atoms: C_6  and  N_8 
REMARK    4  A    between atoms: N_8  and  C_9 
REMARK    5  A    between atoms: C_12  and  N_16 
ROOT
HETATM    1  N   UNL     1     -45.070 -53.463  14.790  1.00  0.00    -0.340 N 
HETATM    2  C   UNL     1     -45.062 -54.416  13.819  1.00  0.00     0.320 C 
HETATM    3  O   UNL     1     -45.976 -55.224  13.651  1.00  0.00    -0.247 OA
HETATM    4  N   UNL     1     -43.908 -54.540  13.094  1.00  0.00    -0.308 N 
HETATM    5  H   UNL     1     -44.193 -53.027  15.044  1.00  0.00     0.164 HD
HETATM    6  H   UNL     1     -43.809 -55.454  12.682  1.00  0.00     0.170 HD
ENDROOT
BRANCH   1   7
HETATM    7  C   UNL     1     -46.119 -53.400  15.791  1.00  0.00     0.165 C 
BRANCH   7   8
HETATM    8  C   UNL     1     -46.131 -52.036  16.579  1.00  0.00     0.168 C 
HETATM    9  C   UNL     1     -45.187 -51.084  15.819  1.00  0.00     0.050 C 
HETATM   10  C   UNL     1     -47.569 -51.459  16.430  1.00  0.00     0.050 C 
BRANCH   8  11
HETATM   11  N   UNL     1     -45.838 -52.204  18.033  1.00  0.00     0.103 N 
HETATM   12  C   UNL     1     -44.424 -52.412  18.422  1.00  0.00     0.299 C 
HETATM   13  C   UNL     1     -43.956 -53.878  18.422  1.00  0.00     0.198 C 
HETATM   14  O   UNL     1     -44.791 -54.687  19.256  1.00  0.00    -0.388 OA
HETATM   15  C   UNL     1     -46.154 -54.612  18.827  1.00  0.00     0.198 C 
HETATM   16  C   UNL     1     -46.666 -53.161  18.799  1.00  0.00     0.299 C 
ENDBRANCH   8  11
ENDBRANCH   7   8
ENDBRANCH   1   7
BRANCH   4  17
HETATM   17  C   UNL     1     -42.828 -53.651  13.012  1.00  0.00     0.051 A 
HETATM   18  C   UNL     1     -41.682 -53.787  13.781  1.00  0.00     0.035 A 
HETATM   19  C   UNL     1     -40.639 -52.875  13.618  1.00  0.00     0.051 A 
HETATM   20  C   UNL     1     -40.742 -51.840  12.689  1.00  0.00     0.103 A 
HETATM   21  N   UNL     1     -41.882 -51.680  11.977  1.00  0.00    -0.350 N 
HETATM   22  C   UNL     1     -42.893 -52.563  12.159  1.00  0.00     0.119 A 
ATOM     23  HN  UNL     1     -41.977 -50.910  11.316  1.00  0.00     0.166 HD
BRANCH  20  24
HETATM   24  N   UNL     1     -39.703 -50.987  12.440  1.00  0.00    -0.367 N 
HETATM   25  C   UNL     1     -39.701 -49.908  11.471  1.00  0.00     0.124 C 
HETATM   26  C   UNL     1     -38.374 -49.183  11.700  1.00  0.00     0.021 C 
HETATM   27  C   UNL     1     -37.820 -49.754  13.000  1.00  0.00     0.021 C 
HETATM   28  C   UNL     1     -38.410 -51.155  13.074  1.00  0.00     0.124 C 
ENDBRANCH  20  24
ENDBRANCH   4  17
TORSDOF 5
ENDMDL
MODEL 9
REMARK VINA RESULT:      -5.6      3.355      8.277
REMARK  5 active torsions:
REMARK  status: ('A' for Active; 'I' for Inactive)
REMARK    1  A    between atoms: C_2  and  C_4 
REMARK    2  A    between atoms: C_2  and  N_21 
REMARK    3  A    between atoms: C_4  and  N_5 
REMARK       I    between atoms: N_5  and  C_6 
REMARK       I    between atoms: C_6  and  N_8 
REMARK    4  A    between atoms: N_8  and  C_9 
REMARK    5  A    between atoms: C_12  and  N_16 
ROOT
HETATM    1  N   UNL     1     -42.072 -49.140  12.545  1.00  0.00    -0.340 N 
HETATM    2  C   UNL     1     -41.366 -49.468  11.430  1.00  0.00     0.320 C 
HETATM    3  O   UNL     1     -41.179 -48.695  10.491  1.00  0.00    -0.247 OA
HETATM    4  N   UNL     1     -40.970 -50.774  11.319  1.00  0.00    -0.308 N 
HETATM    5  H   UNL     1     -42.415 -49.887  13.135  1.00  0.00     0.164 HD
HETATM    6  H   UNL     1     -40.806 -51.047  10.364  1.00  0.00     0.170 HD
ENDROOT
BRANCH   1   7
HETATM    7  C   UNL     1     -42.767 -47.871  12.665  1.00  0.00     0.165 C 
BRANCH   7   8
HETATM    8  C   UNL     1     -42.144 -46.933  13.766  1.00  0.00     0.168 C 
HETATM    9  C   UNL     1     -42.983 -45.640  13.763  1.00  0.00     0.050 C 
HETATM   10  C   UNL     1     -42.402 -47.634  15.132  1.00  0.00     0.050 C 
BRANCH   8  11
HETATM   11  N   UNL     1     -40.673 -46.744  13.603  1.00  0.00     0.103 N 
HETATM   12  C   UNL     1     -39.881 -46.482  14.827  1.00  0.00     0.299 C 
HETATM   13  C   UNL     1     -39.767 -44.999  15.225  1.00  0.00     0.198 C 
HETATM   14  O   UNL     1     -39.237 -44.215  14.151  1.00  0.00    -0.388 OA
HETATM   15  C   UNL     1     -40.055 -44.343  12.984  1.00  0.00     0.198 C 
HETATM   16  C   UNL     1     -40.209 -45.812  12.552  1.00  0.00     0.299 C 
ENDBRANCH   8  11
ENDBRANCH   7   8
ENDBRANCH   1   7
BRANCH   4  17
HETATM   17  C   UNL     1     -40.941 -51.764  12.311  1.00  0.00     0.051 A 
HETATM   18  C   UNL     1     -39.883 -51.912  13.195  1.00  0.00     0.035 A 
HETATM   19  C   UNL     1     -39.946 -52.905  14.173  1.00  0.00     0.051 A 
HETATM   20  C   UNL     1     -41.061 -53.736  14.268  1.00  0.00     0.103 A 
HETATM   21  N   UNL     1     -42.068 -53.622  13.372  1.00  0.00    -0.350 N 
HETATM   22  C   UNL     1     -41.985 -52.666  12.416  1.00  0.00     0.119 A 
ATOM     23  HN  UNL     1     -42.875 -54.245  13.415  1.00  0.00     0.166 HD
BRANCH  20  24
HETATM   24  N   UNL     1     -41.193 -54.656  15.270  1.00  0.00    -0.367 N 
HETATM   25  C   UNL     1     -42.422 -55.320  15.660  1.00  0.00     0.124 C 
HETATM   26  C   UNL     1     -41.993 -56.344  16.712  1.00  0.00     0.021 C 
HETATM   27  C   UNL     1     -40.471 -56.375  16.650  1.00  0.00     0.021 C 
HETATM   28  C   UNL     1     -40.089 -54.989  16.150  1.00  0.00     0.124 C 
ENDBRANCH  20  24
ENDBRANCH   4  17
TORSDOF 5
ENDMDL
