MODEL 1
REMARK VINA RESULT:      -8.0      0.000      0.000
REMARK  6 active torsions:
REMARK  status: ('A' for Active; 'I' for Inactive)
REMARK    1  A    between atoms: N_1  and  C_12 
REMARK    2  A    between atoms: N_2  and  C_14 
REMARK    3  A    between atoms: N_4  and  C_15 
REMARK    4  A    between atoms: C_5  and  C_13 
REMARK    5  A    between atoms: C_12  and  C_13 
REMARK    6  A    between atoms: C_15  and  C_21 
ROOT
HETATM    1  C   UNL     1     -41.055 -52.870  13.119  1.00  0.00     0.179 C 
HETATM    2  O   UNL     1     -40.399 -53.350  12.184  1.00  0.00    -0.290 OA
ENDROOT
BRANCH   1   3
HETATM    3  C   UNL     1     -42.528 -53.273  13.252  1.00  0.00     0.036 A 
HETATM    4  C   UNL     1     -43.605 -52.373  13.090  1.00  0.00     0.022 A 
HETATM    5  N   UNL     1     -44.851 -52.972  13.364  1.00  0.00    -0.345 N 
HETATM    6  C   UNL     1     -43.465 -50.941  12.705  1.00  0.00     0.069 C 
HETATM    7  C   UNL     1     -44.561 -54.319  13.645  1.00  0.00     0.009 A 
HETATM    8  C   UNL     1     -43.167 -54.495  13.601  1.00  0.00     0.042 A 
HETATM    9  C   UNL     1     -45.575 -55.376  13.950  1.00  0.00     0.068 C 
BRANCH   5  10
HETATM   10  C   UNL     1     -46.147 -52.198  13.676  1.00  0.00     0.118 C 
HETATM   11  C   UNL     1     -46.719 -51.518  12.412  1.00  0.00     0.038 C 
BRANCH  10  12
HETATM   12  C   UNL     1     -46.348 -51.387  15.025  1.00  0.00    -0.035 A 
HETATM   13  C   UNL     1     -47.551 -51.462  15.785  1.00  0.00     0.009 A 
HETATM   14  C   UNL     1     -47.657 -51.015  17.133  1.00  0.00     0.001 A 
HETATM   15  C   UNL     1     -46.548 -50.484  17.761  1.00  0.00     0.000 A 
HETATM   16  C   UNL     1     -45.352 -50.401  17.058  1.00  0.00     0.001 A 
HETATM   17  C   UNL     1     -45.268 -50.852  15.716  1.00  0.00     0.009 A 
ENDBRANCH  10  12
ENDBRANCH   5  10
ENDBRANCH   1   3
BRANCH   1  18
HETATM   18  C   UNL     1     -40.289 -51.863  14.045  1.00  0.00     0.221 C 
BRANCH  18  19
HETATM   19  N   UNL     1     -39.769 -50.643  13.326  1.00  0.00    -0.256 N 
HETATM   20  C   UNL     1     -40.394 -49.402  13.514  1.00  0.00     0.334 C 
HETATM   21  N   UNL     1     -40.070 -48.392  12.578  1.00  0.00    -0.279 N 
HETATM   22  O   UNL     1     -41.150 -49.183  14.461  1.00  0.00    -0.246 OA
HETATM   23  C   UNL     1     -38.908 -48.459  11.838  1.00  0.00     0.146 C 
HETATM   24  C   UNL     1     -38.103 -49.519  11.943  1.00  0.00     0.200 C 
HETATM   25  C   UNL     1     -38.526 -50.719  12.718  1.00  0.00     0.292 C 
HETATM   26  F   UNL     1     -36.916 -49.585  11.316  1.00  0.00    -0.199 F 
HETATM   27  O   UNL     1     -37.784 -51.695  12.809  1.00  0.00    -0.264 OA
BRANCH  21  28
HETATM   28  C   UNL     1     -41.132 -47.448  12.214  1.00  0.00     0.232 C 
HETATM   29  O   UNL     1     -41.260 -47.250  10.788  1.00  0.00    -0.366 OA
HETATM   30  C   UNL     1     -42.094 -46.087  10.601  1.00  0.00     0.170 C 
HETATM   31  C   UNL     1     -42.126 -45.336  11.922  1.00  0.00     0.031 C 
HETATM   32  C   UNL     1     -41.071 -46.032  12.757  1.00  0.00     0.056 C 
ENDBRANCH  21  28
ENDBRANCH  18  19
ENDBRANCH   1  18
TORSDOF 6
ENDMDL
MODEL 2
REMARK VINA RESULT:      -8.0      1.450      2.112
REMARK  6 active torsions:
REMARK  status: ('A' for Active; 'I' for Inactive)
REMARK    1  A    between atoms: N_1  and  C_12 
REMARK    2  A    between atoms: N_2  and  C_14 
REMARK    3  A    between atoms: N_4  and  C_15 
REMARK    4  A    between atoms: C_5  and  C_13 
REMARK    5  A    between atoms: C_12  and  C_13 
REMARK    6  A    between atoms: C_15  and  C_21 
ROOT
HETATM    1  C   UNL     1     -39.929 -53.539  13.774  1.00  0.00     0.179 C 
HETATM    2  O   UNL     1     -39.452 -54.634  13.441  1.00  0.00    -0.290 OA
ENDROOT
BRANCH   1   3
HETATM    3  C   UNL     1     -41.445 -53.346  13.667  1.00  0.00     0.036 A 
HETATM    4  C   UNL     1     -42.361 -53.774  14.654  1.00  0.00     0.022 A 
HETATM    5  N   UNL     1     -43.701 -53.569  14.268  1.00  0.00    -0.345 N 
HETATM    6  C   UNL     1     -41.981 -54.404  15.949  1.00  0.00     0.069 C 
HETATM    7  C   UNL     1     -43.632 -52.925  13.020  1.00  0.00     0.009 A 
HETATM    8  C   UNL     1     -42.282 -52.812  12.648  1.00  0.00     0.042 A 
HETATM    9  C   UNL     1     -44.810 -52.454  12.224  1.00  0.00     0.068 C 
BRANCH   5  10
HETATM   10  C   UNL     1     -44.916 -54.274  14.904  1.00  0.00     0.118 C 
HETATM   11  C   UNL     1     -45.522 -55.327  13.950  1.00  0.00     0.038 C 
BRANCH  10  12
HETATM   12  C   UNL     1     -45.965 -53.504  15.811  1.00  0.00    -0.035 A 
HETATM   13  C   UNL     1     -45.905 -53.533  17.234  1.00  0.00     0.009 A 
HETATM   14  C   UNL     1     -46.614 -52.621  18.069  1.00  0.00     0.001 A 
HETATM   15  C   UNL     1     -47.402 -51.646  17.491  1.00  0.00     0.000 A 
HETATM   16  C   UNL     1     -47.481 -51.578  16.105  1.00  0.00     0.001 A 
HETATM   17  C   UNL     1     -46.768 -52.495  15.293  1.00  0.00     0.009 A 
ENDBRANCH  10  12
ENDBRANCH   5  10
ENDBRANCH   1   3
BRANCH   1  18
HETATM   18  C   UNL     1     -38.894 -52.457  14.239  1.00  0.00     0.221 C 
BRANCH  18  19
HETATM   19  N   UNL     1     -38.919 -51.193  13.416  1.00  0.00    -0.256 N 
HETATM   20  C   UNL     1     -39.797 -50.154  13.759  1.00  0.00     0.334 C 
HETATM   21  N   UNL     1     -39.999 -49.158  12.775  1.00  0.00    -0.279 N 
HETATM   22  O   UNL     1     -40.331 -50.083  14.865  1.00  0.00    -0.246 OA
HETATM   23  C   UNL     1     -39.078 -48.961  11.767  1.00  0.00     0.146 C 
HETATM   24  C   UNL     1     -38.012 -49.757  11.664  1.00  0.00     0.200 C 
HETATM   25  C   UNL     1     -37.888 -50.973  12.516  1.00  0.00     0.292 C 
HETATM   26  F   UNL     1     -37.040 -49.545  10.760  1.00  0.00    -0.199 F 
HETATM   27  O   UNL     1     -36.907 -51.707  12.416  1.00  0.00    -0.264 OA
BRANCH  21  28
HETATM   28  C   UNL     1     -41.335 -48.558  12.691  1.00  0.00     0.232 C 
HETATM   29  O   UNL     1     -42.026 -48.866  11.459  1.00  0.00    -0.366 OA
HETATM   30  C   UNL     1     -43.155 -47.970  11.378  1.00  0.00     0.170 C 
HETATM   31  C   UNL     1     -42.902 -46.836  12.359  1.00  0.00     0.031 C 
HETATM   32  C   UNL     1     -41.469 -47.050  12.795  1.00  0.00     0.056 C 
ENDBRANCH  21  28
ENDBRANCH  18  19
ENDBRANCH   1  18
TORSDOF 6
ENDMDL
MODEL 3
REMARK VINA RESULT:      -7.5      1.997      3.249
REMARK  6 active torsions:
REMARK  status: ('A' for Active; 'I' for Inactive)
REMARK    1  A    between atoms: N_1  and  C_12 
REMARK    2  A    between atoms: N_2  and  C_14 
REMARK    3  A    between atoms: N_4  and  C_15 
REMARK    4  A    between atoms: C_5  and  C_13 
REMARK    5  A    between atoms: C_12  and  C_13 
REMARK    6  A    between atoms: C_15  and  C_21 
ROOT
HETATM    1  C   UNL     1     -41.081 -52.522  13.432  1.00  0.00     0.179 C 
HETATM    2  O   UNL     1     -40.410 -52.625  14.469  1.00  0.00    -0.290 OA
ENDROOT
BRANCH   1   3
HETATM    3  C   UNL     1     -42.535 -53.006  13.459  1.00  0.00     0.036 A 
HETATM    4  C   UNL     1     -43.649 -52.149  13.320  1.00  0.00     0.022 A 
HETATM    5  N   UNL     1     -44.873 -52.830  13.481  1.00  0.00    -0.345 N 
HETATM    6  C   UNL     1     -43.568 -50.684  13.066  1.00  0.00     0.069 C 
HETATM    7  C   UNL     1     -44.524 -54.181  13.661  1.00  0.00     0.009 A 
HETATM    8  C   UNL     1     -43.123 -54.284  13.670  1.00  0.00     0.042 A 
HETATM    9  C   UNL     1     -45.494 -55.309  13.824  1.00  0.00     0.068 C 
BRANCH   5  10
HETATM   10  C   UNL     1     -46.221 -52.151  13.794  1.00  0.00     0.118 C 
HETATM   11  C   UNL     1     -46.821 -51.480  12.538  1.00  0.00     0.038 C 
BRANCH  10  12
HETATM   12  C   UNL     1     -46.490 -51.388  15.158  1.00  0.00    -0.035 A 
HETATM   13  C   UNL     1     -47.707 -51.536  15.884  1.00  0.00     0.009 A 
HETATM   14  C   UNL     1     -47.867 -51.131  17.241  1.00  0.00     0.001 A 
HETATM   15  C   UNL     1     -46.798 -50.571  17.912  1.00  0.00     0.000 A 
HETATM   16  C   UNL     1     -45.589 -50.417  17.243  1.00  0.00     0.001 A 
HETATM   17  C   UNL     1     -45.452 -50.826  15.891  1.00  0.00     0.009 A 
ENDBRANCH  10  12
ENDBRANCH   5  10
ENDBRANCH   1   3
BRANCH   1  18
HETATM   18  C   UNL     1     -40.331 -51.928  12.190  1.00  0.00     0.221 C 
BRANCH  18  19
HETATM   19  N   UNL     1     -39.668 -50.599  12.453  1.00  0.00    -0.256 N 
HETATM   20  C   UNL     1     -38.395 -50.558  13.041  1.00  0.00     0.334 C 
HETATM   21  N   UNL     1     -37.983 -49.304  13.550  1.00  0.00    -0.279 N 
HETATM   22  O   UNL     1     -37.656 -51.542  13.079  1.00  0.00    -0.246 OA
HETATM   23  C   UNL     1     -38.559 -48.134  13.101  1.00  0.00     0.146 C 
HETATM   24  C   UNL     1     -39.567 -48.172  12.226  1.00  0.00     0.200 C 
HETATM   25  C   UNL     1     -40.203 -49.467  11.858  1.00  0.00     0.292 C 
HETATM   26  F   UNL     1     -40.094 -47.059  11.688  1.00  0.00    -0.199 F 
HETATM   27  O   UNL     1     -41.134 -49.499  11.056  1.00  0.00    -0.264 OA
BRANCH  21  28
HETATM   28  C   UNL     1     -37.154 -49.310  14.760  1.00  0.00     0.232 C 
HETATM   29  O   UNL     1     -37.782 -49.968  15.884  1.00  0.00    -0.366 OA
HETATM   30  C   UNL     1     -37.015 -49.619  17.055  1.00  0.00     0.170 C 
HETATM   31  C   UNL     1     -36.168 -48.409  16.696  1.00  0.00     0.031 C 
HETATM   32  C   UNL     1     -36.702 -47.984  15.345  1.00  0.00     0.056 C 
ENDBRANCH  21  28
ENDBRANCH  18  19
ENDBRANCH   1  18
TORSDOF 6
ENDMDL
MODEL 4
REMARK VINA RESULT:      -7.4      2.885      6.893
REMARK  6 active torsions:
REMARK  status: ('A' for Active; 'I' for Inactive)
REMARK    1  A    between atoms: N_1  and  C_12 
REMARK    2  A    between atoms: N_2  and  C_14 
REMARK    3  A    between atoms: N_4  and  C_15 
REMARK    4  A    between atoms: C_5  and  C_13 
REMARK    5  A    between atoms: C_12  and  C_13 
REMARK    6  A    between atoms: C_15  and  C_21 
ROOT
HETATM    1  C   UNL     1     -39.896 -51.404  14.339  1.00  0.00     0.179 C 
HETATM    2  O   UNL     1     -39.149 -51.267  15.319  1.00  0.00    -0.290 OA
ENDROOT
BRANCH   1   3
HETATM    3  C   UNL     1     -40.670 -50.178  13.840  1.00  0.00     0.036 A 
HETATM    4  C   UNL     1     -40.441 -49.564  12.589  1.00  0.00     0.022 A 
HETATM    5  N   UNL     1     -41.213 -48.396  12.416  1.00  0.00    -0.345 N 
HETATM    6  C   UNL     1     -39.477 -50.053  11.566  1.00  0.00     0.069 C 
HETATM    7  C   UNL     1     -42.010 -48.305  13.571  1.00  0.00     0.009 A 
HETATM    8  C   UNL     1     -41.669 -49.359  14.435  1.00  0.00     0.042 A 
HETATM    9  C   UNL     1     -43.039 -47.249  13.830  1.00  0.00     0.068 C 
BRANCH   5  10
HETATM   10  C   UNL     1     -40.916 -47.293  11.381  1.00  0.00     0.118 C 
HETATM   11  C   UNL     1     -40.060 -46.160  11.991  1.00  0.00     0.038 C 
BRANCH  10  12
HETATM   12  C   UNL     1     -41.987 -46.825  10.309  1.00  0.00    -0.035 A 
HETATM   13  C   UNL     1     -42.752 -47.751   9.544  1.00  0.00     0.009 A 
HETATM   14  C   UNL     1     -43.923 -47.391   8.816  1.00  0.00     0.001 A 
HETATM   15  C   UNL     1     -44.365 -46.084   8.846  1.00  0.00     0.000 A 
HETATM   16  C   UNL     1     -43.652 -45.149   9.589  1.00  0.00     0.001 A 
HETATM   17  C   UNL     1     -42.488 -45.528  10.305  1.00  0.00     0.009 A 
ENDBRANCH  10  12
ENDBRANCH   5  10
ENDBRANCH   1   3
BRANCH   1  18
HETATM   18  C   UNL     1     -39.983 -52.852  13.744  1.00  0.00     0.221 C 
BRANCH  18  19
HETATM   19  N   UNL     1     -41.225 -53.606  14.149  1.00  0.00    -0.256 N 
HETATM   20  C   UNL     1     -42.410 -53.445  13.417  1.00  0.00     0.334 C 
HETATM   21  N   UNL     1     -43.593 -53.915  14.034  1.00  0.00    -0.279 N 
HETATM   22  O   UNL     1     -42.423 -52.961  12.285  1.00  0.00    -0.246 OA
HETATM   23  C   UNL     1     -43.541 -54.860  15.037  1.00  0.00     0.146 C 
HETATM   24  C   UNL     1     -42.364 -55.295  15.492  1.00  0.00     0.200 C 
HETATM   25  C   UNL     1     -41.096 -54.647  15.056  1.00  0.00     0.292 C 
HETATM   26  F   UNL     1     -42.264 -56.283  16.398  1.00  0.00    -0.199 F 
HETATM   27  O   UNL     1     -40.014 -55.047  15.479  1.00  0.00    -0.264 OA
BRANCH  21  28
HETATM   28  C   UNL     1     -44.827 -53.161  13.783  1.00  0.00     0.232 C 
HETATM   29  O   UNL     1     -45.366 -53.366  12.457  1.00  0.00    -0.366 OA
HETATM   30  C   UNL     1     -46.361 -52.342  12.248  1.00  0.00     0.170 C 
HETATM   31  C   UNL     1     -46.124 -51.262  13.291  1.00  0.00     0.031 C 
HETATM   32  C   UNL     1     -44.801 -51.649  13.916  1.00  0.00     0.056 C 
ENDBRANCH  21  28
ENDBRANCH  18  19
ENDBRANCH   1  18
TORSDOF 6
ENDMDL
MODEL 5
REMARK VINA RESULT:      -7.4      2.161      3.785
REMARK  6 active torsions:
REMARK  status: ('A' for Active; 'I' for Inactive)
REMARK    1  A    between atoms: N_1  and  C_12 
REMARK    2  A    between atoms: N_2  and  C_14 
REMARK    3  A    between atoms: N_4  and  C_15 
REMARK    4  A    between atoms: C_5  and  C_13 
REMARK    5  A    between atoms: C_12  and  C_13 
REMARK    6  A    between atoms: C_15  and  C_21 
ROOT
HETATM    1  C   UNL     1     -38.333 -51.216  12.955  1.00  0.00     0.179 C 
HETATM    2  O   UNL     1     -37.264 -51.841  13.015  1.00  0.00    -0.290 OA
ENDROOT
BRANCH   1   3
HETATM    3  C   UNL     1     -39.391 -51.484  14.030  1.00  0.00     0.036 A 
HETATM    4  C   UNL     1     -40.399 -52.467  13.910  1.00  0.00     0.022 A 
HETATM    5  N   UNL     1     -41.304 -52.442  14.990  1.00  0.00    -0.345 N 
HETATM    6  C   UNL     1     -40.531 -53.413  12.768  1.00  0.00     0.069 C 
HETATM    7  C   UNL     1     -40.815 -51.452  15.861  1.00  0.00     0.009 A 
HETATM    8  C   UNL     1     -39.682 -50.862  15.276  1.00  0.00     0.042 A 
HETATM    9  C   UNL     1     -41.416 -51.089  17.183  1.00  0.00     0.068 C 
BRANCH   5  10
HETATM   10  C   UNL     1     -42.709 -53.077  14.973  1.00  0.00     0.118 C 
HETATM   11  C   UNL     1     -42.632 -54.619  14.931  1.00  0.00     0.038 C 
BRANCH  10  12
HETATM   12  C   UNL     1     -43.918 -52.440  14.168  1.00  0.00    -0.035 A 
HETATM   13  C   UNL     1     -44.391 -52.995  12.943  1.00  0.00     0.009 A 
HETATM   14  C   UNL     1     -45.647 -52.656  12.361  1.00  0.00     0.001 A 
HETATM   15  C   UNL     1     -46.469 -51.751  13.001  1.00  0.00     0.000 A 
HETATM   16  C   UNL     1     -46.049 -51.193  14.203  1.00  0.00     0.001 A 
HETATM   17  C   UNL     1     -44.795 -51.543  14.766  1.00  0.00     0.009 A 
ENDBRANCH  10  12
ENDBRANCH   5  10
ENDBRANCH   1   3
BRANCH   1  18
HETATM   18  C   UNL     1     -38.482 -50.235  11.741  1.00  0.00     0.221 C 
BRANCH  18  19
HETATM   19  N   UNL     1     -39.395 -49.065  12.009  1.00  0.00    -0.256 N 
HETATM   20  C   UNL     1     -40.727 -49.104  11.571  1.00  0.00     0.334 C 
HETATM   21  N   UNL     1     -41.418 -47.869  11.565  1.00  0.00    -0.279 N 
HETATM   22  O   UNL     1     -41.283 -50.154  11.250  1.00  0.00    -0.246 OA
HETATM   23  C   UNL     1     -40.993 -46.816  12.348  1.00  0.00     0.146 C 
HETATM   24  C   UNL     1     -39.879 -46.924  13.075  1.00  0.00     0.200 C 
HETATM   25  C   UNL     1     -38.983 -48.103  12.918  1.00  0.00     0.292 C 
HETATM   26  F   UNL     1     -39.480 -45.963  13.926  1.00  0.00    -0.199 F 
HETATM   27  O   UNL     1     -37.954 -48.198  13.586  1.00  0.00    -0.264 OA
BRANCH  21  28
HETATM   28  C   UNL     1     -42.400 -47.655  10.496  1.00  0.00     0.232 C 
HETATM   29  O   UNL     1     -42.276 -46.365   9.853  1.00  0.00    -0.366 OA
HETATM   30  C   UNL     1     -43.474 -46.170   9.073  1.00  0.00     0.170 C 
HETATM   31  C   UNL     1     -44.509 -47.162   9.581  1.00  0.00     0.031 C 
HETATM   32  C   UNL     1     -43.877 -47.733  10.832  1.00  0.00     0.056 C 
ENDBRANCH  21  28
ENDBRANCH  18  19
ENDBRANCH   1  18
TORSDOF 6
ENDMDL
MODEL 6
REMARK VINA RESULT:      -7.3      3.200      7.392
REMARK  6 active torsions:
REMARK  status: ('A' for Active; 'I' for Inactive)
REMARK    1  A    between atoms: N_1  and  C_12 
REMARK    2  A    between atoms: N_2  and  C_14 
REMARK    3  A    between atoms: N_4  and  C_15 
REMARK    4  A    between atoms: C_5  and  C_13 
REMARK    5  A    between atoms: C_12  and  C_13 
REMARK    6  A    between atoms: C_15  and  C_21 
ROOT
HETATM    1  C   UNL     1     -38.782 -52.544  15.293  1.00  0.00     0.179 C 
HETATM    2  O   UNL     1     -38.757 -52.181  16.477  1.00  0.00    -0.290 OA
ENDROOT
BRANCH   1   3
HETATM    3  C   UNL     1     -38.637 -51.476  14.204  1.00  0.00     0.036 A 
HETATM    4  C   UNL     1     -39.493 -50.358  14.083  1.00  0.00     0.022 A 
HETATM    5  N   UNL     1     -39.208 -49.584  12.940  1.00  0.00    -0.345 N 
HETATM    6  C   UNL     1     -40.600 -50.031  15.024  1.00  0.00     0.069 C 
HETATM    7  C   UNL     1     -38.087 -50.195  12.350  1.00  0.00     0.009 A 
HETATM    8  C   UNL     1     -37.758 -51.341  13.094  1.00  0.00     0.042 A 
HETATM    9  C   UNL     1     -37.377 -49.701  11.128  1.00  0.00     0.068 C 
BRANCH   5  10
HETATM   10  C   UNL     1     -40.177 -48.568  12.304  1.00  0.00     0.118 C 
HETATM   11  C   UNL     1     -40.990 -49.205  11.154  1.00  0.00     0.038 C 
BRANCH  10  12
HETATM   12  C   UNL     1     -39.790 -47.045  12.091  1.00  0.00    -0.035 A 
HETATM   13  C   UNL     1     -40.092 -46.345  10.888  1.00  0.00     0.009 A 
HETATM   14  C   UNL     1     -40.052 -44.925  10.773  1.00  0.00     0.001 A 
HETATM   15  C   UNL     1     -39.712 -44.165  11.875  1.00  0.00     0.000 A 
HETATM   16  C   UNL     1     -39.419 -44.809  13.072  1.00  0.00     0.001 A 
HETATM   17  C   UNL     1     -39.464 -46.224  13.164  1.00  0.00     0.009 A 
ENDBRANCH  10  12
ENDBRANCH   5  10
ENDBRANCH   1   3
BRANCH   1  18
HETATM   18  C   UNL     1     -38.998 -54.079  15.053  1.00  0.00     0.221 C 
BRANCH  18  19
HETATM   19  N   UNL     1     -40.442 -54.509  15.104  1.00  0.00    -0.256 N 
HETATM   20  C   UNL     1     -41.267 -54.320  13.986  1.00  0.00     0.334 C 
HETATM   21  N   UNL     1     -42.659 -54.440  14.211  1.00  0.00    -0.279 N 
HETATM   22  O   UNL     1     -40.813 -54.103  12.863  1.00  0.00    -0.246 OA
HETATM   23  C   UNL     1     -43.144 -55.134  15.299  1.00  0.00     0.146 C 
HETATM   24  C   UNL     1     -42.302 -55.647  16.200  1.00  0.00     0.200 C 
HETATM   25  C   UNL     1     -40.848 -55.329  16.146  1.00  0.00     0.292 C 
HETATM   26  F   UNL     1     -42.722 -56.412  17.222  1.00  0.00    -0.199 F 
HETATM   27  O   UNL     1     -40.076 -55.800  16.979  1.00  0.00    -0.264 OA
BRANCH  21  28
HETATM   28  C   UNL     1     -43.543 -53.566  13.430  1.00  0.00     0.232 C 
HETATM   29  O   UNL     1     -43.674 -52.238  13.986  1.00  0.00    -0.366 OA
HETATM   30  C   UNL     1     -44.792 -51.615  13.320  1.00  0.00     0.170 C 
HETATM   31  C   UNL     1     -45.598 -52.722  12.659  1.00  0.00     0.031 C 
HETATM   32  C   UNL     1     -44.982 -53.992  13.207  1.00  0.00     0.056 C 
ENDBRANCH  21  28
ENDBRANCH  18  19
ENDBRANCH   1  18
TORSDOF 6
ENDMDL
MODEL 7
REMARK VINA RESULT:      -7.2      3.408      6.720
REMARK  6 active torsions:
REMARK  status: ('A' for Active; 'I' for Inactive)
REMARK    1  A    between atoms: N_1  and  C_12 
REMARK    2  A    between atoms: N_2  and  C_14 
REMARK    3  A    between atoms: N_4  and  C_15 
REMARK    4  A    between atoms: C_5  and  C_13 
REMARK    5  A    between atoms: C_12  and  C_13 
REMARK    6  A    between atoms: C_15  and  C_21 
ROOT
HETATM    1  C   UNL     1     -43.095 -54.904  15.923  1.00  0.00     0.179 C 
HETATM    2  O   UNL     1     -43.856 -55.045  16.891  1.00  0.00    -0.290 OA
ENDROOT
BRANCH   1   3
HETATM    3  C   UNL     1     -41.594 -54.758  16.195  1.00  0.00     0.036 A 
HETATM    4  C   UNL     1     -40.971 -53.529  16.508  1.00  0.00     0.022 A 
HETATM    5  N   UNL     1     -39.570 -53.650  16.613  1.00  0.00    -0.345 N 
HETATM    6  C   UNL     1     -41.684 -52.234  16.681  1.00  0.00     0.069 C 
HETATM    7  C   UNL     1     -39.301 -55.018  16.427  1.00  0.00     0.009 A 
HETATM    8  C   UNL     1     -40.511 -55.679  16.154  1.00  0.00     0.042 A 
HETATM    9  C   UNL     1     -37.946 -55.650  16.499  1.00  0.00     0.068 C 
BRANCH   5  10
HETATM   10  C   UNL     1     -38.579 -52.472  16.536  1.00  0.00     0.118 C 
HETATM   11  C   UNL     1     -38.402 -51.790  17.911  1.00  0.00     0.038 C 
BRANCH  10  12
HETATM   12  C   UNL     1     -38.518 -51.495  15.288  1.00  0.00    -0.035 A 
HETATM   13  C   UNL     1     -37.795 -50.267  15.318  1.00  0.00     0.009 A 
HETATM   14  C   UNL     1     -37.455 -49.527  14.149  1.00  0.00     0.001 A 
HETATM   15  C   UNL     1     -37.827 -50.008  12.909  1.00  0.00     0.000 A 
HETATM   16  C   UNL     1     -38.526 -51.208  12.835  1.00  0.00     0.001 A 
HETATM   17  C   UNL     1     -38.856 -51.928  14.011  1.00  0.00     0.009 A 
ENDBRANCH  10  12
ENDBRANCH   5  10
ENDBRANCH   1   3
BRANCH   1  18
HETATM   18  C   UNL     1     -43.784 -54.859  14.515  1.00  0.00     0.221 C 
BRANCH  18  19
HETATM   19  N   UNL     1     -44.116 -53.466  14.041  1.00  0.00    -0.256 N 
HETATM   20  C   UNL     1     -43.169 -52.731  13.314  1.00  0.00     0.334 C 
HETATM   21  N   UNL     1     -43.418 -51.344  13.190  1.00  0.00    -0.279 N 
HETATM   22  O   UNL     1     -42.196 -53.260  12.777  1.00  0.00    -0.246 OA
HETATM   23  C   UNL     1     -44.690 -50.835  13.352  1.00  0.00     0.146 C 
HETATM   24  C   UNL     1     -45.697 -51.639  13.699  1.00  0.00     0.200 C 
HETATM   25  C   UNL     1     -45.439 -53.053  14.090  1.00  0.00     0.292 C 
HETATM   26  F   UNL     1     -46.968 -51.208  13.774  1.00  0.00    -0.199 F 
HETATM   27  O   UNL     1     -46.368 -53.790  14.413  1.00  0.00    -0.264 OA
BRANCH  21  28
HETATM   28  C   UNL     1     -42.254 -50.450  13.180  1.00  0.00     0.232 C 
HETATM   29  O   UNL     1     -42.065 -49.740  14.425  1.00  0.00    -0.366 OA
HETATM   30  C   UNL     1     -41.111 -48.689  14.166  1.00  0.00     0.170 C 
HETATM   31  C   UNL     1     -41.041 -48.504  12.659  1.00  0.00     0.031 C 
HETATM   32  C   UNL     1     -42.185 -49.348  12.139  1.00  0.00     0.056 C 
ENDBRANCH  21  28
ENDBRANCH  18  19
ENDBRANCH   1  18
TORSDOF 6
ENDMDL
MODEL 8
REMARK VINA RESULT:      -7.1      2.925      4.905
REMARK  6 active torsions:
REMARK  status: ('A' for Active; 'I' for Inactive)
REMARK    1  A    between atoms: N_1  and  C_12 
REMARK    2  A    between atoms: N_2  and  C_14 
REMARK    3  A    between atoms: N_4  and  C_15 
REMARK    4  A    between atoms: C_5  and  C_13 
REMARK    5  A    between atoms: C_12  and  C_13 
REMARK    6  A    between atoms: C_15  and  C_21 
ROOT
HETATM    1  C   UNL     1     -40.459 -53.964  16.816  1.00  0.00     0.179 C 
HETATM    2  O   UNL     1     -39.978 -54.589  17.771  1.00  0.00    -0.290 OA
ENDROOT
BRANCH   1   3
HETATM    3  C   UNL     1     -40.963 -52.538  17.063  1.00  0.00     0.036 A 
HETATM    4  C   UNL     1     -42.285 -52.230  17.453  1.00  0.00     0.022 A 
HETATM    5  N   UNL     1     -42.517 -50.841  17.515  1.00  0.00    -0.345 N 
HETATM    6  C   UNL     1     -43.343 -53.238  17.739  1.00  0.00     0.069 C 
HETATM    7  C   UNL     1     -41.277 -50.245  17.220  1.00  0.00     0.009 A 
HETATM    8  C   UNL     1     -40.351 -51.261  16.927  1.00  0.00     0.042 A 
HETATM    9  C   UNL     1     -41.005 -48.773  17.213  1.00  0.00     0.068 C 
BRANCH   5  10
HETATM   10  C   UNL     1     -43.910 -50.182  17.504  1.00  0.00     0.118 C 
HETATM   11  C   UNL     1     -44.489 -50.057  18.931  1.00  0.00     0.038 C 
BRANCH  10  12
HETATM   12  C   UNL     1     -44.977 -50.474  16.367  1.00  0.00    -0.035 A 
HETATM   13  C   UNL     1     -44.602 -50.701  15.012  1.00  0.00     0.009 A 
HETATM   14  C   UNL     1     -45.475 -51.269  14.040  1.00  0.00     0.001 A 
HETATM   15  C   UNL     1     -46.755 -51.633  14.408  1.00  0.00     0.000 A 
HETATM   16  C   UNL     1     -47.159 -51.436  15.724  1.00  0.00     0.001 A 
HETATM   17  C   UNL     1     -46.274 -50.869  16.676  1.00  0.00     0.009 A 
ENDBRANCH  10  12
ENDBRANCH   5  10
ENDBRANCH   1   3
BRANCH   1  18
HETATM   18  C   UNL     1     -40.525 -54.740  15.455  1.00  0.00     0.221 C 
BRANCH  18  19
HETATM   19  N   UNL     1     -40.916 -53.880  14.279  1.00  0.00    -0.256 N 
HETATM   20  C   UNL     1     -39.931 -53.182  13.567  1.00  0.00     0.334 C 
HETATM   21  N   UNL     1     -40.391 -52.160  12.703  1.00  0.00    -0.279 N 
HETATM   22  O   UNL     1     -38.735 -53.463  13.650  1.00  0.00    -0.246 OA
HETATM   23  C   UNL     1     -41.691 -52.156  12.241  1.00  0.00     0.146 C 
HETATM   24  C   UNL     1     -42.557 -53.081  12.660  1.00  0.00     0.200 C 
HETATM   25  C   UNL     1     -42.193 -54.019  13.758  1.00  0.00     0.292 C 
HETATM   26  F   UNL     1     -43.803 -53.176  12.165  1.00  0.00    -0.199 F 
HETATM   27  O   UNL     1     -42.994 -54.868  14.144  1.00  0.00    -0.264 OA
BRANCH  21  28
HETATM   28  C   UNL     1     -39.546 -50.969  12.560  1.00  0.00     0.232 C 
HETATM   29  O   UNL     1     -39.481 -50.164  13.759  1.00  0.00    -0.366 OA
HETATM   30  C   UNL     1     -38.901 -48.898  13.381  1.00  0.00     0.170 C 
HETATM   31  C   UNL     1     -39.002 -48.789  11.868  1.00  0.00     0.031 C 
HETATM   32  C   UNL     1     -39.883 -49.957  11.481  1.00  0.00     0.056 C 
ENDBRANCH  21  28
ENDBRANCH  18  19
ENDBRANCH   1  18
TORSDOF 6
ENDMDL
MODEL 9
REMARK VINA RESULT:      -7.1      2.337      4.087
REMARK  6 active torsions:
REMARK  status: ('A' for Active; 'I' for Inactive)
REMARK    1  A    between atoms: N_1  and  C_12 
REMARK    2  A    between atoms: N_2  and  C_14 
REMARK    3  A    between atoms: N_4  and  C_15 
REMARK    4  A    between atoms: C_5  and  C_13 
REMARK    5  A    between atoms: C_12  and  C_13 
REMARK    6  A    between atoms: C_15  and  C_21 
ROOT
HETATM    1  C   UNL     1     -40.443 -48.748  13.409  1.00  0.00     0.179 C 
HETATM    2  O   UNL     1     -40.608 -48.106  14.456  1.00  0.00    -0.290 OA
ENDROOT
BRANCH   1   3
HETATM    3  C   UNL     1     -40.840 -50.228  13.395  1.00  0.00     0.036 A 
HETATM    4  C   UNL     1     -42.169 -50.681  13.234  1.00  0.00     0.022 A 
HETATM    5  N   UNL     1     -42.277 -52.081  13.359  1.00  0.00    -0.345 N 
HETATM    6  C   UNL     1     -43.343 -49.799  12.991  1.00  0.00     0.069 C 
HETATM    7  C   UNL     1     -40.960 -52.540  13.539  1.00  0.00     0.009 A 
HETATM    8  C   UNL     1     -40.101 -51.428  13.584  1.00  0.00     0.042 A 
HETATM    9  C   UNL     1     -40.555 -53.975  13.671  1.00  0.00     0.068 C 
BRANCH   5  10
HETATM   10  C   UNL     1     -43.590 -52.838  13.642  1.00  0.00     0.118 C 
HETATM   11  C   UNL     1     -44.215 -53.392  12.342  1.00  0.00     0.038 C 
BRANCH  10  12
HETATM   12  C   UNL     1     -44.632 -52.352  14.735  1.00  0.00    -0.035 A 
HETATM   13  C   UNL     1     -44.222 -51.817  15.990  1.00  0.00     0.009 A 
HETATM   14  C   UNL     1     -45.090 -51.089  16.855  1.00  0.00     0.001 A 
HETATM   15  C   UNL     1     -46.399 -50.871  16.475  1.00  0.00     0.000 A 
HETATM   16  C   UNL     1     -46.837 -51.368  15.252  1.00  0.00     0.001 A 
HETATM   17  C   UNL     1     -45.957 -52.091  14.407  1.00  0.00     0.009 A 
ENDBRANCH  10  12
ENDBRANCH   5  10
ENDBRANCH   1   3
BRANCH   1  18
HETATM   18  C   UNL     1     -39.803 -47.956  12.216  1.00  0.00     0.221 C 
BRANCH  18  19
HETATM   19  N   UNL     1     -40.783 -47.097  11.457  1.00  0.00    -0.256 N 
HETATM   20  C   UNL     1     -40.663 -45.700  11.495  1.00  0.00     0.334 C 
HETATM   21  N   UNL     1     -41.783 -44.965  11.042  1.00  0.00    -0.279 N 
HETATM   22  O   UNL     1     -39.630 -45.139  11.860  1.00  0.00    -0.246 OA
HETATM   23  C   UNL     1     -42.718 -45.541  10.207  1.00  0.00     0.146 C 
HETATM   24  C   UNL     1     -42.616 -46.828   9.869  1.00  0.00     0.200 C 
HETATM   25  C   UNL     1     -41.604 -47.706  10.521  1.00  0.00     0.292 C 
HETATM   26  F   UNL     1     -43.445 -47.407   8.983  1.00  0.00    -0.199 F 
HETATM   27  O   UNL     1     -41.515 -48.892  10.210  1.00  0.00    -0.264 OA
BRANCH  21  28
HETATM   28  C   UNL     1     -42.069 -43.693  11.716  1.00  0.00     0.232 C 
HETATM   29  O   UNL     1     -42.565 -43.857  13.064  1.00  0.00    -0.366 OA
HETATM   30  C   UNL     1     -43.096 -42.578  13.472  1.00  0.00     0.170 C 
HETATM   31  C   UNL     1     -43.300 -41.752  12.212  1.00  0.00     0.031 C 
HETATM   32  C   UNL     1     -43.074 -42.743  11.091  1.00  0.00     0.056 C 
ENDBRANCH  21  28
ENDBRANCH  18  19
ENDBRANCH   1  18
TORSDOF 6
ENDMDL
