MODEL 1
REMARK VINA RESULT:      -6.5      0.000      0.000
REMARK  6 active torsions:
REMARK  status: ('A' for Active; 'I' for Inactive)
REMARK    1  A    between atoms: C_5  and  C_18 
REMARK    2  A    between atoms: C_7  and  N_8 
REMARK       I    between atoms: N_8  and  C_9 
REMARK       I    between atoms: C_9  and  N_11 
REMARK    3  A    between atoms: N_11  and  C_12 
REMARK    4  A    between atoms: C_12  and  C_13 
REMARK    5  A    between atoms: C_13  and  C_14 
REMARK    6  A    between atoms: C_14  and  O_15 
ROOT
HETATM    1  N   UNL     1     -40.791 -49.450  10.653  1.00  0.00    -0.293 N 
HETATM    2  C   UNL     1     -41.900 -48.579  10.819  1.00  0.00     0.321 C 
HETATM    3  O   UNL     1     -42.687 -48.674  11.747  1.00  0.00    -0.247 OA
HETATM    4  N   UNL     1     -41.967 -47.657   9.821  1.00  0.00    -0.342 N 
HETATM    5  H   UNL     1     -40.195 -49.338   9.849  1.00  0.00     0.172 HD
HETATM    6  H   UNL     1     -41.309 -47.631   9.060  1.00  0.00     0.164 HD
ENDROOT
BRANCH   1   7
HETATM    7  C   UNL     1     -40.492 -50.457  11.569  1.00  0.00     0.127 A 
HETATM    8  N   UNL     1     -39.484 -50.474  12.510  1.00  0.00    -0.281 N 
HETATM    9  C   UNL     1     -38.483 -49.458  12.737  1.00  0.00     0.179 C 
HETATM   10  N   UNL     1     -39.479 -51.588  13.277  1.00  0.00    -0.301 N 
HETATM   11  C   UNL     1     -40.496 -52.305  12.792  1.00  0.00     0.034 A 
ATOM     12  HN  UNL     1     -38.850 -51.824  14.043  1.00  0.00     0.187 HD
HETATM   13  C   UNL     1     -41.150 -51.653  11.737  1.00  0.00     0.077 A 
BRANCH  11  14
HETATM   14  C   UNL     1     -40.974 -53.659  13.281  1.00  0.00     0.037 C 
HETATM   15  C   UNL     1     -42.521 -53.824  13.312  1.00  0.00     0.011 C 
HETATM   16  C   UNL     1     -42.321 -54.684  14.574  1.00  0.00     0.001 C 
HETATM   17  C   UNL     1     -41.041 -53.860  14.818  1.00  0.00     0.011 C 
ENDBRANCH  11  14
ENDBRANCH   1   7
BRANCH   4  18
HETATM   18  C   UNL     1     -43.047 -46.698   9.815  1.00  0.00     0.136 C 
BRANCH  18  19
HETATM   19  C   UNL     1     -44.179 -47.167   8.930  1.00  0.00    -0.003 A 
HETATM   20  C   UNL     1     -45.442 -46.333   8.818  1.00  0.00     0.014 A 
HETATM   21  C   UNL     1     -45.442 -47.568   9.675  1.00  0.00     0.014 A 
BRANCH  19  22
HETATM   22  C   UNL     1     -43.721 -47.942   7.706  1.00  0.00     0.175 C 
BRANCH  22  23
HETATM   23  O   UNL     1     -42.845 -47.181   6.887  1.00  0.00    -0.400 OA
HETATM   24  H   UNL     1     -43.301 -46.350   6.673  1.00  0.00     0.209 HD
ENDBRANCH  22  23
ENDBRANCH  19  22
ENDBRANCH  18  19
ENDBRANCH   4  18
TORSDOF 6
ENDMDL
MODEL 2
REMARK VINA RESULT:      -6.2      3.342      6.827
REMARK  6 active torsions:
REMARK  status: ('A' for Active; 'I' for Inactive)
REMARK    1  A    between atoms: C_5  and  C_18 
REMARK    2  A    between atoms: C_7  and  N_8 
REMARK       I    between atoms: N_8  and  C_9 
REMARK       I    between atoms: C_9  and  N_11 
REMARK    3  A    between atoms: N_11  and  C_12 
REMARK    4  A    between atoms: C_12  and  C_13 
REMARK    5  A    between atoms: C_13  and  C_14 
REMARK    6  A    between atoms: C_14  and  O_15 
ROOT
HETATM    1  N   UNL     1     -42.295 -49.232  11.307  1.00  0.00    -0.293 N 
HETATM    2  C   UNL     1     -43.020 -49.455  12.508  1.00  0.00     0.321 C 
HETATM    3  O   UNL     1     -43.245 -48.576  13.322  1.00  0.00    -0.247 OA
HETATM    4  N   UNL     1     -43.408 -50.754  12.624  1.00  0.00    -0.342 N 
HETATM    5  H   UNL     1     -42.117 -50.006  10.689  1.00  0.00     0.172 HD
HETATM    6  H   UNL     1     -43.179 -51.453  11.937  1.00  0.00     0.164 HD
ENDROOT
BRANCH   1   7
HETATM    7  C   UNL     1     -41.822 -47.970  10.948  1.00  0.00     0.127 A 
HETATM    8  N   UNL     1     -42.249 -47.170   9.909  1.00  0.00    -0.281 N 
HETATM    9  C   UNL     1     -43.268 -47.475   8.933  1.00  0.00     0.179 C 
HETATM   10  N   UNL     1     -41.609 -45.981   9.846  1.00  0.00    -0.301 N 
HETATM   11  C   UNL     1     -40.738 -46.040  10.856  1.00  0.00     0.034 A 
ATOM     12  HN  UNL     1     -41.756 -45.219   9.184  1.00  0.00     0.187 HD
HETATM   13  C   UNL     1     -40.828 -47.247  11.564  1.00  0.00     0.077 A 
BRANCH  11  14
HETATM   14  C   UNL     1     -39.752 -44.967  11.277  1.00  0.00     0.037 C 
HETATM   15  C   UNL     1     -39.390 -44.982  12.790  1.00  0.00     0.011 C 
HETATM   16  C   UNL     1     -39.314 -43.446  12.702  1.00  0.00     0.001 C 
HETATM   17  C   UNL     1     -40.335 -43.555  11.551  1.00  0.00     0.011 C 
ENDBRANCH  11  14
ENDBRANCH   1   7
BRANCH   4  18
HETATM   18  C   UNL     1     -44.142 -51.172  13.796  1.00  0.00     0.136 C 
BRANCH  18  19
HETATM   19  C   UNL     1     -45.305 -52.058  13.414  1.00  0.00    -0.003 A 
HETATM   20  C   UNL     1     -46.520 -51.453  12.733  1.00  0.00     0.014 A 
HETATM   21  C   UNL     1     -46.583 -51.798  14.195  1.00  0.00     0.014 A 
BRANCH  19  22
HETATM   22  C   UNL     1     -44.901 -53.473  13.036  1.00  0.00     0.175 C 
BRANCH  22  23
HETATM   23  O   UNL     1     -44.174 -53.514  11.817  1.00  0.00    -0.400 OA
HETATM   24  H   UNL     1     -44.397 -54.351  11.377  1.00  0.00     0.209 HD
ENDBRANCH  22  23
ENDBRANCH  19  22
ENDBRANCH  18  19
ENDBRANCH   4  18
TORSDOF 6
ENDMDL
MODEL 3
REMARK VINA RESULT:      -6.2      2.769      7.224
REMARK  6 active torsions:
REMARK  status: ('A' for Active; 'I' for Inactive)
REMARK    1  A    between atoms: C_5  and  C_18 
REMARK    2  A    between atoms: C_7  and  N_8 
REMARK       I    between atoms: N_8  and  C_9 
REMARK       I    between atoms: C_9  and  N_11 
REMARK    3  A    between atoms: N_11  and  C_12 
REMARK    4  A    between atoms: C_12  and  C_13 
REMARK    5  A    between atoms: C_13  and  C_14 
REMARK    6  A    between atoms: C_14  and  O_15 
ROOT
HETATM    1  N   UNL     1     -41.676 -49.306  10.867  1.00  0.00    -0.293 N 
HETATM    2  C   UNL     1     -42.038 -49.814  12.142  1.00  0.00     0.321 C 
HETATM    3  O   UNL     1     -42.204 -49.103  13.119  1.00  0.00    -0.247 OA
HETATM    4  N   UNL     1     -42.158 -51.169  12.125  1.00  0.00    -0.342 N 
HETATM    5  H   UNL     1     -41.525 -49.948  10.106  1.00  0.00     0.172 HD
HETATM    6  H   UNL     1     -41.988 -51.720  11.300  1.00  0.00     0.164 HD
ENDROOT
BRANCH   1   7
HETATM    7  C   UNL     1     -41.527 -47.941  10.624  1.00  0.00     0.127 A 
HETATM    8  N   UNL     1     -42.308 -47.132   9.825  1.00  0.00    -0.281 N 
HETATM    9  C   UNL     1     -43.443 -47.528   9.026  1.00  0.00     0.179 C 
HETATM   10  N   UNL     1     -41.921 -45.836   9.827  1.00  0.00    -0.301 N 
HETATM   11  C   UNL     1     -40.854 -45.830  10.630  1.00  0.00     0.034 A 
ATOM     12  HN  UNL     1     -42.344 -45.051   9.333  1.00  0.00     0.187 HD
HETATM   13  C   UNL     1     -40.569 -47.103  11.144  1.00  0.00     0.077 A 
BRANCH  11  14
HETATM   14  C   UNL     1     -40.009 -44.631  11.016  1.00  0.00     0.037 C 
HETATM   15  C   UNL     1     -39.569 -44.606  12.509  1.00  0.00     0.011 C 
HETATM   16  C   UNL     1     -39.716 -43.074  12.440  1.00  0.00     0.001 C 
HETATM   17  C   UNL     1     -40.770 -43.318  11.341  1.00  0.00     0.011 C 
ENDBRANCH  11  14
ENDBRANCH   1   7
BRANCH   4  18
HETATM   18  C   UNL     1     -42.501 -51.865  13.343  1.00  0.00     0.136 C 
BRANCH  18  19
HETATM   19  C   UNL     1     -42.565 -53.357  13.111  1.00  0.00    -0.003 A 
HETATM   20  C   UNL     1     -43.801 -53.967  12.474  1.00  0.00     0.014 A 
HETATM   21  C   UNL     1     -43.595 -54.087  13.958  1.00  0.00     0.014 A 
BRANCH  19  22
HETATM   22  C   UNL     1     -41.218 -53.990  12.810  1.00  0.00     0.175 C 
BRANCH  22  23
HETATM   23  O   UNL     1     -40.662 -53.515  11.594  1.00  0.00    -0.400 OA
HETATM   24  H   UNL     1     -39.727 -53.781  11.581  1.00  0.00     0.209 HD
ENDBRANCH  22  23
ENDBRANCH  19  22
ENDBRANCH  18  19
ENDBRANCH   4  18
TORSDOF 6
ENDMDL
MODEL 4
REMARK VINA RESULT:      -6.0      3.328      6.460
REMARK  6 active torsions:
REMARK  status: ('A' for Active; 'I' for Inactive)
REMARK    1  A    between atoms: C_5  and  C_18 
REMARK    2  A    between atoms: C_7  and  N_8 
REMARK       I    between atoms: N_8  and  C_9 
REMARK       I    between atoms: C_9  and  N_11 
REMARK    3  A    between atoms: N_11  and  C_12 
REMARK    4  A    between atoms: C_12  and  C_13 
REMARK    5  A    between atoms: C_13  and  C_14 
REMARK    6  A    between atoms: C_14  and  O_15 
ROOT
HETATM    1  N   UNL     1     -42.403 -50.281  11.727  1.00  0.00    -0.293 N 
HETATM    2  C   UNL     1     -42.995 -50.556  12.988  1.00  0.00     0.321 C 
HETATM    3  O   UNL     1     -42.737 -49.921  13.997  1.00  0.00    -0.247 OA
HETATM    4  N   UNL     1     -43.858 -51.606  12.917  1.00  0.00    -0.342 N 
HETATM    5  H   UNL     1     -42.635 -50.860  10.937  1.00  0.00     0.172 HD
HETATM    6  H   UNL     1     -44.022 -52.117  12.067  1.00  0.00     0.164 HD
ENDROOT
BRANCH   1   7
HETATM    7  C   UNL     1     -41.509 -49.227  11.539  1.00  0.00     0.127 A 
HETATM    8  N   UNL     1     -40.138 -49.242  11.689  1.00  0.00    -0.281 N 
HETATM    9  C   UNL     1     -39.317 -50.352  12.111  1.00  0.00     0.179 C 
HETATM   10  N   UNL     1     -39.551 -48.059  11.396  1.00  0.00    -0.301 N 
HETATM   11  C   UNL     1     -40.578 -47.270  11.075  1.00  0.00     0.034 A 
ATOM     12  HN  UNL     1     -38.558 -47.826  11.415  1.00  0.00     0.187 HD
HETATM   13  C   UNL     1     -41.807 -47.942  11.151  1.00  0.00     0.077 A 
BRANCH  11  14
HETATM   14  C   UNL     1     -40.515 -45.817  10.643  1.00  0.00     0.037 C 
HETATM   15  C   UNL     1     -39.700 -44.896  11.597  1.00  0.00     0.011 C 
HETATM   16  C   UNL     1     -40.719 -43.790  11.264  1.00  0.00     0.001 C 
HETATM   17  C   UNL     1     -41.730 -44.927  11.014  1.00  0.00     0.011 C 
ENDBRANCH  11  14
ENDBRANCH   1   7
BRANCH   4  18
HETATM   18  C   UNL     1     -44.540 -52.043  14.113  1.00  0.00     0.136 C 
BRANCH  18  19
HETATM   19  C   UNL     1     -46.038 -51.904  13.958  1.00  0.00    -0.003 A 
HETATM   20  C   UNL     1     -46.862 -51.336  15.100  1.00  0.00     0.014 A 
HETATM   21  C   UNL     1     -46.855 -52.819  14.856  1.00  0.00     0.014 A 
BRANCH  19  22
HETATM   22  C   UNL     1     -46.484 -51.610  12.536  1.00  0.00     0.175 C 
BRANCH  22  23
HETATM   23  O   UNL     1     -46.251 -52.706  11.665  1.00  0.00    -0.400 OA
HETATM   24  H   UNL     1     -46.962 -52.703  11.002  1.00  0.00     0.209 HD
ENDBRANCH  22  23
ENDBRANCH  19  22
ENDBRANCH  18  19
ENDBRANCH   4  18
TORSDOF 6
ENDMDL
MODEL 5
REMARK VINA RESULT:      -5.9      1.960      7.004
REMARK  6 active torsions:
REMARK  status: ('A' for Active; 'I' for Inactive)
REMARK    1  A    between atoms: C_5  and  C_18 
REMARK    2  A    between atoms: C_7  and  N_8 
REMARK       I    between atoms: N_8  and  C_9 
REMARK       I    between atoms: C_9  and  N_11 
REMARK    3  A    between atoms: N_11  and  C_12 
REMARK    4  A    between atoms: C_12  and  C_13 
REMARK    5  A    between atoms: C_13  and  C_14 
REMARK    6  A    between atoms: C_14  and  O_15 
ROOT
HETATM    1  N   UNL     1     -41.141 -48.607  12.411  1.00  0.00    -0.293 N 
HETATM    2  C   UNL     1     -40.400 -49.791  12.155  1.00  0.00     0.321 C 
HETATM    3  O   UNL     1     -40.263 -50.261  11.037  1.00  0.00    -0.247 OA
HETATM    4  N   UNL     1     -39.889 -50.319  13.300  1.00  0.00    -0.342 N 
HETATM    5  H   UNL     1     -41.242 -48.286  13.360  1.00  0.00     0.172 HD
HETATM    6  H   UNL     1     -40.047 -49.911  14.205  1.00  0.00     0.164 HD
ENDROOT
BRANCH   1   7
HETATM    7  C   UNL     1     -41.733 -47.864  11.391  1.00  0.00     0.127 A 
HETATM    8  N   UNL     1     -41.204 -46.788  10.710  1.00  0.00    -0.281 N 
HETATM    9  C   UNL     1     -39.921 -46.162  10.926  1.00  0.00     0.179 C 
HETATM   10  N   UNL     1     -42.020 -46.305   9.746  1.00  0.00    -0.301 N 
HETATM   11  C   UNL     1     -43.103 -47.081   9.835  1.00  0.00     0.034 A 
ATOM     12  HN  UNL     1     -41.849 -45.532   9.103  1.00  0.00     0.187 HD
HETATM   13  C   UNL     1     -42.976 -48.055  10.836  1.00  0.00     0.077 A 
BRANCH  11  14
HETATM   14  C   UNL     1     -44.354 -47.006   8.979  1.00  0.00     0.037 C 
HETATM   15  C   UNL     1     -45.615 -47.649   9.625  1.00  0.00     0.011 C 
HETATM   16  C   UNL     1     -46.017 -48.086   8.204  1.00  0.00     0.001 C 
HETATM   17  C   UNL     1     -44.510 -48.090   7.880  1.00  0.00     0.011 C 
ENDBRANCH  11  14
ENDBRANCH   1   7
BRANCH   4  18
HETATM   18  C   UNL     1     -39.120 -51.541  13.234  1.00  0.00     0.136 C 
BRANCH  18  19
HETATM   19  C   UNL     1     -39.897 -52.697  13.822  1.00  0.00    -0.003 A 
HETATM   20  C   UNL     1     -40.244 -52.696  15.300  1.00  0.00     0.014 A 
HETATM   21  C   UNL     1     -39.113 -53.553  14.802  1.00  0.00     0.014 A 
BRANCH  19  22
HETATM   22  C   UNL     1     -40.884 -53.328  12.854  1.00  0.00     0.175 C 
BRANCH  22  23
HETATM   23  O   UNL     1     -40.484 -53.169  11.502  1.00  0.00    -0.400 OA
HETATM   24  H   UNL     1     -40.126 -52.271  11.411  1.00  0.00     0.209 HD
ENDBRANCH  22  23
ENDBRANCH  19  22
ENDBRANCH  18  19
ENDBRANCH   4  18
TORSDOF 6
ENDMDL
MODEL 6
REMARK VINA RESULT:      -5.6      1.720      2.346
REMARK  6 active torsions:
REMARK  status: ('A' for Active; 'I' for Inactive)
REMARK    1  A    between atoms: C_5  and  C_18 
REMARK    2  A    between atoms: C_7  and  N_8 
REMARK       I    between atoms: N_8  and  C_9 
REMARK       I    between atoms: C_9  and  N_11 
REMARK    3  A    between atoms: N_11  and  C_12 
REMARK    4  A    between atoms: C_12  and  C_13 
REMARK    5  A    between atoms: C_13  and  C_14 
REMARK    6  A    between atoms: C_14  and  O_15 
ROOT
HETATM    1  N   UNL     1     -40.693 -50.349  11.201  1.00  0.00    -0.293 N 
HETATM    2  C   UNL     1     -40.718 -49.025  11.715  1.00  0.00     0.321 C 
HETATM    3  O   UNL     1     -40.931 -48.771  12.889  1.00  0.00    -0.247 OA
HETATM    4  N   UNL     1     -40.488 -48.105  10.740  1.00  0.00    -0.342 N 
HETATM    5  H   UNL     1     -40.540 -50.491  10.216  1.00  0.00     0.172 HD
HETATM    6  H   UNL     1     -40.340 -48.359   9.777  1.00  0.00     0.164 HD
ENDROOT
BRANCH   1   7
HETATM    7  C   UNL     1     -40.868 -51.467  12.016  1.00  0.00     0.127 A 
HETATM    8  N   UNL     1     -39.995 -51.976  12.955  1.00  0.00    -0.281 N 
HETATM    9  C   UNL     1     -38.679 -51.481  13.283  1.00  0.00     0.179 C 
HETATM   10  N   UNL     1     -40.476 -53.057  13.608  1.00  0.00    -0.301 N 
HETATM   11  C   UNL     1     -41.674 -53.252  13.052  1.00  0.00     0.034 A 
ATOM     12  HN  UNL     1     -40.030 -53.596  14.350  1.00  0.00     0.187 HD
HETATM   13  C   UNL     1     -41.960 -52.300  12.064  1.00  0.00     0.077 A 
BRANCH  11  14
HETATM   14  C   UNL     1     -42.681 -54.331  13.405  1.00  0.00     0.037 C 
HETATM   15  C   UNL     1     -44.114 -54.079  12.854  1.00  0.00     0.011 C 
HETATM   16  C   UNL     1     -44.636 -54.733  14.148  1.00  0.00     0.001 C 
HETATM   17  C   UNL     1     -43.332 -54.242  14.810  1.00  0.00     0.011 C 
ENDBRANCH  11  14
ENDBRANCH   1   7
BRANCH   4  18
HETATM   18  C   UNL     1     -40.497 -46.701  11.075  1.00  0.00     0.136 C 
BRANCH  18  19
HETATM   19  C   UNL     1     -41.868 -46.103  10.855  1.00  0.00    -0.003 A 
HETATM   20  C   UNL     1     -42.090 -44.621  11.097  1.00  0.00     0.014 A 
HETATM   21  C   UNL     1     -42.558 -45.618  12.120  1.00  0.00     0.014 A 
BRANCH  19  22
HETATM   22  C   UNL     1     -42.660 -46.776   9.747  1.00  0.00     0.175 C 
BRANCH  22  23
HETATM   23  O   UNL     1     -42.624 -46.035   8.537  1.00  0.00    -0.400 OA
HETATM   24  H   UNL     1     -41.755 -45.601   8.491  1.00  0.00     0.209 HD
ENDBRANCH  22  23
ENDBRANCH  19  22
ENDBRANCH  18  19
ENDBRANCH   4  18
TORSDOF 6
ENDMDL
MODEL 7
REMARK VINA RESULT:      -5.5      3.139      4.017
REMARK  6 active torsions:
REMARK  status: ('A' for Active; 'I' for Inactive)
REMARK    1  A    between atoms: C_5  and  C_18 
REMARK    2  A    between atoms: C_7  and  N_8 
REMARK       I    between atoms: N_8  and  C_9 
REMARK       I    between atoms: C_9  and  N_11 
REMARK    3  A    between atoms: N_11  and  C_12 
REMARK    4  A    between atoms: C_12  and  C_13 
REMARK    5  A    between atoms: C_13  and  C_14 
REMARK    6  A    between atoms: C_14  and  O_15 
ROOT
HETATM    1  N   UNL     1     -41.886 -50.106  11.790  1.00  0.00    -0.293 N 
HETATM    2  C   UNL     1     -41.099 -49.001  12.211  1.00  0.00     0.321 C 
HETATM    3  O   UNL     1     -40.939 -48.706  13.383  1.00  0.00    -0.247 OA
HETATM    4  N   UNL     1     -40.572 -48.330  11.151  1.00  0.00    -0.342 N 
HETATM    5  H   UNL     1     -42.003 -50.280  10.805  1.00  0.00     0.172 HD
HETATM    6  H   UNL     1     -40.750 -48.595  10.197  1.00  0.00     0.164 HD
ENDROOT
BRANCH   1   7
HETATM    7  C   UNL     1     -42.503 -50.968  12.696  1.00  0.00     0.127 A 
HETATM    8  N   UNL     1     -41.969 -52.089  13.296  1.00  0.00    -0.281 N 
HETATM    9  C   UNL     1     -40.653 -52.646  13.094  1.00  0.00     0.179 C 
HETATM   10  N   UNL     1     -42.816 -52.694  14.160  1.00  0.00    -0.301 N 
HETATM   11  C   UNL     1     -43.922 -51.950  14.086  1.00  0.00     0.034 A 
ATOM     12  HN  UNL     1     -42.650 -53.521  14.732  1.00  0.00     0.187 HD
HETATM   13  C   UNL     1     -43.781 -50.876  13.196  1.00  0.00     0.077 A 
BRANCH  11  14
HETATM   14  C   UNL     1     -45.214 -52.152  14.857  1.00  0.00     0.037 C 
HETATM   15  C   UNL     1     -46.484 -51.613  14.139  1.00  0.00     0.011 C 
HETATM   16  C   UNL     1     -47.014 -51.241  15.536  1.00  0.00     0.001 C 
HETATM   17  C   UNL     1     -45.537 -51.109  15.958  1.00  0.00     0.011 C 
ENDBRANCH  11  14
ENDBRANCH   1   7
BRANCH   4  18
HETATM   18  C   UNL     1     -39.757 -47.162  11.387  1.00  0.00     0.136 C 
BRANCH  18  19
HETATM   19  C   UNL     1     -40.421 -45.922  10.834  1.00  0.00    -0.003 A 
HETATM   20  C   UNL     1     -39.579 -44.859  10.151  1.00  0.00     0.014 A 
HETATM   21  C   UNL     1     -40.061 -44.634  11.557  1.00  0.00     0.014 A 
BRANCH  19  22
HETATM   22  C   UNL     1     -41.831 -46.157  10.321  1.00  0.00     0.175 C 
BRANCH  22  23
HETATM   23  O   UNL     1     -41.986 -45.750   8.970  1.00  0.00    -0.400 OA
HETATM   24  H   UNL     1     -42.481 -46.449   8.513  1.00  0.00     0.209 HD
ENDBRANCH  22  23
ENDBRANCH  19  22
ENDBRANCH  18  19
ENDBRANCH   4  18
TORSDOF 6
ENDMDL
MODEL 8
REMARK VINA RESULT:      -5.5      4.308      5.857
REMARK  6 active torsions:
REMARK  status: ('A' for Active; 'I' for Inactive)
REMARK    1  A    between atoms: C_5  and  C_18 
REMARK    2  A    between atoms: C_7  and  N_8 
REMARK       I    between atoms: N_8  and  C_9 
REMARK       I    between atoms: C_9  and  N_11 
REMARK    3  A    between atoms: N_11  and  C_12 
REMARK    4  A    between atoms: C_12  and  C_13 
REMARK    5  A    between atoms: C_13  and  C_14 
REMARK    6  A    between atoms: C_14  and  O_15 
ROOT
HETATM    1  N   UNL     1     -41.869 -52.590  12.734  1.00  0.00    -0.293 N 
HETATM    2  C   UNL     1     -42.933 -52.812  13.648  1.00  0.00     0.321 C 
HETATM    3  O   UNL     1     -42.794 -52.750  14.858  1.00  0.00    -0.247 OA
HETATM    4  N   UNL     1     -44.094 -53.106  13.002  1.00  0.00    -0.342 N 
HETATM    5  H   UNL     1     -42.041 -52.684  11.747  1.00  0.00     0.172 HD
HETATM    6  H   UNL     1     -44.157 -53.170  12.000  1.00  0.00     0.164 HD
ENDROOT
BRANCH   1   7
HETATM    7  C   UNL     1     -40.587 -52.238  13.156  1.00  0.00     0.127 A 
HETATM    8  N   UNL     1     -39.604 -53.064  13.659  1.00  0.00    -0.281 N 
HETATM    9  C   UNL     1     -39.694 -54.485  13.894  1.00  0.00     0.179 C 
HETATM   10  N   UNL     1     -38.451 -52.419  13.945  1.00  0.00    -0.301 N 
HETATM   11  C   UNL     1     -38.719 -51.147  13.638  1.00  0.00     0.034 A 
ATOM     12  HN  UNL     1     -37.582 -52.810  14.308  1.00  0.00     0.187 HD
HETATM   13  C   UNL     1     -40.024 -50.984  13.150  1.00  0.00     0.077 A 
BRANCH  11  14
HETATM   14  C   UNL     1     -37.778 -49.962  13.746  1.00  0.00     0.037 C 
HETATM   15  C   UNL     1     -37.823 -49.227  15.116  1.00  0.00     0.011 C 
HETATM   16  C   UNL     1     -37.580 -47.924  14.330  1.00  0.00     0.001 C 
HETATM   17  C   UNL     1     -38.274 -48.622  13.143  1.00  0.00     0.011 C 
ENDBRANCH  11  14
ENDBRANCH   1   7
BRANCH   4  18
HETATM   18  C   UNL     1     -45.282 -53.383  13.774  1.00  0.00     0.136 C 
BRANCH  18  19
HETATM   19  C   UNL     1     -46.152 -52.152  13.884  1.00  0.00    -0.003 A 
HETATM   20  C   UNL     1     -45.928 -51.171  15.021  1.00  0.00     0.014 A 
HETATM   21  C   UNL     1     -47.080 -52.136  15.088  1.00  0.00     0.014 A 
BRANCH  19  22
HETATM   22  C   UNL     1     -46.609 -51.602  12.543  1.00  0.00     0.175 C 
BRANCH  22  23
HETATM   23  O   UNL     1     -46.576 -52.586  11.521  1.00  0.00    -0.400 OA
HETATM   24  H   UNL     1     -46.756 -53.444  11.941  1.00  0.00     0.209 HD
ENDBRANCH  22  23
ENDBRANCH  19  22
ENDBRANCH  18  19
ENDBRANCH   4  18
TORSDOF 6
ENDMDL
MODEL 9
REMARK VINA RESULT:      -5.3      3.554      4.321
REMARK  6 active torsions:
REMARK  status: ('A' for Active; 'I' for Inactive)
REMARK    1  A    between atoms: C_5  and  C_18 
REMARK    2  A    between atoms: C_7  and  N_8 
REMARK       I    between atoms: N_8  and  C_9 
REMARK       I    between atoms: C_9  and  N_11 
REMARK    3  A    between atoms: N_11  and  C_12 
REMARK    4  A    between atoms: C_12  and  C_13 
REMARK    5  A    between atoms: C_13  and  C_14 
REMARK    6  A    between atoms: C_14  and  O_15 
ROOT
HETATM    1  N   UNL     1     -42.050 -48.299  13.416  1.00  0.00    -0.293 N 
HETATM    2  C   UNL     1     -42.301 -47.201  12.551  1.00  0.00     0.321 C 
HETATM    3  O   UNL     1     -42.984 -47.290  11.544  1.00  0.00    -0.247 OA
HETATM    4  N   UNL     1     -41.680 -46.071  12.984  1.00  0.00    -0.342 N 
HETATM    5  H   UNL     1     -41.454 -48.169  14.216  1.00  0.00     0.172 HD
HETATM    6  H   UNL     1     -41.104 -46.049  13.809  1.00  0.00     0.164 HD
ENDROOT
BRANCH   1   7
HETATM    7  C   UNL     1     -42.609 -49.559  13.200  1.00  0.00     0.127 A 
HETATM    8  N   UNL     1     -42.090 -50.599  12.458  1.00  0.00    -0.281 N 
HETATM    9  C   UNL     1     -40.859 -50.606  11.704  1.00  0.00     0.179 C 
HETATM   10  N   UNL     1     -42.862 -51.710  12.474  1.00  0.00    -0.301 N 
HETATM   11  C   UNL     1     -43.906 -51.355  13.226  1.00  0.00     0.034 A 
ATOM     12  HN  UNL     1     -42.687 -52.606  12.020  1.00  0.00     0.187 HD
HETATM   13  C   UNL     1     -43.799 -50.038  13.695  1.00  0.00     0.077 A 
BRANCH  11  14
HETATM   14  C   UNL     1     -45.097 -52.217  13.602  1.00  0.00     0.037 C 
HETATM   15  C   UNL     1     -46.456 -51.460  13.633  1.00  0.00     0.011 C 
HETATM   16  C   UNL     1     -46.840 -52.370  14.815  1.00  0.00     0.001 C 
HETATM   17  C   UNL     1     -45.330 -52.459  15.116  1.00  0.00     0.011 C 
ENDBRANCH  11  14
ENDBRANCH   1   7
BRANCH   4  18
HETATM   18  C   UNL     1     -41.806 -44.855  12.215  1.00  0.00     0.136 C 
BRANCH  18  19
HETATM   19  C   UNL     1     -40.456 -44.389  11.721  1.00  0.00    -0.003 A 
HETATM   20  C   UNL     1     -39.374 -44.021  12.721  1.00  0.00     0.014 A 
HETATM   21  C   UNL     1     -40.139 -42.933  12.021  1.00  0.00     0.014 A 
BRANCH  19  22
HETATM   22  C   UNL     1     -40.032 -45.021  10.406  1.00  0.00     0.175 C 
BRANCH  22  23
HETATM   23  O   UNL     1     -41.116 -45.649   9.739  1.00  0.00    -0.400 OA
HETATM   24  H   UNL     1     -41.101 -46.588   9.988  1.00  0.00     0.209 HD
ENDBRANCH  22  23
ENDBRANCH  19  22
ENDBRANCH  18  19
ENDBRANCH   4  18
TORSDOF 6
ENDMDL
