MODEL 1
REMARK VINA RESULT:      -6.0      0.000      0.000
REMARK  5 active torsions:
REMARK  status: ('A' for Active; 'I' for Inactive)
REMARK    1  A    between atoms: C_2  and  N_3 
REMARK    2  A    between atoms: C_5  and  C_9 
REMARK       I    between atoms: C_9  and  N_11 
REMARK    3  A    between atoms: N_11  and  C_12 
REMARK    4  A    between atoms: C_12  and  C_13 
REMARK    5  A    between atoms: C_13  and  C_14 
ROOT
HETATM    1  C   UNL     1     -42.354 -52.258  12.225  1.00  0.00     0.223 C 
HETATM    2  O   UNL     1     -41.185 -52.492  11.945  1.00  0.00    -0.273 OA
HETATM    3  N   UNL     1     -42.822 -50.968  12.387  1.00  0.00    -0.360 N 
HETATM    4  H   UNL     1     -43.815 -50.802  12.483  1.00  0.00     0.162 HD
ENDROOT
BRANCH   3   5
HETATM    5  C   UNL     1     -41.946 -49.847  12.063  1.00  0.00     0.128 C 
BRANCH   5   6
HETATM    6  C   UNL     1     -42.613 -48.485  12.236  1.00  0.00     0.077 C 
BRANCH   6   7
HETATM    7  C   UNL     1     -43.166 -47.975  10.943  1.00  0.00     0.018 A 
HETATM    8  C   UNL     1     -42.445 -47.452   9.887  1.00  0.00     0.076 A 
HETATM    9  S   UNL     1     -43.499 -47.022   8.608  1.00  0.00    -0.087 SA
HETATM   10  C   UNL     1     -44.836 -47.556   9.544  1.00  0.00     0.046 A 
HETATM   11  C   UNL     1     -46.220 -47.476   9.001  1.00  0.00     0.076 C 
HETATM   12  N   UNL     1     -44.536 -48.028  10.737  1.00  0.00    -0.357 N 
ATOM     13  HN  UNL     1     -45.214 -48.381  11.412  1.00  0.00     0.166 HD
ENDBRANCH   6   7
ENDBRANCH   5   6
ENDBRANCH   3   5
BRANCH   1  14
HETATM   14  C   UNL     1     -43.372 -53.353  12.511  1.00  0.00     0.104 A 
HETATM   15  C   UNL     1     -44.751 -52.761  12.810  1.00  0.00     0.140 A 
HETATM   16  N   UNL     1     -45.167 -53.333  14.065  1.00  0.00    -0.352 N 
HETATM   17  C   UNL     1     -44.230 -54.185  14.610  1.00  0.00     0.220 A 
HETATM   18  C   UNL     1     -43.014 -54.203  13.728  1.00  0.00     0.118 A 
HETATM   19  O   UNL     1     -44.331 -54.808  15.656  1.00  0.00    -0.273 OA
BRANCH  16  20
HETATM   20  C   UNL     1     -46.288 -52.798  14.823  1.00  0.00     0.121 C 
HETATM   21  C   UNL     1     -46.710 -51.411  14.378  1.00  0.00     0.026 C 
ENDBRANCH  16  20
ENDBRANCH   1  14
TORSDOF 5
ENDMDL
MODEL 2
REMARK VINA RESULT:      -5.9      1.605      1.904
REMARK  5 active torsions:
REMARK  status: ('A' for Active; 'I' for Inactive)
REMARK    1  A    between atoms: C_2  and  N_3 
REMARK    2  A    between atoms: C_5  and  C_9 
REMARK       I    between atoms: C_9  and  N_11 
REMARK    3  A    between atoms: N_11  and  C_12 
REMARK    4  A    between atoms: C_12  and  C_13 
REMARK    5  A    between atoms: C_13  and  C_14 
ROOT
HETATM    1  C   UNL     1     -42.429 -51.904  12.812  1.00  0.00     0.223 C 
HETATM    2  O   UNL     1     -42.344 -51.379  13.914  1.00  0.00    -0.273 OA
HETATM    3  N   UNL     1     -41.510 -51.655  11.811  1.00  0.00    -0.360 N 
HETATM    4  H   UNL     1     -41.529 -52.205  10.962  1.00  0.00     0.162 HD
ENDROOT
BRANCH   3   5
HETATM    5  C   UNL     1     -40.317 -50.872  12.118  1.00  0.00     0.128 C 
BRANCH   5   6
HETATM    6  C   UNL     1     -40.052 -49.750  11.119  1.00  0.00     0.077 C 
BRANCH   6   7
HETATM    7  C   UNL     1     -41.224 -48.827  11.005  1.00  0.00     0.018 A 
HETATM    8  C   UNL     1     -41.881 -48.197  12.043  1.00  0.00     0.076 A 
HETATM    9  S   UNL     1     -43.148 -47.218  11.435  1.00  0.00    -0.087 SA
HETATM   10  C   UNL     1     -42.738 -47.702   9.838  1.00  0.00     0.046 A 
HETATM   11  C   UNL     1     -43.502 -47.181   8.671  1.00  0.00     0.076 C 
HETATM   12  N   UNL     1     -41.725 -48.539   9.745  1.00  0.00    -0.357 N 
ATOM     13  HN  UNL     1     -41.362 -48.920   8.872  1.00  0.00     0.166 HD
ENDBRANCH   6   7
ENDBRANCH   5   6
ENDBRANCH   3   5
BRANCH   1  14
HETATM   14  C   UNL     1     -43.593 -52.799  12.407  1.00  0.00     0.104 A 
HETATM   15  C   UNL     1     -44.929 -52.203  12.853  1.00  0.00     0.140 A 
HETATM   16  N   UNL     1     -45.601 -53.239  13.595  1.00  0.00    -0.352 N 
HETATM   17  C   UNL     1     -44.862 -54.399  13.697  1.00  0.00     0.220 A 
HETATM   18  C   UNL     1     -43.529 -54.189  13.037  1.00  0.00     0.118 A 
HETATM   19  O   UNL     1     -45.196 -55.430  14.260  1.00  0.00    -0.273 OA
BRANCH  16  20
HETATM   20  C   UNL     1     -46.764 -52.965  14.424  1.00  0.00     0.121 C 
HETATM   21  C   UNL     1     -46.859 -51.519  14.871  1.00  0.00     0.026 C 
ENDBRANCH  16  20
ENDBRANCH   1  14
TORSDOF 5
ENDMDL
MODEL 3
REMARK VINA RESULT:      -5.7      3.444      7.162
REMARK  5 active torsions:
REMARK  status: ('A' for Active; 'I' for Inactive)
REMARK    1  A    between atoms: C_2  and  N_3 
REMARK    2  A    between atoms: C_5  and  C_9 
REMARK       I    between atoms: C_9  and  N_11 
REMARK    3  A    between atoms: N_11  and  C_12 
REMARK    4  A    between atoms: C_12  and  C_13 
REMARK    5  A    between atoms: C_13  and  C_14 
ROOT
HETATM    1  C   UNL     1     -42.035 -49.052  11.498  1.00  0.00     0.223 C 
HETATM    2  O   UNL     1     -42.925 -48.858  12.317  1.00  0.00    -0.273 OA
HETATM    3  N   UNL     1     -41.188 -50.140  11.583  1.00  0.00    -0.360 N 
HETATM    4  H   UNL     1     -40.554 -50.345  10.822  1.00  0.00     0.162 HD
ENDROOT
BRANCH   3   5
HETATM    5  C   UNL     1     -41.455 -51.174  12.577  1.00  0.00     0.128 C 
BRANCH   5   6
HETATM    6  C   UNL     1     -42.028 -52.457  11.981  1.00  0.00     0.077 C 
BRANCH   6   7
HETATM    7  C   UNL     1     -43.356 -52.796  12.580  1.00  0.00     0.018 A 
HETATM    8  C   UNL     1     -43.803 -54.052  12.940  1.00  0.00     0.076 A 
HETATM    9  S   UNL     1     -45.377 -53.952  13.607  1.00  0.00    -0.087 SA
HETATM   10  C   UNL     1     -45.357 -52.251  13.368  1.00  0.00     0.046 A 
HETATM   11  C   UNL     1     -46.525 -51.418  13.766  1.00  0.00     0.076 C 
HETATM   12  N   UNL     1     -44.256 -51.771  12.828  1.00  0.00    -0.357 N 
ATOM     13  HN  UNL     1     -44.090 -50.786  12.620  1.00  0.00     0.166 HD
ENDBRANCH   6   7
ENDBRANCH   5   6
ENDBRANCH   3   5
BRANCH   1  14
HETATM   14  C   UNL     1     -41.715 -48.074  10.375  1.00  0.00     0.104 A 
HETATM   15  C   UNL     1     -40.867 -46.907  10.882  1.00  0.00     0.140 A 
HETATM   16  N   UNL     1     -41.554 -45.708  10.476  1.00  0.00    -0.352 N 
HETATM   17  C   UNL     1     -42.730 -45.959   9.802  1.00  0.00     0.220 A 
HETATM   18  C   UNL     1     -42.960 -47.443   9.756  1.00  0.00     0.118 A 
HETATM   19  O   UNL     1     -43.498 -45.129   9.340  1.00  0.00    -0.273 OA
BRANCH  16  20
HETATM   20  C   UNL     1     -41.215 -44.402  11.020  1.00  0.00     0.121 C 
HETATM   21  C   UNL     1     -39.908 -44.389  11.788  1.00  0.00     0.026 C 
ENDBRANCH  16  20
ENDBRANCH   1  14
TORSDOF 5
ENDMDL
MODEL 4
REMARK VINA RESULT:      -5.5      2.627      3.062
REMARK  5 active torsions:
REMARK  status: ('A' for Active; 'I' for Inactive)
REMARK    1  A    between atoms: C_2  and  N_3 
REMARK    2  A    between atoms: C_5  and  C_9 
REMARK       I    between atoms: C_9  and  N_11 
REMARK    3  A    between atoms: N_11  and  C_12 
REMARK    4  A    between atoms: C_12  and  C_13 
REMARK    5  A    between atoms: C_13  and  C_14 
ROOT
HETATM    1  C   UNL     1     -41.684 -51.981  12.709  1.00  0.00     0.223 C 
HETATM    2  O   UNL     1     -41.698 -51.290  13.720  1.00  0.00    -0.273 OA
HETATM    3  N   UNL     1     -41.155 -51.522  11.518  1.00  0.00    -0.360 N 
HETATM    4  H   UNL     1     -41.035 -52.160  10.742  1.00  0.00     0.162 HD
ENDROOT
BRANCH   3   5
HETATM    5  C   UNL     1     -40.451 -50.244  11.497  1.00  0.00     0.128 C 
BRANCH   5   6
HETATM    6  C   UNL     1     -41.312 -49.083  11.008  1.00  0.00     0.077 C 
BRANCH   6   7
HETATM    7  C   UNL     1     -40.742 -47.763  11.421  1.00  0.00     0.018 A 
HETATM    8  C   UNL     1     -40.408 -47.375  12.704  1.00  0.00     0.076 A 
HETATM    9  S   UNL     1     -39.767 -45.787  12.693  1.00  0.00    -0.087 SA
HETATM   10  C   UNL     1     -39.982 -45.725  10.989  1.00  0.00     0.046 A 
HETATM   11  C   UNL     1     -39.593 -44.509  10.222  1.00  0.00     0.076 C 
HETATM   12  N   UNL     1     -40.496 -46.809  10.447  1.00  0.00    -0.357 N 
ATOM     13  HN  UNL     1     -40.687 -46.929   9.452  1.00  0.00     0.166 HD
ENDBRANCH   6   7
ENDBRANCH   5   6
ENDBRANCH   3   5
BRANCH   1  14
HETATM   14  C   UNL     1     -42.324 -53.361  12.639  1.00  0.00     0.104 A 
HETATM   15  C   UNL     1     -43.844 -53.259  12.509  1.00  0.00     0.140 A 
HETATM   16  N   UNL     1     -44.391 -54.080  13.558  1.00  0.00    -0.352 N 
HETATM   17  C   UNL     1     -43.424 -54.667  14.347  1.00  0.00     0.220 A 
HETATM   18  C   UNL     1     -42.071 -54.204  13.887  1.00  0.00     0.118 A 
HETATM   19  O   UNL     1     -43.610 -55.415  15.295  1.00  0.00    -0.273 OA
BRANCH  16  20
HETATM   20  C   UNL     1     -45.792 -54.009  13.943  1.00  0.00     0.121 C 
HETATM   21  C   UNL     1     -46.386 -52.621  13.809  1.00  0.00     0.026 C 
ENDBRANCH  16  20
ENDBRANCH   1  14
TORSDOF 5
ENDMDL
MODEL 5
REMARK VINA RESULT:      -5.4      3.701      4.944
REMARK  5 active torsions:
REMARK  status: ('A' for Active; 'I' for Inactive)
REMARK    1  A    between atoms: C_2  and  N_3 
REMARK    2  A    between atoms: C_5  and  C_9 
REMARK       I    between atoms: C_9  and  N_11 
REMARK    3  A    between atoms: N_11  and  C_12 
REMARK    4  A    between atoms: C_12  and  C_13 
REMARK    5  A    between atoms: C_13  and  C_14 
ROOT
HETATM    1  C   UNL     1     -42.898 -53.347  12.769  1.00  0.00     0.223 C 
HETATM    2  O   UNL     1     -42.200 -53.689  13.715  1.00  0.00    -0.273 OA
HETATM    3  N   UNL     1     -42.405 -52.564  11.743  1.00  0.00    -0.360 N 
HETATM    4  H   UNL     1     -42.964 -52.412  10.913  1.00  0.00     0.162 HD
ENDROOT
BRANCH   3   5
HETATM    5  C   UNL     1     -40.978 -52.266  11.697  1.00  0.00     0.128 C 
BRANCH   5   6
HETATM    6  C   UNL     1     -40.633 -50.863  12.188  1.00  0.00     0.077 C 
BRANCH   6   7
HETATM    7  C   UNL     1     -39.685 -50.904  13.345  1.00  0.00     0.018 A 
HETATM    8  C   UNL     1     -38.665 -50.012  13.607  1.00  0.00     0.076 A 
HETATM    9  S   UNL     1     -37.858 -50.443  15.055  1.00  0.00    -0.087 SA
HETATM   10  C   UNL     1     -38.917 -51.785  15.230  1.00  0.00     0.046 A 
HETATM   11  C   UNL     1     -38.787 -52.703  16.395  1.00  0.00     0.076 C 
HETATM   12  N   UNL     1     -39.819 -51.918  14.281  1.00  0.00    -0.357 N 
ATOM     13  HN  UNL     1     -40.517 -52.662  14.239  1.00  0.00     0.166 HD
ENDBRANCH   6   7
ENDBRANCH   5   6
ENDBRANCH   3   5
BRANCH   1  14
HETATM   14  C   UNL     1     -44.384 -53.666  12.678  1.00  0.00     0.104 A 
HETATM   15  C   UNL     1     -45.235 -52.442  13.020  1.00  0.00     0.140 A 
HETATM   16  N   UNL     1     -46.154 -52.868  14.043  1.00  0.00    -0.352 N 
HETATM   17  C   UNL     1     -45.984 -54.186  14.411  1.00  0.00     0.220 A 
HETATM   18  C   UNL     1     -44.823 -54.760  13.649  1.00  0.00     0.118 A 
HETATM   19  O   UNL     1     -46.633 -54.801  15.243  1.00  0.00    -0.273 OA
BRANCH  16  20
HETATM   20  C   UNL     1     -46.926 -51.919  14.830  1.00  0.00     0.121 C 
HETATM   21  C   UNL     1     -46.093 -51.146  15.833  1.00  0.00     0.026 C 
ENDBRANCH  16  20
ENDBRANCH   1  14
TORSDOF 5
ENDMDL
MODEL 6
REMARK VINA RESULT:      -5.4      3.886      4.909
REMARK  5 active torsions:
REMARK  status: ('A' for Active; 'I' for Inactive)
REMARK    1  A    between atoms: C_2  and  N_3 
REMARK    2  A    between atoms: C_5  and  C_9 
REMARK       I    between atoms: C_9  and  N_11 
REMARK    3  A    between atoms: N_11  and  C_12 
REMARK    4  A    between atoms: C_12  and  C_13 
REMARK    5  A    between atoms: C_13  and  C_14 
ROOT
HETATM    1  C   UNL     1     -41.390 -53.625  13.247  1.00  0.00     0.223 C 
HETATM    2  O   UNL     1     -40.993 -52.838  12.397  1.00  0.00    -0.273 OA
HETATM    3  N   UNL     1     -40.549 -54.140  14.215  1.00  0.00    -0.360 N 
HETATM    4  H   UNL     1     -40.933 -54.678  14.981  1.00  0.00     0.162 HD
ENDROOT
BRANCH   3   5
HETATM    5  C   UNL     1     -39.191 -53.618  14.330  1.00  0.00     0.128 C 
BRANCH   5   6
HETATM    6  C   UNL     1     -39.079 -52.418  15.267  1.00  0.00     0.077 C 
BRANCH   6   7
HETATM    7  C   UNL     1     -38.610 -51.197  14.541  1.00  0.00     0.018 A 
HETATM    8  C   UNL     1     -38.408 -49.943  15.082  1.00  0.00     0.076 A 
HETATM    9  S   UNL     1     -37.845 -48.863  13.878  1.00  0.00    -0.087 SA
HETATM   10  C   UNL     1     -37.911 -50.133  12.724  1.00  0.00     0.046 A 
HETATM   11  C   UNL     1     -37.515 -49.892  11.309  1.00  0.00     0.076 C 
HETATM   12  N   UNL     1     -38.325 -51.295  13.188  1.00  0.00    -0.357 N 
ATOM     13  HN  UNL     1     -38.421 -52.144  12.631  1.00  0.00     0.166 HD
ENDBRANCH   6   7
ENDBRANCH   5   6
ENDBRANCH   3   5
BRANCH   1  14
HETATM   14  C   UNL     1     -42.808 -54.179  13.266  1.00  0.00     0.104 A 
HETATM   15  C   UNL     1     -43.838 -53.073  13.034  1.00  0.00     0.140 A 
HETATM   16  N   UNL     1     -44.779 -53.170  14.120  1.00  0.00    -0.352 N 
HETATM   17  C   UNL     1     -44.471 -54.171  15.017  1.00  0.00     0.220 A 
HETATM   18  C   UNL     1     -43.183 -54.822  14.599  1.00  0.00     0.118 A 
HETATM   19  O   UNL     1     -45.104 -54.475  16.016  1.00  0.00    -0.273 OA
BRANCH  16  20
HETATM   20  C   UNL     1     -45.735 -52.112  14.409  1.00  0.00     0.121 C 
HETATM   21  C   UNL     1     -46.424 -51.566  13.174  1.00  0.00     0.026 C 
ENDBRANCH  16  20
ENDBRANCH   1  14
TORSDOF 5
ENDMDL
MODEL 7
REMARK VINA RESULT:      -5.3      1.704      2.335
REMARK  5 active torsions:
REMARK  status: ('A' for Active; 'I' for Inactive)
REMARK    1  A    between atoms: C_2  and  N_3 
REMARK    2  A    between atoms: C_5  and  C_9 
REMARK       I    between atoms: C_9  and  N_11 
REMARK    3  A    between atoms: N_11  and  C_12 
REMARK    4  A    between atoms: C_12  and  C_13 
REMARK    5  A    between atoms: C_13  and  C_14 
ROOT
HETATM    1  C   UNL     1     -41.806 -52.885  12.594  1.00  0.00     0.223 C 
HETATM    2  O   UNL     1     -40.618 -53.077  12.823  1.00  0.00    -0.273 OA
HETATM    3  N   UNL     1     -42.277 -51.660  12.160  1.00  0.00    -0.360 N 
HETATM    4  H   UNL     1     -43.236 -51.571  11.851  1.00  0.00     0.162 HD
ENDROOT
BRANCH   3   5
HETATM    5  C   UNL     1     -41.322 -50.613  11.812  1.00  0.00     0.128 C 
BRANCH   5   6
HETATM    6  C   UNL     1     -41.512 -49.326  12.610  1.00  0.00     0.077 C 
BRANCH   6   7
HETATM    7  C   UNL     1     -41.609 -48.133  11.713  1.00  0.00     0.018 A 
HETATM    8  C   UNL     1     -42.718 -47.725  10.999  1.00  0.00     0.076 A 
HETATM    9  S   UNL     1     -42.368 -46.291  10.131  1.00  0.00    -0.087 SA
HETATM   10  C   UNL     1     -40.770 -46.314  10.760  1.00  0.00     0.046 A 
HETATM   11  C   UNL     1     -39.797 -45.248  10.393  1.00  0.00     0.076 C 
HETATM   12  N   UNL     1     -40.496 -47.318  11.567  1.00  0.00    -0.357 N 
ATOM     13  HN  UNL     1     -39.596 -47.474  12.019  1.00  0.00     0.166 HD
ENDBRANCH   6   7
ENDBRANCH   5   6
ENDBRANCH   3   5
BRANCH   1  14
HETATM   14  C   UNL     1     -42.880 -53.932  12.852  1.00  0.00     0.104 A 
HETATM   15  C   UNL     1     -44.271 -53.394  12.513  1.00  0.00     0.140 A 
HETATM   16  N   UNL     1     -45.082 -53.619  13.681  1.00  0.00    -0.352 N 
HETATM   17  C   UNL     1     -44.388 -54.205  14.719  1.00  0.00     0.220 A 
HETATM   18  C   UNL     1     -42.951 -54.372  14.312  1.00  0.00     0.118 A 
HETATM   19  O   UNL     1     -44.834 -54.513  15.813  1.00  0.00    -0.273 OA
BRANCH  16  20
HETATM   20  C   UNL     1     -46.380 -52.984  13.854  1.00  0.00     0.121 C 
HETATM   21  C   UNL     1     -46.293 -51.493  14.113  1.00  0.00     0.026 C 
ENDBRANCH  16  20
ENDBRANCH   1  14
TORSDOF 5
ENDMDL
MODEL 8
REMARK VINA RESULT:      -5.1      3.348      4.224
REMARK  5 active torsions:
REMARK  status: ('A' for Active; 'I' for Inactive)
REMARK    1  A    between atoms: C_2  and  N_3 
REMARK    2  A    between atoms: C_5  and  C_9 
REMARK       I    between atoms: C_9  and  N_11 
REMARK    3  A    between atoms: N_11  and  C_12 
REMARK    4  A    between atoms: C_12  and  C_13 
REMARK    5  A    between atoms: C_13  and  C_14 
ROOT
HETATM    1  C   UNL     1     -41.129 -52.525  13.731  1.00  0.00     0.223 C 
HETATM    2  O   UNL     1     -41.494 -51.438  14.160  1.00  0.00    -0.273 OA
HETATM    3  N   UNL     1     -39.793 -52.871  13.660  1.00  0.00    -0.360 N 
HETATM    4  H   UNL     1     -39.530 -53.820  13.430  1.00  0.00     0.162 HD
ENDROOT
BRANCH   3   5
HETATM    5  C   UNL     1     -38.796 -51.988  14.257  1.00  0.00     0.128 C 
BRANCH   5   6
HETATM    6  C   UNL     1     -37.955 -51.236  13.230  1.00  0.00     0.077 C 
BRANCH   6   7
HETATM    7  C   UNL     1     -38.541 -49.896  12.915  1.00  0.00     0.018 A 
HETATM    8  C   UNL     1     -39.317 -49.572  11.819  1.00  0.00     0.076 A 
HETATM    9  S   UNL     1     -39.782 -47.926  11.890  1.00  0.00    -0.087 SA
HETATM   10  C   UNL     1     -38.919 -47.757  13.366  1.00  0.00     0.046 A 
HETATM   11  C   UNL     1     -38.886 -46.451  14.078  1.00  0.00     0.076 C 
HETATM   12  N   UNL     1     -38.317 -48.848  13.794  1.00  0.00    -0.357 N 
ATOM     13  HN  UNL     1     -37.764 -48.912  14.649  1.00  0.00     0.166 HD
ENDBRANCH   6   7
ENDBRANCH   5   6
ENDBRANCH   3   5
BRANCH   1  14
HETATM   14  C   UNL     1     -42.090 -53.553  13.151  1.00  0.00     0.104 A 
HETATM   15  C   UNL     1     -43.275 -52.875  12.462  1.00  0.00     0.140 A 
HETATM   16  N   UNL     1     -44.459 -53.462  13.035  1.00  0.00    -0.352 N 
HETATM   17  C   UNL     1     -44.184 -54.399  14.008  1.00  0.00     0.220 A 
HETATM   18  C   UNL     1     -42.697 -54.472  14.209  1.00  0.00     0.118 A 
HETATM   19  O   UNL     1     -44.997 -55.052  14.644  1.00  0.00    -0.273 OA
BRANCH  16  20
HETATM   20  C   UNL     1     -45.778 -52.876  12.850  1.00  0.00     0.121 C 
HETATM   21  C   UNL     1     -45.957 -51.552  13.566  1.00  0.00     0.026 C 
ENDBRANCH  16  20
ENDBRANCH   1  14
TORSDOF 5
ENDMDL
MODEL 9
REMARK VINA RESULT:      -5.0      3.244      4.811
REMARK  5 active torsions:
REMARK  status: ('A' for Active; 'I' for Inactive)
REMARK    1  A    between atoms: C_2  and  N_3 
REMARK    2  A    between atoms: C_5  and  C_9 
REMARK       I    between atoms: C_9  and  N_11 
REMARK    3  A    between atoms: N_11  and  C_12 
REMARK    4  A    between atoms: C_12  and  C_13 
REMARK    5  A    between atoms: C_13  and  C_14 
ROOT
HETATM    1  C   UNL     1     -42.509 -49.991  12.585  1.00  0.00     0.223 C 
HETATM    2  O   UNL     1     -42.792 -49.392  13.615  1.00  0.00    -0.273 OA
HETATM    3  N   UNL     1     -42.326 -49.334  11.384  1.00  0.00    -0.360 N 
HETATM    4  H   UNL     1     -41.962 -49.836  10.585  1.00  0.00     0.162 HD
ENDROOT
BRANCH   3   5
HETATM    5  C   UNL     1     -42.311 -47.875  11.366  1.00  0.00     0.128 C 
BRANCH   5   6
HETATM    6  C   UNL     1     -40.952 -47.285  11.000  1.00  0.00     0.077 C 
BRANCH   6   7
HETATM    7  C   UNL     1     -39.849 -47.912  11.793  1.00  0.00     0.018 A 
HETATM    8  C   UNL     1     -39.430 -47.546  13.057  1.00  0.00     0.076 A 
HETATM    9  S   UNL     1     -38.154 -48.563  13.575  1.00  0.00    -0.087 SA
HETATM   10  C   UNL     1     -38.244 -49.415  12.086  1.00  0.00     0.046 A 
HETATM   11  C   UNL     1     -37.331 -50.559  11.813  1.00  0.00     0.076 C 
HETATM   12  N   UNL     1     -39.161 -48.983  11.245  1.00  0.00    -0.357 N 
ATOM     13  HN  UNL     1     -39.338 -49.380  10.322  1.00  0.00     0.166 HD
ENDBRANCH   6   7
ENDBRANCH   5   6
ENDBRANCH   3   5
BRANCH   1  14
HETATM   14  C   UNL     1     -42.425 -51.510  12.506  1.00  0.00     0.104 A 
HETATM   15  C   UNL     1     -42.772 -52.154  13.849  1.00  0.00     0.140 A 
HETATM   16  N   UNL     1     -41.679 -53.038  14.162  1.00  0.00    -0.352 N 
HETATM   17  C   UNL     1     -40.680 -53.022  13.211  1.00  0.00     0.220 A 
HETATM   18  C   UNL     1     -41.029 -52.016  12.151  1.00  0.00     0.118 A 
HETATM   19  O   UNL     1     -39.651 -53.681  13.223  1.00  0.00    -0.273 OA
BRANCH  16  20
HETATM   20  C   UNL     1     -41.502 -53.607  15.489  1.00  0.00     0.121 C 
HETATM   21  C   UNL     1     -41.995 -55.035  15.604  1.00  0.00     0.026 C 
ENDBRANCH  16  20
ENDBRANCH   1  14
TORSDOF 5
ENDMDL
