MODEL 1
REMARK VINA RESULT:      -5.4      0.000      0.000
REMARK  5 active torsions:
REMARK  status: ('A' for Active; 'I' for Inactive)
REMARK    1  A    between atoms: CA_2  and  C_3 
REMARK    2  A    between atoms: CA_2  and  N_5 
REMARK    3  A    between atoms: C_3  and  O_4 
REMARK       I    between atoms: N_5  and  C_8 
REMARK    4  A    between atoms: C_8  and  C_10 
REMARK    5  A    between atoms: C_10  and  C_13 
ROOT
HETATM    1  C   UNK A   0     -42.134 -47.852  10.532  1.00  0.00     0.364 C 
HETATM    2  F   UNK A   0     -42.261 -48.192   9.206  1.00  0.00    -0.188 F 
HETATM    3  F   UNK A   0     -43.422 -47.913  11.016  1.00  0.00    -0.188 F 
ENDROOT
BRANCH   1   4
HETATM    4  C   UNK A   0     -41.240 -48.898  11.256  1.00  0.00     0.297 C 
ATOM      5  N   ALA A   1     -41.891 -50.051  11.668  1.00  0.00    -0.349 N 
ATOM      6  H   ALA A   1     -42.908 -50.088  11.604  1.00  0.00     0.163 HD
HETATM    7  O   UNK A   0     -40.028 -48.745  11.422  1.00  0.00    -0.266 OA
BRANCH   5   8
ATOM      8  CA  ALA A   1     -41.204 -51.126  12.373  1.00  0.00     0.104 C 
ATOM      9  CB  ALA A   1     -41.388 -50.979  13.884  1.00  0.00     0.034 C 
BRANCH   8  10
ATOM     10  C   ALA A   1     -41.690 -52.495  11.867  1.00  0.00     0.189 C 
BRANCH  10  11
ATOM     11  O   ALA A   1     -40.604 -53.306  11.422  1.00  0.00    -0.399 OA
ATOM     12  H   ALA A   1     -39.818 -52.735  11.355  1.00  0.00     0.209 HD
ENDBRANCH  10  11
ENDBRANCH   8  10
ENDBRANCH   5   8
ENDBRANCH   1   4
BRANCH   1  13
HETATM   13  C   UNK A   0     -41.519 -46.465  10.705  1.00  0.00     0.091 A 
HETATM   14  C   UNK A   0     -42.253 -45.456  11.332  1.00  0.00     0.032 A 
HETATM   15  C   UNK A   0     -41.695 -44.186  11.453  1.00  0.00     0.003 A 
HETATM   16  C   UNK A   0     -40.422 -43.952  10.951  1.00  0.00     0.017 A 
HETATM   17  C   UNK A   0     -39.753 -45.001  10.345  1.00  0.00     0.088 A 
HETATM   18  N   UNK A   0     -40.269 -46.242  10.206  1.00  0.00    -0.364 N 
ATOM     19  HN  UNK A   0     -39.744 -46.984   9.744  1.00  0.00     0.165 HD
ENDBRANCH   1  13
TORSDOF 5
ENDMDL
MODEL 2
REMARK VINA RESULT:      -5.4      5.456      7.853
REMARK  5 active torsions:
REMARK  status: ('A' for Active; 'I' for Inactive)
REMARK    1  A    between atoms: CA_2  and  C_3 
REMARK    2  A    between atoms: CA_2  and  N_5 
REMARK    3  A    between atoms: C_3  and  O_4 
REMARK       I    between atoms: N_5  and  C_8 
REMARK    4  A    between atoms: C_8  and  C_10 
REMARK    5  A    between atoms: C_10  and  C_13 
ROOT
HETATM    1  C   UNK A   0     -44.920 -54.483  14.197  1.00  0.00     0.364 C 
HETATM    2  F   UNK A   0     -45.743 -55.444  13.657  1.00  0.00    -0.188 F 
HETATM    3  F   UNK A   0     -43.996 -55.206  14.919  1.00  0.00    -0.188 F 
ENDROOT
BRANCH   1   4
HETATM    4  C   UNK A   0     -44.213 -53.701  13.056  1.00  0.00     0.297 C 
ATOM      5  N   ALA A   1     -43.072 -53.007  13.430  1.00  0.00    -0.349 N 
ATOM      6  H   ALA A   1     -42.847 -52.933  14.422  1.00  0.00     0.163 HD
HETATM    7  O   UNK A   0     -44.603 -53.720  11.886  1.00  0.00    -0.266 OA
BRANCH   5   8
ATOM      8  CA  ALA A   1     -42.297 -52.210  12.486  1.00  0.00     0.104 C 
ATOM      9  CB  ALA A   1     -42.410 -50.723  12.821  1.00  0.00     0.034 C 
BRANCH   8  10
ATOM     10  C   ALA A   1     -40.834 -52.683  12.460  1.00  0.00     0.189 C 
BRANCH  10  11
ATOM     11  O   ALA A   1     -40.553 -53.458  11.296  1.00  0.00    -0.399 OA
ATOM     12  H   ALA A   1     -41.402 -53.780  10.946  1.00  0.00     0.209 HD
ENDBRANCH  10  11
ENDBRANCH   8  10
ENDBRANCH   5   8
ENDBRANCH   1   4
BRANCH   1  13
HETATM   13  C   UNK A   0     -45.694 -53.500  15.071  1.00  0.00     0.091 A 
HETATM   14  C   UNK A   0     -46.438 -52.480  14.473  1.00  0.00     0.032 A 
HETATM   15  C   UNK A   0     -47.112 -51.569  15.282  1.00  0.00     0.003 A 
HETATM   16  C   UNK A   0     -47.032 -51.694  16.663  1.00  0.00     0.017 A 
HETATM   17  C   UNK A   0     -46.278 -52.732  17.183  1.00  0.00     0.088 A 
HETATM   18  N   UNK A   0     -45.607 -53.627  16.426  1.00  0.00    -0.364 N 
ATOM     19  HN  UNK A   0     -45.056 -54.372  16.853  1.00  0.00     0.165 HD
ENDBRANCH   1  13
TORSDOF 5
ENDMDL
MODEL 3
REMARK VINA RESULT:      -5.3      7.181      8.021
REMARK  5 active torsions:
REMARK  status: ('A' for Active; 'I' for Inactive)
REMARK    1  A    between atoms: CA_2  and  C_3 
REMARK    2  A    between atoms: CA_2  and  N_5 
REMARK    3  A    between atoms: C_3  and  O_4 
REMARK       I    between atoms: N_5  and  C_8 
REMARK    4  A    between atoms: C_8  and  C_10 
REMARK    5  A    between atoms: C_10  and  C_13 
ROOT
HETATM    1  C   UNK A   0     -44.824 -54.691  13.728  1.00  0.00     0.364 C 
HETATM    2  F   UNK A   0     -44.492 -54.450  12.415  1.00  0.00    -0.188 F 
HETATM    3  F   UNK A   0     -45.554 -55.857  13.677  1.00  0.00    -0.188 F 
ENDROOT
BRANCH   1   4
HETATM    4  C   UNK A   0     -43.531 -54.906  14.563  1.00  0.00     0.297 C 
ATOM      5  N   ALA A   1     -42.403 -54.253  14.088  1.00  0.00    -0.349 N 
ATOM      6  H   ALA A   1     -42.447 -53.801  13.176  1.00  0.00     0.163 HD
HETATM    7  O   UNK A   0     -43.503 -55.574  15.599  1.00  0.00    -0.266 OA
BRANCH   5   8
ATOM      8  CA  ALA A   1     -41.105 -54.359  14.744  1.00  0.00     0.104 C 
ATOM      9  CB  ALA A   1     -39.976 -54.241  13.720  1.00  0.00     0.034 C 
BRANCH   8  10
ATOM     10  C   ALA A   1     -40.980 -53.307  15.859  1.00  0.00     0.189 C 
BRANCH  10  11
ATOM     11  O   ALA A   1     -41.411 -53.822  17.118  1.00  0.00    -0.399 OA
ATOM     12  H   ALA A   1     -41.931 -53.127  17.558  1.00  0.00     0.209 HD
ENDBRANCH  10  11
ENDBRANCH   8  10
ENDBRANCH   5   8
ENDBRANCH   1   4
BRANCH   1  13
HETATM   13  C   UNK A   0     -45.622 -53.538  14.331  1.00  0.00     0.091 A 
HETATM   14  C   UNK A   0     -46.026 -52.476  13.519  1.00  0.00     0.032 A 
HETATM   15  C   UNK A   0     -46.723 -51.413  14.088  1.00  0.00     0.003 A 
HETATM   16  C   UNK A   0     -47.002 -51.433  15.448  1.00  0.00     0.017 A 
HETATM   17  C   UNK A   0     -46.573 -52.520  16.189  1.00  0.00     0.088 A 
HETATM   18  N   UNK A   0     -45.889 -53.562  15.669  1.00  0.00    -0.364 N 
ATOM     19  HN  UNK A   0     -45.584 -54.340  16.255  1.00  0.00     0.165 HD
ENDBRANCH   1  13
TORSDOF 5
ENDMDL
MODEL 4
REMARK VINA RESULT:      -5.2      4.141      7.119
REMARK  5 active torsions:
REMARK  status: ('A' for Active; 'I' for Inactive)
REMARK    1  A    between atoms: CA_2  and  C_3 
REMARK    2  A    between atoms: CA_2  and  N_5 
REMARK    3  A    between atoms: C_3  and  O_4 
REMARK       I    between atoms: N_5  and  C_8 
REMARK    4  A    between atoms: C_8  and  C_10 
REMARK    5  A    between atoms: C_10  and  C_13 
ROOT
HETATM    1  C   UNK A   0     -41.014 -53.624  13.194  1.00  0.00     0.364 C 
HETATM    2  F   UNK A   0     -40.529 -54.119  12.006  1.00  0.00    -0.188 F 
HETATM    3  F   UNK A   0     -40.332 -54.336  14.154  1.00  0.00    -0.188 F 
ENDROOT
BRANCH   1   4
HETATM    4  C   UNK A   0     -40.673 -52.112  13.306  1.00  0.00     0.297 C 
ATOM      5  N   ALA A   1     -39.809 -51.624  12.336  1.00  0.00    -0.349 N 
ATOM      6  H   ALA A   1     -39.350 -52.287  11.712  1.00  0.00     0.163 HD
HETATM    7  O   UNK A   0     -41.161 -51.374  14.166  1.00  0.00    -0.266 OA
BRANCH   5   8
ATOM      8  CA  ALA A   1     -39.375 -50.233  12.304  1.00  0.00     0.104 C 
ATOM      9  CB  ALA A   1     -37.924 -50.134  11.832  1.00  0.00     0.034 C 
BRANCH   8  10
ATOM     10  C   ALA A   1     -40.322 -49.396  11.427  1.00  0.00     0.189 C 
BRANCH  10  11
ATOM     11  O   ALA A   1     -40.470 -49.961  10.126  1.00  0.00    -0.399 OA
ATOM     12  H   ALA A   1     -41.368 -50.332  10.067  1.00  0.00     0.209 HD
ENDBRANCH  10  11
ENDBRANCH   8  10
ENDBRANCH   5   8
ENDBRANCH   1   4
BRANCH   1  13
HETATM   13  C   UNK A   0     -42.525 -53.804  13.307  1.00  0.00     0.091 A 
HETATM   14  C   UNK A   0     -43.052 -54.620  14.312  1.00  0.00     0.032 A 
HETATM   15  C   UNK A   0     -44.430 -54.804  14.383  1.00  0.00     0.003 A 
HETATM   16  C   UNK A   0     -45.250 -54.172  13.459  1.00  0.00     0.017 A 
HETATM   17  C   UNK A   0     -44.658 -53.376  12.495  1.00  0.00     0.088 A 
HETATM   18  N   UNK A   0     -43.325 -53.182  12.393  1.00  0.00    -0.364 N 
ATOM     19  HN  UNK A   0     -42.930 -52.593  11.660  1.00  0.00     0.165 HD
ENDBRANCH   1  13
TORSDOF 5
ENDMDL
MODEL 5
REMARK VINA RESULT:      -5.2      5.815      7.519
REMARK  5 active torsions:
REMARK  status: ('A' for Active; 'I' for Inactive)
REMARK    1  A    between atoms: CA_2  and  C_3 
REMARK    2  A    between atoms: CA_2  and  N_5 
REMARK    3  A    between atoms: C_3  and  O_4 
REMARK       I    between atoms: N_5  and  C_8 
REMARK    4  A    between atoms: C_8  and  C_10 
REMARK    5  A    between atoms: C_10  and  C_13 
ROOT
HETATM    1  C   UNK A   0     -44.219 -54.342  13.845  1.00  0.00     0.364 C 
HETATM    2  F   UNK A   0     -44.121 -54.336  12.473  1.00  0.00    -0.188 F 
HETATM    3  F   UNK A   0     -44.567 -55.640  14.146  1.00  0.00    -0.188 F 
ENDROOT
BRANCH   1   4
HETATM    4  C   UNK A   0     -42.837 -54.000  14.468  1.00  0.00     0.297 C 
ATOM      5  N   ALA A   1     -41.854 -53.624  13.564  1.00  0.00    -0.349 N 
ATOM      6  H   ALA A   1     -42.042 -53.726  12.567  1.00  0.00     0.163 HD
HETATM    7  O   UNK A   0     -42.625 -54.017  15.683  1.00  0.00    -0.266 OA
BRANCH   5   8
ATOM      8  CA  ALA A   1     -40.498 -53.285  13.980  1.00  0.00     0.104 C 
ATOM      9  CB  ALA A   1     -39.578 -54.498  13.850  1.00  0.00     0.034 C 
BRANCH   8  10
ATOM     10  C   ALA A   1     -39.977 -52.081  13.177  1.00  0.00     0.189 C 
BRANCH  10  11
ATOM     11  O   ALA A   1     -40.182 -52.255  11.776  1.00  0.00    -0.399 OA
ATOM     12  H   ALA A   1     -40.769 -51.540  11.473  1.00  0.00     0.209 HD
ENDBRANCH  10  11
ENDBRANCH   8  10
ENDBRANCH   5   8
ENDBRANCH   1   4
BRANCH   1  13
HETATM   13  C   UNK A   0     -45.254 -53.337  14.343  1.00  0.00     0.091 A 
HETATM   14  C   UNK A   0     -45.732 -52.349  13.479  1.00  0.00     0.032 A 
HETATM   15  C   UNK A   0     -46.650 -51.417  13.956  1.00  0.00     0.003 A 
HETATM   16  C   UNK A   0     -47.071 -51.491  15.277  1.00  0.00     0.017 A 
HETATM   17  C   UNK A   0     -46.556 -52.498  16.073  1.00  0.00     0.088 A 
HETATM   18  N   UNK A   0     -45.659 -53.413  15.643  1.00  0.00    -0.364 N 
ATOM     19  HN  UNK A   0     -45.299 -54.135  16.268  1.00  0.00     0.165 HD
ENDBRANCH   1  13
TORSDOF 5
ENDMDL
MODEL 6
REMARK VINA RESULT:      -5.1      6.968      7.599
REMARK  5 active torsions:
REMARK  status: ('A' for Active; 'I' for Inactive)
REMARK    1  A    between atoms: CA_2  and  C_3 
REMARK    2  A    between atoms: CA_2  and  N_5 
REMARK    3  A    between atoms: C_3  and  O_4 
REMARK       I    between atoms: N_5  and  C_8 
REMARK    4  A    between atoms: C_8  and  C_10 
REMARK    5  A    between atoms: C_10  and  C_13 
ROOT
HETATM    1  C   UNK A   0     -43.965 -54.165  13.997  1.00  0.00     0.364 C 
HETATM    2  F   UNK A   0     -43.836 -54.206  12.629  1.00  0.00    -0.188 F 
HETATM    3  F   UNK A   0     -44.228 -55.471  14.345  1.00  0.00    -0.188 F 
ENDROOT
BRANCH   1   4
HETATM    4  C   UNK A   0     -42.625 -53.701  14.634  1.00  0.00     0.297 C 
ATOM      5  N   ALA A   1     -41.591 -54.624  14.578  1.00  0.00    -0.349 N 
ATOM      6  H   ALA A   1     -41.797 -55.571  14.263  1.00  0.00     0.163 HD
HETATM    7  O   UNK A   0     -42.465 -52.579  15.121  1.00  0.00    -0.266 OA
BRANCH   5   8
ATOM      8  CA  ALA A   1     -40.273 -54.355  15.140  1.00  0.00     0.104 C 
ATOM      9  CB  ALA A   1     -39.866 -55.467  16.107  1.00  0.00     0.034 C 
BRANCH   8  10
ATOM     10  C   ALA A   1     -39.240 -54.164  14.017  1.00  0.00     0.189 C 
BRANCH  10  11
ATOM     11  O   ALA A   1     -38.688 -55.410  13.593  1.00  0.00    -0.399 OA
ATOM     12  H   ALA A   1     -38.365 -55.873  14.386  1.00  0.00     0.209 HD
ENDBRANCH  10  11
ENDBRANCH   8  10
ENDBRANCH   5   8
ENDBRANCH   1   4
BRANCH   1  13
HETATM   13  C   UNK A   0     -45.079 -53.217  14.434  1.00  0.00     0.091 A 
HETATM   14  C   UNK A   0     -45.640 -52.335  13.507  1.00  0.00     0.032 A 
HETATM   15  C   UNK A   0     -46.631 -51.451  13.925  1.00  0.00     0.003 A 
HETATM   16  C   UNK A   0     -47.042 -51.467  15.251  1.00  0.00     0.017 A 
HETATM   17  C   UNK A   0     -46.443 -52.370  16.111  1.00  0.00     0.088 A 
HETATM   18  N   UNK A   0     -45.474 -53.235  15.739  1.00  0.00    -0.364 N 
ATOM     19  HN  UNK A   0     -45.054 -53.879  16.409  1.00  0.00     0.165 HD
ENDBRANCH   1  13
TORSDOF 5
ENDMDL
MODEL 7
REMARK VINA RESULT:      -5.0      2.792      6.137
REMARK  5 active torsions:
REMARK  status: ('A' for Active; 'I' for Inactive)
REMARK    1  A    between atoms: CA_2  and  C_3 
REMARK    2  A    between atoms: CA_2  and  N_5 
REMARK    3  A    between atoms: C_3  and  O_4 
REMARK       I    between atoms: N_5  and  C_8 
REMARK    4  A    between atoms: C_8  and  C_10 
REMARK    5  A    between atoms: C_10  and  C_13 
ROOT
HETATM    1  C   UNK A   0     -38.556 -49.788  12.310  1.00  0.00     0.364 C 
HETATM    2  F   UNK A   0     -37.997 -49.846  11.055  1.00  0.00    -0.188 F 
HETATM    3  F   UNK A   0     -37.492 -49.498  13.134  1.00  0.00    -0.188 F 
ENDROOT
BRANCH   1   4
HETATM    4  C   UNK A   0     -39.603 -48.640  12.362  1.00  0.00     0.297 C 
ATOM      5  N   ALA A   1     -39.644 -47.824  11.241  1.00  0.00    -0.349 N 
ATOM      6  H   ALA A   1     -38.919 -47.929  10.533  1.00  0.00     0.163 HD
HETATM    7  O   UNK A   0     -40.377 -48.479  13.309  1.00  0.00    -0.266 OA
BRANCH   5   8
ATOM      8  CA  ALA A   1     -40.558 -46.693  11.133  1.00  0.00     0.104 C 
ATOM      9  CB  ALA A   1     -39.876 -45.520  10.427  1.00  0.00     0.034 C 
BRANCH   8  10
ATOM     10  C   ALA A   1     -41.854 -47.116  10.421  1.00  0.00     0.189 C 
BRANCH  10  11
ATOM     11  O   ALA A   1     -41.676 -48.322   9.680  1.00  0.00    -0.399 OA
ATOM     12  H   ALA A   1     -40.719 -48.490   9.617  1.00  0.00     0.209 HD
ENDBRANCH  10  11
ENDBRANCH   8  10
ENDBRANCH   5   8
ENDBRANCH   1   4
BRANCH   1  13
HETATM   13  C   UNK A   0     -39.237 -51.101  12.688  1.00  0.00     0.091 A 
HETATM   14  C   UNK A   0     -38.751 -51.848  13.765  1.00  0.00     0.032 A 
HETATM   15  C   UNK A   0     -39.359 -53.061  14.078  1.00  0.00     0.003 A 
HETATM   16  C   UNK A   0     -40.434 -53.500  13.317  1.00  0.00     0.017 A 
HETATM   17  C   UNK A   0     -40.862 -52.706  12.268  1.00  0.00     0.088 A 
HETATM   18  N   UNK A   0     -40.290 -51.528  11.934  1.00  0.00    -0.364 N 
ATOM     19  HN  UNK A   0     -40.633 -50.978  11.146  1.00  0.00     0.165 HD
ENDBRANCH   1  13
TORSDOF 5
ENDMDL
MODEL 8
REMARK VINA RESULT:      -4.9      4.620      7.321
REMARK  5 active torsions:
REMARK  status: ('A' for Active; 'I' for Inactive)
REMARK    1  A    between atoms: CA_2  and  C_3 
REMARK    2  A    between atoms: CA_2  and  N_5 
REMARK    3  A    between atoms: C_3  and  O_4 
REMARK       I    between atoms: N_5  and  C_8 
REMARK    4  A    between atoms: C_8  and  C_10 
REMARK    5  A    between atoms: C_10  and  C_13 
ROOT
HETATM    1  C   UNK A   0     -41.177 -53.394  14.405  1.00  0.00     0.364 C 
HETATM    2  F   UNK A   0     -40.504 -54.530  14.790  1.00  0.00    -0.188 F 
HETATM    3  F   UNK A   0     -41.119 -52.582  15.516  1.00  0.00    -0.188 F 
ENDROOT
BRANCH   1   4
HETATM    4  C   UNK A   0     -40.434 -52.726  13.214  1.00  0.00     0.297 C 
ATOM      5  N   ALA A   1     -39.677 -51.610  13.538  1.00  0.00    -0.349 N 
ATOM      6  H   ALA A   1     -39.758 -51.219  14.476  1.00  0.00     0.163 HD
HETATM    7  O   UNK A   0     -40.473 -53.170  12.064  1.00  0.00    -0.266 OA
BRANCH   5   8
ATOM      8  CA  ALA A   1     -38.929 -50.856  12.538  1.00  0.00     0.104 C 
ATOM      9  CB  ALA A   1     -39.428 -49.413  12.471  1.00  0.00     0.034 C 
BRANCH   8  10
ATOM     10  C   ALA A   1     -37.421 -50.929  12.830  1.00  0.00     0.189 C 
BRANCH  10  11
ATOM     11  O   ALA A   1     -36.782 -51.938  12.050  1.00  0.00    -0.399 OA
ATOM     12  H   ALA A   1     -37.465 -52.580  11.785  1.00  0.00     0.209 HD
ENDBRANCH  10  11
ENDBRANCH   8  10
ENDBRANCH   5   8
ENDBRANCH   1   4
BRANCH   1  13
HETATM   13  C   UNK A   0     -42.614 -53.699  13.989  1.00  0.00     0.091 A 
HETATM   14  C   UNK A   0     -43.315 -54.727  14.624  1.00  0.00     0.032 A 
HETATM   15  C   UNK A   0     -44.612 -55.019  14.212  1.00  0.00     0.003 A 
HETATM   16  C   UNK A   0     -45.181 -54.282  13.182  1.00  0.00     0.017 A 
HETATM   17  C   UNK A   0     -44.427 -53.277  12.602  1.00  0.00     0.088 A 
HETATM   18  N   UNK A   0     -43.164 -52.974  12.974  1.00  0.00    -0.364 N 
ATOM     19  HN  UNK A   0     -42.642 -52.229  12.512  1.00  0.00     0.165 HD
ENDBRANCH   1  13
TORSDOF 5
ENDMDL
MODEL 9
REMARK VINA RESULT:      -4.7      4.959      6.349
REMARK  5 active torsions:
REMARK  status: ('A' for Active; 'I' for Inactive)
REMARK    1  A    between atoms: CA_2  and  C_3 
REMARK    2  A    between atoms: CA_2  and  N_5 
REMARK    3  A    between atoms: C_3  and  O_4 
REMARK       I    between atoms: N_5  and  C_8 
REMARK    4  A    between atoms: C_8  and  C_10 
REMARK    5  A    between atoms: C_10  and  C_13 
ROOT
HETATM    1  C   UNK A   0     -42.603 -53.600  13.622  1.00  0.00     0.364 C 
HETATM    2  F   UNK A   0     -42.457 -54.030  14.920  1.00  0.00    -0.188 F 
HETATM    3  F   UNK A   0     -41.991 -54.583  12.876  1.00  0.00    -0.188 F 
ENDROOT
BRANCH   1   4
HETATM    4  C   UNK A   0     -44.114 -53.520  13.266  1.00  0.00     0.297 C 
ATOM      5  N   ALA A   1     -44.829 -52.535  13.930  1.00  0.00    -0.349 N 
ATOM      6  H   ALA A   1     -44.375 -52.030  14.691  1.00  0.00     0.163 HD
HETATM    7  O   UNK A   0     -44.645 -54.248  12.423  1.00  0.00    -0.266 OA
BRANCH   5   8
ATOM      8  CA  ALA A   1     -46.258 -52.333  13.724  1.00  0.00     0.104 C 
ATOM      9  CB  ALA A   1     -46.864 -51.555  14.892  1.00  0.00     0.034 C 
BRANCH   8  10
ATOM     10  C   ALA A   1     -46.512 -51.636  12.377  1.00  0.00     0.189 C 
BRANCH  10  11
ATOM     11  O   ALA A   1     -46.961 -52.557  11.385  1.00  0.00    -0.399 OA
ATOM     12  H   ALA A   1     -47.927 -52.457  11.306  1.00  0.00     0.209 HD
ENDBRANCH  10  11
ENDBRANCH   8  10
ENDBRANCH   5   8
ENDBRANCH   1   4
BRANCH   1  13
HETATM   13  C   UNK A   0     -41.966 -52.230  13.404  1.00  0.00     0.091 A 
HETATM   14  C   UNK A   0     -41.752 -51.765  12.104  1.00  0.00     0.032 A 
HETATM   15  C   UNK A   0     -41.138 -50.530  11.918  1.00  0.00     0.003 A 
HETATM   16  C   UNK A   0     -40.756 -49.786  13.026  1.00  0.00     0.017 A 
HETATM   17  C   UNK A   0     -41.003 -50.309  14.283  1.00  0.00     0.088 A 
HETATM   18  N   UNK A   0     -41.589 -51.507  14.497  1.00  0.00    -0.364 N 
ATOM     19  HN  UNK A   0     -41.744 -51.858  15.442  1.00  0.00     0.165 HD
ENDBRANCH   1  13
TORSDOF 5
ENDMDL
