MODEL 1
REMARK VINA RESULT:      -5.6      0.000      0.000
REMARK  2 active torsions:
REMARK  status: ('A' for Active; 'I' for Inactive)
REMARK    1  A    between atoms: C_5  and  C_6 
REMARK    2  A    between atoms: C_9  and  C_13 
ROOT
HETATM    1  C   UNL     2     -44.526 -47.514   9.265  1.00  0.00     0.152 A 
HETATM    2  N   UNL     2     -44.175 -47.153  10.512  1.00  0.00    -0.326 N 
ATOM      3  HN  UNL     2     -44.770 -46.840  11.278  1.00  0.00     0.169 HD
HETATM    4  C   UNL     2     -42.837 -47.311  10.493  1.00  0.00     0.109 A 
HETATM    5  N   UNL     2     -42.411 -47.758   9.294  1.00  0.00    -0.247 N 
ATOM      6  HN  UNL     2     -41.450 -47.964   9.019  1.00  0.00     0.196 HD
HETATM    7  O   UNL     2     -43.477 -47.873   8.562  1.00  0.00    -0.222 OA
ENDROOT
BRANCH   4   8
HETATM    8  C   UNL     2     -41.934 -46.987  11.662  1.00  0.00     0.083 C 
HETATM    9  C   UNL     2     -42.188 -45.556  12.175  1.00  0.00     0.016 C 
HETATM   10  C   UNL     2     -41.787 -44.529  11.109  1.00  0.00     0.031 C 
HETATM   11  C   UNL     2     -40.321 -44.743  10.708  1.00  0.00     0.269 C 
HETATM   12  N   UNL     2     -40.110 -46.119  10.230  1.00  0.00     0.084 N 
HETATM   13  C   UNL     2     -40.445 -47.104  11.274  1.00  0.00     0.281 C 
HETATM   14  H   UNL     2     -39.104 -46.233   9.968  1.00  0.00     0.315 HD
ENDBRANCH   4   8
BRANCH   1  15
HETATM   15  C   UNL     2     -45.925 -47.487   8.737  1.00  0.00     0.063 A 
HETATM   16  C   UNL     2     -46.678 -48.637   9.401  1.00  0.00     0.013 A 
HETATM   17  C   UNL     2     -46.404 -48.674   7.912  1.00  0.00     0.013 A 
ENDBRANCH   1  15
TORSDOF 2
ENDMDL
MODEL 2
REMARK VINA RESULT:      -5.6      6.385      7.107
REMARK  2 active torsions:
REMARK  status: ('A' for Active; 'I' for Inactive)
REMARK    1  A    between atoms: C_5  and  C_6 
REMARK    2  A    between atoms: C_9  and  C_13 
ROOT
HETATM    1  C   UNL     2     -45.228 -53.275  13.542  1.00  0.00     0.152 A 
HETATM    2  N   UNL     2     -44.139 -53.172  14.324  1.00  0.00    -0.326 N 
ATOM      3  HN  UNL     2     -44.058 -52.766  15.255  1.00  0.00     0.169 HD
HETATM    4  C   UNL     2     -43.183 -53.740  13.565  1.00  0.00     0.109 A 
HETATM    5  N   UNL     2     -43.681 -54.175  12.389  1.00  0.00    -0.247 N 
ATOM      6  HN  UNL     2     -43.172 -54.645  11.640  1.00  0.00     0.196 HD
HETATM    7  O   UNL     2     -44.944 -53.874  12.409  1.00  0.00    -0.222 OA
ENDROOT
BRANCH   4   8
HETATM    8  C   UNL     2     -41.730 -53.838  13.972  1.00  0.00     0.083 C 
HETATM    9  C   UNL     2     -41.237 -52.508  14.576  1.00  0.00     0.016 C 
HETATM   10  C   UNL     2     -41.244 -51.404  13.512  1.00  0.00     0.031 C 
HETATM   11  C   UNL     2     -40.394 -51.838  12.310  1.00  0.00     0.269 C 
HETATM   12  N   UNL     2     -40.885 -53.112  11.761  1.00  0.00     0.084 N 
HETATM   13  C   UNL     2     -40.828 -54.185  12.770  1.00  0.00     0.281 C 
HETATM   14  H   UNL     2     -40.285 -53.381  10.947  1.00  0.00     0.315 HD
ENDBRANCH   4   8
BRANCH   1  15
HETATM   15  C   UNL     2     -46.584 -52.755  13.903  1.00  0.00     0.063 A 
HETATM   16  C   UNL     2     -46.772 -51.437  13.156  1.00  0.00     0.013 A 
HETATM   17  C   UNL     2     -46.667 -51.439  14.667  1.00  0.00     0.013 A 
ENDBRANCH   1  15
TORSDOF 2
ENDMDL
MODEL 3
REMARK VINA RESULT:      -5.1      4.673      5.288
REMARK  2 active torsions:
REMARK  status: ('A' for Active; 'I' for Inactive)
REMARK    1  A    between atoms: C_5  and  C_6 
REMARK    2  A    between atoms: C_9  and  C_13 
ROOT
HETATM    1  C   UNL     2     -44.541 -52.488  12.944  1.00  0.00     0.152 A 
HETATM    2  N   UNL     2     -43.731 -51.635  13.597  1.00  0.00    -0.326 N 
ATOM      3  HN  UNL     2     -43.953 -51.005  14.367  1.00  0.00     0.169 HD
HETATM    4  C   UNL     2     -42.551 -51.823  12.975  1.00  0.00     0.109 A 
HETATM    5  N   UNL     2     -42.649 -52.756  12.005  1.00  0.00    -0.247 N 
ATOM      6  HN  UNL     2     -41.904 -53.088  11.392  1.00  0.00     0.196 HD
HETATM    7  O   UNL     2     -43.888 -53.145  12.015  1.00  0.00    -0.222 OA
ENDROOT
BRANCH   4   8
HETATM    8  C   UNL     2     -41.292 -51.054  13.304  1.00  0.00     0.083 C 
HETATM    9  C   UNL     2     -41.609 -49.570  13.577  1.00  0.00     0.016 C 
HETATM   10  C   UNL     2     -42.127 -48.892  12.302  1.00  0.00     0.031 C 
HETATM   11  C   UNL     2     -41.103 -49.063  11.172  1.00  0.00     0.269 C 
HETATM   12  N   UNL     2     -40.817 -50.488  10.941  1.00  0.00     0.084 N 
HETATM   13  C   UNL     2     -40.268 -51.124  12.152  1.00  0.00     0.281 C 
HETATM   14  H   UNL     2     -40.116 -50.569  10.169  1.00  0.00     0.315 HD
ENDBRANCH   4   8
BRANCH   1  15
HETATM   15  C   UNL     2     -46.001 -52.651  13.224  1.00  0.00     0.063 A 
HETATM   16  C   UNL     2     -46.732 -51.564  12.439  1.00  0.00     0.013 A 
HETATM   17  C   UNL     2     -46.722 -51.524  13.953  1.00  0.00     0.013 A 
ENDBRANCH   1  15
TORSDOF 2
ENDMDL
MODEL 4
REMARK VINA RESULT:      -5.1      6.094      6.902
REMARK  2 active torsions:
REMARK  status: ('A' for Active; 'I' for Inactive)
REMARK    1  A    between atoms: C_5  and  C_6 
REMARK    2  A    between atoms: C_9  and  C_13 
ROOT
HETATM    1  C   UNL     2     -45.155 -52.453  12.999  1.00  0.00     0.152 A 
HETATM    2  N   UNL     2     -43.988 -51.790  12.902  1.00  0.00    -0.326 N 
ATOM      3  HN  UNL     2     -43.784 -50.819  13.135  1.00  0.00     0.169 HD
HETATM    4  C   UNL     2     -43.158 -52.735  12.419  1.00  0.00     0.109 A 
HETATM    5  N   UNL     2     -43.797 -53.911  12.248  1.00  0.00    -0.247 N 
ATOM      6  HN  UNL     2     -43.399 -54.784  11.902  1.00  0.00     0.196 HD
HETATM    7  O   UNL     2     -45.025 -53.701  12.616  1.00  0.00    -0.222 OA
ENDROOT
BRANCH   4   8
HETATM    8  C   UNL     2     -41.706 -52.487  12.078  1.00  0.00     0.083 C 
HETATM    9  C   UNL     2     -40.817 -53.638  12.588  1.00  0.00     0.016 C 
HETATM   10  C   UNL     2     -40.829 -53.683  14.121  1.00  0.00     0.031 C 
HETATM   11  C   UNL     2     -40.388 -52.325  14.682  1.00  0.00     0.269 C 
HETATM   12  N   UNL     2     -41.251 -51.247  14.172  1.00  0.00     0.084 N 
HETATM   13  C   UNL     2     -41.196 -51.171  12.702  1.00  0.00     0.281 C 
HETATM   14  H   UNL     2     -40.923 -50.337  14.570  1.00  0.00     0.315 HD
ENDBRANCH   4   8
BRANCH   1  15
HETATM   15  C   UNL     2     -46.441 -51.842  13.459  1.00  0.00     0.063 A 
HETATM   16  C   UNL     2     -46.200 -51.295  14.864  1.00  0.00     0.013 A 
HETATM   17  C   UNL     2     -47.142 -52.464  14.660  1.00  0.00     0.013 A 
ENDBRANCH   1  15
TORSDOF 2
ENDMDL
MODEL 5
REMARK VINA RESULT:      -5.0      6.781      8.652
REMARK  2 active torsions:
REMARK  status: ('A' for Active; 'I' for Inactive)
REMARK    1  A    between atoms: C_5  and  C_6 
REMARK    2  A    between atoms: C_9  and  C_13 
ROOT
HETATM    1  C   UNL     2     -41.729 -53.757  13.263  1.00  0.00     0.152 A 
HETATM    2  N   UNL     2     -42.926 -54.237  13.645  1.00  0.00    -0.326 N 
ATOM      3  HN  UNL     2     -43.137 -54.933  14.359  1.00  0.00     0.169 HD
HETATM    4  C   UNL     2     -43.777 -53.564  12.846  1.00  0.00     0.109 A 
HETATM    5  N   UNL     2     -43.118 -52.712  12.033  1.00  0.00    -0.247 N 
ATOM      6  HN  UNL     2     -43.525 -52.085  11.339  1.00  0.00     0.196 HD
HETATM    7  O   UNL     2     -41.860 -52.856  12.317  1.00  0.00    -0.222 OA
ENDROOT
BRANCH   4   8
HETATM    8  C   UNL     2     -45.274 -53.774  12.841  1.00  0.00     0.083 C 
HETATM    9  C   UNL     2     -46.015 -52.449  12.575  1.00  0.00     0.016 C 
HETATM   10  C   UNL     2     -45.788 -51.469  13.732  1.00  0.00     0.031 C 
HETATM   11  C   UNL     2     -46.226 -52.116  15.053  1.00  0.00     0.269 C 
HETATM   12  N   UNL     2     -45.506 -53.380  15.275  1.00  0.00     0.084 N 
HETATM   13  C   UNL     2     -45.769 -54.341  14.188  1.00  0.00     0.281 C 
HETATM   14  H   UNL     2     -45.829 -53.796  16.179  1.00  0.00     0.315 HD
ENDBRANCH   4   8
BRANCH   1  15
HETATM   15  C   UNL     2     -40.418 -54.208  13.823  1.00  0.00     0.063 A 
HETATM   16  C   UNL     2     -40.243 -53.514  15.171  1.00  0.00     0.013 A 
HETATM   17  C   UNL     2     -39.324 -53.165  14.018  1.00  0.00     0.013 A 
ENDBRANCH   1  15
TORSDOF 2
ENDMDL
MODEL 6
REMARK VINA RESULT:      -4.9      2.449      3.541
REMARK  2 active torsions:
REMARK  status: ('A' for Active; 'I' for Inactive)
REMARK    1  A    between atoms: C_5  and  C_6 
REMARK    2  A    between atoms: C_9  and  C_13 
ROOT
HETATM    1  C   UNL     2     -42.657 -47.604  10.252  1.00  0.00     0.152 A 
HETATM    2  N   UNL     2     -42.234 -48.796  10.709  1.00  0.00    -0.326 N 
ATOM      3  HN  UNL     2     -42.768 -49.654  10.844  1.00  0.00     0.169 HD
HETATM    4  C   UNL     2     -40.927 -48.569  10.942  1.00  0.00     0.109 A 
HETATM    5  N   UNL     2     -40.583 -47.304  10.626  1.00  0.00    -0.247 N 
ATOM      6  HN  UNL     2     -39.659 -46.879  10.703  1.00  0.00     0.196 HD
HETATM    7  O   UNL     2     -41.672 -46.738  10.203  1.00  0.00    -0.222 OA
ENDROOT
BRANCH   4   8
HETATM    8  C   UNL     2     -39.983 -49.599  11.522  1.00  0.00     0.083 C 
HETATM    9  C   UNL     2     -40.683 -50.437  12.609  1.00  0.00     0.016 C 
HETATM   10  C   UNL     2     -41.045 -49.556  13.812  1.00  0.00     0.031 C 
HETATM   11  C   UNL     2     -39.783 -48.863  14.344  1.00  0.00     0.269 C 
HETATM   12  N   UNL     2     -39.135 -48.078  13.282  1.00  0.00     0.084 N 
HETATM   13  C   UNL     2     -38.740 -48.935  12.150  1.00  0.00     0.281 C 
HETATM   14  H   UNL     2     -38.280 -47.622  13.675  1.00  0.00     0.315 HD
ENDBRANCH   4   8
BRANCH   1  15
HETATM   15  C   UNL     2     -44.071 -47.295   9.871  1.00  0.00     0.063 A 
HETATM   16  C   UNL     2     -44.198 -47.550   8.371  1.00  0.00     0.013 A 
HETATM   17  C   UNL     2     -44.319 -46.139   8.911  1.00  0.00     0.013 A 
ENDBRANCH   1  15
TORSDOF 2
ENDMDL
MODEL 7
REMARK VINA RESULT:      -4.7      5.300      7.534
REMARK  2 active torsions:
REMARK  status: ('A' for Active; 'I' for Inactive)
REMARK    1  A    between atoms: C_5  and  C_6 
REMARK    2  A    between atoms: C_9  and  C_13 
ROOT
HETATM    1  C   UNL     2     -39.734 -50.794  12.429  1.00  0.00     0.152 A 
HETATM    2  N   UNL     2     -40.454 -51.163  13.504  1.00  0.00    -0.326 N 
ATOM      3  HN  UNL     2     -40.126 -51.425  14.433  1.00  0.00     0.169 HD
HETATM    4  C   UNL     2     -41.717 -51.098  13.042  1.00  0.00     0.109 A 
HETATM    5  N   UNL     2     -41.751 -50.695  11.755  1.00  0.00    -0.247 N 
ATOM      6  HN  UNL     2     -42.578 -50.560  11.173  1.00  0.00     0.196 HD
HETATM    7  O   UNL     2     -40.512 -50.516  11.410  1.00  0.00    -0.222 OA
ENDROOT
BRANCH   4   8
HETATM    8  C   UNL     2     -42.934 -51.468  13.860  1.00  0.00     0.083 C 
HETATM    9  C   UNL     2     -42.653 -52.707  14.734  1.00  0.00     0.016 C 
HETATM   10  C   UNL     2     -42.418 -53.939  13.852  1.00  0.00     0.031 C 
HETATM   11  C   UNL     2     -43.623 -54.151  12.925  1.00  0.00     0.269 C 
HETATM   12  N   UNL     2     -43.868 -52.950  12.111  1.00  0.00     0.084 N 
HETATM   13  C   UNL     2     -44.148 -51.778  12.959  1.00  0.00     0.281 C 
HETATM   14  H   UNL     2     -44.695 -53.125  11.494  1.00  0.00     0.315 HD
ENDBRANCH   4   8
BRANCH   1  15
HETATM   15  C   UNL     2     -38.240 -50.731  12.391  1.00  0.00     0.063 A 
HETATM   16  C   UNL     2     -37.841 -49.301  12.745  1.00  0.00     0.013 A 
HETATM   17  C   UNL     2     -37.586 -49.832  11.350  1.00  0.00     0.013 A 
ENDBRANCH   1  15
TORSDOF 2
ENDMDL
MODEL 8
REMARK VINA RESULT:      -4.7      6.014      7.931
REMARK  2 active torsions:
REMARK  status: ('A' for Active; 'I' for Inactive)
REMARK    1  A    between atoms: C_5  and  C_6 
REMARK    2  A    between atoms: C_9  and  C_13 
ROOT
HETATM    1  C   UNL     2     -39.806 -50.631  12.190  1.00  0.00     0.152 A 
HETATM    2  N   UNL     2     -39.710 -51.708  12.990  1.00  0.00    -0.326 N 
ATOM      3  HN  UNL     2     -39.076 -51.869  13.771  1.00  0.00     0.169 HD
HETATM    4  C   UNL     2     -40.664 -52.521  12.496  1.00  0.00     0.109 A 
HETATM    5  N   UNL     2     -41.309 -51.950  11.458  1.00  0.00    -0.247 N 
ATOM      6  HN  UNL     2     -42.073 -52.349  10.913  1.00  0.00     0.196 HD
HETATM    7  O   UNL     2     -40.756 -50.786  11.298  1.00  0.00    -0.222 OA
ENDROOT
BRANCH   4   8
HETATM    8  C   UNL     2     -40.941 -53.911  13.022  1.00  0.00     0.083 C 
HETATM    9  C   UNL     2     -42.451 -54.122  13.253  1.00  0.00     0.016 C 
HETATM   10  C   UNL     2     -42.953 -53.202  14.373  1.00  0.00     0.031 C 
HETATM   11  C   UNL     2     -42.137 -53.447  15.649  1.00  0.00     0.269 C 
HETATM   12  N   UNL     2     -40.702 -53.245  15.395  1.00  0.00     0.084 N 
HETATM   13  C   UNL     2     -40.209 -54.168  14.356  1.00  0.00     0.281 C 
HETATM   14  H   UNL     2     -40.175 -53.422  16.281  1.00  0.00     0.315 HD
ENDBRANCH   4   8
BRANCH   1  15
HETATM   15  C   UNL     2     -38.930 -49.423  12.287  1.00  0.00     0.063 A 
HETATM   16  C   UNL     2     -37.640 -49.742  11.536  1.00  0.00     0.013 A 
HETATM   17  C   UNL     2     -37.611 -49.552  13.038  1.00  0.00     0.013 A 
ENDBRANCH   1  15
TORSDOF 2
ENDMDL
MODEL 9
REMARK VINA RESULT:      -4.6      3.657      5.239
REMARK  2 active torsions:
REMARK  status: ('A' for Active; 'I' for Inactive)
REMARK    1  A    between atoms: C_5  and  C_6 
REMARK    2  A    between atoms: C_9  and  C_13 
ROOT
HETATM    1  C   UNL     2     -40.907 -48.125  11.130  1.00  0.00     0.152 A 
HETATM    2  N   UNL     2     -39.824 -47.905  11.897  1.00  0.00    -0.326 N 
ATOM      3  HN  UNL     2     -39.577 -47.073  12.431  1.00  0.00     0.169 HD
HETATM    4  C   UNL     2     -39.147 -49.064  11.781  1.00  0.00     0.109 A 
HETATM    5  N   UNL     2     -39.803 -49.940  10.992  1.00  0.00    -0.247 N 
ATOM      6  HN  UNL     2     -39.512 -50.886  10.747  1.00  0.00     0.196 HD
HETATM    7  O   UNL     2     -40.883 -49.329  10.609  1.00  0.00    -0.222 OA
ENDROOT
BRANCH   4   8
HETATM    8  C   UNL     2     -37.805 -49.325  12.426  1.00  0.00     0.083 C 
HETATM    9  C   UNL     2     -37.545 -50.838  12.565  1.00  0.00     0.016 C 
HETATM   10  C   UNL     2     -38.547 -51.464  13.543  1.00  0.00     0.031 C 
HETATM   11  C   UNL     2     -38.471 -50.741  14.895  1.00  0.00     0.269 C 
HETATM   12  N   UNL     2     -38.716 -49.300  14.728  1.00  0.00     0.084 N 
HETATM   13  C   UNL     2     -37.719 -48.690  13.829  1.00  0.00     0.281 C 
HETATM   14  H   UNL     2     -38.655 -48.838  15.664  1.00  0.00     0.315 HD
ENDBRANCH   4   8
BRANCH   1  15
HETATM   15  C   UNL     2     -41.987 -47.120  10.882  1.00  0.00     0.063 A 
HETATM   16  C   UNL     2     -43.115 -47.421  11.865  1.00  0.00     0.013 A 
HETATM   17  C   UNL     2     -43.335 -47.624  10.380  1.00  0.00     0.013 A 
ENDBRANCH   1  15
TORSDOF 2
ENDMDL
