MODEL 1
REMARK VINA RESULT:      -5.8      0.000      0.000
REMARK  5 active torsions:
REMARK  status: ('A' for Active; 'I' for Inactive)
REMARK    1  A    between atoms: N_6  and  C_7 
REMARK    2  A    between atoms: C_7  and  C_8 
REMARK    3  A    between atoms: C_8  and  N_9 
REMARK       I    between atoms: N_9  and  C_10 
REMARK    4  A    between atoms: C_10  and  C_12 
REMARK    5  A    between atoms: C_12  and  N_13 
ROOT
HETATM    1  N   UNL     1     -41.138 -50.856  11.759  1.00  0.00    -0.358 N 
HETATM    2  C   UNL     1     -41.420 -49.515  11.934  1.00  0.00     0.237 C 
HETATM    3  O   UNL     1     -42.051 -49.079  12.896  1.00  0.00    -0.272 OA
HETATM    4  H   UNL     1     -40.402 -51.081  11.089  1.00  0.00     0.162 HD
ENDROOT
BRANCH   1   5
HETATM    5  C   UNL     1     -41.443 -51.838  12.786  1.00  0.00     0.152 C 
BRANCH   5   6
HETATM    6  C   UNL     1     -42.675 -52.708  12.456  1.00  0.00     0.292 C 
BRANCH   6   7
HETATM    7  N   UNL     1     -43.971 -52.118  12.860  1.00  0.00     0.090 N 
HETATM    8  C   UNL     1     -43.948 -51.615  14.241  1.00  0.00     0.272 C 
HETATM    9  C   UNL     1     -45.290 -51.010  14.657  1.00  0.00     0.031 C 
HETATM   10  C   UNL     1     -46.441 -51.986  14.437  1.00  0.00     0.007 C 
HETATM   11  C   UNL     1     -46.435 -52.545  13.009  1.00  0.00     0.010 C 
HETATM   12  C   UNL     1     -46.870 -51.491  11.984  1.00  0.00     0.011 C 
HETATM   13  C   UNL     1     -45.044 -53.114  12.681  1.00  0.00     0.276 C 
ENDBRANCH   6   7
ENDBRANCH   5   6
ENDBRANCH   1   5
BRANCH   2  14
HETATM   14  C   UNL     1     -40.957 -48.611  10.820  1.00  0.00     0.251 C 
BRANCH  14  15
HETATM   15  N   UNL     1     -42.022 -47.741  10.366  1.00  0.00    -0.288 N 
HETATM   16  N   UNL     1     -43.219 -48.291  10.059  1.00  0.00    -0.303 N 
HETATM   17  C   UNL     1     -43.999 -47.241   9.778  1.00  0.00     0.024 A 
ATOM     18  HN  UNL     1     -43.469 -49.279  10.045  1.00  0.00     0.186 HD
HETATM   19  C   UNL     1     -45.429 -47.422   9.436  1.00  0.00     0.070 C 
HETATM   20  C   UNL     1     -43.283 -46.027   9.855  1.00  0.00     0.052 A 
HETATM   21  C   UNL     1     -42.001 -46.377  10.221  1.00  0.00     0.027 A 
HETATM   22  C   UNL     1     -40.805 -45.528  10.444  1.00  0.00     0.070 C 
ENDBRANCH  14  15
ENDBRANCH   2  14
TORSDOF 5
ENDMDL
MODEL 2
REMARK VINA RESULT:      -5.7      3.682      6.534
REMARK  5 active torsions:
REMARK  status: ('A' for Active; 'I' for Inactive)
REMARK    1  A    between atoms: N_6  and  C_7 
REMARK    2  A    between atoms: C_7  and  C_8 
REMARK    3  A    between atoms: C_8  and  N_9 
REMARK       I    between atoms: N_9  and  C_10 
REMARK    4  A    between atoms: C_10  and  C_12 
REMARK    5  A    between atoms: C_12  and  N_13 
ROOT
HETATM    1  N   UNL     1     -41.497 -53.786  13.753  1.00  0.00    -0.358 N 
HETATM    2  C   UNL     1     -42.634 -53.332  13.111  1.00  0.00     0.237 C 
HETATM    3  O   UNL     1     -42.605 -52.533  12.176  1.00  0.00    -0.272 OA
HETATM    4  H   UNL     1     -41.605 -54.625  14.325  1.00  0.00     0.162 HD
ENDROOT
BRANCH   1   5
HETATM    5  C   UNL     1     -40.167 -53.463  13.265  1.00  0.00     0.152 C 
BRANCH   5   6
HETATM    6  C   UNL     1     -39.286 -52.747  14.312  1.00  0.00     0.292 C 
BRANCH   6   7
HETATM    7  N   UNL     1     -38.565 -51.559  13.801  1.00  0.00     0.090 N 
HETATM    8  C   UNL     1     -38.328 -50.558  14.849  1.00  0.00     0.272 C 
HETATM    9  C   UNL     1     -37.586 -49.330  14.317  1.00  0.00     0.031 C 
HETATM   10  C   UNL     1     -38.298 -48.720  13.114  1.00  0.00     0.007 C 
HETATM   11  C   UNL     1     -38.587 -49.776  12.042  1.00  0.00     0.010 C 
HETATM   12  C   UNL     1     -37.310 -50.214  11.316  1.00  0.00     0.011 C 
HETATM   13  C   UNL     1     -39.318 -50.973  12.675  1.00  0.00     0.276 C 
ENDBRANCH   6   7
ENDBRANCH   5   6
ENDBRANCH   1   5
BRANCH   2  14
HETATM   14  C   UNL     1     -43.937 -53.831  13.683  1.00  0.00     0.251 C 
BRANCH  14  15
HETATM   15  N   UNL     1     -45.012 -52.888  13.451  1.00  0.00    -0.288 N 
HETATM   16  N   UNL     1     -45.518 -52.779  12.202  1.00  0.00    -0.303 N 
HETATM   17  C   UNL     1     -46.537 -51.922  12.336  1.00  0.00     0.024 A 
ATOM     18  HN  UNL     1     -45.197 -53.244  11.353  1.00  0.00     0.186 HD
HETATM   19  C   UNL     1     -47.397 -51.572  11.181  1.00  0.00     0.070 C 
HETATM   20  C   UNL     1     -46.646 -51.447  13.660  1.00  0.00     0.052 A 
HETATM   21  C   UNL     1     -45.637 -52.072  14.361  1.00  0.00     0.027 A 
HETATM   22  C   UNL     1     -45.250 -51.957  15.788  1.00  0.00     0.070 C 
ENDBRANCH  14  15
ENDBRANCH   2  14
TORSDOF 5
ENDMDL
MODEL 3
REMARK VINA RESULT:      -5.7      3.455      7.087
REMARK  5 active torsions:
REMARK  status: ('A' for Active; 'I' for Inactive)
REMARK    1  A    between atoms: N_6  and  C_7 
REMARK    2  A    between atoms: C_7  and  C_8 
REMARK    3  A    between atoms: C_8  and  N_9 
REMARK       I    between atoms: N_9  and  C_10 
REMARK    4  A    between atoms: C_10  and  C_12 
REMARK    5  A    between atoms: C_12  and  N_13 
ROOT
HETATM    1  N   UNL     1     -42.928 -53.481  12.497  1.00  0.00    -0.358 N 
HETATM    2  C   UNL     1     -43.552 -54.064  13.584  1.00  0.00     0.237 C 
HETATM    3  O   UNL     1     -42.944 -54.453  14.580  1.00  0.00    -0.272 OA
HETATM    4  H   UNL     1     -43.529 -52.966  11.852  1.00  0.00     0.162 HD
ENDROOT
BRANCH   1   5
HETATM    5  C   UNL     1     -41.513 -53.148  12.519  1.00  0.00     0.152 C 
BRANCH   5   6
HETATM    6  C   UNL     1     -41.213 -51.713  12.035  1.00  0.00     0.292 C 
BRANCH   6   7
HETATM    7  N   UNL     1     -39.827 -51.257  12.287  1.00  0.00     0.090 N 
HETATM    8  C   UNL     1     -39.444 -51.390  13.699  1.00  0.00     0.272 C 
HETATM    9  C   UNL     1     -38.013 -50.914  13.957  1.00  0.00     0.031 C 
HETATM   10  C   UNL     1     -37.794 -49.492  13.450  1.00  0.00     0.007 C 
HETATM   11  C   UNL     1     -38.237 -49.344  11.991  1.00  0.00     0.010 C 
HETATM   12  C   UNL     1     -37.274 -50.048  11.029  1.00  0.00     0.011 C 
HETATM   13  C   UNL     1     -39.677 -49.862  11.831  1.00  0.00     0.276 C 
ENDBRANCH   6   7
ENDBRANCH   5   6
ENDBRANCH   1   5
BRANCH   2  14
HETATM   14  C   UNL     1     -45.040 -54.260  13.441  1.00  0.00     0.251 C 
BRANCH  14  15
HETATM   15  N   UNL     1     -45.779 -53.258  14.182  1.00  0.00    -0.288 N 
HETATM   16  N   UNL     1     -45.818 -53.350  15.530  1.00  0.00    -0.303 N 
HETATM   17  C   UNL     1     -46.477 -52.251  15.914  1.00  0.00     0.024 A 
ATOM     18  HN  UNL     1     -45.434 -54.089  16.119  1.00  0.00     0.186 HD
HETATM   19  C   UNL     1     -46.689 -51.950  17.350  1.00  0.00     0.070 C 
HETATM   20  C   UNL     1     -46.901 -51.486  14.806  1.00  0.00     0.052 A 
HETATM   21  C   UNL     1     -46.454 -52.167  13.695  1.00  0.00     0.027 A 
HETATM   22  C   UNL     1     -46.610 -51.853  12.254  1.00  0.00     0.070 C 
ENDBRANCH  14  15
ENDBRANCH   2  14
TORSDOF 5
ENDMDL
MODEL 4
REMARK VINA RESULT:      -5.6      1.712      2.362
REMARK  5 active torsions:
REMARK  status: ('A' for Active; 'I' for Inactive)
REMARK    1  A    between atoms: N_6  and  C_7 
REMARK    2  A    between atoms: C_7  and  C_8 
REMARK    3  A    between atoms: C_8  and  N_9 
REMARK       I    between atoms: N_9  and  C_10 
REMARK    4  A    between atoms: C_10  and  C_12 
REMARK    5  A    between atoms: C_12  and  N_13 
ROOT
HETATM    1  N   UNL     1     -40.348 -51.237  13.718  1.00  0.00    -0.358 N 
HETATM    2  C   UNL     1     -40.511 -51.105  12.353  1.00  0.00     0.237 C 
HETATM    3  O   UNL     1     -41.260 -51.822  11.691  1.00  0.00    -0.272 OA
HETATM    4  H   UNL     1     -39.920 -50.447  14.202  1.00  0.00     0.162 HD
ENDROOT
BRANCH   1   5
HETATM    5  C   UNL     1     -41.172 -52.145  14.499  1.00  0.00     0.152 C 
BRANCH   5   6
HETATM    6  C   UNL     1     -42.408 -51.465  15.128  1.00  0.00     0.292 C 
BRANCH   6   7
HETATM    7  N   UNL     1     -43.708 -51.980  14.640  1.00  0.00     0.090 N 
HETATM    8  C   UNL     1     -43.573 -53.272  13.953  1.00  0.00     0.272 C 
HETATM    9  C   UNL     1     -44.917 -53.800  13.447  1.00  0.00     0.031 C 
HETATM   10  C   UNL     1     -45.631 -52.774  12.573  1.00  0.00     0.007 C 
HETATM   11  C   UNL     1     -45.729 -51.414  13.274  1.00  0.00     0.010 C 
HETATM   12  C   UNL     1     -46.744 -51.437  14.422  1.00  0.00     0.011 C 
HETATM   13  C   UNL     1     -44.335 -50.979  13.758  1.00  0.00     0.276 C 
ENDBRANCH   6   7
ENDBRANCH   5   6
ENDBRANCH   1   5
BRANCH   2  14
HETATM   14  C   UNL     1     -39.648 -50.054  11.702  1.00  0.00     0.251 C 
BRANCH  14  15
HETATM   15  N   UNL     1     -40.428 -48.903  11.297  1.00  0.00    -0.288 N 
HETATM   16  N   UNL     1     -41.319 -49.047  10.290  1.00  0.00    -0.303 N 
HETATM   17  C   UNL     1     -41.935 -47.861  10.225  1.00  0.00     0.024 A 
ATOM     18  HN  UNL     1     -41.482 -49.871   9.712  1.00  0.00     0.186 HD
HETATM   19  C   UNL     1     -43.036 -47.625   9.262  1.00  0.00     0.070 C 
HETATM   20  C   UNL     1     -41.400 -46.947  11.157  1.00  0.00     0.052 A 
HETATM   21  C   UNL     1     -40.414 -47.638  11.828  1.00  0.00     0.027 A 
HETATM   22  C   UNL     1     -39.500 -47.193  12.909  1.00  0.00     0.070 C 
ENDBRANCH  14  15
ENDBRANCH   2  14
TORSDOF 5
ENDMDL
MODEL 5
REMARK VINA RESULT:      -5.5      1.100      2.289
REMARK  5 active torsions:
REMARK  status: ('A' for Active; 'I' for Inactive)
REMARK    1  A    between atoms: N_6  and  C_7 
REMARK    2  A    between atoms: C_7  and  C_8 
REMARK    3  A    between atoms: C_8  and  N_9 
REMARK       I    between atoms: N_9  and  C_10 
REMARK    4  A    between atoms: C_10  and  C_12 
REMARK    5  A    between atoms: C_12  and  N_13 
ROOT
HETATM    1  N   UNL     1     -42.102 -50.668  11.947  1.00  0.00    -0.358 N 
HETATM    2  C   UNL     1     -41.239 -49.599  11.797  1.00  0.00     0.237 C 
HETATM    3  O   UNL     1     -40.549 -49.156  12.714  1.00  0.00    -0.272 OA
HETATM    4  H   UNL     1     -42.423 -51.116  11.089  1.00  0.00     0.162 HD
ENDROOT
BRANCH   1   5
HETATM    5  C   UNL     1     -42.143 -51.445  13.175  1.00  0.00     0.152 C 
BRANCH   5   6
HETATM    6  C   UNL     1     -43.042 -50.823  14.265  1.00  0.00     0.292 C 
BRANCH   6   7
HETATM    7  N   UNL     1     -44.488 -51.100  14.102  1.00  0.00     0.090 N 
HETATM    8  C   UNL     1     -45.216 -51.027  15.377  1.00  0.00     0.272 C 
HETATM    9  C   UNL     1     -46.708 -51.318  15.206  1.00  0.00     0.031 C 
HETATM   10  C   UNL     1     -46.945 -52.650  14.502  1.00  0.00     0.007 C 
HETATM   11  C   UNL     1     -46.148 -52.742  13.196  1.00  0.00     0.010 C 
HETATM   12  C   UNL     1     -46.732 -51.835  12.107  1.00  0.00     0.011 C 
HETATM   13  C   UNL     1     -44.668 -52.419  13.468  1.00  0.00     0.276 C 
ENDBRANCH   6   7
ENDBRANCH   5   6
ENDBRANCH   1   5
BRANCH   2  14
HETATM   14  C   UNL     1     -41.248 -48.954  10.434  1.00  0.00     0.251 C 
BRANCH  14  15
HETATM   15  N   UNL     1     -41.435 -47.520  10.527  1.00  0.00    -0.288 N 
HETATM   16  N   UNL     1     -40.341 -46.732  10.626  1.00  0.00    -0.303 N 
HETATM   17  C   UNL     1     -40.831 -45.487  10.594  1.00  0.00     0.024 A 
ATOM     18  HN  UNL     1     -39.366 -47.019  10.708  1.00  0.00     0.186 HD
HETATM   19  C   UNL     1     -39.931 -44.311  10.628  1.00  0.00     0.070 C 
HETATM   20  C   UNL     1     -42.241 -45.486  10.526  1.00  0.00     0.052 A 
HETATM   21  C   UNL     1     -42.610 -46.814  10.502  1.00  0.00     0.027 A 
HETATM   22  C   UNL     1     -43.958 -47.431  10.446  1.00  0.00     0.070 C 
ENDBRANCH  14  15
ENDBRANCH   2  14
TORSDOF 5
ENDMDL
MODEL 6
REMARK VINA RESULT:      -5.3      3.205      6.684
REMARK  5 active torsions:
REMARK  status: ('A' for Active; 'I' for Inactive)
REMARK    1  A    between atoms: N_6  and  C_7 
REMARK    2  A    between atoms: C_7  and  C_8 
REMARK    3  A    between atoms: C_8  and  N_9 
REMARK       I    between atoms: N_9  and  C_10 
REMARK    4  A    between atoms: C_10  and  C_12 
REMARK    5  A    between atoms: C_12  and  N_13 
ROOT
HETATM    1  N   UNL     1     -42.561 -52.661  11.765  1.00  0.00    -0.358 N 
HETATM    2  C   UNL     1     -43.100 -53.286  12.873  1.00  0.00     0.237 C 
HETATM    3  O   UNL     1     -42.444 -53.567  13.875  1.00  0.00    -0.272 OA
HETATM    4  H   UNL     1     -43.225 -52.244  11.112  1.00  0.00     0.162 HD
ENDROOT
BRANCH   1   5
HETATM    5  C   UNL     1     -41.200 -52.152  11.767  1.00  0.00     0.152 C 
BRANCH   5   6
HETATM    6  C   UNL     1     -41.115 -50.628  12.006  1.00  0.00     0.292 C 
BRANCH   6   7
HETATM    7  N   UNL     1     -40.138 -50.222  13.042  1.00  0.00     0.090 N 
HETATM    8  C   UNL     1     -39.333 -49.065  12.625  1.00  0.00     0.272 C 
HETATM    9  C   UNL     1     -38.321 -48.650  13.695  1.00  0.00     0.031 C 
HETATM   10  C   UNL     1     -37.440 -49.820  14.120  1.00  0.00     0.007 C 
HETATM   11  C   UNL     1     -38.281 -51.040  14.509  1.00  0.00     0.010 C 
HETATM   12  C   UNL     1     -38.996 -50.835  15.849  1.00  0.00     0.011 C 
HETATM   13  C   UNL     1     -39.274 -51.368  13.381  1.00  0.00     0.276 C 
ENDBRANCH   6   7
ENDBRANCH   5   6
ENDBRANCH   1   5
BRANCH   2  14
HETATM   14  C   UNL     1     -44.553 -53.672  12.748  1.00  0.00     0.251 C 
BRANCH  14  15
HETATM   15  N   UNL     1     -45.396 -52.837  13.579  1.00  0.00    -0.288 N 
HETATM   16  N   UNL     1     -45.203 -52.851  14.917  1.00  0.00    -0.303 N 
HETATM   17  C   UNL     1     -46.048 -51.923  15.379  1.00  0.00     0.024 A 
ATOM     18  HN  UNL     1     -44.560 -53.435  15.451  1.00  0.00     0.186 HD
HETATM   19  C   UNL     1     -46.105 -51.594  16.823  1.00  0.00     0.070 C 
HETATM   20  C   UNL     1     -46.817 -51.357  14.340  1.00  0.00     0.052 A 
HETATM   21  C   UNL     1     -46.389 -51.976  13.185  1.00  0.00     0.027 A 
HETATM   22  C   UNL     1     -46.840 -51.800  11.783  1.00  0.00     0.070 C 
ENDBRANCH  14  15
ENDBRANCH   2  14
TORSDOF 5
ENDMDL
MODEL 7
REMARK VINA RESULT:      -5.2      2.496      3.475
REMARK  5 active torsions:
REMARK  status: ('A' for Active; 'I' for Inactive)
REMARK    1  A    between atoms: N_6  and  C_7 
REMARK    2  A    between atoms: C_7  and  C_8 
REMARK    3  A    between atoms: C_8  and  N_9 
REMARK       I    between atoms: N_9  and  C_10 
REMARK    4  A    between atoms: C_10  and  C_12 
REMARK    5  A    between atoms: C_12  and  N_13 
ROOT
HETATM    1  N   UNL     1     -41.044 -53.229  13.676  1.00  0.00    -0.358 N 
HETATM    2  C   UNL     1     -40.976 -51.993  13.061  1.00  0.00     0.237 C 
HETATM    3  O   UNL     1     -41.751 -51.639  12.174  1.00  0.00    -0.272 OA
HETATM    4  H   UNL     1     -40.540 -53.325  14.558  1.00  0.00     0.162 HD
ENDROOT
BRANCH   1   5
HETATM    5  C   UNL     1     -42.141 -54.148  13.419  1.00  0.00     0.152 C 
BRANCH   5   6
HETATM    6  C   UNL     1     -43.207 -54.160  14.536  1.00  0.00     0.292 C 
BRANCH   6   7
HETATM    7  N   UNL     1     -44.464 -53.456  14.194  1.00  0.00     0.090 N 
HETATM    8  C   UNL     1     -44.689 -53.391  12.743  1.00  0.00     0.272 C 
HETATM    9  C   UNL     1     -45.987 -52.660  12.393  1.00  0.00     0.031 C 
HETATM   10  C   UNL     1     -46.042 -51.275  13.030  1.00  0.00     0.007 C 
HETATM   11  C   UNL     1     -45.760 -51.340  14.535  1.00  0.00     0.010 C 
HETATM   12  C   UNL     1     -46.930 -51.960  15.307  1.00  0.00     0.011 C 
HETATM   13  C   UNL     1     -44.448 -52.104  14.785  1.00  0.00     0.276 C 
ENDBRANCH   6   7
ENDBRANCH   5   6
ENDBRANCH   1   5
BRANCH   2  14
HETATM   14  C   UNL     1     -39.831 -51.118  13.504  1.00  0.00     0.251 C 
BRANCH  14  15
HETATM   15  N   UNL     1     -39.907 -49.802  12.904  1.00  0.00    -0.288 N 
HETATM   16  N   UNL     1     -40.945 -49.001  13.232  1.00  0.00    -0.303 N 
HETATM   17  C   UNL     1     -40.680 -47.849  12.606  1.00  0.00     0.024 A 
ATOM     18  HN  UNL     1     -41.747 -49.224  13.822  1.00  0.00     0.186 HD
HETATM   19  C   UNL     1     -41.572 -46.675  12.758  1.00  0.00     0.070 C 
HETATM   20  C   UNL     1     -39.500 -47.935  11.837  1.00  0.00     0.052 A 
HETATM   21  C   UNL     1     -39.026 -49.215  12.031  1.00  0.00     0.027 A 
HETATM   22  C   UNL     1     -37.828 -49.886  11.471  1.00  0.00     0.070 C 
ENDBRANCH  14  15
ENDBRANCH   2  14
TORSDOF 5
ENDMDL
MODEL 8
REMARK VINA RESULT:      -5.2      1.744      2.850
REMARK  5 active torsions:
REMARK  status: ('A' for Active; 'I' for Inactive)
REMARK    1  A    between atoms: N_6  and  C_7 
REMARK    2  A    between atoms: C_7  and  C_8 
REMARK    3  A    between atoms: C_8  and  N_9 
REMARK       I    between atoms: N_9  and  C_10 
REMARK    4  A    between atoms: C_10  and  C_12 
REMARK    5  A    between atoms: C_12  and  N_13 
ROOT
HETATM    1  N   UNL     1     -41.702 -50.032  11.422  1.00  0.00    -0.358 N 
HETATM    2  C   UNL     1     -42.454 -49.068  12.065  1.00  0.00     0.237 C 
HETATM    3  O   UNL     1     -42.788 -49.150  13.246  1.00  0.00    -0.272 OA
HETATM    4  H   UNL     1     -41.264 -49.755  10.544  1.00  0.00     0.162 HD
ENDROOT
BRANCH   1   5
HETATM    5  C   UNL     1     -41.122 -51.152  12.146  1.00  0.00     0.152 C 
BRANCH   5   6
HETATM    6  C   UNL     1     -41.819 -52.499  11.852  1.00  0.00     0.292 C 
BRANCH   6   7
HETATM    7  N   UNL     1     -42.711 -52.977  12.933  1.00  0.00     0.090 N 
HETATM    8  C   UNL     1     -42.159 -54.143  13.636  1.00  0.00     0.272 C 
HETATM    9  C   UNL     1     -43.084 -54.638  14.749  1.00  0.00     0.031 C 
HETATM   10  C   UNL     1     -44.491 -54.915  14.229  1.00  0.00     0.007 C 
HETATM   11  C   UNL     1     -45.047 -53.714  13.455  1.00  0.00     0.010 C 
HETATM   12  C   UNL     1     -45.406 -52.552  14.388  1.00  0.00     0.011 C 
HETATM   13  C   UNL     1     -44.042 -53.283  12.374  1.00  0.00     0.276 C 
ENDBRANCH   6   7
ENDBRANCH   5   6
ENDBRANCH   1   5
BRANCH   2  14
HETATM   14  C   UNL     1     -42.904 -47.921  11.196  1.00  0.00     0.251 C 
BRANCH  14  15
HETATM   15  N   UNL     1     -41.986 -46.803  11.276  1.00  0.00    -0.288 N 
HETATM   16  N   UNL     1     -41.009 -46.702  10.348  1.00  0.00    -0.303 N 
HETATM   17  C   UNL     1     -40.409 -45.540  10.630  1.00  0.00     0.024 A 
ATOM     18  HN  UNL     1     -40.781 -47.361   9.604  1.00  0.00     0.186 HD
HETATM   19  C   UNL     1     -39.296 -45.033   9.793  1.00  0.00     0.070 C 
HETATM   20  C   UNL     1     -40.972 -44.928  11.769  1.00  0.00     0.052 A 
HETATM   21  C   UNL     1     -41.981 -45.772  12.182  1.00  0.00     0.027 A 
HETATM   22  C   UNL     1     -42.911 -45.661  13.331  1.00  0.00     0.070 C 
ENDBRANCH  14  15
ENDBRANCH   2  14
TORSDOF 5
ENDMDL
MODEL 9
REMARK VINA RESULT:      -5.2      2.117      2.781
REMARK  5 active torsions:
REMARK  status: ('A' for Active; 'I' for Inactive)
REMARK    1  A    between atoms: N_6  and  C_7 
REMARK    2  A    between atoms: C_7  and  C_8 
REMARK    3  A    between atoms: C_8  and  N_9 
REMARK       I    between atoms: N_9  and  C_10 
REMARK    4  A    between atoms: C_10  and  C_12 
REMARK    5  A    between atoms: C_12  and  N_13 
ROOT
HETATM    1  N   UNL     1     -41.424 -50.737  11.852  1.00  0.00    -0.358 N 
HETATM    2  C   UNL     1     -42.392 -50.087  12.593  1.00  0.00     0.237 C 
HETATM    3  O   UNL     1     -43.348 -50.664  13.108  1.00  0.00    -0.272 OA
HETATM    4  H   UNL     1     -40.554 -50.227  11.695  1.00  0.00     0.162 HD
ENDROOT
BRANCH   1   5
HETATM    5  C   UNL     1     -41.388 -52.187  11.753  1.00  0.00     0.152 C 
BRANCH   5   6
HETATM    6  C   UNL     1     -40.570 -52.859  12.878  1.00  0.00     0.292 C 
BRANCH   6   7
HETATM    7  N   UNL     1     -41.380 -53.371  14.006  1.00  0.00     0.090 N 
HETATM    8  C   UNL     1     -40.599 -54.230  14.907  1.00  0.00     0.272 C 
HETATM    9  C   UNL     1     -41.440 -54.762  16.070  1.00  0.00     0.031 C 
HETATM   10  C   UNL     1     -42.699 -55.468  15.577  1.00  0.00     0.007 C 
HETATM   11  C   UNL     1     -43.487 -54.588  14.601  1.00  0.00     0.010 C 
HETATM   12  C   UNL     1     -44.180 -53.423  15.316  1.00  0.00     0.011 C 
HETATM   13  C   UNL     1     -42.555 -54.092  13.481  1.00  0.00     0.276 C 
ENDBRANCH   6   7
ENDBRANCH   5   6
ENDBRANCH   1   5
BRANCH   2  14
HETATM   14  C   UNL     1     -42.238 -48.589  12.676  1.00  0.00     0.251 C 
BRANCH  14  15
HETATM   15  N   UNL     1     -42.605 -47.949  11.429  1.00  0.00    -0.288 N 
HETATM   16  N   UNL     1     -43.824 -48.208  10.904  1.00  0.00    -0.303 N 
HETATM   17  C   UNL     1     -43.895 -47.409   9.834  1.00  0.00     0.024 A 
ATOM     18  HN  UNL     1     -44.527 -48.863  11.246  1.00  0.00     0.186 HD
HETATM   19  C   UNL     1     -45.119 -47.357   9.000  1.00  0.00     0.070 C 
HETATM   20  C   UNL     1     -42.701 -46.680   9.649  1.00  0.00     0.052 A 
HETATM   21  C   UNL     1     -41.873 -47.059  10.684  1.00  0.00     0.027 A 
HETATM   22  C   UNL     1     -40.488 -46.637  11.004  1.00  0.00     0.070 C 
ENDBRANCH  14  15
ENDBRANCH   2  14
TORSDOF 5
ENDMDL
