MODEL 1
REMARK VINA RESULT:      -7.0      0.000      0.000
REMARK  8 active torsions:
REMARK  status: ('A' for Active; 'I' for Inactive)
REMARK    1  A    between atoms: N_2  and  C_10 
REMARK    2  A    between atoms: C_4  and  N_7 
REMARK    3  A    between atoms: C_9  and  C_11 
REMARK       I    between atoms: C_9  and  N_16 
REMARK    4  A    between atoms: N_16  and  C_18 
REMARK    5  A    between atoms: C_17  and  C_26 
REMARK    6  A    between atoms: C_17  and  C_27 
REMARK    7  A    between atoms: C_26  and  O_30 
REMARK    8  A    between atoms: C_27  and  O_29 
ROOT
HETATM    1  C   UNL     1     -41.477 -48.775  12.341  1.00  0.00     0.122 A 
HETATM    2  N   UNL     1     -42.647 -50.565  12.749  1.00  0.00    -0.322 N 
HETATM    3  C   UNL     1     -41.407 -50.168  12.304  1.00  0.00     0.140 A 
HETATM    4  C   UNL     1     -40.334 -48.033  11.951  1.00  0.00     0.136 A 
HETATM    5  N   UNL     1     -42.717 -48.346  12.770  1.00  0.00    -0.346 N 
ATOM      6  HN  UNL     1     -43.036 -47.385  12.887  1.00  0.00     0.167 HD
HETATM    7  C   UNL     1     -43.392 -49.442  12.994  1.00  0.00     0.185 A 
HETATM    8  N   UNL     1     -40.348 -50.900  11.923  1.00  0.00    -0.336 N 
ATOM      9  HN  UNL     1     -40.316 -51.919  11.931  1.00  0.00     0.168 HD
HETATM   10  N   UNL     1     -39.268 -48.745  11.487  1.00  0.00    -0.337 N 
ATOM     11  HN  UNL     1     -38.444 -48.270  11.118  1.00  0.00     0.168 HD
HETATM   12  C   UNL     1     -39.329 -50.103  11.526  1.00  0.00     0.183 A 
ENDROOT
BRANCH   4  13
HETATM   13  N   UNL     1     -40.304 -46.647  11.987  1.00  0.00    -0.352 N 
HETATM   14  C   UNL     1     -40.302 -45.833  10.753  1.00  0.00     0.178 C 
HETATM   15  C   UNL     1     -39.587 -44.524  11.168  1.00  0.00     0.037 C 
HETATM   16  C   UNL     1     -39.499 -44.575  12.687  1.00  0.00     0.022 C 
HETATM   17  C   UNL     1     -39.385 -46.061  12.965  1.00  0.00     0.125 C 
BRANCH  14  18
HETATM   18  C   UNL     1     -41.732 -45.585  10.215  1.00  0.00     0.240 C 
HETATM   19  N   UNL     1     -42.233 -46.631   9.453  1.00  0.00    -0.355 N 
HETATM   20  H   UNL     1     -41.691 -47.492   9.444  1.00  0.00     0.162 HD
HETATM   21  O   UNL     1     -42.341 -44.529  10.379  1.00  0.00    -0.271 OA
BRANCH  19  22
HETATM   22  C   UNL     1     -43.491 -46.561   8.781  1.00  0.00     0.084 A 
HETATM   23  C   UNL     1     -44.686 -47.354   9.235  1.00  0.00     0.027 A 
HETATM   24  C   UNL     1     -43.971 -47.735   7.975  1.00  0.00     0.027 A 
ENDBRANCH  19  22
ENDBRANCH  14  18
ENDBRANCH   4  13
BRANCH   2  25
HETATM   25  C   UNL     1     -43.209 -51.852  13.026  1.00  0.00     0.094 C 
HETATM   26  C   UNL     1     -44.728 -51.858  13.347  1.00  0.00     0.039 C 
HETATM   27  C   UNL     1     -44.437 -53.141  14.212  1.00  0.00     0.006 C 
HETATM   28  C   UNL     1     -43.035 -52.455  14.446  1.00  0.00     0.039 C 
BRANCH  27  29
HETATM   29  C   UNL     1     -45.283 -53.297  15.471  1.00  0.00     0.175 C 
BRANCH  29  30
HETATM   30  O   UNL     1     -45.174 -54.634  15.952  1.00  0.00    -0.400 OA
HETATM   31  H   UNL     1     -45.804 -55.174  15.440  1.00  0.00     0.209 HD
ENDBRANCH  29  30
ENDBRANCH  27  29
BRANCH  27  32
HETATM   32  C   UNL     1     -44.363 -54.475  13.437  1.00  0.00     0.175 C 
BRANCH  32  33
HETATM   33  O   UNL     1     -45.667 -55.021  13.276  1.00  0.00    -0.400 OA
HETATM   34  H   UNL     1     -45.607 -55.669  12.544  1.00  0.00     0.209 HD
ENDBRANCH  32  33
ENDBRANCH  27  32
ENDBRANCH   2  25
TORSDOF 8
ENDMDL
MODEL 2
REMARK VINA RESULT:      -6.4      2.441      8.695
REMARK  8 active torsions:
REMARK  status: ('A' for Active; 'I' for Inactive)
REMARK    1  A    between atoms: N_2  and  C_10 
REMARK    2  A    between atoms: C_4  and  N_7 
REMARK    3  A    between atoms: C_9  and  C_11 
REMARK       I    between atoms: C_9  and  N_16 
REMARK    4  A    between atoms: N_16  and  C_18 
REMARK    5  A    between atoms: C_17  and  C_26 
REMARK    6  A    between atoms: C_17  and  C_27 
REMARK    7  A    between atoms: C_26  and  O_30 
REMARK    8  A    between atoms: C_27  and  O_29 
ROOT
HETATM    1  C   UNL     1     -42.924 -51.257  12.929  1.00  0.00     0.122 A 
HETATM    2  N   UNL     1     -42.130 -49.314  12.351  1.00  0.00    -0.322 N 
HETATM    3  C   UNL     1     -41.898 -50.662  12.194  1.00  0.00     0.140 A 
HETATM    4  C   UNL     1     -42.991 -52.672  12.966  1.00  0.00     0.136 A 
HETATM    5  N   UNL     1     -43.731 -50.309  13.525  1.00  0.00    -0.346 N 
ATOM      6  HN  UNL     1     -44.547 -50.469  14.115  1.00  0.00     0.167 HD
HETATM    7  C   UNL     1     -43.220 -49.161  13.166  1.00  0.00     0.185 A 
HETATM    8  N   UNL     1     -40.939 -51.301  11.506  1.00  0.00    -0.336 N 
ATOM      9  HN  UNL     1     -40.216 -50.839  10.955  1.00  0.00     0.168 HD
HETATM   10  N   UNL     1     -41.988 -53.352  12.340  1.00  0.00    -0.337 N 
ATOM     11  HN  UNL     1     -41.933 -54.369  12.395  1.00  0.00     0.168 HD
HETATM   12  C   UNL     1     -41.061 -52.642  11.642  1.00  0.00     0.183 A 
ENDROOT
BRANCH   4  13
HETATM   13  N   UNL     1     -43.994 -53.349  13.645  1.00  0.00    -0.352 N 
HETATM   14  C   UNL     1     -43.835 -54.753  14.077  1.00  0.00     0.178 C 
HETATM   15  C   UNL     1     -45.283 -55.299  14.121  1.00  0.00     0.037 C 
HETATM   16  C   UNL     1     -46.180 -54.075  13.995  1.00  0.00     0.022 C 
HETATM   17  C   UNL     1     -45.351 -53.140  13.137  1.00  0.00     0.125 C 
BRANCH  14  18
HETATM   18  C   UNL     1     -43.115 -54.867  15.442  1.00  0.00     0.240 C 
HETATM   19  N   UNL     1     -41.738 -55.003  15.339  1.00  0.00    -0.355 N 
HETATM   20  H   UNL     1     -41.331 -54.872  14.416  1.00  0.00     0.162 HD
HETATM   21  O   UNL     1     -43.709 -54.911  16.517  1.00  0.00    -0.271 OA
BRANCH  19  22
HETATM   22  C   UNL     1     -40.899 -55.224  16.474  1.00  0.00     0.084 A 
HETATM   23  C   UNL     1     -39.512 -55.794  16.346  1.00  0.00     0.027 A 
HETATM   24  C   UNL     1     -40.613 -56.629  16.925  1.00  0.00     0.027 A 
ENDBRANCH  19  22
ENDBRANCH  14  18
ENDBRANCH   4  13
BRANCH   2  25
HETATM   25  C   UNL     1     -41.502 -48.154  11.798  1.00  0.00     0.094 C 
HETATM   26  C   UNL     1     -42.088 -46.794  12.265  1.00  0.00     0.039 C 
HETATM   27  C   UNL     1     -41.612 -46.226  10.877  1.00  0.00     0.006 C 
HETATM   28  C   UNL     1     -41.904 -47.692  10.371  1.00  0.00     0.039 C 
BRANCH  27  29
HETATM   29  C   UNL     1     -42.504 -45.154  10.259  1.00  0.00     0.175 C 
BRANCH  29  30
HETATM   30  O   UNL     1     -42.055 -43.867  10.674  1.00  0.00    -0.400 OA
HETATM   31  H   UNL     1     -41.085 -43.919  10.768  1.00  0.00     0.209 HD
ENDBRANCH  29  30
ENDBRANCH  27  29
BRANCH  27  32
HETATM   32  C   UNL     1     -40.126 -45.814  10.788  1.00  0.00     0.175 C 
BRANCH  32  33
HETATM   33  O   UNL     1     -39.881 -45.122   9.570  1.00  0.00    -0.400 OA
HETATM   34  H   UNL     1     -39.564 -44.230   9.817  1.00  0.00     0.209 HD
ENDBRANCH  32  33
ENDBRANCH  27  32
ENDBRANCH   2  25
TORSDOF 8
ENDMDL
MODEL 3
REMARK VINA RESULT:      -6.2      2.204      8.116
REMARK  8 active torsions:
REMARK  status: ('A' for Active; 'I' for Inactive)
REMARK    1  A    between atoms: N_2  and  C_10 
REMARK    2  A    between atoms: C_4  and  N_7 
REMARK    3  A    between atoms: C_9  and  C_11 
REMARK       I    between atoms: C_9  and  N_16 
REMARK    4  A    between atoms: N_16  and  C_18 
REMARK    5  A    between atoms: C_17  and  C_26 
REMARK    6  A    between atoms: C_17  and  C_27 
REMARK    7  A    between atoms: C_26  and  O_30 
REMARK    8  A    between atoms: C_27  and  O_29 
ROOT
HETATM    1  C   UNL     1     -42.849 -51.302  12.908  1.00  0.00     0.122 A 
HETATM    2  N   UNL     1     -42.294 -49.286  12.303  1.00  0.00    -0.322 N 
HETATM    3  C   UNL     1     -41.907 -50.599  12.157  1.00  0.00     0.140 A 
HETATM    4  C   UNL     1     -42.749 -52.715  12.961  1.00  0.00     0.136 A 
HETATM    5  N   UNL     1     -43.756 -50.448  13.503  1.00  0.00    -0.346 N 
ATOM      6  HN  UNL     1     -44.542 -50.696  14.104  1.00  0.00     0.167 HD
HETATM    7  C   UNL     1     -43.387 -49.252  13.128  1.00  0.00     0.185 A 
HETATM    8  N   UNL     1     -40.887 -51.129  11.465  1.00  0.00    -0.336 N 
ATOM      9  HN  UNL     1     -40.228 -50.591  10.902  1.00  0.00     0.168 HD
HETATM   10  N   UNL     1     -41.680 -53.279  12.331  1.00  0.00    -0.337 N 
ATOM     11  HN  UNL     1     -41.506 -54.282  12.395  1.00  0.00     0.168 HD
HETATM   12  C   UNL     1     -40.849 -52.473  11.616  1.00  0.00     0.183 A 
ENDROOT
BRANCH   4  13
HETATM   13  N   UNL     1     -43.660 -53.496  13.656  1.00  0.00    -0.352 N 
HETATM   14  C   UNL     1     -43.287 -54.218  14.892  1.00  0.00     0.178 C 
HETATM   15  C   UNL     1     -44.256 -55.424  14.928  1.00  0.00     0.037 C 
HETATM   16  C   UNL     1     -45.305 -55.133  13.864  1.00  0.00     0.022 C 
HETATM   17  C   UNL     1     -44.524 -54.344  12.832  1.00  0.00     0.125 C 
BRANCH  14  18
HETATM   18  C   UNL     1     -43.404 -53.323  16.149  1.00  0.00     0.240 C 
HETATM   19  N   UNL     1     -44.572 -52.575  16.197  1.00  0.00    -0.355 N 
HETATM   20  H   UNL     1     -45.283 -52.788  15.502  1.00  0.00     0.162 HD
HETATM   21  O   UNL     1     -42.513 -53.221  16.990  1.00  0.00    -0.271 OA
BRANCH  19  22
HETATM   22  C   UNL     1     -44.827 -51.611  17.220  1.00  0.00     0.084 A 
HETATM   23  C   UNL     1     -46.064 -50.754  17.222  1.00  0.00     0.027 A 
HETATM   24  C   UNL     1     -44.734 -50.146  16.902  1.00  0.00     0.027 A 
ENDBRANCH  19  22
ENDBRANCH  14  18
ENDBRANCH   4  13
BRANCH   2  25
HETATM   25  C   UNL     1     -41.811 -48.066  11.732  1.00  0.00     0.094 C 
HETATM   26  C   UNL     1     -42.738 -46.834  11.915  1.00  0.00     0.039 C 
HETATM   27  C   UNL     1     -42.116 -46.292  10.574  1.00  0.00     0.006 C 
HETATM   28  C   UNL     1     -42.003 -47.824  10.210  1.00  0.00     0.039 C 
BRANCH  27  29
HETATM   29  C   UNL     1     -43.061 -45.497   9.680  1.00  0.00     0.175 C 
BRANCH  29  30
HETATM   30  O   UNL     1     -43.199 -44.176  10.193  1.00  0.00    -0.400 OA
HETATM   31  H   UNL     1     -42.936 -43.563   9.481  1.00  0.00     0.209 HD
ENDBRANCH  29  30
ENDBRANCH  27  29
BRANCH  27  32
HETATM   32  C   UNL     1     -40.755 -45.574  10.702  1.00  0.00     0.175 C 
BRANCH  32  33
HETATM   33  O   UNL     1     -40.394 -44.983   9.460  1.00  0.00    -0.400 OA
HETATM   34  H   UNL     1     -39.441 -44.766   9.523  1.00  0.00     0.209 HD
ENDBRANCH  32  33
ENDBRANCH  27  32
ENDBRANCH   2  25
TORSDOF 8
ENDMDL
MODEL 4
REMARK VINA RESULT:      -6.2      2.875      3.374
REMARK  8 active torsions:
REMARK  status: ('A' for Active; 'I' for Inactive)
REMARK    1  A    between atoms: N_2  and  C_10 
REMARK    2  A    between atoms: C_4  and  N_7 
REMARK    3  A    between atoms: C_9  and  C_11 
REMARK       I    between atoms: C_9  and  N_16 
REMARK    4  A    between atoms: N_16  and  C_18 
REMARK    5  A    between atoms: C_17  and  C_26 
REMARK    6  A    between atoms: C_17  and  C_27 
REMARK    7  A    between atoms: C_26  and  O_30 
REMARK    8  A    between atoms: C_27  and  O_29 
ROOT
HETATM    1  C   UNL     1     -40.481 -49.468  12.625  1.00  0.00     0.122 A 
HETATM    2  N   UNL     1     -40.180 -51.471  13.421  1.00  0.00    -0.322 N 
HETATM    3  C   UNL     1     -39.574 -50.528  12.623  1.00  0.00     0.140 A 
HETATM    4  C   UNL     1     -40.151 -48.299  11.894  1.00  0.00     0.136 A 
HETATM    5  N   UNL     1     -41.601 -49.766  13.376  1.00  0.00    -0.346 N 
ATOM      6  HN  UNL     1     -42.413 -49.173  13.542  1.00  0.00     0.167 HD
HETATM    7  C   UNL     1     -41.391 -50.974  13.827  1.00  0.00     0.185 A 
HETATM    8  N   UNL     1     -38.396 -50.564  11.982  1.00  0.00    -0.336 N 
ATOM      9  HN  UNL     1     -37.739 -51.344  12.021  1.00  0.00     0.168 HD
HETATM   10  N   UNL     1     -38.996 -48.332  11.170  1.00  0.00    -0.337 N 
ATOM     11  HN  UNL     1     -38.739 -47.555  10.562  1.00  0.00     0.168 HD
HETATM   12  C   UNL     1     -38.195 -49.426  11.278  1.00  0.00     0.183 A 
ENDROOT
BRANCH   4  13
HETATM   13  N   UNL     1     -40.978 -47.185  11.866  1.00  0.00    -0.352 N 
HETATM   14  C   UNL     1     -41.853 -46.891  10.711  1.00  0.00     0.178 C 
HETATM   15  C   UNL     1     -42.021 -45.352  10.751  1.00  0.00     0.037 C 
HETATM   16  C   UNL     1     -41.469 -44.920  12.102  1.00  0.00     0.022 C 
HETATM   17  C   UNL     1     -40.381 -45.944  12.362  1.00  0.00     0.125 C 
BRANCH  14  18
HETATM   18  C   UNL     1     -43.204 -47.639  10.796  1.00  0.00     0.240 C 
HETATM   19  N   UNL     1     -44.031 -47.427   9.702  1.00  0.00    -0.355 N 
HETATM   20  H   UNL     1     -43.626 -46.937   8.908  1.00  0.00     0.162 HD
HETATM   21  O   UNL     1     -43.551 -48.298  11.774  1.00  0.00    -0.271 OA
BRANCH  19  22
HETATM   22  C   UNL     1     -45.361 -47.944   9.630  1.00  0.00     0.084 A 
HETATM   23  C   UNL     1     -46.011 -48.303   8.321  1.00  0.00     0.027 A 
HETATM   24  C   UNL     1     -46.463 -47.088   9.071  1.00  0.00     0.027 A 
ENDBRANCH  19  22
ENDBRANCH  14  18
ENDBRANCH   4  13
BRANCH   2  25
HETATM   25  C   UNL     1     -39.756 -52.752  13.898  1.00  0.00     0.094 C 
HETATM   26  C   UNL     1     -40.880 -53.651  14.479  1.00  0.00     0.039 C 
HETATM   27  C   UNL     1     -39.762 -54.292  15.383  1.00  0.00     0.006 C 
HETATM   28  C   UNL     1     -39.120 -52.852  15.312  1.00  0.00     0.039 C 
BRANCH  27  29
HETATM   29  C   UNL     1     -40.204 -54.719  16.780  1.00  0.00     0.175 C 
BRANCH  29  30
HETATM   30  O   UNL     1     -40.441 -56.124  16.792  1.00  0.00    -0.400 OA
HETATM   31  H   UNL     1     -39.818 -56.513  17.434  1.00  0.00     0.209 HD
ENDBRANCH  29  30
ENDBRANCH  27  29
BRANCH  27  32
HETATM   32  C   UNL     1     -38.908 -55.396  14.722  1.00  0.00     0.175 C 
BRANCH  32  33
HETATM   33  O   UNL     1     -37.927 -55.870  15.636  1.00  0.00    -0.400 OA
HETATM   34  H   UNL     1     -37.471 -56.614  15.192  1.00  0.00     0.209 HD
ENDBRANCH  32  33
ENDBRANCH  27  32
ENDBRANCH   2  25
TORSDOF 8
ENDMDL
MODEL 5
REMARK VINA RESULT:      -6.1      3.181      7.368
REMARK  8 active torsions:
REMARK  status: ('A' for Active; 'I' for Inactive)
REMARK    1  A    between atoms: N_2  and  C_10 
REMARK    2  A    between atoms: C_4  and  N_7 
REMARK    3  A    between atoms: C_9  and  C_11 
REMARK       I    between atoms: C_9  and  N_16 
REMARK    4  A    between atoms: N_16  and  C_18 
REMARK    5  A    between atoms: C_17  and  C_26 
REMARK    6  A    between atoms: C_17  and  C_27 
REMARK    7  A    between atoms: C_26  and  O_30 
REMARK    8  A    between atoms: C_27  and  O_29 
ROOT
HETATM    1  C   UNL     1     -39.201 -49.357  13.452  1.00  0.00     0.122 A 
HETATM    2  N   UNL     1     -40.639 -48.221  12.278  1.00  0.00    -0.322 N 
HETATM    3  C   UNL     1     -39.494 -48.972  12.144  1.00  0.00     0.140 A 
HETATM    4  C   UNL     1     -38.063 -50.172  13.674  1.00  0.00     0.136 A 
HETATM    5  N   UNL     1     -40.119 -48.841  14.345  1.00  0.00    -0.346 N 
ATOM      6  HN  UNL     1     -40.139 -48.965  15.356  1.00  0.00     0.167 HD
HETATM    7  C   UNL     1     -40.956 -48.160  13.609  1.00  0.00     0.185 A 
HETATM    8  N   UNL     1     -38.793 -49.294  11.045  1.00  0.00    -0.336 N 
ATOM      9  HN  UNL     1     -39.047 -49.020  10.096  1.00  0.00     0.168 HD
HETATM   10  N   UNL     1     -37.287 -50.455  12.590  1.00  0.00    -0.337 N 
ATOM     11  HN  UNL     1     -36.414 -50.971  12.693  1.00  0.00     0.168 HD
HETATM   12  C   UNL     1     -37.705 -50.031  11.366  1.00  0.00     0.183 A 
ENDROOT
BRANCH   4  13
HETATM   13  N   UNL     1     -37.714 -50.628  14.937  1.00  0.00    -0.352 N 
HETATM   14  C   UNL     1     -38.730 -51.064  15.919  1.00  0.00     0.178 C 
HETATM   15  C   UNL     1     -38.058 -50.811  17.291  1.00  0.00     0.037 C 
HETATM   16  C   UNL     1     -36.596 -50.527  16.979  1.00  0.00     0.022 C 
HETATM   17  C   UNL     1     -36.667 -49.864  15.618  1.00  0.00     0.125 C 
BRANCH  14  18
HETATM   18  C   UNL     1     -39.138 -52.544  15.720  1.00  0.00     0.240 C 
HETATM   19  N   UNL     1     -40.179 -52.721  14.819  1.00  0.00    -0.355 N 
HETATM   20  H   UNL     1     -40.466 -51.905  14.283  1.00  0.00     0.162 HD
HETATM   21  O   UNL     1     -38.643 -53.472  16.356  1.00  0.00    -0.271 OA
BRANCH  19  22
HETATM   22  C   UNL     1     -40.773 -53.996  14.570  1.00  0.00     0.084 A 
HETATM   23  C   UNL     1     -41.323 -54.373  13.221  1.00  0.00     0.027 A 
HETATM   24  C   UNL     1     -42.257 -54.097  14.359  1.00  0.00     0.027 A 
ENDBRANCH  19  22
ENDBRANCH  14  18
ENDBRANCH   4  13
BRANCH   2  25
HETATM   25  C   UNL     1     -41.505 -47.598  11.323  1.00  0.00     0.094 C 
HETATM   26  C   UNL     1     -40.956 -46.296  10.679  1.00  0.00     0.039 C 
HETATM   27  C   UNL     1     -42.461 -45.862  10.517  1.00  0.00     0.006 C 
HETATM   28  C   UNL     1     -42.666 -46.703  11.837  1.00  0.00     0.039 C 
BRANCH  27  29
HETATM   29  C   UNL     1     -42.739 -44.370  10.669  1.00  0.00     0.175 C 
BRANCH  29  30
HETATM   30  O   UNL     1     -43.807 -43.997   9.803  1.00  0.00    -0.400 OA
HETATM   31  H   UNL     1     -43.806 -44.629   9.060  1.00  0.00     0.209 HD
ENDBRANCH  29  30
ENDBRANCH  27  29
BRANCH  27  32
HETATM   32  C   UNL     1     -43.200 -46.431   9.287  1.00  0.00     0.175 C 
BRANCH  32  33
HETATM   33  O   UNL     1     -42.673 -45.864   8.093  1.00  0.00    -0.400 OA
HETATM   34  H   UNL     1     -42.441 -44.937   8.305  1.00  0.00     0.209 HD
ENDBRANCH  32  33
ENDBRANCH  27  32
ENDBRANCH   2  25
TORSDOF 8
ENDMDL
MODEL 6
REMARK VINA RESULT:      -6.1      2.206      7.662
REMARK  8 active torsions:
REMARK  status: ('A' for Active; 'I' for Inactive)
REMARK    1  A    between atoms: N_2  and  C_10 
REMARK    2  A    between atoms: C_4  and  N_7 
REMARK    3  A    between atoms: C_9  and  C_11 
REMARK       I    between atoms: C_9  and  N_16 
REMARK    4  A    between atoms: N_16  and  C_18 
REMARK    5  A    between atoms: C_17  and  C_26 
REMARK    6  A    between atoms: C_17  and  C_27 
REMARK    7  A    between atoms: C_26  and  O_30 
REMARK    8  A    between atoms: C_27  and  O_29 
ROOT
HETATM    1  C   UNL     1     -40.621 -50.019  12.955  1.00  0.00     0.122 A 
HETATM    2  N   UNL     1     -40.763 -48.067  12.003  1.00  0.00    -0.322 N 
HETATM    3  C   UNL     1     -40.236 -48.687  13.112  1.00  0.00     0.140 A 
HETATM    4  C   UNL     1     -40.220 -50.956  13.939  1.00  0.00     0.136 A 
HETATM    5  N   UNL     1     -41.370 -50.193  11.808  1.00  0.00    -0.346 N 
ATOM      6  HN  UNL     1     -41.777 -51.060  11.457  1.00  0.00     0.167 HD
HETATM    7  C   UNL     1     -41.443 -49.004  11.272  1.00  0.00     0.185 A 
HETATM    8  N   UNL     1     -39.513 -48.184  14.125  1.00  0.00    -0.336 N 
ATOM      9  HN  UNL     1     -39.223 -47.209  14.200  1.00  0.00     0.168 HD
HETATM   10  N   UNL     1     -39.549 -50.464  15.019  1.00  0.00    -0.337 N 
ATOM     11  HN  UNL     1     -39.299 -51.072  15.800  1.00  0.00     0.168 HD
HETATM   12  C   UNL     1     -39.220 -49.144  15.032  1.00  0.00     0.183 A 
ENDROOT
BRANCH   4  13
HETATM   13  N   UNL     1     -40.530 -52.305  13.848  1.00  0.00    -0.352 N 
HETATM   14  C   UNL     1     -41.745 -52.872  14.470  1.00  0.00     0.178 C 
HETATM   15  C   UNL     1     -41.372 -54.349  14.746  1.00  0.00     0.037 C 
HETATM   16  C   UNL     1     -40.074 -54.586  13.988  1.00  0.00     0.022 C 
HETATM   17  C   UNL     1     -39.406 -53.225  14.033  1.00  0.00     0.125 C 
BRANCH  14  18
HETATM   18  C   UNL     1     -42.988 -52.732  13.559  1.00  0.00     0.240 C 
HETATM   19  N   UNL     1     -44.184 -52.625  14.255  1.00  0.00    -0.355 N 
HETATM   20  H   UNL     1     -44.119 -52.504  15.263  1.00  0.00     0.162 HD
HETATM   21  O   UNL     1     -42.935 -52.789  12.332  1.00  0.00    -0.271 OA
BRANCH  19  22
HETATM   22  C   UNL     1     -45.454 -52.590  13.603  1.00  0.00     0.084 A 
HETATM   23  C   UNL     1     -46.309 -51.352  13.583  1.00  0.00     0.027 A 
HETATM   24  C   UNL     1     -46.710 -52.524  14.425  1.00  0.00     0.027 A 
ENDBRANCH  19  22
ENDBRANCH  14  18
ENDBRANCH   4  13
BRANCH   2  25
HETATM   25  C   UNL     1     -40.671 -46.727  11.509  1.00  0.00     0.094 C 
HETATM   26  C   UNL     1     -41.102 -45.619  12.509  1.00  0.00     0.039 C 
HETATM   27  C   UNL     1     -41.494 -44.770  11.243  1.00  0.00     0.006 C 
HETATM   28  C   UNL     1     -41.812 -46.180  10.608  1.00  0.00     0.039 C 
BRANCH  27  29
HETATM   29  C   UNL     1     -42.709 -43.862  11.405  1.00  0.00     0.175 C 
BRANCH  29  30
HETATM   30  O   UNL     1     -43.382 -43.744  10.155  1.00  0.00    -0.400 OA
HETATM   31  H   UNL     1     -43.218 -42.841   9.825  1.00  0.00     0.209 HD
ENDBRANCH  29  30
ENDBRANCH  27  29
BRANCH  27  32
HETATM   32  C   UNL     1     -40.339 -44.014  10.551  1.00  0.00     0.175 C 
BRANCH  32  33
HETATM   33  O   UNL     1     -40.676 -42.642  10.393  1.00  0.00    -0.400 OA
HETATM   34  H   UNL     1     -41.502 -42.618   9.868  1.00  0.00     0.209 HD
ENDBRANCH  32  33
ENDBRANCH  27  32
ENDBRANCH   2  25
TORSDOF 8
ENDMDL
MODEL 7
REMARK VINA RESULT:      -6.0      2.716      8.273
REMARK  8 active torsions:
REMARK  status: ('A' for Active; 'I' for Inactive)
REMARK    1  A    between atoms: N_2  and  C_10 
REMARK    2  A    between atoms: C_4  and  N_7 
REMARK    3  A    between atoms: C_9  and  C_11 
REMARK       I    between atoms: C_9  and  N_16 
REMARK    4  A    between atoms: N_16  and  C_18 
REMARK    5  A    between atoms: C_17  and  C_26 
REMARK    6  A    between atoms: C_17  and  C_27 
REMARK    7  A    between atoms: C_26  and  O_30 
REMARK    8  A    between atoms: C_27  and  O_29 
ROOT
HETATM    1  C   UNL     1     -40.144 -47.652  11.972  1.00  0.00     0.122 A 
HETATM    2  N   UNL     1     -40.726 -45.576  12.269  1.00  0.00    -0.322 N 
HETATM    3  C   UNL     1     -41.052 -46.690  11.530  1.00  0.00     0.140 A 
HETATM    4  C   UNL     1     -40.215 -48.952  11.412  1.00  0.00     0.136 A 
HETATM    5  N   UNL     1     -39.288 -47.135  12.924  1.00  0.00    -0.346 N 
ATOM      6  HN  UNL     1     -38.533 -47.619  13.409  1.00  0.00     0.167 HD
HETATM    7  C   UNL     1     -39.659 -45.891  13.068  1.00  0.00     0.185 A 
HETATM    8  N   UNL     1     -42.007 -46.865  10.603  1.00  0.00    -0.336 N 
ATOM      9  HN  UNL     1     -42.676 -46.150  10.318  1.00  0.00     0.168 HD
HETATM   10  N   UNL     1     -41.124 -49.142  10.413  1.00  0.00    -0.337 N 
ATOM     11  HN  UNL     1     -41.174 -50.031   9.915  1.00  0.00     0.168 HD
HETATM   12  C   UNL     1     -41.963 -48.119  10.097  1.00  0.00     0.183 A 
ENDROOT
BRANCH   4  13
HETATM   13  N   UNL     1     -39.374 -49.979  11.814  1.00  0.00    -0.352 N 
HETATM   14  C   UNL     1     -39.653 -50.793  13.016  1.00  0.00     0.178 C 
HETATM   15  C   UNL     1     -38.255 -51.268  13.480  1.00  0.00     0.037 C 
HETATM   16  C   UNL     1     -37.312 -50.932  12.334  1.00  0.00     0.022 C 
HETATM   17  C   UNL     1     -37.941 -49.688  11.738  1.00  0.00     0.125 C 
BRANCH  14  18
HETATM   18  C   UNL     1     -40.612 -51.970  12.715  1.00  0.00     0.240 C 
HETATM   19  N   UNL     1     -40.767 -52.851  13.776  1.00  0.00    -0.355 N 
HETATM   20  H   UNL     1     -40.367 -52.570  14.668  1.00  0.00     0.162 HD
HETATM   21  O   UNL     1     -41.129 -52.155  11.615  1.00  0.00    -0.271 OA
BRANCH  19  22
HETATM   22  C   UNL     1     -41.528 -54.055  13.671  1.00  0.00     0.084 A 
HETATM   23  C   UNL     1     -43.003 -54.098  13.964  1.00  0.00     0.027 A 
HETATM   24  C   UNL     1     -42.034 -54.726  14.918  1.00  0.00     0.027 A 
ENDBRANCH  19  22
ENDBRANCH  14  18
ENDBRANCH   4  13
BRANCH   2  25
HETATM   25  C   UNL     1     -41.312 -44.274  12.367  1.00  0.00     0.094 C 
HETATM   26  C   UNL     1     -40.835 -43.249  11.303  1.00  0.00     0.039 C 
HETATM   27  C   UNL     1     -41.142 -42.141  12.378  1.00  0.00     0.006 C 
HETATM   28  C   UNL     1     -40.741 -43.270  13.405  1.00  0.00     0.039 C 
BRANCH  27  29
HETATM   29  C   UNL     1     -40.210 -40.934  12.370  1.00  0.00     0.175 C 
BRANCH  29  30
HETATM   30  O   UNL     1     -40.660 -39.996  11.396  1.00  0.00    -0.400 OA
HETATM   31  H   UNL     1     -41.604 -40.181  11.235  1.00  0.00     0.209 HD
ENDBRANCH  29  30
ENDBRANCH  27  29
BRANCH  27  32
HETATM   32  C   UNL     1     -42.616 -41.691  12.483  1.00  0.00     0.175 C 
BRANCH  32  33
HETATM   33  O   UNL     1     -42.713 -40.512  13.273  1.00  0.00    -0.400 OA
HETATM   34  H   UNL     1     -41.800 -40.284  13.544  1.00  0.00     0.209 HD
ENDBRANCH  32  33
ENDBRANCH  27  32
ENDBRANCH   2  25
TORSDOF 8
ENDMDL
MODEL 8
REMARK VINA RESULT:      -5.9      4.444      8.078
REMARK  8 active torsions:
REMARK  status: ('A' for Active; 'I' for Inactive)
REMARK    1  A    between atoms: N_2  and  C_10 
REMARK    2  A    between atoms: C_4  and  N_7 
REMARK    3  A    between atoms: C_9  and  C_11 
REMARK       I    between atoms: C_9  and  N_16 
REMARK    4  A    between atoms: N_16  and  C_18 
REMARK    5  A    between atoms: C_17  and  C_26 
REMARK    6  A    between atoms: C_17  and  C_27 
REMARK    7  A    between atoms: C_26  and  O_30 
REMARK    8  A    between atoms: C_27  and  O_29 
ROOT
HETATM    1  C   UNL     1     -39.251 -49.037  13.779  1.00  0.00     0.122 A 
HETATM    2  N   UNL     1     -40.627 -48.003  12.446  1.00  0.00    -0.322 N 
HETATM    3  C   UNL     1     -39.560 -48.872  12.429  1.00  0.00     0.140 A 
HETATM    4  C   UNL     1     -38.183 -49.902  14.125  1.00  0.00     0.136 A 
HETATM    5  N   UNL     1     -40.083 -48.280  14.580  1.00  0.00    -0.346 N 
ATOM      6  HN  UNL     1     -40.074 -48.214  15.598  1.00  0.00     0.167 HD
HETATM    7  C   UNL     1     -40.884 -47.669  13.749  1.00  0.00     0.185 A 
HETATM    8  N   UNL     1     -38.935 -49.455  11.394  1.00  0.00    -0.336 N 
ATOM      9  HN  UNL     1     -39.200 -49.337  10.416  1.00  0.00     0.168 HD
HETATM   10  N   UNL     1     -37.479 -50.451  13.094  1.00  0.00    -0.337 N 
ATOM     11  HN  UNL     1     -36.652 -51.022  13.273  1.00  0.00     0.168 HD
HETATM   12  C   UNL     1     -37.905 -50.222  11.823  1.00  0.00     0.183 A 
ENDROOT
BRANCH   4  13
HETATM   13  N   UNL     1     -37.827 -50.150  15.442  1.00  0.00    -0.352 N 
HETATM   14  C   UNL     1     -36.499 -49.781  15.975  1.00  0.00     0.178 C 
HETATM   15  C   UNL     1     -36.264 -50.788  17.128  1.00  0.00     0.037 C 
HETATM   16  C   UNL     1     -37.609 -51.464  17.354  1.00  0.00     0.022 C 
HETATM   17  C   UNL     1     -38.224 -51.457  15.968  1.00  0.00     0.125 C 
BRANCH  14  18
HETATM   18  C   UNL     1     -36.448 -48.310  16.452  1.00  0.00     0.240 C 
HETATM   19  N   UNL     1     -35.489 -48.070  17.426  1.00  0.00    -0.355 N 
HETATM   20  H   UNL     1     -34.835 -48.824  17.623  1.00  0.00     0.162 HD
HETATM   21  O   UNL     1     -37.232 -47.447  16.063  1.00  0.00    -0.271 OA
BRANCH  19  22
HETATM   22  C   UNL     1     -35.348 -46.803  18.072  1.00  0.00     0.084 A 
HETATM   23  C   UNL     1     -34.220 -46.512  19.025  1.00  0.00     0.027 A 
HETATM   24  C   UNL     1     -35.614 -46.686  19.546  1.00  0.00     0.027 A 
ENDBRANCH  19  22
ENDBRANCH  14  18
ENDBRANCH   4  13
BRANCH   2  25
HETATM   25  C   UNL     1     -41.470 -47.487  11.412  1.00  0.00     0.094 C 
HETATM   26  C   UNL     1     -40.947 -46.207  10.705  1.00  0.00     0.039 C 
HETATM   27  C   UNL     1     -42.459 -45.854  10.444  1.00  0.00     0.006 C 
HETATM   28  C   UNL     1     -42.693 -46.614  11.808  1.00  0.00     0.039 C 
BRANCH  27  29
HETATM   29  C   UNL     1     -42.808 -44.370  10.480  1.00  0.00     0.175 C 
BRANCH  29  30
HETATM   30  O   UNL     1     -43.943 -44.131   9.652  1.00  0.00    -0.400 OA
HETATM   31  H   UNL     1     -43.608 -43.933   8.758  1.00  0.00     0.209 HD
ENDBRANCH  29  30
ENDBRANCH  27  29
BRANCH  27  32
HETATM   32  C   UNL     1     -43.112 -46.537   9.223  1.00  0.00     0.175 C 
BRANCH  32  33
HETATM   33  O   UNL     1     -42.673 -45.916   8.021  1.00  0.00    -0.400 OA
HETATM   34  H   UNL     1     -41.917 -46.446   7.695  1.00  0.00     0.209 HD
ENDBRANCH  32  33
ENDBRANCH  27  32
ENDBRANCH   2  25
TORSDOF 8
ENDMDL
MODEL 9
REMARK VINA RESULT:      -5.9      2.133      7.859
REMARK  8 active torsions:
REMARK  status: ('A' for Active; 'I' for Inactive)
REMARK    1  A    between atoms: N_2  and  C_10 
REMARK    2  A    between atoms: C_4  and  N_7 
REMARK    3  A    between atoms: C_9  and  C_11 
REMARK       I    between atoms: C_9  and  N_16 
REMARK    4  A    between atoms: N_16  and  C_18 
REMARK    5  A    between atoms: C_17  and  C_26 
REMARK    6  A    between atoms: C_17  and  C_27 
REMARK    7  A    between atoms: C_26  and  O_30 
REMARK    8  A    between atoms: C_27  and  O_29 
ROOT
HETATM    1  C   UNL     1     -42.170 -49.736  13.230  1.00  0.00     0.122 A 
HETATM    2  N   UNL     1     -42.414 -47.701  12.497  1.00  0.00    -0.322 N 
HETATM    3  C   UNL     1     -42.128 -48.404  13.645  1.00  0.00     0.140 A 
HETATM    4  C   UNL     1     -41.900 -50.746  14.186  1.00  0.00     0.136 A 
HETATM    5  N   UNL     1     -42.492 -49.835  11.891  1.00  0.00    -0.346 N 
ATOM      6  HN  UNL     1     -42.591 -50.685  11.338  1.00  0.00     0.167 HD
HETATM    7  C   UNL     1     -42.640 -48.601  11.489  1.00  0.00     0.185 A 
HETATM    8  N   UNL     1     -41.857 -47.966  14.884  1.00  0.00    -0.336 N 
ATOM      9  HN  UNL     1     -41.806 -46.984  15.153  1.00  0.00     0.168 HD
HETATM   10  N   UNL     1     -41.696 -50.339  15.471  1.00  0.00    -0.337 N 
ATOM     11  HN  UNL     1     -41.572 -51.020  16.221  1.00  0.00     0.168 HD
HETATM   12  C   UNL     1     -41.661 -49.004  15.730  1.00  0.00     0.183 A 
ENDROOT
BRANCH   4  13
HETATM   13  N   UNL     1     -41.889 -52.094  13.856  1.00  0.00    -0.352 N 
HETATM   14  C   UNL     1     -42.361 -53.133  14.796  1.00  0.00     0.178 C 
HETATM   15  C   UNL     1     -41.572 -54.399  14.383  1.00  0.00     0.037 C 
HETATM   16  C   UNL     1     -40.929 -54.057  13.046  1.00  0.00     0.022 C 
HETATM   17  C   UNL     1     -40.688 -52.565  13.164  1.00  0.00     0.125 C 
BRANCH  14  18
HETATM   18  C   UNL     1     -43.893 -53.335  14.721  1.00  0.00     0.240 C 
HETATM   19  N   UNL     1     -44.490 -52.702  13.640  1.00  0.00    -0.355 N 
HETATM   20  H   UNL     1     -43.868 -52.302  12.942  1.00  0.00     0.162 HD
HETATM   21  O   UNL     1     -44.537 -53.935  15.580  1.00  0.00    -0.271 OA
BRANCH  19  22
HETATM   22  C   UNL     1     -45.905 -52.680  13.446  1.00  0.00     0.084 A 
HETATM   23  C   UNL     1     -46.562 -51.764  12.449  1.00  0.00     0.027 A 
HETATM   24  C   UNL     1     -46.702 -51.496  13.916  1.00  0.00     0.027 A 
ENDBRANCH  19  22
ENDBRANCH  14  18
ENDBRANCH   4  13
BRANCH   2  25
HETATM   25  C   UNL     1     -42.452 -46.300  12.205  1.00  0.00     0.094 C 
HETATM   26  C   UNL     1     -42.058 -45.913  10.754  1.00  0.00     0.039 C 
HETATM   27  C   UNL     1     -41.577 -44.541  11.358  1.00  0.00     0.006 C 
HETATM   28  C   UNL     1     -41.251 -45.413  12.633  1.00  0.00     0.039 C 
BRANCH  27  29
HETATM   29  C   UNL     1     -40.356 -43.915  10.691  1.00  0.00     0.175 C 
BRANCH  29  30
HETATM   30  O   UNL     1     -40.516 -42.500  10.645  1.00  0.00    -0.400 OA
HETATM   31  H   UNL     1     -40.835 -42.219  11.522  1.00  0.00     0.209 HD
ENDBRANCH  29  30
ENDBRANCH  27  29
BRANCH  27  32
HETATM   32  C   UNL     1     -42.676 -43.480  11.585  1.00  0.00     0.175 C 
BRANCH  32  33
HETATM   33  O   UNL     1     -43.168 -43.009  10.337  1.00  0.00    -0.400 OA
HETATM   34  H   UNL     1     -44.009 -42.545  10.528  1.00  0.00     0.209 HD
ENDBRANCH  32  33
ENDBRANCH  27  32
ENDBRANCH   2  25
TORSDOF 8
ENDMDL
