MODEL 1
REMARK VINA RESULT:      -6.5      0.000      0.000
REMARK  6 active torsions:
REMARK  status: ('A' for Active; 'I' for Inactive)
REMARK    1  A    between atoms: C_2  and  C_4 
REMARK    2  A    between atoms: C_4  and  N_5 
REMARK       I    between atoms: N_5  and  C_6 
REMARK    3  A    between atoms: C_6  and  C_8 
REMARK    4  A    between atoms: C_8  and  C_9 
REMARK    5  A    between atoms: C_9  and  C_10 
REMARK    6  A    between atoms: C_15  and  N_19 
ROOT
HETATM    1  C   UNL     1     -40.661 -49.893  12.312  1.00  0.00     0.034 C 
HETATM    2  C   UNL     1     -39.628 -49.270  11.717  1.00  0.00     0.034 C 
HETATM    3  C   UNL     1     -38.274 -49.913  11.508  1.00  0.00     0.069 C 
HETATM    4  N   UNL     1     -39.685 -47.985  11.211  1.00  0.00    -0.195 N 
ATOM      5  HN  UNL     1     -38.838 -47.519  10.883  1.00  0.00     0.184 HD
HETATM    6  C   UNL     1     -40.829 -47.379  11.162  1.00  0.00     0.683 C 
HETATM    7  N   UNL     1     -41.954 -47.973  11.651  1.00  0.00    -0.156 N 
HETATM    8  C   UNL     1     -41.935 -49.138  12.352  1.00  0.00     0.267 C 
HETATM    9  O   UNL     1     -42.918 -49.516  12.981  1.00  0.00    -0.267 OA
HETATM   10  H   UNL     1     -42.805 -47.445  11.724  1.00  0.00     0.187 HD
ENDROOT
BRANCH   1  11
HETATM   11  C   UNL     1     -40.681 -51.286  12.898  1.00  0.00     0.055 C 
BRANCH  11  12
HETATM   12  C   UNL     1     -41.268 -52.344  11.961  1.00  0.00     0.107 C 
BRANCH  12  13
HETATM   13  C   UNL     1     -42.495 -52.993  12.567  1.00  0.00     0.217 C 
HETATM   14  N   UNL     1     -43.645 -52.255  12.365  1.00  0.00    -0.361 N 
HETATM   15  H   UNL     1     -43.579 -51.349  11.922  1.00  0.00     0.162 HD
HETATM   16  O   UNL     1     -42.476 -54.052  13.182  1.00  0.00    -0.274 OA
BRANCH  14  17
HETATM   17  C   UNL     1     -44.929 -52.677  12.890  1.00  0.00     0.126 C 
BRANCH  17  18
HETATM   18  C   UNL     1     -45.975 -51.550  12.884  1.00  0.00    -0.005 C 
HETATM   19  C   UNL     1     -47.013 -51.747  11.776  1.00  0.00     0.011 C 
HETATM   20  C   UNL     1     -46.673 -51.486  14.244  1.00  0.00     0.011 C 
ENDBRANCH  17  18
ENDBRANCH  14  17
ENDBRANCH  12  13
ENDBRANCH  11  12
ENDBRANCH   1  11
BRANCH   6  21
HETATM   21  N   UNL     1     -40.975 -46.114  10.644  1.00  0.00    -0.213 N 
HETATM   22  C   UNL     1     -39.865 -45.198  10.355  1.00  0.00     0.167 C 
HETATM   23  C   UNL     1     -40.102 -43.849  11.049  1.00  0.00     0.188 C 
HETATM   24  O   UNL     1     -41.367 -43.283  10.676  1.00  0.00    -0.388 OA
HETATM   25  C   UNL     1     -42.434 -44.167  11.062  1.00  0.00     0.188 C 
HETATM   26  C   UNL     1     -42.300 -45.533  10.382  1.00  0.00     0.167 C 
ENDBRANCH   6  21
TORSDOF 6
ENDMDL
MODEL 2
REMARK VINA RESULT:      -6.3      2.072      3.217
REMARK  6 active torsions:
REMARK  status: ('A' for Active; 'I' for Inactive)
REMARK    1  A    between atoms: C_2  and  C_4 
REMARK    2  A    between atoms: C_4  and  N_5 
REMARK       I    between atoms: N_5  and  C_6 
REMARK    3  A    between atoms: C_6  and  C_8 
REMARK    4  A    between atoms: C_8  and  C_9 
REMARK    5  A    between atoms: C_9  and  C_10 
REMARK    6  A    between atoms: C_15  and  N_19 
ROOT
HETATM    1  C   UNL     1     -41.291 -52.954  13.199  1.00  0.00     0.034 C 
HETATM    2  C   UNL     1     -40.160 -52.274  13.459  1.00  0.00     0.034 C 
HETATM    3  C   UNL     1     -39.024 -52.834  14.286  1.00  0.00     0.069 C 
HETATM    4  N   UNL     1     -39.895 -51.001  12.990  1.00  0.00    -0.195 N 
ATOM      5  HN  UNL     1     -39.077 -50.488  13.320  1.00  0.00     0.184 HD
HETATM    6  C   UNL     1     -40.700 -50.470  12.126  1.00  0.00     0.683 C 
HETATM    7  N   UNL     1     -41.824 -51.127  11.724  1.00  0.00    -0.156 N 
HETATM    8  C   UNL     1     -42.259 -52.279  12.300  1.00  0.00     0.267 C 
HETATM    9  O   UNL     1     -43.387 -52.710  12.086  1.00  0.00    -0.267 OA
HETATM   10  H   UNL     1     -42.502 -50.651  11.156  1.00  0.00     0.187 HD
ENDROOT
BRANCH   1  11
HETATM   11  C   UNL     1     -41.665 -54.338  13.677  1.00  0.00     0.055 C 
BRANCH  11  12
HETATM   12  C   UNL     1     -42.414 -54.351  15.011  1.00  0.00     0.107 C 
BRANCH  12  13
HETATM   13  C   UNL     1     -43.888 -54.636  14.809  1.00  0.00     0.217 C 
HETATM   14  N   UNL     1     -44.661 -53.492  14.828  1.00  0.00    -0.361 N 
HETATM   15  H   UNL     1     -44.226 -52.605  15.042  1.00  0.00     0.162 HD
HETATM   16  O   UNL     1     -44.353 -55.759  14.656  1.00  0.00    -0.274 OA
BRANCH  14  17
HETATM   17  C   UNL     1     -46.104 -53.539  14.685  1.00  0.00     0.126 C 
BRANCH  17  18
HETATM   18  C   UNL     1     -46.740 -52.142  14.604  1.00  0.00    -0.005 C 
HETATM   19  C   UNL     1     -46.215 -51.216  15.704  1.00  0.00     0.011 C 
HETATM   20  C   UNL     1     -46.462 -51.526  13.232  1.00  0.00     0.011 C 
ENDBRANCH  17  18
ENDBRANCH  14  17
ENDBRANCH  12  13
ENDBRANCH  11  12
ENDBRANCH   1  11
BRANCH   6  21
HETATM   21  N   UNL     1     -40.488 -49.222  11.587  1.00  0.00    -0.213 N 
HETATM   22  C   UNL     1     -39.321 -48.379  11.870  1.00  0.00     0.167 C 
HETATM   23  C   UNL     1     -39.776 -46.991  12.341  1.00  0.00     0.188 C 
HETATM   24  O   UNL     1     -40.655 -46.376  11.388  1.00  0.00    -0.388 OA
HETATM   25  C   UNL     1     -41.831 -47.185  11.210  1.00  0.00     0.188 C 
HETATM   26  C   UNL     1     -41.473 -48.585  10.701  1.00  0.00     0.167 C 
ENDBRANCH   6  21
TORSDOF 6
ENDMDL
MODEL 3
REMARK VINA RESULT:      -6.0      2.048      3.032
REMARK  6 active torsions:
REMARK  status: ('A' for Active; 'I' for Inactive)
REMARK    1  A    between atoms: C_2  and  C_4 
REMARK    2  A    between atoms: C_4  and  N_5 
REMARK       I    between atoms: N_5  and  C_6 
REMARK    3  A    between atoms: C_6  and  C_8 
REMARK    4  A    between atoms: C_8  and  C_9 
REMARK    5  A    between atoms: C_9  and  C_10 
REMARK    6  A    between atoms: C_15  and  N_19 
ROOT
HETATM    1  C   UNL     1     -42.125 -51.501  13.192  1.00  0.00     0.034 C 
HETATM    2  C   UNL     1     -42.781 -50.347  13.405  1.00  0.00     0.034 C 
HETATM    3  C   UNL     1     -43.697 -50.116  14.588  1.00  0.00     0.069 C 
HETATM    4  N   UNL     1     -42.684 -49.236  12.589  1.00  0.00    -0.195 N 
ATOM      5  HN  UNL     1     -43.297 -48.433  12.731  1.00  0.00     0.184 HD
HETATM    6  C   UNL     1     -41.802 -49.230  11.640  1.00  0.00     0.683 C 
HETATM    7  N   UNL     1     -41.018 -50.321  11.409  1.00  0.00    -0.156 N 
HETATM    8  C   UNL     1     -41.206 -51.516  12.028  1.00  0.00     0.267 C 
HETATM    9  O   UNL     1     -40.651 -52.534  11.627  1.00  0.00    -0.267 OA
HETATM   10  H   UNL     1     -40.433 -50.350  10.593  1.00  0.00     0.187 HD
ENDROOT
BRANCH   1  11
HETATM   11  C   UNL     1     -42.183 -52.761  14.025  1.00  0.00     0.055 C 
BRANCH  11  12
HETATM   12  C   UNL     1     -42.862 -53.938  13.322  1.00  0.00     0.107 C 
BRANCH  12  13
HETATM   13  C   UNL     1     -44.364 -53.751  13.266  1.00  0.00     0.217 C 
HETATM   14  N   UNL     1     -44.974 -53.966  14.486  1.00  0.00    -0.361 N 
HETATM   15  H   UNL     1     -44.419 -54.291  15.266  1.00  0.00     0.162 HD
HETATM   16  O   UNL     1     -44.979 -53.453  12.249  1.00  0.00    -0.274 OA
BRANCH  14  17
HETATM   17  C   UNL     1     -46.412 -53.871  14.651  1.00  0.00     0.126 C 
BRANCH  17  18
HETATM   18  C   UNL     1     -46.839 -52.634  15.457  1.00  0.00    -0.005 C 
HETATM   19  C   UNL     1     -45.874 -52.350  16.611  1.00  0.00     0.011 C 
HETATM   20  C   UNL     1     -46.917 -51.417  14.534  1.00  0.00     0.011 C 
ENDBRANCH  17  18
ENDBRANCH  14  17
ENDBRANCH  12  13
ENDBRANCH  11  12
ENDBRANCH   1  11
BRANCH   6  21
HETATM   21  N   UNL     1     -41.620 -48.152  10.806  1.00  0.00    -0.213 N 
HETATM   22  C   UNL     1     -40.547 -47.161  10.945  1.00  0.00     0.167 C 
HETATM   23  C   UNL     1     -41.140 -45.745  10.989  1.00  0.00     0.188 C 
HETATM   24  O   UNL     1     -41.957 -45.484   9.838  1.00  0.00    -0.388 OA
HETATM   25  C   UNL     1     -43.052 -46.415   9.790  1.00  0.00     0.188 C 
HETATM   26  C   UNL     1     -42.550 -47.861   9.705  1.00  0.00     0.167 C 
ENDBRANCH   6  21
TORSDOF 6
ENDMDL
MODEL 4
REMARK VINA RESULT:      -6.0      1.137      1.839
REMARK  6 active torsions:
REMARK  status: ('A' for Active; 'I' for Inactive)
REMARK    1  A    between atoms: C_2  and  C_4 
REMARK    2  A    between atoms: C_4  and  N_5 
REMARK       I    between atoms: N_5  and  C_6 
REMARK    3  A    between atoms: C_6  and  C_8 
REMARK    4  A    between atoms: C_8  and  C_9 
REMARK    5  A    between atoms: C_9  and  C_10 
REMARK    6  A    between atoms: C_15  and  N_19 
ROOT
HETATM    1  C   UNL     1     -40.944 -49.950  12.272  1.00  0.00     0.034 C 
HETATM    2  C   UNL     1     -42.051 -49.192  12.360  1.00  0.00     0.034 C 
HETATM    3  C   UNL     1     -43.292 -49.614  13.117  1.00  0.00     0.069 C 
HETATM    4  N   UNL     1     -42.181 -47.938  11.792  1.00  0.00    -0.195 N 
ATOM      5  HN  UNL     1     -43.083 -47.463  11.787  1.00  0.00     0.184 HD
HETATM    6  C   UNL     1     -41.138 -47.377  11.266  1.00  0.00     0.683 C 
HETATM    7  N   UNL     1     -39.943 -48.030  11.219  1.00  0.00    -0.156 N 
HETATM    8  C   UNL     1     -39.796 -49.337  11.561  1.00  0.00     0.267 C 
HETATM    9  O   UNL     1     -38.775 -49.957  11.281  1.00  0.00    -0.267 OA
HETATM   10  H   UNL     1     -39.181 -47.637  10.696  1.00  0.00     0.187 HD
ENDROOT
BRANCH   1  11
HETATM   11  C   UNL     1     -40.723 -51.328  12.852  1.00  0.00     0.055 C 
BRANCH  11  12
HETATM   12  C   UNL     1     -41.242 -52.463  11.966  1.00  0.00     0.107 C 
BRANCH  12  13
HETATM   13  C   UNL     1     -42.364 -53.220  12.645  1.00  0.00     0.217 C 
HETATM   14  N   UNL     1     -43.603 -52.937  12.104  1.00  0.00    -0.361 N 
HETATM   15  H   UNL     1     -43.679 -52.229  11.388  1.00  0.00     0.162 HD
HETATM   16  O   UNL     1     -42.200 -53.992  13.582  1.00  0.00    -0.274 OA
BRANCH  14  17
HETATM   17  C   UNL     1     -44.820 -53.529  12.625  1.00  0.00     0.126 C 
BRANCH  17  18
HETATM   18  C   UNL     1     -45.680 -52.528  13.414  1.00  0.00    -0.005 C 
HETATM   19  C   UNL     1     -46.542 -51.668  12.487  1.00  0.00     0.011 C 
HETATM   20  C   UNL     1     -46.573 -53.281  14.403  1.00  0.00     0.011 C 
ENDBRANCH  17  18
ENDBRANCH  14  17
ENDBRANCH  12  13
ENDBRANCH  11  12
ENDBRANCH   1  11
BRANCH   6  21
HETATM   21  N   UNL     1     -41.177 -46.119  10.710  1.00  0.00    -0.213 N 
HETATM   22  C   UNL     1     -39.995 -45.301  10.416  1.00  0.00     0.167 C 
HETATM   23  C   UNL     1     -40.137 -43.918  11.067  1.00  0.00     0.188 C 
HETATM   24  O   UNL     1     -41.348 -43.267  10.657  1.00  0.00    -0.388 OA
HETATM   25  C   UNL     1     -42.487 -44.054  11.049  1.00  0.00     0.188 C 
HETATM   26  C   UNL     1     -42.449 -45.446  10.410  1.00  0.00     0.167 C 
ENDBRANCH   6  21
TORSDOF 6
ENDMDL
MODEL 5
REMARK VINA RESULT:      -6.0      3.288      6.761
REMARK  6 active torsions:
REMARK  status: ('A' for Active; 'I' for Inactive)
REMARK    1  A    between atoms: C_2  and  C_4 
REMARK    2  A    between atoms: C_4  and  N_5 
REMARK       I    between atoms: N_5  and  C_6 
REMARK    3  A    between atoms: C_6  and  C_8 
REMARK    4  A    between atoms: C_8  and  C_9 
REMARK    5  A    between atoms: C_9  and  C_10 
REMARK    6  A    between atoms: C_15  and  N_19 
ROOT
HETATM    1  C   UNL     1     -40.251 -45.140  12.100  1.00  0.00     0.034 C 
HETATM    2  C   UNL     1     -40.003 -45.915  13.171  1.00  0.00     0.034 C 
HETATM    3  C   UNL     1     -40.151 -45.435  14.598  1.00  0.00     0.069 C 
HETATM    4  N   UNL     1     -39.607 -47.237  13.097  1.00  0.00    -0.195 N 
ATOM      5  HN  UNL     1     -39.315 -47.738  13.936  1.00  0.00     0.184 HD
HETATM    6  C   UNL     1     -39.611 -47.830  11.945  1.00  0.00     0.683 C 
HETATM    7  N   UNL     1     -39.945 -47.151  10.812  1.00  0.00    -0.156 N 
HETATM    8  C   UNL     1     -40.136 -45.805  10.780  1.00  0.00     0.267 C 
HETATM    9  O   UNL     1     -40.194 -45.197   9.716  1.00  0.00    -0.267 OA
HETATM   10  H   UNL     1     -39.820 -47.586   9.915  1.00  0.00     0.187 HD
ENDROOT
BRANCH   1  11
HETATM   11  C   UNL     1     -40.677 -43.690  12.091  1.00  0.00     0.055 C 
BRANCH  11  12
HETATM   12  C   UNL     1     -42.182 -43.485  12.281  1.00  0.00     0.107 C 
BRANCH  12  13
HETATM   13  C   UNL     1     -42.913 -43.532  10.956  1.00  0.00     0.217 C 
HETATM   14  N   UNL     1     -43.243 -44.817  10.573  1.00  0.00    -0.361 N 
HETATM   15  H   UNL     1     -42.924 -45.597  11.131  1.00  0.00     0.162 HD
HETATM   16  O   UNL     1     -43.177 -42.542  10.284  1.00  0.00    -0.274 OA
BRANCH  14  17
HETATM   17  C   UNL     1     -43.920 -45.095   9.321  1.00  0.00     0.126 C 
BRANCH  17  18
HETATM   18  C   UNL     1     -44.200 -46.592   9.113  1.00  0.00    -0.005 C 
HETATM   19  C   UNL     1     -43.582 -47.443  10.225  1.00  0.00     0.011 C 
HETATM   20  C   UNL     1     -45.711 -46.831   9.057  1.00  0.00     0.011 C 
ENDBRANCH  17  18
ENDBRANCH  14  17
ENDBRANCH  12  13
ENDBRANCH  11  12
ENDBRANCH   1  11
BRANCH   6  21
HETATM   21  N   UNL     1     -39.261 -49.152  11.793  1.00  0.00    -0.213 N 
HETATM   22  C   UNL     1     -40.217 -50.260  11.690  1.00  0.00     0.167 C 
HETATM   23  C   UNL     1     -39.885 -51.339  12.731  1.00  0.00     0.188 C 
HETATM   24  O   UNL     1     -38.530 -51.793  12.602  1.00  0.00    -0.388 OA
HETATM   25  C   UNL     1     -37.622 -50.696  12.804  1.00  0.00     0.188 C 
HETATM   26  C   UNL     1     -37.856 -49.582  11.778  1.00  0.00     0.167 C 
ENDBRANCH   6  21
TORSDOF 6
ENDMDL
MODEL 6
REMARK VINA RESULT:      -5.9      3.392      4.422
REMARK  6 active torsions:
REMARK  status: ('A' for Active; 'I' for Inactive)
REMARK    1  A    between atoms: C_2  and  C_4 
REMARK    2  A    between atoms: C_4  and  N_5 
REMARK       I    between atoms: N_5  and  C_6 
REMARK    3  A    between atoms: C_6  and  C_8 
REMARK    4  A    between atoms: C_8  and  C_9 
REMARK    5  A    between atoms: C_9  and  C_10 
REMARK    6  A    between atoms: C_15  and  N_19 
ROOT
HETATM    1  C   UNL     1     -40.901 -53.165  13.379  1.00  0.00     0.034 C 
HETATM    2  C   UNL     1     -39.710 -53.247  13.997  1.00  0.00     0.034 C 
HETATM    3  C   UNL     1     -39.128 -54.545  14.515  1.00  0.00     0.069 C 
HETATM    4  N   UNL     1     -38.871 -52.170  14.213  1.00  0.00    -0.195 N 
ATOM      5  HN  UNL     1     -38.038 -52.270  14.793  1.00  0.00     0.184 HD
HETATM    6  C   UNL     1     -39.159 -51.031  13.666  1.00  0.00     0.683 C 
HETATM    7  N   UNL     1     -40.299 -50.876  12.937  1.00  0.00    -0.156 N 
HETATM    8  C   UNL     1     -41.270 -51.825  12.863  1.00  0.00     0.267 C 
HETATM    9  O   UNL     1     -42.379 -51.565  12.405  1.00  0.00    -0.267 OA
HETATM   10  H   UNL     1     -40.573 -49.960  12.630  1.00  0.00     0.187 HD
ENDROOT
BRANCH   1  11
HETATM   11  C   UNL     1     -41.880 -54.285  13.113  1.00  0.00     0.055 C 
BRANCH  11  12
HETATM   12  C   UNL     1     -42.888 -54.509  14.242  1.00  0.00     0.107 C 
BRANCH  12  13
HETATM   13  C   UNL     1     -44.302 -54.232  13.778  1.00  0.00     0.217 C 
HETATM   14  N   UNL     1     -45.112 -53.754  14.788  1.00  0.00    -0.361 N 
HETATM   15  H   UNL     1     -44.748 -53.699  15.730  1.00  0.00     0.162 HD
HETATM   16  O   UNL     1     -44.696 -54.421  12.633  1.00  0.00    -0.274 OA
BRANCH  14  17
HETATM   17  C   UNL     1     -46.514 -53.452  14.570  1.00  0.00     0.126 C 
BRANCH  17  18
HETATM   18  C   UNL     1     -46.794 -51.943  14.488  1.00  0.00    -0.005 C 
HETATM   19  C   UNL     1     -45.951 -51.156  15.494  1.00  0.00     0.011 C 
HETATM   20  C   UNL     1     -46.512 -51.442  13.070  1.00  0.00     0.011 C 
ENDBRANCH  17  18
ENDBRANCH  14  17
ENDBRANCH  12  13
ENDBRANCH  11  12
ENDBRANCH   1  11
BRANCH   6  21
HETATM   21  N   UNL     1     -38.359 -49.921  13.806  1.00  0.00    -0.213 N 
HETATM   22  C   UNL     1     -37.285 -49.786  14.796  1.00  0.00     0.167 C 
HETATM   23  C   UNL     1     -37.481 -48.502  15.615  1.00  0.00     0.188 C 
HETATM   24  O   UNL     1     -37.569 -47.348  14.767  1.00  0.00    -0.388 OA
HETATM   25  C   UNL     1     -38.691 -47.475  13.876  1.00  0.00     0.188 C 
HETATM   26  C   UNL     1     -38.560 -48.716  12.987  1.00  0.00     0.167 C 
ENDBRANCH   6  21
TORSDOF 6
ENDMDL
MODEL 7
REMARK VINA RESULT:      -5.8      2.528      7.379
REMARK  6 active torsions:
REMARK  status: ('A' for Active; 'I' for Inactive)
REMARK    1  A    between atoms: C_2  and  C_4 
REMARK    2  A    between atoms: C_4  and  N_5 
REMARK       I    between atoms: N_5  and  C_6 
REMARK    3  A    between atoms: C_6  and  C_8 
REMARK    4  A    between atoms: C_8  and  C_9 
REMARK    5  A    between atoms: C_9  and  C_10 
REMARK    6  A    between atoms: C_15  and  N_19 
ROOT
HETATM    1  C   UNL     1     -41.102 -50.990  13.338  1.00  0.00     0.034 C 
HETATM    2  C   UNL     1     -42.111 -50.566  14.119  1.00  0.00     0.034 C 
HETATM    3  C   UNL     1     -42.324 -49.114  14.489  1.00  0.00     0.069 C 
HETATM    4  N   UNL     1     -43.077 -51.395  14.657  1.00  0.00    -0.195 N 
ATOM      5  HN  UNL     1     -43.745 -51.037  15.340  1.00  0.00     0.184 HD
HETATM    6  C   UNL     1     -43.122 -52.634  14.280  1.00  0.00     0.683 C 
HETATM    7  N   UNL     1     -42.199 -53.132  13.411  1.00  0.00    -0.156 N 
HETATM    8  C   UNL     1     -41.101 -52.437  13.012  1.00  0.00     0.267 C 
HETATM    9  O   UNL     1     -40.173 -52.991  12.431  1.00  0.00    -0.267 OA
HETATM   10  H   UNL     1     -42.168 -54.120  13.230  1.00  0.00     0.187 HD
ENDROOT
BRANCH   1  11
HETATM   11  C   UNL     1     -40.003 -50.157  12.720  1.00  0.00     0.055 C 
BRANCH  11  12
HETATM   12  C   UNL     1     -40.237 -49.816  11.247  1.00  0.00     0.107 C 
BRANCH  12  13
HETATM   13  C   UNL     1     -40.915 -48.470  11.096  1.00  0.00     0.217 C 
HETATM   14  N   UNL     1     -41.731 -48.405   9.984  1.00  0.00    -0.361 N 
HETATM   15  H   UNL     1     -41.757 -49.186   9.343  1.00  0.00     0.162 HD
HETATM   16  O   UNL     1     -40.753 -47.532  11.867  1.00  0.00    -0.274 OA
BRANCH  14  17
HETATM   17  C   UNL     1     -42.452 -47.197   9.632  1.00  0.00     0.126 C 
BRANCH  17  18
HETATM   18  C   UNL     1     -43.792 -47.483   8.935  1.00  0.00    -0.005 C 
HETATM   19  C   UNL     1     -44.678 -46.237   8.878  1.00  0.00     0.011 C 
HETATM   20  C   UNL     1     -43.536 -48.004   7.519  1.00  0.00     0.011 C 
ENDBRANCH  17  18
ENDBRANCH  14  17
ENDBRANCH  12  13
ENDBRANCH  11  12
ENDBRANCH   1  11
BRANCH   6  21
HETATM   21  N   UNL     1     -44.073 -53.514  14.743  1.00  0.00    -0.213 N 
HETATM   22  C   UNL     1     -44.148 -54.931  14.372  1.00  0.00     0.167 C 
HETATM   23  C   UNL     1     -45.551 -55.264  13.846  1.00  0.00     0.188 C 
HETATM   24  O   UNL     1     -46.565 -54.911  14.797  1.00  0.00    -0.388 OA
HETATM   25  C   UNL     1     -46.521 -53.497  15.062  1.00  0.00     0.188 C 
HETATM   26  C   UNL     1     -45.161 -53.079  15.631  1.00  0.00     0.167 C 
ENDBRANCH   6  21
TORSDOF 6
ENDMDL
MODEL 8
REMARK VINA RESULT:      -5.8      2.148      2.968
REMARK  6 active torsions:
REMARK  status: ('A' for Active; 'I' for Inactive)
REMARK    1  A    between atoms: C_2  and  C_4 
REMARK    2  A    between atoms: C_4  and  N_5 
REMARK       I    between atoms: N_5  and  C_6 
REMARK    3  A    between atoms: C_6  and  C_8 
REMARK    4  A    between atoms: C_8  and  C_9 
REMARK    5  A    between atoms: C_9  and  C_10 
REMARK    6  A    between atoms: C_15  and  N_19 
ROOT
HETATM    1  C   UNL     1     -41.046 -50.461  12.427  1.00  0.00     0.034 C 
HETATM    2  C   UNL     1     -42.317 -50.022  12.381  1.00  0.00     0.034 C 
HETATM    3  C   UNL     1     -43.417 -50.562  13.268  1.00  0.00     0.069 C 
HETATM    4  N   UNL     1     -42.761 -49.020  11.539  1.00  0.00    -0.195 N 
ATOM      5  HN  UNL     1     -43.757 -48.814  11.460  1.00  0.00     0.184 HD
HETATM    6  C   UNL     1     -41.894 -48.347  10.852  1.00  0.00     0.683 C 
HETATM    7  N   UNL     1     -40.568 -48.655  10.910  1.00  0.00    -0.156 N 
HETATM    8  C   UNL     1     -40.086 -49.756  11.544  1.00  0.00     0.267 C 
HETATM    9  O   UNL     1     -38.931 -50.134  11.374  1.00  0.00    -0.267 OA
HETATM   10  H   UNL     1     -39.925 -48.212  10.277  1.00  0.00     0.187 HD
ENDROOT
BRANCH   1  11
HETATM   11  C   UNL     1     -40.481 -51.553  13.306  1.00  0.00     0.055 C 
BRANCH  11  12
HETATM   12  C   UNL     1     -40.678 -52.963  12.745  1.00  0.00     0.107 C 
BRANCH  12  13
HETATM   13  C   UNL     1     -41.230 -53.900  13.799  1.00  0.00     0.217 C 
HETATM   14  N   UNL     1     -42.590 -54.101  13.676  1.00  0.00    -0.361 N 
HETATM   15  H   UNL     1     -43.106 -53.578  12.981  1.00  0.00     0.162 HD
HETATM   16  O   UNL     1     -40.551 -54.419  14.677  1.00  0.00    -0.274 OA
BRANCH  14  17
HETATM   17  C   UNL     1     -43.329 -54.939  14.601  1.00  0.00     0.126 C 
BRANCH  17  18
HETATM   18  C   UNL     1     -44.823 -54.583  14.664  1.00  0.00    -0.005 C 
HETATM   19  C   UNL     1     -45.119 -53.574  15.777  1.00  0.00     0.011 C 
HETATM   20  C   UNL     1     -45.277 -54.017  13.317  1.00  0.00     0.011 C 
ENDBRANCH  17  18
ENDBRANCH  14  17
ENDBRANCH  12  13
ENDBRANCH  11  12
ENDBRANCH   1  11
BRANCH   6  21
HETATM   21  N   UNL     1     -42.252 -47.314  10.017  1.00  0.00    -0.213 N 
HETATM   22  C   UNL     1     -41.795 -45.927  10.163  1.00  0.00     0.167 C 
HETATM   23  C   UNL     1     -43.000 -44.977  10.200  1.00  0.00     0.188 C 
HETATM   24  O   UNL     1     -43.834 -45.142   9.043  1.00  0.00    -0.388 OA
HETATM   25  C   UNL     1     -44.339 -46.488   8.988  1.00  0.00     0.188 C 
HETATM   26  C   UNL     1     -43.199 -47.509   8.909  1.00  0.00     0.167 C 
ENDBRANCH   6  21
TORSDOF 6
ENDMDL
MODEL 9
REMARK VINA RESULT:      -5.7      2.569      7.504
REMARK  6 active torsions:
REMARK  status: ('A' for Active; 'I' for Inactive)
REMARK    1  A    between atoms: C_2  and  C_4 
REMARK    2  A    between atoms: C_4  and  N_5 
REMARK       I    between atoms: N_5  and  C_6 
REMARK    3  A    between atoms: C_6  and  C_8 
REMARK    4  A    between atoms: C_8  and  C_9 
REMARK    5  A    between atoms: C_9  and  C_10 
REMARK    6  A    between atoms: C_15  and  N_19 
ROOT
HETATM    1  C   UNL     1     -42.737 -49.014  13.901  1.00  0.00     0.034 C 
HETATM    2  C   UNL     1     -43.345 -49.647  14.921  1.00  0.00     0.034 C 
HETATM    3  C   UNL     1     -43.553 -49.021  16.283  1.00  0.00     0.069 C 
HETATM    4  N   UNL     1     -43.865 -50.925  14.841  1.00  0.00    -0.195 N 
ATOM      5  HN  UNL     1     -44.203 -51.399  15.679  1.00  0.00     0.184 HD
HETATM    6  C   UNL     1     -43.916 -51.512  13.688  1.00  0.00     0.683 C 
HETATM    7  N   UNL     1     -43.414 -50.906  12.575  1.00  0.00    -0.156 N 
HETATM    8  C   UNL     1     -42.699 -49.751  12.614  1.00  0.00     0.267 C 
HETATM    9  O   UNL     1     -42.060 -49.364  11.641  1.00  0.00    -0.267 OA
HETATM   10  H   UNL     1     -43.343 -51.423  11.716  1.00  0.00     0.187 HD
ENDROOT
BRANCH   1  11
HETATM   11  C   UNL     1     -42.135 -47.628  13.905  1.00  0.00     0.055 C 
BRANCH  11  12
HETATM   12  C   UNL     1     -43.121 -46.523  13.520  1.00  0.00     0.107 C 
BRANCH  12  13
HETATM   13  C   UNL     1     -42.767 -45.915  12.179  1.00  0.00     0.217 C 
HETATM   14  N   UNL     1     -43.299 -46.618  11.117  1.00  0.00    -0.361 N 
HETATM   15  H   UNL     1     -43.792 -47.482  11.293  1.00  0.00     0.162 HD
HETATM   16  O   UNL     1     -42.074 -44.914  12.043  1.00  0.00    -0.274 OA
BRANCH  14  17
HETATM   17  C   UNL     1     -43.058 -46.227   9.741  1.00  0.00     0.126 C 
BRANCH  17  18
HETATM   18  C   UNL     1     -44.112 -46.783   8.770  1.00  0.00    -0.005 C 
HETATM   19  C   UNL     1     -43.504 -47.786   7.787  1.00  0.00     0.011 C 
HETATM   20  C   UNL     1     -45.241 -47.449   9.559  1.00  0.00     0.011 C 
ENDBRANCH  17  18
ENDBRANCH  14  17
ENDBRANCH  12  13
ENDBRANCH  11  12
ENDBRANCH   1  11
BRANCH   6  21
HETATM   21  N   UNL     1     -44.448 -52.769  13.520  1.00  0.00    -0.213 N 
HETATM   22  C   UNL     1     -45.884 -53.069  13.490  1.00  0.00     0.167 C 
HETATM   23  C   UNL     1     -46.213 -54.166  14.513  1.00  0.00     0.188 C 
HETATM   24  O   UNL     1     -45.420 -55.342  14.294  1.00  0.00    -0.388 OA
HETATM   25  C   UNL     1     -44.024 -55.026  14.427  1.00  0.00     0.188 C 
HETATM   26  C   UNL     1     -43.594 -53.961  13.412  1.00  0.00     0.167 C 
ENDBRANCH   6  21
TORSDOF 6
ENDMDL
