MODEL 1
REMARK VINA RESULT:      -6.1      0.000      0.000
REMARK  3 active torsions:
REMARK  status: ('A' for Active; 'I' for Inactive)
REMARK    1  A    between atoms: C_2  and  C_3 
REMARK    2  A    between atoms: C_2  and  N_10 
REMARK    3  A    between atoms: C_3  and  N_4 
REMARK       I    between atoms: N_10  and  C_11 
REMARK       I    between atoms: C_11  and  N_13 
REMARK       I    between atoms: N_16  and  C_19 
ROOT
HETATM    1  N   UNL     1     -42.114 -47.710  10.504  1.00  0.00    -0.337 N 
HETATM    2  C   UNL     1     -42.550 -48.616  11.433  1.00  0.00     0.318 C 
HETATM    3  O   UNL     1     -43.646 -48.504  11.973  1.00  0.00    -0.247 OA
HETATM    4  N   UNL     1     -41.663 -49.635  11.729  1.00  0.00    -0.331 N 
HETATM    5  C   UNL     1     -42.060 -50.665  12.700  1.00  0.00     0.147 C 
HETATM    6  C   UNL     1     -41.021 -50.827  13.827  1.00  0.00     0.145 C 
HETATM    7  N   UNL     1     -39.664 -50.996  13.282  1.00  0.00    -0.349 N 
HETATM    8  C   UNL     1     -39.275 -49.937  12.344  1.00  0.00     0.145 C 
HETATM    9  C   UNL     1     -40.296 -49.800  11.206  1.00  0.00     0.147 C 
HETATM   10  C   UNL     1     -38.750 -51.988  13.577  1.00  0.00     0.215 C 
HETATM   11  O   UNL     1     -37.636 -52.021  13.042  1.00  0.00    -0.274 OA
HETATM   12  C   UNL     1     -39.098 -53.079  14.560  1.00  0.00     0.117 C 
HETATM   13  H   UNL     1     -41.488 -48.064   9.800  1.00  0.00     0.164 HD
ENDROOT
BRANCH   1  14
HETATM   14  C   UNL     1     -42.920 -46.546  10.103  1.00  0.00     0.102 C 
HETATM   15  C   UNL     1     -42.052 -45.298  10.274  1.00  0.00     0.034 C 
BRANCH  14  16
HETATM   16  C   UNL     1     -43.461 -46.713   8.672  1.00  0.00     0.172 C 
BRANCH  16  17
HETATM   17  N   UNL     1     -44.759 -47.355   8.598  1.00  0.00    -0.302 N 
HETATM   18  C   UNL     1     -45.840 -47.122   9.398  1.00  0.00     0.111 A 
HETATM   19  C   UNL     1     -46.822 -47.987   8.976  1.00  0.00     0.037 A 
HETATM   20  C   UNL     1     -46.231 -48.709   7.924  1.00  0.00     0.108 A 
HETATM   21  N   UNL     1     -44.969 -48.336   7.698  1.00  0.00    -0.310 N 
ATOM     22  HN  UNL     1     -44.317 -48.706   7.007  1.00  0.00     0.186 HD
ENDBRANCH  16  17
ENDBRANCH  14  16
ENDBRANCH   1  14
TORSDOF 3
ENDMDL
MODEL 2
REMARK VINA RESULT:      -5.9      2.321      4.068
REMARK  3 active torsions:
REMARK  status: ('A' for Active; 'I' for Inactive)
REMARK    1  A    between atoms: C_2  and  C_3 
REMARK    2  A    between atoms: C_2  and  N_10 
REMARK    3  A    between atoms: C_3  and  N_4 
REMARK       I    between atoms: N_10  and  C_11 
REMARK       I    between atoms: C_11  and  N_13 
REMARK       I    between atoms: N_16  and  C_19 
ROOT
HETATM    1  N   UNL     1     -42.587 -48.622  10.834  1.00  0.00    -0.337 N 
HETATM    2  C   UNL     1     -41.434 -49.023  11.454  1.00  0.00     0.318 C 
HETATM    3  O   UNL     1     -40.360 -48.473  11.227  1.00  0.00    -0.247 OA
HETATM    4  N   UNL     1     -41.567 -50.093  12.320  1.00  0.00    -0.331 N 
HETATM    5  C   UNL     1     -40.383 -50.574  13.045  1.00  0.00     0.147 C 
HETATM    6  C   UNL     1     -40.161 -52.086  12.850  1.00  0.00     0.145 C 
HETATM    7  N   UNL     1     -41.392 -52.845  13.125  1.00  0.00    -0.349 N 
HETATM    8  C   UNL     1     -42.553 -52.373  12.362  1.00  0.00     0.145 C 
HETATM    9  C   UNL     1     -42.789 -50.872  12.584  1.00  0.00     0.147 C 
HETATM   10  C   UNL     1     -41.549 -53.930  13.965  1.00  0.00     0.215 C 
HETATM   11  O   UNL     1     -42.646 -54.480  14.113  1.00  0.00    -0.274 OA
HETATM   12  C   UNL     1     -40.374 -54.468  14.743  1.00  0.00     0.117 C 
HETATM   13  H   UNL     1     -43.439 -48.756  11.353  1.00  0.00     0.164 HD
ENDROOT
BRANCH   1  14
HETATM   14  C   UNL     1     -42.613 -47.523   9.856  1.00  0.00     0.102 C 
HETATM   15  C   UNL     1     -43.731 -47.817   8.855  1.00  0.00     0.034 C 
BRANCH  14  16
HETATM   16  C   UNL     1     -42.772 -46.162  10.556  1.00  0.00     0.172 C 
BRANCH  16  17
HETATM   17  N   UNL     1     -41.557 -45.373  10.608  1.00  0.00    -0.302 N 
HETATM   18  C   UNL     1     -41.390 -44.154  11.199  1.00  0.00     0.111 A 
HETATM   19  C   UNL     1     -40.087 -43.787  10.960  1.00  0.00     0.037 A 
HETATM   20  C   UNL     1     -39.553 -44.847  10.204  1.00  0.00     0.108 A 
HETATM   21  N   UNL     1     -40.449 -45.811   9.977  1.00  0.00    -0.310 N 
ATOM     22  HN  UNL     1     -40.324 -46.675   9.449  1.00  0.00     0.186 HD
ENDBRANCH  16  17
ENDBRANCH  14  16
ENDBRANCH   1  14
TORSDOF 3
ENDMDL
MODEL 3
REMARK VINA RESULT:      -5.9      3.341      6.349
REMARK  3 active torsions:
REMARK  status: ('A' for Active; 'I' for Inactive)
REMARK    1  A    between atoms: C_2  and  C_3 
REMARK    2  A    between atoms: C_2  and  N_10 
REMARK    3  A    between atoms: C_3  and  N_4 
REMARK       I    between atoms: N_10  and  C_11 
REMARK       I    between atoms: C_11  and  N_13 
REMARK       I    between atoms: N_16  and  C_19 
ROOT
HETATM    1  N   UNL     1     -42.061 -49.572  11.900  1.00  0.00    -0.337 N 
HETATM    2  C   UNL     1     -41.987 -50.920  12.125  1.00  0.00     0.318 C 
HETATM    3  O   UNL     1     -41.123 -51.612  11.596  1.00  0.00    -0.247 OA
HETATM    4  N   UNL     1     -42.960 -51.436  12.961  1.00  0.00    -0.331 N 
HETATM    5  C   UNL     1     -42.941 -52.872  13.276  1.00  0.00     0.147 C 
HETATM    6  C   UNL     1     -44.296 -53.546  12.981  1.00  0.00     0.145 C 
HETATM    7  N   UNL     1     -45.406 -52.803  13.599  1.00  0.00    -0.349 N 
HETATM    8  C   UNL     1     -45.428 -51.380  13.241  1.00  0.00     0.145 C 
HETATM    9  C   UNL     1     -44.088 -50.705  13.566  1.00  0.00     0.147 C 
HETATM   10  C   UNL     1     -46.404 -53.295  14.417  1.00  0.00     0.215 C 
HETATM   11  O   UNL     1     -47.283 -52.560  14.879  1.00  0.00    -0.274 OA
HETATM   12  C   UNL     1     -46.437 -54.758  14.783  1.00  0.00     0.117 C 
HETATM   13  H   UNL     1     -42.437 -49.017  12.651  1.00  0.00     0.164 HD
ENDROOT
BRANCH   1  14
HETATM   14  C   UNL     1     -41.125 -48.871  11.007  1.00  0.00     0.102 C 
HETATM   15  C   UNL     1     -41.921 -47.825  10.226  1.00  0.00     0.034 C 
BRANCH  14  16
HETATM   16  C   UNL     1     -39.950 -48.269  11.798  1.00  0.00     0.172 C 
BRANCH  16  17
HETATM   17  N   UNL     1     -38.889 -49.211  12.097  1.00  0.00    -0.302 N 
HETATM   18  C   UNL     1     -38.291 -49.419  13.305  1.00  0.00     0.111 A 
HETATM   19  C   UNL     1     -37.323 -50.374  13.094  1.00  0.00     0.037 A 
HETATM   20  C   UNL     1     -37.409 -50.667  11.721  1.00  0.00     0.108 A 
HETATM   21  N   UNL     1     -38.354 -49.951  11.106  1.00  0.00    -0.310 N 
ATOM     22  HN  UNL     1     -38.610 -49.962  10.119  1.00  0.00     0.186 HD
ENDBRANCH  16  17
ENDBRANCH  14  16
ENDBRANCH   1  14
TORSDOF 3
ENDMDL
MODEL 4
REMARK VINA RESULT:      -5.6      4.932      7.897
REMARK  3 active torsions:
REMARK  status: ('A' for Active; 'I' for Inactive)
REMARK    1  A    between atoms: C_2  and  C_3 
REMARK    2  A    between atoms: C_2  and  N_10 
REMARK    3  A    between atoms: C_3  and  N_4 
REMARK       I    between atoms: N_10  and  C_11 
REMARK       I    between atoms: C_11  and  N_13 
REMARK       I    between atoms: N_16  and  C_19 
ROOT
HETATM    1  N   UNL     1     -39.367 -50.754  13.333  1.00  0.00    -0.337 N 
HETATM    2  C   UNL     1     -39.745 -51.818  14.106  1.00  0.00     0.318 C 
HETATM    3  O   UNL     1     -38.933 -52.433  14.792  1.00  0.00    -0.247 OA
HETATM    4  N   UNL     1     -41.084 -52.157  14.035  1.00  0.00    -0.331 N 
HETATM    5  C   UNL     1     -41.580 -53.274  14.852  1.00  0.00     0.147 C 
HETATM    6  C   UNL     1     -42.331 -54.319  14.004  1.00  0.00     0.145 C 
HETATM    7  N   UNL     1     -43.354 -53.684  13.157  1.00  0.00    -0.349 N 
HETATM    8  C   UNL     1     -42.829 -52.597  12.323  1.00  0.00     0.145 C 
HETATM    9  C   UNL     1     -42.109 -51.542  13.175  1.00  0.00     0.147 C 
HETATM   10  C   UNL     1     -44.690 -54.016  13.048  1.00  0.00     0.215 C 
HETATM   11  O   UNL     1     -45.452 -53.395  12.299  1.00  0.00    -0.274 OA
HETATM   12  C   UNL     1     -45.263 -55.148  13.864  1.00  0.00     0.117 C 
HETATM   13  H   UNL     1     -40.066 -50.045  13.182  1.00  0.00     0.164 HD
ENDROOT
BRANCH   1  14
HETATM   14  C   UNL     1     -37.973 -50.287  13.265  1.00  0.00     0.102 C 
HETATM   15  C   UNL     1     -37.568 -50.244  11.791  1.00  0.00     0.034 C 
BRANCH  14  16
HETATM   16  C   UNL     1     -37.807 -48.932  13.976  1.00  0.00     0.172 C 
BRANCH  16  17
HETATM   17  N   UNL     1     -36.883 -48.955  15.093  1.00  0.00    -0.302 N 
HETATM   18  C   UNL     1     -36.433 -50.052  15.767  1.00  0.00     0.111 A 
HETATM   19  C   UNL     1     -35.610 -49.580  16.762  1.00  0.00     0.037 A 
HETATM   20  C   UNL     1     -35.640 -48.181  16.613  1.00  0.00     0.108 A 
HETATM   21  N   UNL     1     -36.425 -47.795  15.604  1.00  0.00    -0.310 N 
ATOM     22  HN  UNL     1     -36.630 -46.845  15.294  1.00  0.00     0.186 HD
ENDBRANCH  16  17
ENDBRANCH  14  16
ENDBRANCH   1  14
TORSDOF 3
ENDMDL
MODEL 5
REMARK VINA RESULT:      -5.5      3.117      6.678
REMARK  3 active torsions:
REMARK  status: ('A' for Active; 'I' for Inactive)
REMARK    1  A    between atoms: C_2  and  C_3 
REMARK    2  A    between atoms: C_2  and  N_10 
REMARK    3  A    between atoms: C_3  and  N_4 
REMARK       I    between atoms: N_10  and  C_11 
REMARK       I    between atoms: C_11  and  N_13 
REMARK       I    between atoms: N_16  and  C_19 
ROOT
HETATM    1  N   UNL     1     -43.832 -50.526  12.617  1.00  0.00    -0.337 N 
HETATM    2  C   UNL     1     -42.565 -50.099  12.913  1.00  0.00     0.318 C 
HETATM    3  O   UNL     1     -41.889 -50.651  13.776  1.00  0.00    -0.247 OA
HETATM    4  N   UNL     1     -42.126 -49.001  12.196  1.00  0.00    -0.331 N 
HETATM    5  C   UNL     1     -40.769 -48.490  12.436  1.00  0.00     0.147 C 
HETATM    6  C   UNL     1     -40.768 -46.984  12.763  1.00  0.00     0.145 C 
HETATM    7  N   UNL     1     -41.537 -46.222  11.767  1.00  0.00    -0.349 N 
HETATM    8  C   UNL     1     -42.902 -46.725  11.571  1.00  0.00     0.145 C 
HETATM    9  C   UNL     1     -42.896 -48.218  11.214  1.00  0.00     0.147 C 
HETATM   10  C   UNL     1     -41.134 -45.109  11.054  1.00  0.00     0.215 C 
HETATM   11  O   UNL     1     -41.879 -44.560  10.236  1.00  0.00    -0.274 OA
HETATM   12  C   UNL     1     -39.750 -44.540  11.249  1.00  0.00     0.117 C 
HETATM   13  H   UNL     1     -44.138 -50.378  11.669  1.00  0.00     0.164 HD
ENDROOT
BRANCH   1  14
HETATM   14  C   UNL     1     -44.464 -51.658  13.313  1.00  0.00     0.102 C 
HETATM   15  C   UNL     1     -45.970 -51.399  13.349  1.00  0.00     0.034 C 
BRANCH  14  16
HETATM   16  C   UNL     1     -44.096 -52.994  12.645  1.00  0.00     0.172 C 
BRANCH  16  17
HETATM   17  N   UNL     1     -42.865 -53.585  13.132  1.00  0.00    -0.302 N 
HETATM   18  C   UNL     1     -42.648 -54.140  14.359  1.00  0.00     0.111 A 
HETATM   19  C   UNL     1     -41.329 -54.531  14.374  1.00  0.00     0.037 A 
HETATM   20  C   UNL     1     -40.833 -54.156  13.113  1.00  0.00     0.108 A 
HETATM   21  N   UNL     1     -41.764 -53.567  12.356  1.00  0.00    -0.310 N 
ATOM     22  HN  UNL     1     -41.663 -53.192  11.413  1.00  0.00     0.186 HD
ENDBRANCH  16  17
ENDBRANCH  14  16
ENDBRANCH   1  14
TORSDOF 3
ENDMDL
MODEL 6
REMARK VINA RESULT:      -5.5      3.383      5.979
REMARK  3 active torsions:
REMARK  status: ('A' for Active; 'I' for Inactive)
REMARK    1  A    between atoms: C_2  and  C_3 
REMARK    2  A    between atoms: C_2  and  N_10 
REMARK    3  A    between atoms: C_3  and  N_4 
REMARK       I    between atoms: N_10  and  C_11 
REMARK       I    between atoms: C_11  and  N_13 
REMARK       I    between atoms: N_16  and  C_19 
ROOT
HETATM    1  N   UNL     1     -42.513 -52.064  12.840  1.00  0.00    -0.337 N 
HETATM    2  C   UNL     1     -41.408 -51.600  12.179  1.00  0.00     0.318 C 
HETATM    3  O   UNL     1     -40.451 -52.330  11.941  1.00  0.00    -0.247 OA
HETATM    4  N   UNL     1     -41.442 -50.262  11.832  1.00  0.00    -0.331 N 
HETATM    5  C   UNL     1     -40.305 -49.686  11.100  1.00  0.00     0.147 C 
HETATM    6  C   UNL     1     -39.745 -48.431  11.796  1.00  0.00     0.145 C 
HETATM    7  N   UNL     1     -40.818 -47.471  12.106  1.00  0.00    -0.349 N 
HETATM    8  C   UNL     1     -41.925 -48.057  12.870  1.00  0.00     0.145 C 
HETATM    9  C   UNL     1     -42.500 -49.289  12.157  1.00  0.00     0.147 C 
HETATM   10  C   UNL     1     -40.868 -46.126  11.793  1.00  0.00     0.215 C 
HETATM   11  O   UNL     1     -41.836 -45.424  12.107  1.00  0.00    -0.274 OA
HETATM   12  C   UNL     1     -39.736 -45.476  11.037  1.00  0.00     0.117 C 
HETATM   13  H   UNL     1     -43.386 -51.617  12.610  1.00  0.00     0.164 HD
ENDROOT
BRANCH   1  14
HETATM   14  C   UNL     1     -42.622 -53.453  13.312  1.00  0.00     0.102 C 
HETATM   15  C   UNL     1     -42.152 -53.489  14.766  1.00  0.00     0.034 C 
BRANCH  14  16
HETATM   16  C   UNL     1     -44.052 -53.991  13.126  1.00  0.00     0.172 C 
BRANCH  16  17
HETATM   17  N   UNL     1     -45.086 -52.980  13.219  1.00  0.00    -0.302 N 
HETATM   18  C   UNL     1     -45.636 -52.467  14.358  1.00  0.00     0.111 A 
HETATM   19  C   UNL     1     -46.595 -51.570  13.949  1.00  0.00     0.037 A 
HETATM   20  C   UNL     1     -46.557 -51.624  12.544  1.00  0.00     0.108 A 
HETATM   21  N   UNL     1     -45.646 -52.492  12.095  1.00  0.00    -0.310 N 
ATOM     22  HN  UNL     1     -45.427 -52.729  11.127  1.00  0.00     0.186 HD
ENDBRANCH  16  17
ENDBRANCH  14  16
ENDBRANCH   1  14
TORSDOF 3
ENDMDL
MODEL 7
REMARK VINA RESULT:      -5.3     12.658     15.731
REMARK  3 active torsions:
REMARK  status: ('A' for Active; 'I' for Inactive)
REMARK    1  A    between atoms: C_2  and  C_3 
REMARK    2  A    between atoms: C_2  and  N_10 
REMARK    3  A    between atoms: C_3  and  N_4 
REMARK       I    between atoms: N_10  and  C_11 
REMARK       I    between atoms: C_11  and  N_13 
REMARK       I    between atoms: N_16  and  C_19 
ROOT
HETATM    1  N   UNL     1     -51.447 -52.064  -0.725  1.00  0.00    -0.337 N 
HETATM    2  C   UNL     1     -50.274 -51.475  -0.334  1.00  0.00     0.318 C 
HETATM    3  O   UNL     1     -49.242 -52.127  -0.206  1.00  0.00    -0.247 OA
HETATM    4  N   UNL     1     -50.349 -50.119  -0.076  1.00  0.00    -0.331 N 
HETATM    5  C   UNL     1     -49.130 -49.403   0.327  1.00  0.00     0.147 C 
HETATM    6  C   UNL     1     -49.328 -48.618   1.638  1.00  0.00     0.145 C 
HETATM    7  N   UNL     1     -50.535 -47.777   1.579  1.00  0.00    -0.349 N 
HETATM    8  C   UNL     1     -51.747 -48.519   1.212  1.00  0.00     0.145 C 
HETATM    9  C   UNL     1     -51.555 -49.275  -0.111  1.00  0.00     0.147 C 
HETATM   10  C   UNL     1     -50.643 -46.428   1.854  1.00  0.00     0.215 C 
HETATM   11  O   UNL     1     -51.722 -45.833   1.761  1.00  0.00    -0.274 OA
HETATM   12  C   UNL     1     -49.428 -45.634   2.267  1.00  0.00     0.117 C 
HETATM   13  H   UNL     1     -52.086 -51.479  -1.238  1.00  0.00     0.164 HD
ENDROOT
BRANCH   1  14
HETATM   14  C   UNL     1     -51.550 -53.505  -1.004  1.00  0.00     0.102 C 
HETATM   15  C   UNL     1     -52.913 -53.980  -0.502  1.00  0.00     0.034 C 
BRANCH  14  16
HETATM   16  C   UNL     1     -51.320 -53.798  -2.497  1.00  0.00     0.172 C 
BRANCH  16  17
HETATM   17  N   UNL     1     -50.578 -55.016  -2.757  1.00  0.00    -0.302 N 
HETATM   18  C   UNL     1     -49.305 -55.306  -2.360  1.00  0.00     0.111 A 
HETATM   19  C   UNL     1     -49.019 -56.551  -2.869  1.00  0.00     0.037 A 
HETATM   20  C   UNL     1     -50.180 -56.923  -3.571  1.00  0.00     0.108 A 
HETATM   21  N   UNL     1     -51.129 -55.984  -3.516  1.00  0.00    -0.310 N 
ATOM     22  HN  UNL     1     -52.053 -55.997  -3.948  1.00  0.00     0.186 HD
ENDBRANCH  16  17
ENDBRANCH  14  16
ENDBRANCH   1  14
TORSDOF 3
ENDMDL
MODEL 8
REMARK VINA RESULT:      -5.2      4.569      6.743
REMARK  3 active torsions:
REMARK  status: ('A' for Active; 'I' for Inactive)
REMARK    1  A    between atoms: C_2  and  C_3 
REMARK    2  A    between atoms: C_2  and  N_10 
REMARK    3  A    between atoms: C_3  and  N_4 
REMARK       I    between atoms: N_10  and  C_11 
REMARK       I    between atoms: C_11  and  N_13 
REMARK       I    between atoms: N_16  and  C_19 
ROOT
HETATM    1  N   UNL     1     -43.972 -53.209  14.444  1.00  0.00    -0.337 N 
HETATM    2  C   UNL     1     -43.777 -51.945  13.954  1.00  0.00     0.318 C 
HETATM    3  O   UNL     1     -44.721 -51.229  13.634  1.00  0.00    -0.247 OA
HETATM    4  N   UNL     1     -42.456 -51.556  13.827  1.00  0.00    -0.331 N 
HETATM    5  C   UNL     1     -42.156 -50.206  13.331  1.00  0.00     0.147 C 
HETATM    6  C   UNL     1     -41.188 -50.233  12.131  1.00  0.00     0.145 C 
HETATM    7  N   UNL     1     -40.000 -51.052  12.424  1.00  0.00    -0.349 N 
HETATM    8  C   UNL     1     -40.322 -52.408  12.881  1.00  0.00     0.145 C 
HETATM    9  C   UNL     1     -41.261 -52.375  14.096  1.00  0.00     0.147 C 
HETATM   10  C   UNL     1     -38.672 -50.698  12.284  1.00  0.00     0.215 C 
HETATM   11  O   UNL     1     -37.760 -51.482  12.571  1.00  0.00    -0.274 OA
HETATM   12  C   UNL     1     -38.297 -49.325  11.785  1.00  0.00     0.117 C 
HETATM   13  H   UNL     1     -43.275 -53.548  15.086  1.00  0.00     0.164 HD
ENDROOT
BRANCH   1  14
HETATM   14  C   UNL     1     -45.314 -53.790  14.607  1.00  0.00     0.102 C 
HETATM   15  C   UNL     1     -45.334 -55.129  13.867  1.00  0.00     0.034 C 
BRANCH  14  16
HETATM   16  C   UNL     1     -45.687 -53.917  16.094  1.00  0.00     0.172 C 
BRANCH  16  17
HETATM   17  N   UNL     1     -46.461 -52.805  16.611  1.00  0.00    -0.302 N 
HETATM   18  C   UNL     1     -46.741 -52.534  17.919  1.00  0.00     0.111 A 
HETATM   19  C   UNL     1     -47.529 -51.407  17.916  1.00  0.00     0.037 A 
HETATM   20  C   UNL     1     -47.680 -51.083  16.556  1.00  0.00     0.108 A 
HETATM   21  N   UNL     1     -47.040 -51.940  15.756  1.00  0.00    -0.310 N 
ATOM     22  HN  UNL     1     -47.000 -51.939  14.736  1.00  0.00     0.186 HD
ENDBRANCH  16  17
ENDBRANCH  14  16
ENDBRANCH   1  14
TORSDOF 3
ENDMDL
MODEL 9
REMARK VINA RESULT:      -5.1      4.131      6.617
REMARK  3 active torsions:
REMARK  status: ('A' for Active; 'I' for Inactive)
REMARK    1  A    between atoms: C_2  and  C_3 
REMARK    2  A    between atoms: C_2  and  N_10 
REMARK    3  A    between atoms: C_3  and  N_4 
REMARK       I    between atoms: N_10  and  C_11 
REMARK       I    between atoms: C_11  and  N_13 
REMARK       I    between atoms: N_16  and  C_19 
ROOT
HETATM    1  N   UNL     1     -40.523 -52.345  13.868  1.00  0.00    -0.337 N 
HETATM    2  C   UNL     1     -40.860 -51.467  12.873  1.00  0.00     0.318 C 
HETATM    3  O   UNL     1     -41.248 -51.859  11.777  1.00  0.00    -0.247 OA
HETATM    4  N   UNL     1     -40.708 -50.129  13.186  1.00  0.00    -0.331 N 
HETATM    5  C   UNL     1     -41.070 -49.116  12.183  1.00  0.00     0.147 C 
HETATM    6  C   UNL     1     -39.919 -48.126  11.922  1.00  0.00     0.145 C 
HETATM    7  N   UNL     1     -39.394 -47.573  13.182  1.00  0.00    -0.349 N 
HETATM    8  C   UNL     1     -39.004 -48.601  14.153  1.00  0.00     0.145 C 
HETATM    9  C   UNL     1     -40.164 -49.567  14.435  1.00  0.00     0.147 C 
HETATM   10  C   UNL     1     -39.209 -46.245  13.513  1.00  0.00     0.215 C 
HETATM   11  O   UNL     1     -38.763 -45.909  14.615  1.00  0.00    -0.274 OA
HETATM   12  C   UNL     1     -39.567 -45.158  12.530  1.00  0.00     0.117 C 
HETATM   13  H   UNL     1     -40.663 -52.021  14.810  1.00  0.00     0.164 HD
ENDROOT
BRANCH   1  14
HETATM   14  C   UNL     1     -40.592 -53.803  13.686  1.00  0.00     0.102 C 
HETATM   15  C   UNL     1     -39.199 -54.373  13.955  1.00  0.00     0.034 C 
BRANCH  14  16
HETATM   16  C   UNL     1     -41.680 -54.422  14.581  1.00  0.00     0.172 C 
BRANCH  16  17
HETATM   17  N   UNL     1     -43.018 -54.353  14.026  1.00  0.00    -0.302 N 
HETATM   18  C   UNL     1     -44.188 -54.657  14.659  1.00  0.00     0.111 A 
HETATM   19  C   UNL     1     -45.185 -54.475  13.728  1.00  0.00     0.037 A 
HETATM   20  C   UNL     1     -44.511 -54.075  12.560  1.00  0.00     0.108 A 
HETATM   21  N   UNL     1     -43.188 -54.011  12.734  1.00  0.00    -0.310 N 
ATOM     22  HN  UNL     1     -42.475 -53.762  12.049  1.00  0.00     0.186 HD
ENDBRANCH  16  17
ENDBRANCH  14  16
ENDBRANCH   1  14
TORSDOF 3
ENDMDL
