MODEL 1
REMARK VINA RESULT:      -5.1      0.000      0.000
REMARK  7 active torsions:
REMARK  status: ('A' for Active; 'I' for Inactive)
REMARK    1  A    between atoms: C_2  and  C_3 
REMARK    2  A    between atoms: C_3  and  O_4 
REMARK    3  A    between atoms: C_3  and  C_5 
REMARK    4  A    between atoms: C_5  and  N_6 
REMARK    5  A    between atoms: N_6  and  C_7 
REMARK    6  A    between atoms: C_7  and  C_9 
REMARK    7  A    between atoms: C_9  and  N_11 
ROOT
HETATM    1  C   UNL     1     -42.711 -49.440  12.172  1.00  0.00     0.240 C 
HETATM    2  C   UNL     1     -42.669 -49.269  13.701  1.00  0.00     0.045 C 
ENDROOT
BRANCH   1   3
HETATM    3  N   UNL     1     -41.873 -50.588  11.764  1.00  0.00     0.092 N 
HETATM    4  H   UNL     1     -41.943 -50.732  10.751  1.00  0.00     0.316 HD
BRANCH   3   5
HETATM    5  C   UNL     1     -42.262 -51.851  12.406  1.00  0.00     0.301 C 
BRANCH   5   6
HETATM    6  C   UNL     1     -41.052 -52.806  12.511  1.00  0.00     0.145 C 
BRANCH   6   7
HETATM    7  C   UNL     1     -41.416 -54.023  13.373  1.00  0.00     0.029 C 
HETATM    8  C   UNL     1     -42.906 -54.110  13.666  1.00  0.00     0.007 C 
ENDBRANCH   6   7
BRANCH   6   9
HETATM    9  O   UNL     1     -40.651 -53.231  11.206  1.00  0.00    -0.394 OA
HETATM   10  H   UNL     1     -39.983 -52.602  10.882  1.00  0.00     0.210 HD
ENDBRANCH   6   9
ENDBRANCH   5   6
ENDBRANCH   3   5
ENDBRANCH   1   3
BRANCH   1  11
HETATM   11  C   UNL     1     -42.291 -48.103  11.483  1.00  0.00     0.136 C 
HETATM   12  C   UNL     1     -40.781 -47.968  11.243  1.00  0.00     0.036 C 
BRANCH  11  13
HETATM   13  N   UNL     1     -43.073 -47.851  10.272  1.00  0.00    -0.297 N 
HETATM   14  C   UNL     1     -44.387 -47.480  10.179  1.00  0.00     0.112 A 
HETATM   15  C   UNL     1     -44.670 -47.391   8.837  1.00  0.00     0.037 A 
HETATM   16  C   UNL     1     -43.463 -47.719   8.197  1.00  0.00     0.108 A 
HETATM   17  N   UNL     1     -42.483 -47.990   9.064  1.00  0.00    -0.310 N 
ATOM     18  HN  UNL     1     -41.516 -48.242   8.861  1.00  0.00     0.186 HD
ENDBRANCH  11  13
ENDBRANCH   1  11
TORSDOF 7
ENDMDL
MODEL 2
REMARK VINA RESULT:      -5.0      2.249      3.030
REMARK  7 active torsions:
REMARK  status: ('A' for Active; 'I' for Inactive)
REMARK    1  A    between atoms: C_2  and  C_3 
REMARK    2  A    between atoms: C_3  and  O_4 
REMARK    3  A    between atoms: C_3  and  C_5 
REMARK    4  A    between atoms: C_5  and  N_6 
REMARK    5  A    between atoms: N_6  and  C_7 
REMARK    6  A    between atoms: C_7  and  C_9 
REMARK    7  A    between atoms: C_9  and  N_11 
ROOT
HETATM    1  C   UNL     1     -41.047 -49.380  11.320  1.00  0.00     0.240 C 
HETATM    2  C   UNL     1     -42.382 -49.054  12.012  1.00  0.00     0.045 C 
ENDROOT
BRANCH   1   3
HETATM    3  N   UNL     1     -40.859 -50.844  11.238  1.00  0.00     0.092 N 
HETATM    4  H   UNL     1     -41.178 -51.190  10.327  1.00  0.00     0.316 HD
BRANCH   3   5
HETATM    5  C   UNL     1     -41.603 -51.587  12.265  1.00  0.00     0.301 C 
BRANCH   5   6
HETATM    6  C   UNL     1     -40.985 -52.985  12.485  1.00  0.00     0.145 C 
BRANCH   6   7
HETATM    7  C   UNL     1     -42.005 -53.910  13.164  1.00  0.00     0.029 C 
HETATM    8  C   UNL     1     -43.439 -53.589  12.773  1.00  0.00     0.007 C 
ENDBRANCH   6   7
BRANCH   6   9
HETATM    9  O   UNL     1     -40.577 -53.540  11.232  1.00  0.00    -0.394 OA
HETATM   10  H   UNL     1     -41.118 -54.333  11.068  1.00  0.00     0.210 HD
ENDBRANCH   6   9
ENDBRANCH   5   6
ENDBRANCH   3   5
ENDBRANCH   1   3
BRANCH   1  11
HETATM   11  C   UNL     1     -39.880 -48.657  12.064  1.00  0.00     0.136 C 
HETATM   12  C   UNL     1     -38.499 -49.279  11.821  1.00  0.00     0.036 C 
BRANCH  11  13
HETATM   13  N   UNL     1     -39.894 -47.215  11.817  1.00  0.00    -0.297 N 
HETATM   14  C   UNL     1     -39.809 -46.201  12.733  1.00  0.00     0.112 A 
HETATM   15  C   UNL     1     -39.891 -45.028  12.021  1.00  0.00     0.037 A 
HETATM   16  C   UNL     1     -40.015 -45.434  10.682  1.00  0.00     0.108 A 
HETATM   17  N   UNL     1     -40.007 -46.762  10.548  1.00  0.00    -0.310 N 
ATOM     18  HN  UNL     1     -40.071 -47.309   9.689  1.00  0.00     0.186 HD
ENDBRANCH  11  13
ENDBRANCH   1  11
TORSDOF 7
ENDMDL
MODEL 3
REMARK VINA RESULT:      -5.0      2.462      2.866
REMARK  7 active torsions:
REMARK  status: ('A' for Active; 'I' for Inactive)
REMARK    1  A    between atoms: C_2  and  C_3 
REMARK    2  A    between atoms: C_3  and  O_4 
REMARK    3  A    between atoms: C_3  and  C_5 
REMARK    4  A    between atoms: C_5  and  N_6 
REMARK    5  A    between atoms: N_6  and  C_7 
REMARK    6  A    between atoms: C_7  and  C_9 
REMARK    7  A    between atoms: C_9  and  N_11 
ROOT
HETATM    1  C   UNL     1     -41.719 -49.132  11.436  1.00  0.00     0.240 C 
HETATM    2  C   UNL     1     -41.590 -49.221  12.966  1.00  0.00     0.045 C 
ENDROOT
BRANCH   1   3
HETATM    3  N   UNL     1     -40.477 -49.608  10.790  1.00  0.00     0.092 N 
HETATM    4  H   UNL     1     -40.703 -50.199   9.983  1.00  0.00     0.316 HD
BRANCH   3   5
HETATM    5  C   UNL     1     -39.626 -50.408  11.683  1.00  0.00     0.301 C 
BRANCH   5   6
HETATM    6  C   UNL     1     -38.153 -49.952  11.588  1.00  0.00     0.145 C 
BRANCH   6   7
HETATM    7  C   UNL     1     -37.284 -50.777  12.547  1.00  0.00     0.029 C 
HETATM    8  C   UNL     1     -37.749 -50.679  13.992  1.00  0.00     0.007 C 
ENDBRANCH   6   7
BRANCH   6   9
HETATM    9  O   UNL     1     -37.681 -50.101  10.247  1.00  0.00    -0.394 OA
HETATM   10  H   UNL     1     -37.956 -50.979   9.931  1.00  0.00     0.210 HD
ENDBRANCH   6   9
ENDBRANCH   5   6
ENDBRANCH   3   5
ENDBRANCH   1   3
BRANCH   1  11
HETATM   11  C   UNL     1     -42.098 -47.673  11.025  1.00  0.00     0.136 C 
HETATM   12  C   UNL     1     -40.892 -46.764  10.754  1.00  0.00     0.036 C 
BRANCH  11  13
HETATM   13  N   UNL     1     -43.067 -47.657   9.929  1.00  0.00    -0.297 N 
HETATM   14  C   UNL     1     -44.413 -47.413   9.996  1.00  0.00     0.112 A 
HETATM   15  C   UNL     1     -44.892 -47.533   8.713  1.00  0.00     0.037 A 
HETATM   16  C   UNL     1     -43.762 -47.844   7.940  1.00  0.00     0.108 A 
HETATM   17  N   UNL     1     -42.646 -47.910   8.670  1.00  0.00    -0.310 N 
ATOM     18  HN  UNL     1     -41.696 -48.106   8.352  1.00  0.00     0.186 HD
ENDBRANCH  11  13
ENDBRANCH   1  11
TORSDOF 7
ENDMDL
MODEL 4
REMARK VINA RESULT:      -4.9      2.979      6.087
REMARK  7 active torsions:
REMARK  status: ('A' for Active; 'I' for Inactive)
REMARK    1  A    between atoms: C_2  and  C_3 
REMARK    2  A    between atoms: C_3  and  O_4 
REMARK    3  A    between atoms: C_3  and  C_5 
REMARK    4  A    between atoms: C_5  and  N_6 
REMARK    5  A    between atoms: N_6  and  C_7 
REMARK    6  A    between atoms: C_7  and  C_9 
REMARK    7  A    between atoms: C_9  and  N_11 
ROOT
HETATM    1  C   UNL     1     -40.920 -48.199  11.052  1.00  0.00     0.240 C 
HETATM    2  C   UNL     1     -41.169 -46.849  11.747  1.00  0.00     0.045 C 
ENDROOT
BRANCH   1   3
HETATM    3  N   UNL     1     -42.061 -48.540  10.176  1.00  0.00     0.092 N 
HETATM    4  H   UNL     1     -41.746 -48.625   9.204  1.00  0.00     0.316 HD
BRANCH   3   5
HETATM    5  C   UNL     1     -43.132 -47.533  10.193  1.00  0.00     0.301 C 
BRANCH   5   6
HETATM    6  C   UNL     1     -43.929 -47.559   8.871  1.00  0.00     0.145 C 
BRANCH   6   7
HETATM    7  C   UNL     1     -45.133 -46.611   8.963  1.00  0.00     0.029 C 
HETATM    8  C   UNL     1     -46.460 -47.352   9.008  1.00  0.00     0.007 C 
ENDBRANCH   6   7
BRANCH   6   9
HETATM    9  O   UNL     1     -43.084 -47.174   7.784  1.00  0.00    -0.394 OA
HETATM   10  H   UNL     1     -42.674 -47.981   7.426  1.00  0.00     0.210 HD
ENDBRANCH   6   9
ENDBRANCH   5   6
ENDBRANCH   3   5
ENDBRANCH   1   3
BRANCH   1  11
HETATM   11  C   UNL     1     -40.628 -49.296  12.126  1.00  0.00     0.136 C 
HETATM   12  C   UNL     1     -41.682 -50.408  12.189  1.00  0.00     0.036 C 
BRANCH  11  13
HETATM   13  N   UNL     1     -39.268 -49.821  12.003  1.00  0.00    -0.297 N 
HETATM   14  C   UNL     1     -38.638 -50.729  12.811  1.00  0.00     0.112 A 
HETATM   15  C   UNL     1     -37.370 -50.883  12.305  1.00  0.00     0.037 A 
HETATM   16  C   UNL     1     -37.328 -50.035  11.187  1.00  0.00     0.108 A 
HETATM   17  N   UNL     1     -38.482 -49.393  10.990  1.00  0.00    -0.310 N 
ATOM     18  HN  UNL     1     -38.717 -48.734  10.247  1.00  0.00     0.186 HD
ENDBRANCH  11  13
ENDBRANCH   1  11
TORSDOF 7
ENDMDL
MODEL 5
REMARK VINA RESULT:      -4.9      1.940      2.239
REMARK  7 active torsions:
REMARK  status: ('A' for Active; 'I' for Inactive)
REMARK    1  A    between atoms: C_2  and  C_3 
REMARK    2  A    between atoms: C_3  and  O_4 
REMARK    3  A    between atoms: C_3  and  C_5 
REMARK    4  A    between atoms: C_5  and  N_6 
REMARK    5  A    between atoms: N_6  and  C_7 
REMARK    6  A    between atoms: C_7  and  C_9 
REMARK    7  A    between atoms: C_9  and  N_11 
ROOT
HETATM    1  C   UNL     1     -43.174 -49.163  12.450  1.00  0.00     0.240 C 
HETATM    2  C   UNL     1     -42.950 -48.635  13.878  1.00  0.00     0.045 C 
ENDROOT
BRANCH   1   3
HETATM    3  N   UNL     1     -42.906 -50.616  12.395  1.00  0.00     0.092 N 
HETATM    4  H   UNL     1     -43.339 -51.024  11.561  1.00  0.00     0.316 HD
BRANCH   3   5
HETATM    5  C   UNL     1     -43.433 -51.350  13.555  1.00  0.00     0.301 C 
BRANCH   5   6
HETATM    6  C   UNL     1     -44.440 -52.432  13.106  1.00  0.00     0.145 C 
BRANCH   6   7
HETATM    7  C   UNL     1     -45.820 -51.803  12.874  1.00  0.00     0.029 C 
HETATM    8  C   UNL     1     -46.531 -51.452  14.172  1.00  0.00     0.007 C 
ENDBRANCH   6   7
BRANCH   6   9
HETATM    9  O   UNL     1     -43.978 -53.061  11.908  1.00  0.00    -0.394 OA
HETATM   10  H   UNL     1     -43.106 -53.452  12.094  1.00  0.00     0.210 HD
ENDBRANCH   6   9
ENDBRANCH   5   6
ENDBRANCH   3   5
ENDBRANCH   1   3
BRANCH   1  11
HETATM   11  C   UNL     1     -42.301 -48.345  11.445  1.00  0.00     0.136 C 
HETATM   12  C   UNL     1     -40.973 -49.018  11.075  1.00  0.00     0.036 C 
BRANCH  11  13
HETATM   13  N   UNL     1     -43.070 -47.942  10.267  1.00  0.00    -0.297 N 
HETATM   14  C   UNL     1     -44.316 -47.375  10.226  1.00  0.00     0.112 A 
HETATM   15  C   UNL     1     -44.619 -47.205   8.896  1.00  0.00     0.037 A 
HETATM   16  C   UNL     1     -43.494 -47.690   8.210  1.00  0.00     0.108 A 
HETATM   17  N   UNL     1     -42.543 -48.131   9.037  1.00  0.00    -0.310 N 
ATOM     18  HN  UNL     1     -41.630 -48.519   8.796  1.00  0.00     0.186 HD
ENDBRANCH  11  13
ENDBRANCH   1  11
TORSDOF 7
ENDMDL
MODEL 6
REMARK VINA RESULT:      -4.9      2.988      4.676
REMARK  7 active torsions:
REMARK  status: ('A' for Active; 'I' for Inactive)
REMARK    1  A    between atoms: C_2  and  C_3 
REMARK    2  A    between atoms: C_3  and  O_4 
REMARK    3  A    between atoms: C_3  and  C_5 
REMARK    4  A    between atoms: C_5  and  N_6 
REMARK    5  A    between atoms: N_6  and  C_7 
REMARK    6  A    between atoms: C_7  and  C_9 
REMARK    7  A    between atoms: C_9  and  N_11 
ROOT
HETATM    1  C   UNL     1     -41.686 -51.363  12.526  1.00  0.00     0.240 C 
HETATM    2  C   UNL     1     -41.062 -52.708  12.117  1.00  0.00     0.045 C 
ENDROOT
BRANCH   1   3
HETATM    3  N   UNL     1     -43.161 -51.446  12.466  1.00  0.00     0.092 N 
HETATM    4  H   UNL     1     -43.576 -50.917  13.240  1.00  0.00     0.316 HD
BRANCH   3   5
HETATM    5  C   UNL     1     -43.673 -52.820  12.563  1.00  0.00     0.301 C 
BRANCH   5   6
HETATM    6  C   UNL     1     -45.068 -52.840  13.224  1.00  0.00     0.145 C 
BRANCH   6   7
HETATM    7  C   UNL     1     -45.474 -51.420  13.642  1.00  0.00     0.029 C 
HETATM    8  C   UNL     1     -46.739 -51.396  14.485  1.00  0.00     0.007 C 
ENDBRANCH   6   7
BRANCH   6   9
HETATM    9  O   UNL     1     -46.031 -53.378  12.314  1.00  0.00    -0.394 OA
HETATM   10  H   UNL     1     -45.891 -54.340  12.267  1.00  0.00     0.210 HD
ENDBRANCH   6   9
ENDBRANCH   5   6
ENDBRANCH   3   5
ENDBRANCH   1   3
BRANCH   1  11
HETATM   11  C   UNL     1     -41.104 -50.221  11.634  1.00  0.00     0.136 C 
HETATM   12  C   UNL     1     -41.920 -48.922  11.665  1.00  0.00     0.036 C 
BRANCH  11  13
HETATM   13  N   UNL     1     -39.684 -49.994  11.906  1.00  0.00    -0.297 N 
HETATM   14  C   UNL     1     -39.090 -49.711  13.106  1.00  0.00     0.112 A 
HETATM   15  C   UNL     1     -37.749 -49.560  12.847  1.00  0.00     0.037 A 
HETATM   16  C   UNL     1     -37.626 -49.779  11.465  1.00  0.00     0.108 A 
HETATM   17  N   UNL     1     -38.798 -50.054  10.887  1.00  0.00    -0.310 N 
ATOM     18  HN  UNL     1     -38.981 -50.262   9.905  1.00  0.00     0.186 HD
ENDBRANCH  11  13
ENDBRANCH   1  11
TORSDOF 7
ENDMDL
MODEL 7
REMARK VINA RESULT:      -4.8      3.528      5.564
REMARK  7 active torsions:
REMARK  status: ('A' for Active; 'I' for Inactive)
REMARK    1  A    between atoms: C_2  and  C_3 
REMARK    2  A    between atoms: C_3  and  O_4 
REMARK    3  A    between atoms: C_3  and  C_5 
REMARK    4  A    between atoms: C_5  and  N_6 
REMARK    5  A    between atoms: N_6  and  C_7 
REMARK    6  A    between atoms: C_7  and  C_9 
REMARK    7  A    between atoms: C_9  and  N_11 
ROOT
HETATM    1  C   UNL     1     -42.599 -47.369  12.376  1.00  0.00     0.240 C 
HETATM    2  C   UNL     1     -43.089 -48.820  12.514  1.00  0.00     0.045 C 
ENDROOT
BRANCH   1   3
HETATM    3  N   UNL     1     -43.265 -46.711  11.232  1.00  0.00     0.092 N 
HETATM    4  H   UNL     1     -44.159 -46.307  11.529  1.00  0.00     0.316 HD
BRANCH   3   5
HETATM    5  C   UNL     1     -43.556 -47.629  10.121  1.00  0.00     0.301 C 
BRANCH   5   6
HETATM    6  C   UNL     1     -43.789 -46.845   8.810  1.00  0.00     0.145 C 
BRANCH   6   7
HETATM    7  C   UNL     1     -45.103 -46.056   8.894  1.00  0.00     0.029 C 
HETATM    8  C   UNL     1     -46.316 -46.955   9.077  1.00  0.00     0.007 C 
ENDBRANCH   6   7
BRANCH   6   9
HETATM    9  O   UNL     1     -42.696 -45.955   8.574  1.00  0.00    -0.394 OA
HETATM   10  H   UNL     1     -42.633 -45.810   7.613  1.00  0.00     0.210 HD
ENDBRANCH   6   9
ENDBRANCH   5   6
ENDBRANCH   3   5
ENDBRANCH   1   3
BRANCH   1  11
HETATM   11  C   UNL     1     -41.041 -47.349  12.267  1.00  0.00     0.136 C 
HETATM   12  C   UNL     1     -40.440 -48.610  11.633  1.00  0.00     0.036 C 
BRANCH  11  13
HETATM   13  N   UNL     1     -40.560 -46.121  11.632  1.00  0.00    -0.297 N 
HETATM   14  C   UNL     1     -40.562 -44.851  12.142  1.00  0.00     0.112 A 
HETATM   15  C   UNL     1     -40.035 -44.041  11.164  1.00  0.00     0.037 A 
HETATM   16  C   UNL     1     -39.737 -44.912  10.104  1.00  0.00     0.108 A 
HETATM   17  N   UNL     1     -40.044 -46.181  10.384  1.00  0.00    -0.310 N 
ATOM     18  HN  UNL     1     -39.918 -47.004   9.794  1.00  0.00     0.186 HD
ENDBRANCH  11  13
ENDBRANCH   1  11
TORSDOF 7
ENDMDL
MODEL 8
REMARK VINA RESULT:      -4.8      3.706      5.033
REMARK  7 active torsions:
REMARK  status: ('A' for Active; 'I' for Inactive)
REMARK    1  A    between atoms: C_2  and  C_3 
REMARK    2  A    between atoms: C_3  and  O_4 
REMARK    3  A    between atoms: C_3  and  C_5 
REMARK    4  A    between atoms: C_5  and  N_6 
REMARK    5  A    between atoms: N_6  and  C_7 
REMARK    6  A    between atoms: C_7  and  C_9 
REMARK    7  A    between atoms: C_9  and  N_11 
ROOT
HETATM    1  C   UNL     1     -42.000 -51.763  12.350  1.00  0.00     0.240 C 
HETATM    2  C   UNL     1     -42.778 -50.729  13.183  1.00  0.00     0.045 C 
ENDROOT
BRANCH   1   3
HETATM    3  N   UNL     1     -42.899 -52.857  11.924  1.00  0.00     0.092 N 
HETATM    4  H   UNL     1     -43.119 -52.764  10.927  1.00  0.00     0.316 HD
BRANCH   3   5
HETATM    5  C   UNL     1     -44.179 -52.875  12.647  1.00  0.00     0.301 C 
BRANCH   5   6
HETATM    6  C   UNL     1     -44.543 -54.312  13.079  1.00  0.00     0.145 C 
BRANCH   6   7
HETATM    7  C   UNL     1     -43.838 -54.660  14.397  1.00  0.00     0.029 C 
HETATM    8  C   UNL     1     -43.870 -53.517  15.400  1.00  0.00     0.007 C 
ENDBRANCH   6   7
BRANCH   6   9
HETATM    9  O   UNL     1     -45.959 -54.430  13.235  1.00  0.00    -0.394 OA
HETATM   10  H   UNL     1     -46.129 -54.870  14.086  1.00  0.00     0.210 HD
ENDBRANCH   6   9
ENDBRANCH   5   6
ENDBRANCH   3   5
ENDBRANCH   1   3
BRANCH   1  11
HETATM   11  C   UNL     1     -40.766 -52.270  13.163  1.00  0.00     0.136 C 
HETATM   12  C   UNL     1     -40.545 -53.787  13.086  1.00  0.00     0.036 C 
BRANCH  11  13
HETATM   13  N   UNL     1     -39.558 -51.513  12.838  1.00  0.00    -0.297 N 
HETATM   14  C   UNL     1     -38.393 -51.433  13.554  1.00  0.00     0.112 A 
HETATM   15  C   UNL     1     -37.568 -50.583  12.857  1.00  0.00     0.037 A 
HETATM   16  C   UNL     1     -38.317 -50.205  11.730  1.00  0.00     0.108 A 
HETATM   17  N   UNL     1     -39.524 -50.775  11.705  1.00  0.00    -0.310 N 
ATOM     18  HN  UNL     1     -40.252 -50.677  10.997  1.00  0.00     0.186 HD
ENDBRANCH  11  13
ENDBRANCH   1  11
TORSDOF 7
ENDMDL
MODEL 9
REMARK VINA RESULT:      -4.7      3.634      5.235
REMARK  7 active torsions:
REMARK  status: ('A' for Active; 'I' for Inactive)
REMARK    1  A    between atoms: C_2  and  C_3 
REMARK    2  A    between atoms: C_3  and  O_4 
REMARK    3  A    between atoms: C_3  and  C_5 
REMARK    4  A    between atoms: C_5  and  N_6 
REMARK    5  A    between atoms: N_6  and  C_7 
REMARK    6  A    between atoms: C_7  and  C_9 
REMARK    7  A    between atoms: C_9  and  N_11 
ROOT
HETATM    1  C   UNL     1     -42.219 -51.488  12.523  1.00  0.00     0.240 C 
HETATM    2  C   UNL     1     -42.603 -50.317  13.444  1.00  0.00     0.045 C 
ENDROOT
BRANCH   1   3
HETATM    3  N   UNL     1     -43.377 -52.389  12.334  1.00  0.00     0.092 N 
HETATM    4  H   UNL     1     -43.947 -52.069  11.545  1.00  0.00     0.316 HD
BRANCH   3   5
HETATM    5  C   UNL     1     -44.262 -52.455  13.506  1.00  0.00     0.301 C 
BRANCH   5   6
HETATM    6  C   UNL     1     -45.732 -52.640  13.071  1.00  0.00     0.145 C 
BRANCH   6   7
HETATM    7  C   UNL     1     -46.604 -51.532  13.678  1.00  0.00     0.029 C 
HETATM    8  C   UNL     1     -46.381 -51.363  15.173  1.00  0.00     0.007 C 
ENDBRANCH   6   7
BRANCH   6   9
HETATM    9  O   UNL     1     -45.827 -52.614  11.645  1.00  0.00    -0.394 OA
HETATM   10  H   UNL     1     -46.248 -53.444  11.360  1.00  0.00     0.210 HD
ENDBRANCH   6   9
ENDBRANCH   5   6
ENDBRANCH   3   5
ENDBRANCH   1   3
BRANCH   1  11
HETATM   11  C   UNL     1     -40.966 -52.221  13.100  1.00  0.00     0.136 C 
HETATM   12  C   UNL     1     -40.863 -53.698  12.699  1.00  0.00     0.036 C 
BRANCH  11  13
HETATM   13  N   UNL     1     -39.735 -51.481  12.824  1.00  0.00    -0.297 N 
HETATM   14  C   UNL     1     -38.625 -51.362  13.618  1.00  0.00     0.112 A 
HETATM   15  C   UNL     1     -37.749 -50.550  12.939  1.00  0.00     0.037 A 
HETATM   16  C   UNL     1     -38.412 -50.233  11.742  1.00  0.00     0.108 A 
HETATM   17  N   UNL     1     -39.616 -50.804  11.660  1.00  0.00    -0.310 N 
ATOM     18  HN  UNL     1     -40.290 -50.744  10.896  1.00  0.00     0.186 HD
ENDBRANCH  11  13
ENDBRANCH   1  11
TORSDOF 7
ENDMDL
