MODEL 1
REMARK VINA RESULT:      -6.7      0.000      0.000
REMARK  4 active torsions:
REMARK  status: ('A' for Active; 'I' for Inactive)
REMARK    1  A    between atoms: C_2  and  N_3 
REMARK    2  A    between atoms: C_2  and  C_19 
REMARK       I    between atoms: N_3  and  C_4 
REMARK    3  A    between atoms: C_4  and  C_6 
REMARK    4  A    between atoms: C_6  and  N_7 
ROOT
HETATM    1  N   UNL     1     -41.971 -53.526  13.403  1.00  0.00    -0.247 N 
HETATM    2  N   UNL     1     -42.344 -54.503  14.282  1.00  0.00    -0.299 N 
ATOM      3  HN  UNL     1     -43.146 -55.102  14.084  1.00  0.00     0.187 HD
HETATM    4  C   UNL     1     -41.660 -54.655  15.371  1.00  0.00     0.029 A 
HETATM    5  C   UNL     1     -42.085 -55.791  16.273  1.00  0.00     0.070 C 
HETATM    6  C   UNL     1     -40.507 -53.799  15.765  1.00  0.00    -0.012 A 
HETATM    7  C   UNL     1     -39.810 -54.005  17.080  1.00  0.00     0.052 C 
HETATM    8  C   UNL     1     -40.155 -52.852  14.875  1.00  0.00     0.121 A 
HETATM    9  C   UNL     1     -39.077 -51.957  15.126  1.00  0.00     0.105 C 
HETATM   10  N   UNL     1     -38.189 -51.256  15.392  1.00  0.00    -0.191 NA
HETATM   11  C   UNL     1     -40.879 -52.697  13.587  1.00  0.00     0.283 A 
HETATM   12  O   UNL     1     -40.516 -51.877  12.744  1.00  0.00    -0.265 OA
ENDROOT
BRANCH   1  13
HETATM   13  C   UNL     1     -42.751 -53.424  12.177  1.00  0.00     0.255 C 
BRANCH  13  14
HETATM   14  C   UNL     1     -44.243 -53.535  12.479  1.00  0.00     0.237 C 
HETATM   15  N   UNL     1     -44.912 -52.324  12.498  1.00  0.00    -0.355 N 
HETATM   16  H   UNL     1     -44.454 -51.525  12.059  1.00  0.00     0.162 HD
HETATM   17  O   UNL     1     -44.804 -54.612  12.672  1.00  0.00    -0.272 OA
BRANCH  15  18
HETATM   18  C   UNL     1     -46.339 -52.235  12.797  1.00  0.00     0.084 C 
HETATM   19  C   UNL     1     -47.089 -51.642  11.605  1.00  0.00     0.032 C 
BRANCH  18  20
HETATM   20  C   UNL     1     -46.563 -51.415  14.082  1.00  0.00     0.012 C 
HETATM   21  C   UNL     1     -45.255 -50.829  14.671  1.00  0.00     0.011 C 
HETATM   22  C   UNL     1     -45.271 -51.324  16.126  1.00  0.00    -0.014 C 
HETATM   23  C   UNL     1     -45.004 -52.841  16.134  1.00  0.00     0.005 C 
HETATM   24  C   UNL     1     -46.759 -51.255  16.460  1.00  0.00     0.010 C 
HETATM   25  C   UNL     1     -46.336 -53.430  15.649  1.00  0.00     0.005 C 
HETATM   26  C   UNL     1     -47.157 -52.177  15.301  1.00  0.00    -0.008 C 
ENDBRANCH  18  20
ENDBRANCH  15  18
ENDBRANCH  13  14
ENDBRANCH   1  13
TORSDOF 4
ENDMDL
MODEL 2
REMARK VINA RESULT:      -6.6      4.886      6.087
REMARK  4 active torsions:
REMARK  status: ('A' for Active; 'I' for Inactive)
REMARK    1  A    between atoms: C_2  and  N_3 
REMARK    2  A    between atoms: C_2  and  C_19 
REMARK       I    between atoms: N_3  and  C_4 
REMARK    3  A    between atoms: C_4  and  C_6 
REMARK    4  A    between atoms: C_6  and  N_7 
ROOT
HETATM    1  N   UNL     1     -41.022 -51.462  12.176  1.00  0.00    -0.247 N 
HETATM    2  N   UNL     1     -42.342 -51.785  12.028  1.00  0.00    -0.299 N 
ATOM      3  HN  UNL     1     -42.949 -51.228  11.427  1.00  0.00     0.187 HD
HETATM    4  C   UNL     1     -42.806 -52.811  12.667  1.00  0.00     0.029 A 
HETATM    5  C   UNL     1     -44.257 -53.152  12.416  1.00  0.00     0.070 C 
HETATM    6  C   UNL     1     -42.008 -53.651  13.602  1.00  0.00    -0.012 A 
HETATM    7  C   UNL     1     -42.645 -54.785  14.353  1.00  0.00     0.052 C 
HETATM    8  C   UNL     1     -40.709 -53.316  13.720  1.00  0.00     0.121 A 
HETATM    9  C   UNL     1     -39.831 -54.027  14.585  1.00  0.00     0.105 C 
HETATM   10  N   UNL     1     -39.168 -54.647  15.311  1.00  0.00    -0.191 NA
HETATM   11  C   UNL     1     -40.132 -52.185  12.948  1.00  0.00     0.283 A 
HETATM   12  O   UNL     1     -38.930 -51.921  13.003  1.00  0.00    -0.265 OA
ENDROOT
BRANCH   1  13
HETATM   13  C   UNL     1     -40.544 -50.322  11.405  1.00  0.00     0.255 C 
BRANCH  13  14
HETATM   14  C   UNL     1     -41.564 -49.188  11.433  1.00  0.00     0.237 C 
HETATM   15  N   UNL     1     -41.595 -48.422  10.281  1.00  0.00    -0.355 N 
HETATM   16  H   UNL     1     -41.167 -48.813   9.442  1.00  0.00     0.162 HD
HETATM   17  O   UNL     1     -42.306 -48.985  12.391  1.00  0.00    -0.272 OA
BRANCH  15  18
HETATM   18  C   UNL     1     -42.491 -47.276  10.140  1.00  0.00     0.084 C 
HETATM   19  C   UNL     1     -43.292 -47.393   8.844  1.00  0.00     0.032 C 
BRANCH  18  20
HETATM   20  C   UNL     1     -41.689 -45.963  10.203  1.00  0.00     0.012 C 
HETATM   21  C   UNL     1     -40.231 -46.157  10.691  1.00  0.00     0.011 C 
HETATM   22  C   UNL     1     -40.116 -45.167  11.860  1.00  0.00    -0.014 C 
HETATM   23  C   UNL     1     -40.950 -45.698  13.042  1.00  0.00     0.005 C 
HETATM   24  C   UNL     1     -40.965 -44.000  11.362  1.00  0.00     0.010 C 
HETATM   25  C   UNL     1     -42.393 -45.409  12.604  1.00  0.00     0.005 C 
HETATM   26  C   UNL     1     -42.215 -44.869  11.175  1.00  0.00    -0.008 C 
ENDBRANCH  18  20
ENDBRANCH  15  18
ENDBRANCH  13  14
ENDBRANCH   1  13
TORSDOF 4
ENDMDL
MODEL 3
REMARK VINA RESULT:      -6.5      4.614      6.472
REMARK  4 active torsions:
REMARK  status: ('A' for Active; 'I' for Inactive)
REMARK    1  A    between atoms: C_2  and  N_3 
REMARK    2  A    between atoms: C_2  and  C_19 
REMARK       I    between atoms: N_3  and  C_4 
REMARK    3  A    between atoms: C_4  and  C_6 
REMARK    4  A    between atoms: C_6  and  N_7 
ROOT
HETATM    1  N   UNL     1     -42.668 -52.238  12.792  1.00  0.00    -0.247 N 
HETATM    2  N   UNL     1     -43.953 -51.952  12.425  1.00  0.00    -0.299 N 
ATOM      3  HN  UNL     1     -44.157 -51.160  11.815  1.00  0.00     0.187 HD
HETATM    4  C   UNL     1     -44.909 -52.706  12.868  1.00  0.00     0.029 A 
HETATM    5  C   UNL     1     -46.301 -52.375  12.379  1.00  0.00     0.070 C 
HETATM    6  C   UNL     1     -44.712 -53.851  13.800  1.00  0.00    -0.012 A 
HETATM    7  C   UNL     1     -45.887 -54.633  14.315  1.00  0.00     0.052 C 
HETATM    8  C   UNL     1     -43.436 -54.116  14.135  1.00  0.00     0.121 A 
HETATM    9  C   UNL     1     -43.103 -55.176  15.024  1.00  0.00     0.105 C 
HETATM   10  N   UNL     1     -42.898 -56.054  15.757  1.00  0.00    -0.191 NA
HETATM   11  C   UNL     1     -42.313 -53.310  13.589  1.00  0.00     0.283 A 
HETATM   12  O   UNL     1     -41.141 -53.593  13.841  1.00  0.00    -0.265 OA
ENDROOT
BRANCH   1  13
HETATM   13  C   UNL     1     -41.630 -51.381  12.235  1.00  0.00     0.255 C 
BRANCH  13  14
HETATM   14  C   UNL     1     -42.081 -49.923  12.230  1.00  0.00     0.237 C 
HETATM   15  N   UNL     1     -41.829 -49.253  11.046  1.00  0.00    -0.355 N 
HETATM   16  H   UNL     1     -41.633 -49.816  10.218  1.00  0.00     0.162 HD
HETATM   17  O   UNL     1     -42.636 -49.396  13.192  1.00  0.00    -0.272 OA
BRANCH  15  18
HETATM   18  C   UNL     1     -42.167 -47.843  10.870  1.00  0.00     0.084 C 
HETATM   19  C   UNL     1     -43.084 -47.671   9.659  1.00  0.00     0.032 C 
BRANCH  18  20
HETATM   20  C   UNL     1     -40.885 -47.000  10.744  1.00  0.00     0.012 C 
HETATM   21  C   UNL     1     -40.028 -46.990  12.035  1.00  0.00     0.011 C 
HETATM   22  C   UNL     1     -39.842 -45.492  12.323  1.00  0.00    -0.014 C 
HETATM   23  C   UNL     1     -41.187 -44.908  12.795  1.00  0.00     0.005 C 
HETATM   24  C   UNL     1     -39.717 -44.920  10.913  1.00  0.00     0.010 C 
HETATM   25  C   UNL     1     -42.001 -44.820  11.496  1.00  0.00     0.005 C 
HETATM   26  C   UNL     1     -41.072 -45.481  10.465  1.00  0.00    -0.008 C 
ENDBRANCH  18  20
ENDBRANCH  15  18
ENDBRANCH  13  14
ENDBRANCH   1  13
TORSDOF 4
ENDMDL
MODEL 4
REMARK VINA RESULT:      -6.2      4.700      6.563
REMARK  4 active torsions:
REMARK  status: ('A' for Active; 'I' for Inactive)
REMARK    1  A    between atoms: C_2  and  N_3 
REMARK    2  A    between atoms: C_2  and  C_19 
REMARK       I    between atoms: N_3  and  C_4 
REMARK    3  A    between atoms: C_4  and  C_6 
REMARK    4  A    between atoms: C_6  and  N_7 
ROOT
HETATM    1  N   UNL     1     -41.560 -48.541  11.000  1.00  0.00    -0.247 N 
HETATM    2  N   UNL     1     -42.866 -48.595  10.600  1.00  0.00    -0.299 N 
ATOM      3  HN  UNL     1     -43.377 -49.478  10.610  1.00  0.00     0.187 HD
HETATM    4  C   UNL     1     -43.441 -47.503  10.208  1.00  0.00     0.029 A 
HETATM    5  C   UNL     1     -44.903 -47.616   9.836  1.00  0.00     0.070 C 
HETATM    6  C   UNL     1     -42.762 -46.181  10.114  1.00  0.00    -0.012 A 
HETATM    7  C   UNL     1     -43.490 -44.978   9.586  1.00  0.00     0.052 C 
HETATM    8  C   UNL     1     -41.480 -46.157  10.524  1.00  0.00     0.121 A 
HETATM    9  C   UNL     1     -40.706 -44.962  10.482  1.00  0.00     0.105 C 
HETATM   10  N   UNL     1     -40.129 -43.956  10.418  1.00  0.00    -0.191 NA
HETATM   11  C   UNL     1     -40.812 -47.379  11.042  1.00  0.00     0.283 A 
HETATM   12  O   UNL     1     -39.663 -47.342  11.481  1.00  0.00    -0.265 OA
ENDROOT
BRANCH   1  13
HETATM   13  C   UNL     1     -40.974 -49.791  11.467  1.00  0.00     0.255 C 
BRANCH  13  14
HETATM   14  C   UNL     1     -41.682 -50.278  12.727  1.00  0.00     0.237 C 
HETATM   15  N   UNL     1     -41.618 -51.647  12.922  1.00  0.00    -0.355 N 
HETATM   16  H   UNL     1     -40.910 -52.165  12.401  1.00  0.00     0.162 HD
HETATM   17  O   UNL     1     -42.246 -49.517  13.510  1.00  0.00    -0.272 OA
BRANCH  15  18
HETATM   18  C   UNL     1     -42.263 -52.295  14.061  1.00  0.00     0.084 C 
HETATM   19  C   UNL     1     -41.214 -52.708  15.093  1.00  0.00     0.032 C 
BRANCH  18  20
HETATM   20  C   UNL     1     -43.104 -53.495  13.585  1.00  0.00     0.012 C 
HETATM   21  C   UNL     1     -44.099 -53.135  12.453  1.00  0.00     0.011 C 
HETATM   22  C   UNL     1     -45.447 -53.630  13.000  1.00  0.00    -0.014 C 
HETATM   23  C   UNL     1     -45.883 -52.705  14.152  1.00  0.00     0.005 C 
HETATM   24  C   UNL     1     -45.033 -54.899  13.742  1.00  0.00     0.010 C 
HETATM   25  C   UNL     1     -44.967 -53.134  15.306  1.00  0.00     0.005 C 
HETATM   26  C   UNL     1     -44.034 -54.159  14.640  1.00  0.00    -0.008 C 
ENDBRANCH  18  20
ENDBRANCH  15  18
ENDBRANCH  13  14
ENDBRANCH   1  13
TORSDOF 4
ENDMDL
MODEL 5
REMARK VINA RESULT:      -6.2      3.113      6.279
REMARK  4 active torsions:
REMARK  status: ('A' for Active; 'I' for Inactive)
REMARK    1  A    between atoms: C_2  and  N_3 
REMARK    2  A    between atoms: C_2  and  C_19 
REMARK       I    between atoms: N_3  and  C_4 
REMARK    3  A    between atoms: C_4  and  C_6 
REMARK    4  A    between atoms: C_6  and  N_7 
ROOT
HETATM    1  N   UNL     1     -42.606 -52.562  12.647  1.00  0.00    -0.247 N 
HETATM    2  N   UNL     1     -43.882 -52.202  12.319  1.00  0.00    -0.299 N 
ATOM      3  HN  UNL     1     -44.055 -51.432  11.672  1.00  0.00     0.187 HD
HETATM    4  C   UNL     1     -44.868 -52.856  12.845  1.00  0.00     0.029 A 
HETATM    5  C   UNL     1     -46.253 -52.449  12.395  1.00  0.00     0.070 C 
HETATM    6  C   UNL     1     -44.713 -53.958  13.834  1.00  0.00    -0.012 A 
HETATM    7  C   UNL     1     -45.916 -54.620  14.443  1.00  0.00     0.052 C 
HETATM    8  C   UNL     1     -43.445 -54.299  14.130  1.00  0.00     0.121 A 
HETATM    9  C   UNL     1     -43.149 -55.330  15.066  1.00  0.00     0.105 C 
HETATM   10  N   UNL     1     -42.975 -56.179  15.840  1.00  0.00    -0.191 NA
HETATM   11  C   UNL     1     -42.292 -53.611  13.492  1.00  0.00     0.283 A 
HETATM   12  O   UNL     1     -41.134 -53.968  13.711  1.00  0.00    -0.265 OA
ENDROOT
BRANCH   1  13
HETATM   13  C   UNL     1     -41.534 -51.818  11.998  1.00  0.00     0.255 C 
BRANCH  13  14
HETATM   14  C   UNL     1     -41.496 -50.379  12.504  1.00  0.00     0.237 C 
HETATM   15  N   UNL     1     -40.601 -49.564  11.833  1.00  0.00    -0.355 N 
HETATM   16  H   UNL     1     -40.261 -49.883  10.926  1.00  0.00     0.162 HD
HETATM   17  O   UNL     1     -42.211 -49.977  13.419  1.00  0.00    -0.272 OA
BRANCH  15  18
HETATM   18  C   UNL     1     -40.410 -48.163  12.200  1.00  0.00     0.084 C 
HETATM   19  C   UNL     1     -40.756 -47.259  11.017  1.00  0.00     0.032 C 
BRANCH  18  20
HETATM   20  C   UNL     1     -38.969 -47.935  12.696  1.00  0.00     0.012 C 
HETATM   21  C   UNL     1     -38.099 -49.216  12.661  1.00  0.00     0.011 C 
HETATM   22  C   UNL     1     -37.559 -49.313  14.097  1.00  0.00    -0.014 C 
HETATM   23  C   UNL     1     -38.716 -49.706  15.035  1.00  0.00     0.005 C 
HETATM   24  C   UNL     1     -37.343 -47.843  14.447  1.00  0.00     0.010 C 
HETATM   25  C   UNL     1     -39.522 -48.405  15.153  1.00  0.00     0.005 C 
HETATM   26  C   UNL     1     -38.803 -47.467  14.170  1.00  0.00    -0.008 C 
ENDBRANCH  18  20
ENDBRANCH  15  18
ENDBRANCH  13  14
ENDBRANCH   1  13
TORSDOF 4
ENDMDL
MODEL 6
REMARK VINA RESULT:      -6.2      1.636      2.678
REMARK  4 active torsions:
REMARK  status: ('A' for Active; 'I' for Inactive)
REMARK    1  A    between atoms: C_2  and  N_3 
REMARK    2  A    between atoms: C_2  and  C_19 
REMARK       I    between atoms: N_3  and  C_4 
REMARK    3  A    between atoms: C_4  and  C_6 
REMARK    4  A    between atoms: C_6  and  N_7 
ROOT
HETATM    1  N   UNL     1     -42.212 -52.700  12.711  1.00  0.00    -0.247 N 
HETATM    2  N   UNL     1     -42.039 -51.590  11.934  1.00  0.00    -0.299 N 
ATOM      3  HN  UNL     1     -42.393 -51.564  10.977  1.00  0.00     0.187 HD
HETATM    4  C   UNL     1     -41.416 -50.572  12.434  1.00  0.00     0.029 A 
HETATM    5  C   UNL     1     -41.309 -49.352  11.547  1.00  0.00     0.070 C 
HETATM    6  C   UNL     1     -40.823 -50.537  13.800  1.00  0.00    -0.012 A 
HETATM    7  C   UNL     1     -40.059 -49.335  14.277  1.00  0.00     0.052 C 
HETATM    8  C   UNL     1     -41.019 -51.640  14.547  1.00  0.00     0.121 A 
HETATM    9  C   UNL     1     -40.500 -51.748  15.868  1.00  0.00     0.105 C 
HETATM   10  N   UNL     1     -40.049 -51.774  16.938  1.00  0.00    -0.191 NA
HETATM   11  C   UNL     1     -41.788 -52.799  14.023  1.00  0.00     0.283 A 
HETATM   12  O   UNL     1     -42.025 -53.780  14.728  1.00  0.00    -0.265 OA
ENDROOT
BRANCH   1  13
HETATM   13  C   UNL     1     -42.953 -53.802  12.111  1.00  0.00     0.255 C 
BRANCH  13  14
HETATM   14  C   UNL     1     -44.421 -53.750  12.523  1.00  0.00     0.237 C 
HETATM   15  N   UNL     1     -45.011 -52.508  12.371  1.00  0.00    -0.355 N 
HETATM   16  H   UNL     1     -44.540 -51.832  11.770  1.00  0.00     0.162 HD
HETATM   17  O   UNL     1     -45.030 -54.733  12.939  1.00  0.00    -0.272 OA
BRANCH  15  18
HETATM   18  C   UNL     1     -46.403 -52.264  12.742  1.00  0.00     0.084 C 
HETATM   19  C   UNL     1     -47.167 -51.681  11.554  1.00  0.00     0.032 C 
BRANCH  18  20
HETATM   20  C   UNL     1     -46.472 -51.346  13.977  1.00  0.00     0.012 C 
HETATM   21  C   UNL     1     -45.078 -50.917  14.501  1.00  0.00     0.011 C 
HETATM   22  C   UNL     1     -45.122 -51.318  15.984  1.00  0.00    -0.014 C 
HETATM   23  C   UNL     1     -45.072 -52.854  16.083  1.00  0.00     0.005 C 
HETATM   24  C   UNL     1     -46.575 -51.017  16.343  1.00  0.00     0.010 C 
HETATM   25  C   UNL     1     -46.487 -53.274  15.663  1.00  0.00     0.005 C 
HETATM   26  C   UNL     1     -47.132 -51.940  15.253  1.00  0.00    -0.008 C 
ENDBRANCH  18  20
ENDBRANCH  15  18
ENDBRANCH  13  14
ENDBRANCH   1  13
TORSDOF 4
ENDMDL
MODEL 7
REMARK VINA RESULT:      -6.1      2.513      3.939
REMARK  4 active torsions:
REMARK  status: ('A' for Active; 'I' for Inactive)
REMARK    1  A    between atoms: C_2  and  N_3 
REMARK    2  A    between atoms: C_2  and  C_19 
REMARK       I    between atoms: N_3  and  C_4 
REMARK    3  A    between atoms: C_4  and  C_6 
REMARK    4  A    between atoms: C_6  and  N_7 
ROOT
HETATM    1  N   UNL     1     -40.987 -51.594  12.258  1.00  0.00    -0.247 N 
HETATM    2  N   UNL     1     -42.000 -50.737  11.936  1.00  0.00    -0.299 N 
ATOM      3  HN  UNL     1     -42.859 -51.084  11.508  1.00  0.00     0.187 HD
HETATM    4  C   UNL     1     -41.850 -49.475  12.184  1.00  0.00     0.029 A 
HETATM    5  C   UNL     1     -43.030 -48.586  11.860  1.00  0.00     0.070 C 
HETATM    6  C   UNL     1     -40.616 -48.872  12.760  1.00  0.00    -0.012 A 
HETATM    7  C   UNL     1     -40.504 -47.387  12.954  1.00  0.00     0.052 C 
HETATM    8  C   UNL     1     -39.639 -49.742  13.077  1.00  0.00     0.121 A 
HETATM    9  C   UNL     1     -38.401 -49.304  13.628  1.00  0.00     0.105 C 
HETATM   10  N   UNL     1     -37.414 -48.882  14.072  1.00  0.00    -0.191 NA
HETATM   11  C   UNL     1     -39.808 -51.203  12.867  1.00  0.00     0.283 A 
HETATM   12  O   UNL     1     -38.943 -52.004  13.220  1.00  0.00    -0.265 OA
ENDROOT
BRANCH   1  13
HETATM   13  C   UNL     1     -41.224 -53.007  11.993  1.00  0.00     0.255 C 
BRANCH  13  14
HETATM   14  C   UNL     1     -41.917 -53.668  13.181  1.00  0.00     0.237 C 
HETATM   15  N   UNL     1     -43.299 -53.593  13.147  1.00  0.00    -0.355 N 
HETATM   16  H   UNL     1     -43.737 -53.369  12.254  1.00  0.00     0.162 HD
HETATM   17  O   UNL     1     -41.300 -54.232  14.082  1.00  0.00    -0.272 OA
BRANCH  15  18
HETATM   18  C   UNL     1     -44.128 -54.146  14.215  1.00  0.00     0.084 C 
HETATM   19  C   UNL     1     -45.321 -54.891  13.620  1.00  0.00     0.032 C 
BRANCH  18  20
HETATM   20  C   UNL     1     -44.570 -53.028  15.179  1.00  0.00     0.012 C 
HETATM   21  C   UNL     1     -46.067 -53.111  15.567  1.00  0.00     0.011 C 
HETATM   22  C   UNL     1     -46.599 -51.711  15.221  1.00  0.00    -0.014 C 
HETATM   23  C   UNL     1     -46.646 -51.564  13.689  1.00  0.00     0.005 C 
HETATM   24  C   UNL     1     -45.410 -50.828  15.595  1.00  0.00     0.010 C 
HETATM   25  C   UNL     1     -45.169 -51.378  13.313  1.00  0.00     0.005 C 
HETATM   26  C   UNL     1     -44.448 -51.568  14.658  1.00  0.00    -0.008 C 
ENDBRANCH  18  20
ENDBRANCH  15  18
ENDBRANCH  13  14
ENDBRANCH   1  13
TORSDOF 4
ENDMDL
MODEL 8
REMARK VINA RESULT:      -6.1      4.200      5.964
REMARK  4 active torsions:
REMARK  status: ('A' for Active; 'I' for Inactive)
REMARK    1  A    between atoms: C_2  and  N_3 
REMARK    2  A    between atoms: C_2  and  C_19 
REMARK       I    between atoms: N_3  and  C_4 
REMARK    3  A    between atoms: C_4  and  C_6 
REMARK    4  A    between atoms: C_6  and  N_7 
ROOT
HETATM    1  N   UNL     1     -40.374 -49.111  11.977  1.00  0.00    -0.247 N 
HETATM    2  N   UNL     1     -39.469 -48.890  12.976  1.00  0.00    -0.299 N 
ATOM      3  HN  UNL     1     -39.082 -49.669  13.509  1.00  0.00     0.187 HD
HETATM    4  C   UNL     1     -39.111 -47.673  13.233  1.00  0.00     0.029 A 
HETATM    5  C   UNL     1     -38.062 -47.499  14.308  1.00  0.00     0.070 C 
HETATM    6  C   UNL     1     -39.657 -46.472  12.542  1.00  0.00    -0.012 A 
HETATM    7  C   UNL     1     -39.233 -45.090  12.950  1.00  0.00     0.052 C 
HETATM    8  C   UNL     1     -40.539 -46.720  11.556  1.00  0.00     0.121 A 
HETATM    9  C   UNL     1     -41.147 -45.666  10.816  1.00  0.00     0.105 C 
HETATM   10  N   UNL     1     -41.610 -44.761  10.253  1.00  0.00    -0.191 NA
HETATM   11  C   UNL     1     -40.918 -48.110  11.192  1.00  0.00     0.283 A 
HETATM   12  O   UNL     1     -41.672 -48.340  10.246  1.00  0.00    -0.265 OA
ENDROOT
BRANCH   1  13
HETATM   13  C   UNL     1     -40.713 -50.501  11.704  1.00  0.00     0.255 C 
BRANCH  13  14
HETATM   14  C   UNL     1     -41.247 -51.181  12.961  1.00  0.00     0.237 C 
HETATM   15  N   UNL     1     -41.399 -52.552  12.846  1.00  0.00    -0.355 N 
HETATM   16  H   UNL     1     -40.910 -53.018  12.082  1.00  0.00     0.162 HD
HETATM   17  O   UNL     1     -41.504 -50.564  13.992  1.00  0.00    -0.272 OA
BRANCH  15  18
HETATM   18  C   UNL     1     -41.925 -53.364  13.940  1.00  0.00     0.084 C 
HETATM   19  C   UNL     1     -40.813 -54.229  14.533  1.00  0.00     0.032 C 
BRANCH  18  20
HETATM   20  C   UNL     1     -43.114 -54.212  13.450  1.00  0.00     0.012 C 
HETATM   21  C   UNL     1     -44.109 -53.420  12.566  1.00  0.00     0.011 C 
HETATM   22  C   UNL     1     -45.460 -53.656  13.259  1.00  0.00    -0.014 C 
HETATM   23  C   UNL     1     -45.479 -52.875  14.586  1.00  0.00     0.005 C 
HETATM   24  C   UNL     1     -45.316 -55.100  13.733  1.00  0.00     0.010 C 
HETATM   25  C   UNL     1     -44.574 -53.718  15.496  1.00  0.00     0.005 C 
HETATM   26  C   UNL     1     -44.048 -54.804  14.543  1.00  0.00    -0.008 C 
ENDBRANCH  18  20
ENDBRANCH  15  18
ENDBRANCH  13  14
ENDBRANCH   1  13
TORSDOF 4
ENDMDL
MODEL 9
REMARK VINA RESULT:      -5.9      2.508      6.370
REMARK  4 active torsions:
REMARK  status: ('A' for Active; 'I' for Inactive)
REMARK    1  A    between atoms: C_2  and  N_3 
REMARK    2  A    between atoms: C_2  and  C_19 
REMARK       I    between atoms: N_3  and  C_4 
REMARK    3  A    between atoms: C_4  and  C_6 
REMARK    4  A    between atoms: C_6  and  N_7 
ROOT
HETATM    1  N   UNL     1     -42.279 -53.160  12.455  1.00  0.00    -0.247 N 
HETATM    2  N   UNL     1     -43.532 -52.713  12.142  1.00  0.00    -0.299 N 
ATOM      3  HN  UNL     1     -43.673 -52.061  11.370  1.00  0.00     0.187 HD
HETATM    4  C   UNL     1     -44.536 -53.133  12.843  1.00  0.00     0.029 A 
HETATM    5  C   UNL     1     -45.901 -52.650  12.408  1.00  0.00     0.070 C 
HETATM    6  C   UNL     1     -44.420 -54.045  14.014  1.00  0.00    -0.012 A 
HETATM    7  C   UNL     1     -45.634 -54.431  14.812  1.00  0.00     0.052 C 
HETATM    8  C   UNL     1     -43.177 -54.478  14.293  1.00  0.00     0.121 A 
HETATM    9  C   UNL     1     -42.918 -55.347  15.391  1.00  0.00     0.105 C 
HETATM   10  N   UNL     1     -42.774 -56.053  16.302  1.00  0.00    -0.191 NA
HETATM   11  C   UNL     1     -42.013 -54.066  13.466  1.00  0.00     0.283 A 
HETATM   12  O   UNL     1     -40.887 -54.515  13.679  1.00  0.00    -0.265 OA
ENDROOT
BRANCH   1  13
HETATM   13  C   UNL     1     -41.191 -52.686  11.611  1.00  0.00     0.255 C 
BRANCH  13  14
HETATM   14  C   UNL     1     -40.699 -51.322  12.085  1.00  0.00     0.237 C 
HETATM   15  N   UNL     1     -39.323 -51.220  12.195  1.00  0.00    -0.355 N 
HETATM   16  H   UNL     1     -38.758 -51.919  11.714  1.00  0.00     0.162 HD
HETATM   17  O   UNL     1     -41.460 -50.389  12.332  1.00  0.00    -0.272 OA
BRANCH  15  18
HETATM   18  C   UNL     1     -38.675 -49.997  12.661  1.00  0.00     0.084 C 
HETATM   19  C   UNL     1     -37.725 -49.465  11.588  1.00  0.00     0.032 C 
BRANCH  18  20
HETATM   20  C   UNL     1     -37.949 -50.254  13.995  1.00  0.00     0.012 C 
HETATM   21  C   UNL     1     -38.888 -50.764  15.116  1.00  0.00     0.011 C 
HETATM   22  C   UNL     1     -38.632 -49.778  16.266  1.00  0.00    -0.014 C 
HETATM   23  C   UNL     1     -39.244 -48.414  15.894  1.00  0.00     0.005 C 
HETATM   24  C   UNL     1     -37.135 -49.512  16.118  1.00  0.00     0.010 C 
HETATM   25  C   UNL     1     -38.256 -47.862  14.858  1.00  0.00     0.005 C 
HETATM   26  C   UNL     1     -37.271 -49.027  14.669  1.00  0.00    -0.008 C 
ENDBRANCH  18  20
ENDBRANCH  15  18
ENDBRANCH  13  14
ENDBRANCH   1  13
TORSDOF 4
ENDMDL
