MODEL 1
REMARK VINA RESULT:      -5.7      0.000      0.000
REMARK  4 active torsions:
REMARK  status: ('A' for Active; 'I' for Inactive)
REMARK       I    between atoms: C_2  and  N_3 
REMARK       I    between atoms: C_2  and  N_12 
REMARK    1  A    between atoms: N_3  and  C_4 
REMARK    2  A    between atoms: C_4  and  C_5 
REMARK    3  A    between atoms: C_5  and  N_6 
REMARK    4  A    between atoms: N_12  and  C_13 
ROOT
HETATM    1  O   UNL     1     -42.134 -48.570  11.757  1.00  0.00    -0.247 OA
HETATM    2  C   UNL     1     -41.594 -48.872  10.701  1.00  0.00     0.321 C 
HETATM    3  N   UNL     1     -40.624 -49.858  10.616  1.00  0.00    -0.341 N 
HETATM    4  N   UNL     1     -41.808 -48.236   9.500  1.00  0.00    -0.301 N 
HETATM    5  H   UNL     1     -40.725 -50.473   9.821  1.00  0.00     0.164 HD
HETATM    6  H   UNL     1     -41.003 -48.133   8.900  1.00  0.00     0.171 HD
ENDROOT
BRANCH   3   7
HETATM    7  C   UNL     1     -40.240 -50.453  11.887  1.00  0.00     0.154 C 
BRANCH   7   8
HETATM    8  C   UNL     1     -40.833 -51.838  12.209  1.00  0.00     0.292 C 
BRANCH   8   9
HETATM    9  N   UNL     1     -41.748 -51.769  13.367  1.00  0.00     0.090 N 
HETATM   10  C   UNL     1     -41.522 -52.811  14.381  1.00  0.00     0.272 C 
HETATM   11  C   UNL     1     -41.939 -54.205  13.915  1.00  0.00     0.030 C 
HETATM   12  C   UNL     1     -43.406 -54.220  13.498  1.00  0.00     0.003 C 
HETATM   13  C   UNL     1     -43.736 -53.082  12.535  1.00  0.00     0.030 C 
HETATM   14  C   UNL     1     -43.168 -51.736  12.992  1.00  0.00     0.272 C 
ENDBRANCH   8   9
ENDBRANCH   7   8
ENDBRANCH   3   7
BRANCH   4  15
HETATM   15  C   UNL     1     -42.749 -47.223   9.476  1.00  0.00     0.108 A 
HETATM   16  C   UNL     1     -42.770 -45.933   9.964  1.00  0.00     0.142 A 
HETATM   17  N   UNL     1     -43.904 -45.204   9.640  1.00  0.00    -0.301 N 
HETATM   18  N   UNL     1     -44.746 -45.919   8.907  1.00  0.00    -0.060 NA
ATOM     19  HN  UNL     1     -44.068 -44.240   9.928  1.00  0.00     0.182 HD
HETATM   20  S   UNL     1     -44.211 -47.490   8.647  1.00  0.00     0.019 SA
ENDBRANCH   4  15
TORSDOF 4
ENDMDL
MODEL 2
REMARK VINA RESULT:      -5.6      3.289      6.376
REMARK  4 active torsions:
REMARK  status: ('A' for Active; 'I' for Inactive)
REMARK       I    between atoms: C_2  and  N_3 
REMARK       I    between atoms: C_2  and  N_12 
REMARK    1  A    between atoms: N_3  and  C_4 
REMARK    2  A    between atoms: C_4  and  C_5 
REMARK    3  A    between atoms: C_5  and  N_6 
REMARK    4  A    between atoms: N_12  and  C_13 
ROOT
HETATM    1  O   UNL     1     -42.399 -51.722  13.388  1.00  0.00    -0.247 OA
HETATM    2  C   UNL     1     -42.357 -52.309  12.315  1.00  0.00     0.321 C 
HETATM    3  N   UNL     1     -41.297 -52.173  11.432  1.00  0.00    -0.341 N 
HETATM    4  N   UNL     1     -43.366 -53.098  11.812  1.00  0.00    -0.301 N 
HETATM    5  H   UNL     1     -40.991 -53.040  11.015  1.00  0.00     0.164 HD
HETATM    6  H   UNL     1     -43.513 -53.053  10.815  1.00  0.00     0.171 HD
ENDROOT
BRANCH   3   7
HETATM    7  C   UNL     1     -40.275 -51.222  11.841  1.00  0.00     0.154 C 
BRANCH   7   8
HETATM    8  C   UNL     1     -40.312 -49.835  11.170  1.00  0.00     0.292 C 
BRANCH   8   9
HETATM    9  N   UNL     1     -41.051 -48.862  12.002  1.00  0.00     0.090 N 
HETATM   10  C   UNL     1     -42.428 -48.602  11.551  1.00  0.00     0.272 C 
HETATM   11  C   UNL     1     -42.495 -47.804  10.251  1.00  0.00     0.030 C 
HETATM   12  C   UNL     1     -41.754 -46.479  10.389  1.00  0.00     0.003 C 
HETATM   13  C   UNL     1     -40.354 -46.666  10.970  1.00  0.00     0.030 C 
HETATM   14  C   UNL     1     -40.339 -47.591  12.190  1.00  0.00     0.272 C 
ENDBRANCH   8   9
ENDBRANCH   7   8
ENDBRANCH   3   7
BRANCH   4  15
HETATM   15  C   UNL     1     -44.480 -53.290  12.608  1.00  0.00     0.108 A 
HETATM   16  C   UNL     1     -45.717 -52.683  12.673  1.00  0.00     0.142 A 
HETATM   17  N   UNL     1     -46.599 -53.250  13.580  1.00  0.00    -0.301 N 
HETATM   18  N   UNL     1     -46.053 -54.283  14.205  1.00  0.00    -0.060 NA
ATOM     19  HN  UNL     1     -47.548 -52.914  13.745  1.00  0.00     0.182 HD
HETATM   20  S   UNL     1     -44.458 -54.550  13.750  1.00  0.00     0.019 SA
ENDBRANCH   4  15
TORSDOF 4
ENDMDL
MODEL 3
REMARK VINA RESULT:      -5.5      1.507      1.655
REMARK  4 active torsions:
REMARK  status: ('A' for Active; 'I' for Inactive)
REMARK       I    between atoms: C_2  and  N_3 
REMARK       I    between atoms: C_2  and  N_12 
REMARK    1  A    between atoms: N_3  and  C_4 
REMARK    2  A    between atoms: C_4  and  C_5 
REMARK    3  A    between atoms: C_5  and  N_6 
REMARK    4  A    between atoms: N_12  and  C_13 
ROOT
HETATM    1  O   UNL     1     -41.568 -49.291  12.537  1.00  0.00    -0.247 OA
HETATM    2  C   UNL     1     -41.204 -49.682  11.435  1.00  0.00     0.321 C 
HETATM    3  N   UNL     1     -40.565 -50.898  11.250  1.00  0.00    -0.341 N 
HETATM    4  N   UNL     1     -41.301 -48.953  10.273  1.00  0.00    -0.301 N 
HETATM    5  H   UNL     1     -40.888 -51.418  10.447  1.00  0.00     0.164 HD
HETATM    6  H   UNL     1     -40.539 -49.054   9.618  1.00  0.00     0.171 HD
ENDROOT
BRANCH   3   7
HETATM    7  C   UNL     1     -40.290 -51.640  12.471  1.00  0.00     0.154 C 
BRANCH   7   8
HETATM    8  C   UNL     1     -41.212 -52.836  12.776  1.00  0.00     0.292 C 
BRANCH   8   9
HETATM    9  N   UNL     1     -42.328 -52.436  13.659  1.00  0.00     0.090 N 
HETATM   10  C   UNL     1     -42.499 -53.292  14.844  1.00  0.00     0.272 C 
HETATM   11  C   UNL     1     -43.033 -54.683  14.510  1.00  0.00     0.030 C 
HETATM   12  C   UNL     1     -44.359 -54.589  13.763  1.00  0.00     0.003 C 
HETATM   13  C   UNL     1     -44.284 -53.616  12.588  1.00  0.00     0.030 C 
HETATM   14  C   UNL     1     -43.610 -52.293  12.957  1.00  0.00     0.272 C 
ENDBRANCH   8   9
ENDBRANCH   7   8
ENDBRANCH   3   7
BRANCH   4  15
HETATM   15  C   UNL     1     -41.911 -47.715  10.347  1.00  0.00     0.108 A 
HETATM   16  C   UNL     1     -43.211 -47.284  10.182  1.00  0.00     0.142 A 
HETATM   17  N   UNL     1     -43.417 -45.937  10.437  1.00  0.00    -0.301 N 
HETATM   18  N   UNL     1     -42.294 -45.335  10.800  1.00  0.00    -0.060 NA
ATOM     19  HN  UNL     1     -44.320 -45.469  10.356  1.00  0.00     0.182 HD
HETATM   20  S   UNL     1     -40.968 -46.368  10.784  1.00  0.00     0.019 SA
ENDBRANCH   4  15
TORSDOF 4
ENDMDL
MODEL 4
REMARK VINA RESULT:      -5.4      3.614      4.912
REMARK  4 active torsions:
REMARK  status: ('A' for Active; 'I' for Inactive)
REMARK       I    between atoms: C_2  and  N_3 
REMARK       I    between atoms: C_2  and  N_12 
REMARK    1  A    between atoms: N_3  and  C_4 
REMARK    2  A    between atoms: C_4  and  C_5 
REMARK    3  A    between atoms: C_5  and  N_6 
REMARK    4  A    between atoms: N_12  and  C_13 
ROOT
HETATM    1  O   UNL     1     -41.733 -51.689  13.452  1.00  0.00    -0.247 OA
HETATM    2  C   UNL     1     -41.821 -51.858  12.243  1.00  0.00     0.321 C 
HETATM    3  N   UNL     1     -42.720 -52.749  11.678  1.00  0.00    -0.341 N 
HETATM    4  N   UNL     1     -41.005 -51.265  11.307  1.00  0.00    -0.301 N 
HETATM    5  H   UNL     1     -43.197 -52.395  10.862  1.00  0.00     0.164 HD
HETATM    6  H   UNL     1     -40.756 -51.832  10.510  1.00  0.00     0.171 HD
ENDROOT
BRANCH   3   7
HETATM    7  C   UNL     1     -43.498 -53.524  12.632  1.00  0.00     0.154 C 
BRANCH   7   8
HETATM    8  C   UNL     1     -44.968 -53.107  12.828  1.00  0.00     0.292 C 
BRANCH   8   9
HETATM    9  N   UNL     1     -45.452 -53.482  14.173  1.00  0.00     0.090 N 
HETATM   10  C   UNL     1     -46.805 -52.993  14.488  1.00  0.00     0.272 C 
HETATM   11  C   UNL     1     -46.864 -51.482  14.699  1.00  0.00     0.030 C 
HETATM   12  C   UNL     1     -45.905 -51.050  15.803  1.00  0.00     0.003 C 
HETATM   13  C   UNL     1     -44.506 -51.629  15.601  1.00  0.00     0.030 C 
HETATM   14  C   UNL     1     -44.526 -53.120  15.253  1.00  0.00     0.272 C 
ENDBRANCH   8   9
ENDBRANCH   7   8
ENDBRANCH   3   7
BRANCH   4  15
HETATM   15  C   UNL     1     -40.060 -50.367  11.765  1.00  0.00     0.108 A 
HETATM   16  C   UNL     1     -38.741 -50.490  12.151  1.00  0.00     0.142 A 
HETATM   17  N   UNL     1     -38.112 -49.296  12.469  1.00  0.00    -0.301 N 
HETATM   18  N   UNL     1     -38.931 -48.264  12.326  1.00  0.00    -0.060 NA
ATOM     19  HN  UNL     1     -37.141 -49.221  12.773  1.00  0.00     0.182 HD
HETATM   20  S   UNL     1     -40.480 -48.722  11.863  1.00  0.00     0.019 SA
ENDBRANCH   4  15
TORSDOF 4
ENDMDL
MODEL 5
REMARK VINA RESULT:      -5.2      4.403      6.698
REMARK  4 active torsions:
REMARK  status: ('A' for Active; 'I' for Inactive)
REMARK       I    between atoms: C_2  and  N_3 
REMARK       I    between atoms: C_2  and  N_12 
REMARK    1  A    between atoms: N_3  and  C_4 
REMARK    2  A    between atoms: C_4  and  C_5 
REMARK    3  A    between atoms: C_5  and  N_6 
REMARK    4  A    between atoms: N_12  and  C_13 
ROOT
HETATM    1  O   UNL     1     -42.545 -53.439  14.213  1.00  0.00    -0.247 OA
HETATM    2  C   UNL     1     -42.693 -53.433  12.997  1.00  0.00     0.321 C 
HETATM    3  N   UNL     1     -41.656 -53.152  12.121  1.00  0.00    -0.341 N 
HETATM    4  N   UNL     1     -43.894 -53.618  12.353  1.00  0.00    -0.301 N 
HETATM    5  H   UNL     1     -41.618 -53.759  11.316  1.00  0.00     0.164 HD
HETATM    6  H   UNL     1     -44.043 -53.069  11.520  1.00  0.00     0.171 HD
ENDROOT
BRANCH   3   7
HETATM    7  C   UNL     1     -40.398 -52.788  12.755  1.00  0.00     0.154 C 
BRANCH   7   8
HETATM    8  C   UNL     1     -40.138 -51.284  12.965  1.00  0.00     0.292 C 
BRANCH   8   9
HETATM    9  N   UNL     1     -38.886 -50.864  12.304  1.00  0.00     0.090 N 
HETATM   10  C   UNL     1     -37.681 -51.011  13.137  1.00  0.00     0.272 C 
HETATM   11  C   UNL     1     -37.616 -50.006  14.285  1.00  0.00     0.030 C 
HETATM   12  C   UNL     1     -37.690 -48.577  13.758  1.00  0.00     0.003 C 
HETATM   13  C   UNL     1     -38.852 -48.387  12.786  1.00  0.00     0.030 C 
HETATM   14  C   UNL     1     -38.943 -49.506  11.746  1.00  0.00     0.272 C 
ENDBRANCH   8   9
ENDBRANCH   7   8
ENDBRANCH   3   7
BRANCH   4  15
HETATM   15  C   UNL     1     -45.000 -53.892  13.136  1.00  0.00     0.108 A 
HETATM   16  C   UNL     1     -45.493 -55.042  13.717  1.00  0.00     0.142 A 
HETATM   17  N   UNL     1     -46.611 -54.861  14.516  1.00  0.00    -0.301 N 
HETATM   18  N   UNL     1     -46.976 -53.587  14.556  1.00  0.00    -0.060 NA
ATOM     19  HN  UNL     1     -47.092 -55.612  15.010  1.00  0.00     0.182 HD
HETATM   20  S   UNL     1     -46.014 -52.604  13.591  1.00  0.00     0.019 SA
ENDBRANCH   4  15
TORSDOF 4
ENDMDL
MODEL 6
REMARK VINA RESULT:      -5.1      2.913      7.387
REMARK  4 active torsions:
REMARK  status: ('A' for Active; 'I' for Inactive)
REMARK       I    between atoms: C_2  and  N_3 
REMARK       I    between atoms: C_2  and  N_12 
REMARK    1  A    between atoms: N_3  and  C_4 
REMARK    2  A    between atoms: C_4  and  C_5 
REMARK    3  A    between atoms: C_5  and  N_6 
REMARK    4  A    between atoms: N_12  and  C_13 
ROOT
HETATM    1  O   UNL     1     -41.734 -48.709  12.072  1.00  0.00    -0.247 OA
HETATM    2  C   UNL     1     -41.328 -48.976  10.948  1.00  0.00     0.321 C 
HETATM    3  N   UNL     1     -41.620 -48.191   9.844  1.00  0.00    -0.341 N 
HETATM    4  N   UNL     1     -40.617 -50.107  10.620  1.00  0.00    -0.301 N 
HETATM    5  H   UNL     1     -40.837 -48.036   9.227  1.00  0.00     0.164 HD
HETATM    6  H   UNL     1     -40.822 -50.517   9.721  1.00  0.00     0.171 HD
ENDROOT
BRANCH   3   7
HETATM    7  C   UNL     1     -42.507 -47.068  10.106  1.00  0.00     0.154 C 
BRANCH   7   8
HETATM    8  C   UNL     1     -41.846 -45.685  10.256  1.00  0.00     0.292 C 
BRANCH   8   9
HETATM    9  N   UNL     1     -42.054 -45.140  11.614  1.00  0.00     0.090 N 
HETATM   10  C   UNL     1     -42.474 -43.729  11.642  1.00  0.00     0.272 C 
HETATM   11  C   UNL     1     -41.364 -42.762  11.237  1.00  0.00     0.030 C 
HETATM   12  C   UNL     1     -40.139 -42.939  12.128  1.00  0.00     0.003 C 
HETATM   13  C   UNL     1     -39.722 -44.404  12.240  1.00  0.00     0.030 C 
HETATM   14  C   UNL     1     -40.906 -45.337  12.508  1.00  0.00     0.272 C 
ENDBRANCH   8   9
ENDBRANCH   7   8
ENDBRANCH   3   7
BRANCH   4  15
HETATM   15  C   UNL     1     -40.284 -50.970  11.648  1.00  0.00     0.108 A 
HETATM   16  C   UNL     1     -40.886 -52.092  12.180  1.00  0.00     0.142 A 
HETATM   17  N   UNL     1     -40.158 -52.729  13.173  1.00  0.00    -0.301 N 
HETATM   18  N   UNL     1     -39.008 -52.112  13.402  1.00  0.00    -0.060 NA
ATOM     19  HN  UNL     1     -40.469 -53.567  13.664  1.00  0.00     0.182 HD
HETATM   20  S   UNL     1     -38.813 -50.730  12.468  1.00  0.00     0.019 SA
ENDBRANCH   4  15
TORSDOF 4
ENDMDL
MODEL 7
REMARK VINA RESULT:      -5.1      2.038      2.527
REMARK  4 active torsions:
REMARK  status: ('A' for Active; 'I' for Inactive)
REMARK       I    between atoms: C_2  and  N_3 
REMARK       I    between atoms: C_2  and  N_12 
REMARK    1  A    between atoms: N_3  and  C_4 
REMARK    2  A    between atoms: C_4  and  C_5 
REMARK    3  A    between atoms: C_5  and  N_6 
REMARK    4  A    between atoms: N_12  and  C_13 
ROOT
HETATM    1  O   UNL     1     -40.640 -47.946  12.472  1.00  0.00    -0.247 OA
HETATM    2  C   UNL     1     -41.012 -48.282  11.355  1.00  0.00     0.321 C 
HETATM    3  N   UNL     1     -41.234 -49.606  11.010  1.00  0.00    -0.341 N 
HETATM    4  N   UNL     1     -41.175 -47.424  10.292  1.00  0.00    -0.301 N 
HETATM    5  H   UNL     1     -42.071 -49.758  10.466  1.00  0.00     0.164 HD
HETATM    6  H   UNL     1     -40.916 -47.783   9.385  1.00  0.00     0.171 HD
ENDROOT
BRANCH   3   7
HETATM    7  C   UNL     1     -40.920 -50.572  12.051  1.00  0.00     0.154 C 
BRANCH   7   8
HETATM    8  C   UNL     1     -42.113 -51.279  12.722  1.00  0.00     0.292 C 
BRANCH   8   9
HETATM    9  N   UNL     1     -42.271 -52.657  12.211  1.00  0.00     0.090 N 
HETATM   10  C   UNL     1     -43.570 -53.274  12.525  1.00  0.00     0.272 C 
HETATM   11  C   UNL     1     -43.731 -53.619  14.004  1.00  0.00     0.030 C 
HETATM   12  C   UNL     1     -42.611 -54.543  14.469  1.00  0.00     0.003 C 
HETATM   13  C   UNL     1     -41.235 -54.020  14.065  1.00  0.00     0.030 C 
HETATM   14  C   UNL     1     -41.181 -53.559  12.606  1.00  0.00     0.272 C 
ENDBRANCH   8   9
ENDBRANCH   7   8
ENDBRANCH   3   7
BRANCH   4  15
HETATM   15  C   UNL     1     -40.963 -46.077  10.523  1.00  0.00     0.108 A 
HETATM   16  C   UNL     1     -39.847 -45.269  10.474  1.00  0.00     0.142 A 
HETATM   17  N   UNL     1     -40.091 -43.922  10.697  1.00  0.00    -0.301 N 
HETATM   18  N   UNL     1     -41.378 -43.692  10.911  1.00  0.00    -0.060 NA
ATOM     19  HN  UNL     1     -39.370 -43.200  10.696  1.00  0.00     0.182 HD
HETATM   20  S   UNL     1     -42.301 -45.096  10.901  1.00  0.00     0.019 SA
ENDBRANCH   4  15
TORSDOF 4
ENDMDL
MODEL 8
REMARK VINA RESULT:      -5.0      2.505      3.114
REMARK  4 active torsions:
REMARK  status: ('A' for Active; 'I' for Inactive)
REMARK       I    between atoms: C_2  and  N_3 
REMARK       I    between atoms: C_2  and  N_12 
REMARK    1  A    between atoms: N_3  and  C_4 
REMARK    2  A    between atoms: C_4  and  C_5 
REMARK    3  A    between atoms: C_5  and  N_6 
REMARK    4  A    between atoms: N_12  and  C_13 
ROOT
HETATM    1  O   UNL     1     -42.752 -48.801  12.884  1.00  0.00    -0.247 OA
HETATM    2  C   UNL     1     -42.357 -49.538  11.990  1.00  0.00     0.321 C 
HETATM    3  N   UNL     1     -42.374 -50.919  12.101  1.00  0.00    -0.341 N 
HETATM    4  N   UNL     1     -41.779 -49.109  10.818  1.00  0.00    -0.301 N 
HETATM    5  H   UNL     1     -42.691 -51.398  11.271  1.00  0.00     0.164 HD
HETATM    6  H   UNL     1     -41.025 -49.676  10.458  1.00  0.00     0.171 HD
ENDROOT
BRANCH   3   7
HETATM    7  C   UNL     1     -42.825 -51.427  13.388  1.00  0.00     0.154 C 
BRANCH   7   8
HETATM    8  C   UNL     1     -44.038 -52.376  13.370  1.00  0.00     0.292 C 
BRANCH   8   9
HETATM    9  N   UNL     1     -44.341 -52.877  14.727  1.00  0.00     0.090 N 
HETATM   10  C   UNL     1     -45.471 -53.819  14.787  1.00  0.00     0.272 C 
HETATM   11  C   UNL     1     -46.824 -53.154  14.543  1.00  0.00     0.030 C 
HETATM   12  C   UNL     1     -47.059 -52.024  15.539  1.00  0.00     0.003 C 
HETATM   13  C   UNL     1     -45.866 -51.074  15.616  1.00  0.00     0.030 C 
HETATM   14  C   UNL     1     -44.528 -51.810  15.719  1.00  0.00     0.272 C 
ENDBRANCH   8   9
ENDBRANCH   7   8
ENDBRANCH   3   7
BRANCH   4  15
HETATM   15  C   UNL     1     -41.697 -47.744  10.611  1.00  0.00     0.108 A 
HETATM   16  C   UNL     1     -40.746 -46.792  10.914  1.00  0.00     0.142 A 
HETATM   17  N   UNL     1     -41.023 -45.519  10.442  1.00  0.00    -0.301 N 
HETATM   18  N   UNL     1     -42.170 -45.487   9.778  1.00  0.00    -0.060 NA
ATOM     19  HN  UNL     1     -40.420 -44.709  10.586  1.00  0.00     0.182 HD
HETATM   20  S   UNL     1     -42.954 -46.973   9.763  1.00  0.00     0.019 SA
ENDBRANCH   4  15
TORSDOF 4
ENDMDL
MODEL 9
REMARK VINA RESULT:      -5.0      2.589      4.036
REMARK  4 active torsions:
REMARK  status: ('A' for Active; 'I' for Inactive)
REMARK       I    between atoms: C_2  and  N_3 
REMARK       I    between atoms: C_2  and  N_12 
REMARK    1  A    between atoms: N_3  and  C_4 
REMARK    2  A    between atoms: C_4  and  C_5 
REMARK    3  A    between atoms: C_5  and  N_6 
REMARK    4  A    between atoms: N_12  and  C_13 
ROOT
HETATM    1  O   UNL     1     -42.068 -48.763  12.086  1.00  0.00    -0.247 OA
HETATM    2  C   UNL     1     -41.521 -49.137  11.057  1.00  0.00     0.321 C 
HETATM    3  N   UNL     1     -40.732 -50.275  11.003  1.00  0.00    -0.341 N 
HETATM    4  N   UNL     1     -41.544 -48.453   9.864  1.00  0.00    -0.301 N 
HETATM    5  H   UNL     1     -40.886 -50.849  10.186  1.00  0.00     0.164 HD
HETATM    6  H   UNL     1     -40.696 -48.481   9.317  1.00  0.00     0.171 HD
ENDROOT
BRANCH   3   7
HETATM    7  C   UNL     1     -40.540 -50.950  12.277  1.00  0.00     0.154 C 
BRANCH   7   8
HETATM    8  C   UNL     1     -39.187 -50.728  12.981  1.00  0.00     0.292 C 
BRANCH   8   9
HETATM    9  N   UNL     1     -39.378 -50.160  14.332  1.00  0.00     0.090 N 
HETATM   10  C   UNL     1     -39.449 -48.690  14.367  1.00  0.00     0.272 C 
HETATM   11  C   UNL     1     -38.108 -48.016  14.084  1.00  0.00     0.030 C 
HETATM   12  C   UNL     1     -37.045 -48.491  15.069  1.00  0.00     0.003 C 
HETATM   13  C   UNL     1     -37.003 -50.014  15.173  1.00  0.00     0.030 C 
HETATM   14  C   UNL     1     -38.395 -50.636  15.314  1.00  0.00     0.272 C 
ENDBRANCH   8   9
ENDBRANCH   7   8
ENDBRANCH   3   7
BRANCH   4  15
HETATM   15  C   UNL     1     -42.292 -47.291   9.811  1.00  0.00     0.108 A 
HETATM   16  C   UNL     1     -43.588 -47.012   9.429  1.00  0.00     0.142 A 
HETATM   17  N   UNL     1     -43.981 -45.696   9.616  1.00  0.00    -0.301 N 
HETATM   18  N   UNL     1     -43.006 -44.969  10.141  1.00  0.00    -0.060 NA
ATOM     19  HN  UNL     1     -44.906 -45.334   9.381  1.00  0.00     0.182 HD
HETATM   20  S   UNL     1     -41.589 -45.844  10.363  1.00  0.00     0.019 SA
ENDBRANCH   4  15
TORSDOF 4
ENDMDL
