MODEL 1
REMARK VINA RESULT:      -6.8      0.000      0.000
REMARK  2 active torsions:
REMARK  status: ('A' for Active; 'I' for Inactive)
REMARK       I    between atoms: N_8  and  C_9 
REMARK       I    between atoms: C_9  and  N_11 
REMARK    1  A    between atoms: N_11  and  C_12 
REMARK    2  A    between atoms: C_12  and  C_13 
ROOT
HETATM    1  C   UNL     1     -41.304 -47.117  10.661  1.00  0.00     0.078 C 
HETATM    2  C   UNL     1     -41.348 -48.535  11.086  1.00  0.00     0.066 A 
HETATM    3  N   UNL     1     -42.448 -49.173  11.426  1.00  0.00    -0.296 N 
ATOM      4  HN  UNL     1     -43.381 -48.764  11.387  1.00  0.00     0.187 HD
HETATM    5  N   UNL     1     -42.187 -50.458  11.842  1.00  0.00    -0.279 N 
ATOM      6  HN  UNL     1     -42.903 -51.113  12.159  1.00  0.00     0.189 HD
HETATM    7  C   UNL     1     -40.905 -50.743  11.783  1.00  0.00     0.169 A 
HETATM    8  N   UNL     1     -40.280 -51.900  12.146  1.00  0.00    -0.288 N 
HETATM    9  C   UNL     1     -40.890 -52.961  12.746  1.00  0.00     0.322 C 
HETATM   10  O   UNL     1     -40.238 -53.967  13.011  1.00  0.00    -0.247 OA
HETATM   11  N   UNL     1     -42.208 -52.829  13.055  1.00  0.00    -0.340 N 
HETATM   12  S   UNL     1     -39.916 -49.489  11.197  1.00  0.00    -0.038 SA
HETATM   13  H   UNL     1     -39.288 -51.991  11.990  1.00  0.00     0.172 HD
HETATM   14  H   UNL     1     -42.664 -51.944  12.848  1.00  0.00     0.164 HD
ENDROOT
BRANCH  11  15
HETATM   15  C   UNL     1     -42.987 -53.823  13.765  1.00  0.00     0.158 C 
BRANCH  15  16
HETATM   16  C   UNL     1     -44.246 -54.334  13.002  1.00  0.00     0.167 C 
HETATM   17  C   UNL     1     -45.366 -54.769  13.974  1.00  0.00     0.306 C 
HETATM   18  N   UNL     1     -45.686 -53.583  14.748  1.00  0.00     0.097 N 
HETATM   19  C   UNL     1     -46.447 -53.692  15.963  1.00  0.00     0.273 C 
HETATM   20  C   UNL     1     -46.264 -52.543  13.901  1.00  0.00     0.246 C 
HETATM   21  C   UNL     1     -46.849 -52.237  16.217  1.00  0.00     0.032 C 
HETATM   22  C   UNL     1     -46.491 -51.461  14.942  1.00  0.00     0.040 C 
HETATM   23  C   UNL     1     -45.294 -52.165  12.769  1.00  0.00     0.204 C 
HETATM   24  O   UNL     1     -44.762 -53.323  12.091  1.00  0.00    -0.380 OA
ENDBRANCH  15  16
ENDBRANCH  11  15
TORSDOF 2
ENDMDL
MODEL 2
REMARK VINA RESULT:      -6.6      2.189      3.692
REMARK  2 active torsions:
REMARK  status: ('A' for Active; 'I' for Inactive)
REMARK       I    between atoms: N_8  and  C_9 
REMARK       I    between atoms: C_9  and  N_11 
REMARK    1  A    between atoms: N_11  and  C_12 
REMARK    2  A    between atoms: C_12  and  C_13 
ROOT
HETATM    1  C   UNL     1     -44.127 -45.437   9.107  1.00  0.00     0.078 C 
HETATM    2  C   UNL     1     -43.190 -46.475   9.594  1.00  0.00     0.066 A 
HETATM    3  N   UNL     1     -43.443 -47.767   9.580  1.00  0.00    -0.296 N 
ATOM      4  HN  UNL     1     -44.290 -48.180   9.191  1.00  0.00     0.187 HD
HETATM    5  N   UNL     1     -42.426 -48.494  10.155  1.00  0.00    -0.279 N 
ATOM      6  HN  UNL     1     -42.435 -49.509  10.253  1.00  0.00     0.189 HD
HETATM    7  C   UNL     1     -41.442 -47.724  10.563  1.00  0.00     0.169 A 
HETATM    8  N   UNL     1     -40.294 -48.090  11.205  1.00  0.00    -0.288 N 
HETATM    9  C   UNL     1     -40.010 -49.352  11.634  1.00  0.00     0.322 C 
HETATM   10  O   UNL     1     -38.935 -49.580  12.183  1.00  0.00    -0.247 OA
HETATM   11  N   UNL     1     -40.968 -50.301  11.459  1.00  0.00    -0.340 N 
HETATM   12  S   UNL     1     -41.655 -46.063  10.263  1.00  0.00    -0.038 SA
HETATM   13  H   UNL     1     -39.601 -47.388  11.408  1.00  0.00     0.172 HD
HETATM   14  H   UNL     1     -41.852 -50.021  11.042  1.00  0.00     0.164 HD
ENDROOT
BRANCH  11  15
HETATM   15  C   UNL     1     -40.864 -51.668  11.927  1.00  0.00     0.158 C 
BRANCH  15  16
HETATM   16  C   UNL     1     -41.018 -51.846  13.467  1.00  0.00     0.167 C 
HETATM   17  C   UNL     1     -42.375 -51.307  13.972  1.00  0.00     0.306 C 
HETATM   18  N   UNL     1     -43.382 -52.079  13.268  1.00  0.00     0.097 N 
HETATM   19  C   UNL     1     -44.749 -51.635  13.240  1.00  0.00     0.273 C 
HETATM   20  C   UNL     1     -43.334 -53.486  13.657  1.00  0.00     0.246 C 
HETATM   21  C   UNL     1     -45.479 -52.886  12.743  1.00  0.00     0.032 C 
HETATM   22  C   UNL     1     -44.458 -54.031  12.793  1.00  0.00     0.040 C 
HETATM   23  C   UNL     1     -41.944 -54.080  13.369  1.00  0.00     0.204 C 
HETATM   24  O   UNL     1     -40.875 -53.242  13.858  1.00  0.00    -0.380 OA
ENDBRANCH  15  16
ENDBRANCH  11  15
TORSDOF 2
ENDMDL
MODEL 3
REMARK VINA RESULT:      -6.5      1.315      1.721
REMARK  2 active torsions:
REMARK  status: ('A' for Active; 'I' for Inactive)
REMARK       I    between atoms: N_8  and  C_9 
REMARK       I    between atoms: C_9  and  N_11 
REMARK    1  A    between atoms: N_11  and  C_12 
REMARK    2  A    between atoms: C_12  and  C_13 
ROOT
HETATM    1  C   UNL     1     -42.031 -46.235  11.631  1.00  0.00     0.078 C 
HETATM    2  C   UNL     1     -41.987 -47.715  11.644  1.00  0.00     0.066 A 
HETATM    3  N   UNL     1     -43.049 -48.488  11.715  1.00  0.00    -0.296 N 
ATOM      4  HN  UNL     1     -44.009 -48.142  11.724  1.00  0.00     0.187 HD
HETATM    5  N   UNL     1     -42.711 -49.820  11.778  1.00  0.00    -0.279 N 
ATOM      6  HN  UNL     1     -43.389 -50.579  11.850  1.00  0.00     0.189 HD
HETATM    7  C   UNL     1     -41.410 -49.999  11.734  1.00  0.00     0.169 A 
HETATM    8  N   UNL     1     -40.715 -51.172  11.807  1.00  0.00    -0.288 N 
HETATM    9  C   UNL     1     -41.272 -52.392  12.046  1.00  0.00     0.322 C 
HETATM   10  O   UNL     1     -40.558 -53.392  12.069  1.00  0.00    -0.247 OA
HETATM   11  N   UNL     1     -42.610 -52.433  12.285  1.00  0.00    -0.340 N 
HETATM   12  S   UNL     1     -40.492 -48.573  11.589  1.00  0.00    -0.038 SA
HETATM   13  H   UNL     1     -39.713 -51.155  11.703  1.00  0.00     0.172 HD
HETATM   14  H   UNL     1     -43.122 -51.555  12.297  1.00  0.00     0.164 HD
ENDROOT
BRANCH  11  15
HETATM   15  C   UNL     1     -43.345 -53.631  12.634  1.00  0.00     0.158 C 
BRANCH  15  16
HETATM   16  C   UNL     1     -43.224 -54.062  14.127  1.00  0.00     0.167 C 
HETATM   17  C   UNL     1     -43.522 -52.887  15.086  1.00  0.00     0.306 C 
HETATM   18  N   UNL     1     -44.881 -52.479  14.783  1.00  0.00     0.097 N 
HETATM   19  C   UNL     1     -45.379 -51.212  15.247  1.00  0.00     0.273 C 
HETATM   20  C   UNL     1     -45.835 -53.531  15.121  1.00  0.00     0.246 C 
HETATM   21  C   UNL     1     -46.887 -51.367  15.037  1.00  0.00     0.032 C 
HETATM   22  C   UNL     1     -47.128 -52.848  14.712  1.00  0.00     0.040 C 
HETATM   23  C   UNL     1     -45.510 -54.824  14.353  1.00  0.00     0.204 C 
HETATM   24  O   UNL     1     -44.112 -55.174  14.432  1.00  0.00    -0.380 OA
ENDBRANCH  15  16
ENDBRANCH  11  15
TORSDOF 2
ENDMDL
MODEL 4
REMARK VINA RESULT:      -6.5      4.968      6.775
REMARK  2 active torsions:
REMARK  status: ('A' for Active; 'I' for Inactive)
REMARK       I    between atoms: N_8  and  C_9 
REMARK       I    between atoms: C_9  and  N_11 
REMARK    1  A    between atoms: N_11  and  C_12 
REMARK    2  A    between atoms: C_12  and  C_13 
ROOT
HETATM    1  C   UNL     1     -46.774 -47.148   9.041  1.00  0.00     0.078 C 
HETATM    2  C   UNL     1     -45.341 -47.189   9.412  1.00  0.00     0.066 A 
HETATM    3  N   UNL     1     -44.786 -48.147  10.124  1.00  0.00    -0.296 N 
ATOM      4  HN  UNL     1     -45.282 -48.976  10.451  1.00  0.00     0.187 HD
HETATM    5  N   UNL     1     -43.457 -47.895  10.376  1.00  0.00    -0.279 N 
ATOM      6  HN  UNL     1     -42.853 -48.509  10.921  1.00  0.00     0.189 HD
HETATM    7  C   UNL     1     -43.060 -46.767   9.830  1.00  0.00     0.169 A 
HETATM    8  N   UNL     1     -41.827 -46.184   9.900  1.00  0.00    -0.288 N 
HETATM    9  C   UNL     1     -40.791 -46.642  10.656  1.00  0.00     0.322 C 
HETATM   10  O   UNL     1     -39.712 -46.054  10.629  1.00  0.00    -0.247 OA
HETATM   11  N   UNL     1     -41.023 -47.727  11.443  1.00  0.00    -0.340 N 
HETATM   12  S   UNL     1     -44.253 -45.934   8.949  1.00  0.00    -0.038 SA
HETATM   13  H   UNL     1     -41.655 -45.339   9.379  1.00  0.00     0.172 HD
HETATM   14  H   UNL     1     -41.958 -48.126  11.446  1.00  0.00     0.164 HD
ENDROOT
BRANCH  11  15
HETATM   15  C   UNL     1     -40.061 -48.292  12.366  1.00  0.00     0.158 C 
BRANCH  15  16
HETATM   16  C   UNL     1     -39.199 -49.452  11.785  1.00  0.00     0.167 C 
HETATM   17  C   UNL     1     -37.852 -49.592  12.529  1.00  0.00     0.306 C 
HETATM   18  N   UNL     1     -38.202 -49.862  13.911  1.00  0.00     0.097 N 
HETATM   19  C   UNL     1     -37.216 -49.726  14.949  1.00  0.00     0.273 C 
HETATM   20  C   UNL     1     -38.874 -51.152  14.041  1.00  0.00     0.246 C 
HETATM   21  C   UNL     1     -37.890 -50.444  16.122  1.00  0.00     0.032 C 
HETATM   22  C   UNL     1     -39.113 -51.168  15.541  1.00  0.00     0.040 C 
HETATM   23  C   UNL     1     -40.146 -51.190  13.178  1.00  0.00     0.204 C 
HETATM   24  O   UNL     1     -39.913 -50.720  11.833  1.00  0.00    -0.380 OA
ENDBRANCH  15  16
ENDBRANCH  11  15
TORSDOF 2
ENDMDL
MODEL 5
REMARK VINA RESULT:      -6.2      3.186      4.939
REMARK  2 active torsions:
REMARK  status: ('A' for Active; 'I' for Inactive)
REMARK       I    between atoms: N_8  and  C_9 
REMARK       I    between atoms: C_9  and  N_11 
REMARK    1  A    between atoms: N_11  and  C_12 
REMARK    2  A    between atoms: C_12  and  C_13 
ROOT
HETATM    1  C   UNL     1     -39.122 -57.442  17.900  1.00  0.00     0.078 C 
HETATM    2  C   UNL     1     -39.573 -56.393  16.957  1.00  0.00     0.066 A 
HETATM    3  N   UNL     1     -40.813 -55.960  16.868  1.00  0.00    -0.296 N 
ATOM      4  HN  UNL     1     -41.573 -56.274  17.471  1.00  0.00     0.187 HD
HETATM    5  N   UNL     1     -40.960 -55.033  15.862  1.00  0.00    -0.279 N 
ATOM      6  HN  UNL     1     -41.846 -54.586  15.623  1.00  0.00     0.189 HD
HETATM    7  C   UNL     1     -39.825 -54.792  15.246  1.00  0.00     0.169 A 
HETATM    8  N   UNL     1     -39.600 -53.963  14.185  1.00  0.00    -0.288 N 
HETATM    9  C   UNL     1     -40.569 -53.295  13.499  1.00  0.00     0.322 C 
HETATM   10  O   UNL     1     -40.256 -52.554  12.571  1.00  0.00    -0.247 OA
HETATM   11  N   UNL     1     -41.860 -53.519  13.864  1.00  0.00    -0.340 N 
HETATM   12  S   UNL     1     -38.484 -55.648  15.848  1.00  0.00    -0.038 SA
HETATM   13  H   UNL     1     -38.657 -53.838  13.853  1.00  0.00     0.172 HD
HETATM   14  H   UNL     1     -42.039 -54.187  14.610  1.00  0.00     0.164 HD
ENDROOT
BRANCH  11  15
HETATM   15  C   UNL     1     -43.013 -52.957  13.191  1.00  0.00     0.158 C 
BRANCH  15  16
HETATM   16  C   UNL     1     -44.159 -53.971  12.899  1.00  0.00     0.167 C 
HETATM   17  C   UNL     1     -44.831 -54.465  14.199  1.00  0.00     0.306 C 
HETATM   18  N   UNL     1     -45.357 -53.273  14.837  1.00  0.00     0.097 N 
HETATM   19  C   UNL     1     -45.758 -53.305  16.218  1.00  0.00     0.273 C 
HETATM   20  C   UNL     1     -46.419 -52.671  14.035  1.00  0.00     0.246 C 
HETATM   21  C   UNL     1     -46.562 -52.008  16.345  1.00  0.00     0.032 C 
HETATM   22  C   UNL     1     -46.768 -51.485  14.917  1.00  0.00     0.040 C 
HETATM   23  C   UNL     1     -45.900 -52.310  12.633  1.00  0.00     0.204 C 
HETATM   24  O   UNL     1     -45.167 -53.393  12.021  1.00  0.00    -0.380 OA
ENDBRANCH  15  16
ENDBRANCH  11  15
TORSDOF 2
ENDMDL
MODEL 6
REMARK VINA RESULT:      -6.1      5.873      7.241
REMARK  2 active torsions:
REMARK  status: ('A' for Active; 'I' for Inactive)
REMARK       I    between atoms: N_8  and  C_9 
REMARK       I    between atoms: C_9  and  N_11 
REMARK    1  A    between atoms: N_11  and  C_12 
REMARK    2  A    between atoms: C_12  and  C_13 
ROOT
HETATM    1  C   UNL     1     -46.601 -47.308   9.073  1.00  0.00     0.078 C 
HETATM    2  C   UNL     1     -45.167 -47.249   9.439  1.00  0.00     0.066 A 
HETATM    3  N   UNL     1     -44.563 -48.123  10.216  1.00  0.00    -0.296 N 
ATOM      4  HN  UNL     1     -45.015 -48.951  10.604  1.00  0.00     0.187 HD
HETATM    5  N   UNL     1     -43.248 -47.786  10.442  1.00  0.00    -0.279 N 
ATOM      6  HN  UNL     1     -42.612 -48.328  11.027  1.00  0.00     0.189 HD
HETATM    7  C   UNL     1     -42.910 -46.683   9.814  1.00  0.00     0.169 A 
HETATM    8  N   UNL     1     -41.709 -46.034   9.835  1.00  0.00    -0.288 N 
HETATM    9  C   UNL     1     -40.649 -46.383  10.617  1.00  0.00     0.322 C 
HETATM   10  O   UNL     1     -39.602 -45.744  10.542  1.00  0.00    -0.247 OA
HETATM   11  N   UNL     1     -40.824 -47.418  11.481  1.00  0.00    -0.340 N 
HETATM   12  S   UNL     1     -44.145 -45.977   8.881  1.00  0.00    -0.038 SA
HETATM   13  H   UNL     1     -41.581 -45.221   9.254  1.00  0.00     0.172 HD
HETATM   14  H   UNL     1     -41.738 -47.863  11.518  1.00  0.00     0.164 HD
ENDROOT
BRANCH  11  15
HETATM   15  C   UNL     1     -39.833 -47.865  12.438  1.00  0.00     0.158 C 
BRANCH  15  16
HETATM   16  C   UNL     1     -39.876 -47.137  13.814  1.00  0.00     0.167 C 
HETATM   17  C   UNL     1     -40.343 -48.079  14.946  1.00  0.00     0.306 C 
HETATM   18  N   UNL     1     -39.374 -49.159  14.972  1.00  0.00     0.097 N 
HETATM   19  C   UNL     1     -39.666 -50.380  15.673  1.00  0.00     0.273 C 
HETATM   20  C   UNL     1     -38.055 -48.673  15.367  1.00  0.00     0.246 C 
HETATM   21  C   UNL     1     -38.286 -51.038  15.752  1.00  0.00     0.032 C 
HETATM   22  C   UNL     1     -37.273 -49.973  15.310  1.00  0.00     0.040 C 
HETATM   23  C   UNL     1     -37.570 -47.578  14.402  1.00  0.00     0.204 C 
HETATM   24  O   UNL     1     -38.578 -46.574  14.158  1.00  0.00    -0.380 OA
ENDBRANCH  15  16
ENDBRANCH  11  15
TORSDOF 2
ENDMDL
MODEL 7
REMARK VINA RESULT:      -6.1      3.041      6.927
REMARK  2 active torsions:
REMARK  status: ('A' for Active; 'I' for Inactive)
REMARK       I    between atoms: N_8  and  C_9 
REMARK       I    between atoms: C_9  and  N_11 
REMARK    1  A    between atoms: N_11  and  C_12 
REMARK    2  A    between atoms: C_12  and  C_13 
ROOT
HETATM    1  C   UNL     1     -44.953 -54.657  13.467  1.00  0.00     0.078 C 
HETATM    2  C   UNL     1     -44.062 -53.529  13.109  1.00  0.00     0.066 A 
HETATM    3  N   UNL     1     -44.484 -52.326  12.782  1.00  0.00    -0.296 N 
ATOM      4  HN  UNL     1     -45.464 -52.043  12.786  1.00  0.00     0.187 HD
HETATM    5  N   UNL     1     -43.444 -51.496  12.432  1.00  0.00    -0.279 N 
ATOM      6  HN  UNL     1     -43.562 -50.527  12.135  1.00  0.00     0.189 HD
HETATM    7  C   UNL     1     -42.281 -52.100  12.526  1.00  0.00     0.169 A 
HETATM    8  N   UNL     1     -41.045 -51.602  12.229  1.00  0.00    -0.288 N 
HETATM    9  C   UNL     1     -40.810 -50.382  11.671  1.00  0.00     0.322 C 
HETATM   10  O   UNL     1     -39.655 -50.019  11.464  1.00  0.00    -0.247 OA
HETATM   11  N   UNL     1     -41.893 -49.631  11.334  1.00  0.00    -0.340 N 
HETATM   12  S   UNL     1     -42.348 -53.711  13.068  1.00  0.00    -0.038 SA
HETATM   13  H   UNL     1     -40.233 -52.171  12.406  1.00  0.00     0.172 HD
HETATM   14  H   UNL     1     -42.818 -50.024  11.491  1.00  0.00     0.164 HD
ENDROOT
BRANCH  11  15
HETATM   15  C   UNL     1     -41.826 -48.350  10.660  1.00  0.00     0.158 C 
BRANCH  15  16
HETATM   16  C   UNL     1     -42.818 -47.275  11.196  1.00  0.00     0.167 C 
HETATM   17  C   UNL     1     -42.549 -46.938  12.679  1.00  0.00     0.306 C 
HETATM   18  N   UNL     1     -41.187 -46.437  12.718  1.00  0.00     0.097 N 
HETATM   19  C   UNL     1     -40.487 -46.333  13.970  1.00  0.00     0.273 C 
HETATM   20  C   UNL     1     -41.068 -45.178  11.987  1.00  0.00     0.246 C 
HETATM   21  C   UNL     1     -39.297 -45.447  13.596  1.00  0.00     0.032 C 
HETATM   22  C   UNL     1     -39.589 -44.901  12.191  1.00  0.00     0.040 C 
HETATM   23  C   UNL     1     -41.500 -45.361  10.522  1.00  0.00     0.204 C 
HETATM   24  O   UNL     1     -42.760 -46.056  10.402  1.00  0.00    -0.380 OA
ENDBRANCH  15  16
ENDBRANCH  11  15
TORSDOF 2
ENDMDL
MODEL 8
REMARK VINA RESULT:      -5.9      2.456      3.737
REMARK  2 active torsions:
REMARK  status: ('A' for Active; 'I' for Inactive)
REMARK       I    between atoms: N_8  and  C_9 
REMARK       I    between atoms: C_9  and  N_11 
REMARK    1  A    between atoms: N_11  and  C_12 
REMARK    2  A    between atoms: C_12  and  C_13 
ROOT
HETATM    1  C   UNL     1     -44.066 -45.723   9.016  1.00  0.00     0.078 C 
HETATM    2  C   UNL     1     -43.168 -46.649   9.743  1.00  0.00     0.066 A 
HETATM    3  N   UNL     1     -43.443 -47.914   9.982  1.00  0.00    -0.296 N 
ATOM      4  HN  UNL     1     -44.282 -48.389   9.649  1.00  0.00     0.187 HD
HETATM    5  N   UNL     1     -42.463 -48.518  10.734  1.00  0.00    -0.279 N 
ATOM      6  HN  UNL     1     -42.494 -49.492  11.036  1.00  0.00     0.189 HD
HETATM    7  C   UNL     1     -41.482 -47.691  11.019  1.00  0.00     0.169 A 
HETATM    8  N   UNL     1     -40.367 -47.930  11.770  1.00  0.00    -0.288 N 
HETATM    9  C   UNL     1     -40.123 -49.081  12.457  1.00  0.00     0.322 C 
HETATM   10  O   UNL     1     -39.075 -49.203  13.086  1.00  0.00    -0.247 OA
HETATM   11  N   UNL     1     -41.091 -50.036  12.439  1.00  0.00    -0.340 N 
HETATM   12  S   UNL     1     -41.653 -46.124  10.379  1.00  0.00    -0.038 SA
HETATM   13  H   UNL     1     -39.670 -47.208  11.855  1.00  0.00     0.172 HD
HETATM   14  H   UNL     1     -41.952 -49.838  11.936  1.00  0.00     0.164 HD
ENDROOT
BRANCH  11  15
HETATM   15  C   UNL     1     -41.030 -51.280  13.179  1.00  0.00     0.158 C 
BRANCH  15  16
HETATM   16  C   UNL     1     -41.075 -52.567  12.302  1.00  0.00     0.167 C 
HETATM   17  C   UNL     1     -40.640 -53.817  13.098  1.00  0.00     0.306 C 
HETATM   18  N   UNL     1     -41.581 -53.919  14.198  1.00  0.00     0.097 N 
HETATM   19  C   UNL     1     -41.292 -54.765  15.325  1.00  0.00     0.273 C 
HETATM   20  C   UNL     1     -42.930 -54.195  13.713  1.00  0.00     0.246 C 
HETATM   21  C   UNL     1     -42.657 -54.853  16.013  1.00  0.00     0.032 C 
HETATM   22  C   UNL     1     -43.674 -54.247  15.036  1.00  0.00     0.040 C 
HETATM   23  C   UNL     1     -43.395 -53.092  12.747  1.00  0.00     0.204 C 
HETATM   24  O   UNL     1     -42.402 -52.784  11.745  1.00  0.00    -0.380 OA
ENDBRANCH  15  16
ENDBRANCH  11  15
TORSDOF 2
ENDMDL
MODEL 9
REMARK VINA RESULT:      -5.7      3.184      4.171
REMARK  2 active torsions:
REMARK  status: ('A' for Active; 'I' for Inactive)
REMARK       I    between atoms: N_8  and  C_9 
REMARK       I    between atoms: C_9  and  N_11 
REMARK    1  A    between atoms: N_11  and  C_12 
REMARK    2  A    between atoms: C_12  and  C_13 
ROOT
HETATM    1  C   UNL     1     -43.073 -45.520  10.062  1.00  0.00     0.078 C 
HETATM    2  C   UNL     1     -42.339 -46.774  10.347  1.00  0.00     0.066 A 
HETATM    3  N   UNL     1     -42.853 -47.979  10.222  1.00  0.00    -0.296 N 
ATOM      4  HN  UNL     1     -43.793 -48.166   9.872  1.00  0.00     0.187 HD
HETATM    5  N   UNL     1     -41.970 -48.957  10.618  1.00  0.00    -0.279 N 
ATOM      6  HN  UNL     1     -42.181 -49.955  10.609  1.00  0.00     0.189 HD
HETATM    7  C   UNL     1     -40.822 -48.452  11.010  1.00  0.00     0.169 A 
HETATM    8  N   UNL     1     -39.732 -49.112  11.499  1.00  0.00    -0.288 N 
HETATM    9  C   UNL     1     -39.685 -50.448  11.764  1.00  0.00     0.322 C 
HETATM   10  O   UNL     1     -38.644 -50.949  12.182  1.00  0.00    -0.247 OA
HETATM   11  N   UNL     1     -40.828 -51.162  11.581  1.00  0.00    -0.340 N 
HETATM   12  S   UNL     1     -40.709 -46.757  10.908  1.00  0.00    -0.038 SA
HETATM   13  H   UNL     1     -38.896 -48.590  11.709  1.00  0.00     0.172 HD
HETATM   14  H   UNL     1     -41.662 -50.663  11.281  1.00  0.00     0.164 HD
ENDROOT
BRANCH  11  15
HETATM   15  C   UNL     1     -40.975 -52.569  11.891  1.00  0.00     0.158 C 
BRANCH  15  16
HETATM   16  C   UNL     1     -42.142 -52.906  12.866  1.00  0.00     0.167 C 
HETATM   17  C   UNL     1     -41.851 -54.183  13.686  1.00  0.00     0.306 C 
HETATM   18  N   UNL     1     -40.636 -53.896  14.427  1.00  0.00     0.097 N 
HETATM   19  C   UNL     1     -39.891 -54.962  15.040  1.00  0.00     0.273 C 
HETATM   20  C   UNL     1     -40.853 -52.828  15.399  1.00  0.00     0.246 C 
HETATM   21  C   UNL     1     -38.957 -54.195  15.981  1.00  0.00     0.032 C 
HETATM   22  C   UNL     1     -39.462 -52.746  16.004  1.00  0.00     0.040 C 
HETATM   23  C   UNL     1     -41.336 -51.547  14.699  1.00  0.00     0.204 C 
HETATM   24  O   UNL     1     -42.413 -51.800  13.772  1.00  0.00    -0.380 OA
ENDBRANCH  15  16
ENDBRANCH  11  15
TORSDOF 2
ENDMDL
