MODEL 1
REMARK VINA RESULT:      -6.1      0.000      0.000
REMARK  5 active torsions:
REMARK  status: ('A' for Active; 'I' for Inactive)
REMARK    1  A    between atoms: C_2  and  N_3 
REMARK    2  A    between atoms: N_3  and  C_4 
REMARK    3  A    between atoms: N_3  and  C_6 
REMARK    4  A    between atoms: C_9  and  N_10 
REMARK       I    between atoms: N_10  and  C_11 
REMARK       I    between atoms: C_11  and  N_13 
REMARK    5  A    between atoms: N_13  and  C_14 
ROOT
HETATM    1  N   UNL     1     -41.644 -50.260  11.392  1.00  0.00    -0.308 N 
HETATM    2  C   UNL     1     -42.392 -50.754  12.438  1.00  0.00     0.321 C 
HETATM    3  O   UNL     1     -42.834 -50.101  13.375  1.00  0.00    -0.247 OA
HETATM    4  N   UNL     1     -42.626 -52.108  12.348  1.00  0.00    -0.337 N 
HETATM    5  H   UNL     1     -41.145 -50.926  10.825  1.00  0.00     0.170 HD
HETATM    6  H   UNL     1     -42.050 -52.655  11.725  1.00  0.00     0.164 HD
ENDROOT
BRANCH   1   7
HETATM    7  C   UNL     1     -41.329 -48.890  11.217  1.00  0.00     0.051 A 
HETATM    8  C   UNL     1     -40.294 -48.251  11.883  1.00  0.00     0.035 A 
HETATM    9  C   UNL     1     -39.999 -46.915  11.605  1.00  0.00     0.051 A 
HETATM   10  C   UNL     1     -40.742 -46.223  10.654  1.00  0.00     0.102 A 
HETATM   11  N   UNL     1     -41.784 -46.817  10.028  1.00  0.00    -0.350 N 
HETATM   12  C   UNL     1     -42.062 -48.113  10.329  1.00  0.00     0.119 A 
ATOM     13  HN  UNL     1     -42.346 -46.305   9.348  1.00  0.00     0.166 HD
BRANCH  10  14
HETATM   14  N   UNL     1     -40.348 -44.918  10.300  1.00  0.00    -0.368 N 
BRANCH  14  15
HETATM   15  C   UNL     1     -41.041 -43.891  11.088  1.00  0.00     0.120 C 
HETATM   16  C   UNL     1     -40.113 -43.179  12.063  1.00  0.00     0.026 C 
ENDBRANCH  14  15
BRANCH  14  17
HETATM   17  C   UNL     1     -38.909 -44.772  10.032  1.00  0.00     0.120 C 
HETATM   18  C   UNL     1     -38.578 -44.556   8.560  1.00  0.00     0.026 C 
ENDBRANCH  14  17
ENDBRANCH  10  14
ENDBRANCH   1   7
BRANCH   4  19
HETATM   19  C   UNL     1     -43.379 -52.819  13.383  1.00  0.00     0.101 C 
HETATM   20  C   UNL     1     -42.537 -53.861  14.157  1.00  0.00     0.041 C 
HETATM   21  C   UNL     1     -43.439 -54.975  14.684  1.00  0.00     0.142 C 
HETATM   22  S   UNL     1     -45.097 -54.589  14.179  1.00  0.00     0.146 S 
HETATM   23  O   UNL     1     -45.733 -55.770  13.639  1.00  0.00    -0.228 OA
HETATM   24  O   UNL     1     -45.716 -53.791  15.218  1.00  0.00    -0.228 OA
HETATM   25  C   UNL     1     -44.637 -53.505  12.858  1.00  0.00     0.165 C 
ENDBRANCH   4  19
TORSDOF 5
ENDMDL
MODEL 2
REMARK VINA RESULT:      -5.7      4.127      5.555
REMARK  5 active torsions:
REMARK  status: ('A' for Active; 'I' for Inactive)
REMARK    1  A    between atoms: C_2  and  N_3 
REMARK    2  A    between atoms: N_3  and  C_4 
REMARK    3  A    between atoms: N_3  and  C_6 
REMARK    4  A    between atoms: C_9  and  N_10 
REMARK       I    between atoms: N_10  and  C_11 
REMARK       I    between atoms: C_11  and  N_13 
REMARK    5  A    between atoms: N_13  and  C_14 
ROOT
HETATM    1  N   UNL     1     -40.357 -46.412  10.571  1.00  0.00    -0.308 N 
HETATM    2  C   UNL     1     -39.788 -47.112  11.611  1.00  0.00     0.321 C 
HETATM    3  O   UNL     1     -39.658 -46.710  12.761  1.00  0.00    -0.247 OA
HETATM    4  N   UNL     1     -39.357 -48.370  11.250  1.00  0.00    -0.337 N 
HETATM    5  H   UNL     1     -40.188 -46.750   9.637  1.00  0.00     0.170 HD
HETATM    6  H   UNL     1     -39.243 -48.574  10.269  1.00  0.00     0.164 HD
ENDROOT
BRANCH   1   7
HETATM    7  C   UNL     1     -40.940 -45.127  10.701  1.00  0.00     0.051 A 
HETATM    8  C   UNL     1     -42.303 -44.915  10.843  1.00  0.00     0.035 A 
HETATM    9  C   UNL     1     -42.797 -43.624  11.036  1.00  0.00     0.051 A 
HETATM   10  C   UNL     1     -41.918 -42.545  11.090  1.00  0.00     0.102 A 
HETATM   11  N   UNL     1     -40.591 -42.728  10.907  1.00  0.00    -0.350 N 
HETATM   12  C   UNL     1     -40.137 -43.993  10.703  1.00  0.00     0.119 A 
ATOM     13  HN  UNL     1     -39.947 -41.937  10.921  1.00  0.00     0.166 HD
BRANCH  10  14
HETATM   14  N   UNL     1     -42.426 -41.271  11.410  1.00  0.00    -0.368 N 
BRANCH  14  15
HETATM   15  C   UNL     1     -43.688 -41.341  12.155  1.00  0.00     0.120 C 
HETATM   16  C   UNL     1     -44.792 -40.511  11.514  1.00  0.00     0.026 C 
ENDBRANCH  14  15
BRANCH  14  17
HETATM   17  C   UNL     1     -41.402 -40.296  11.815  1.00  0.00     0.120 C 
HETATM   18  C   UNL     1     -41.374 -39.040  10.954  1.00  0.00     0.026 C 
ENDBRANCH  14  17
ENDBRANCH  10  14
ENDBRANCH   1   7
BRANCH   4  19
HETATM   19  C   UNL     1     -38.700 -49.253  12.215  1.00  0.00     0.101 C 
HETATM   20  C   UNL     1     -37.409 -49.911  11.673  1.00  0.00     0.041 C 
HETATM   21  C   UNL     1     -37.167 -51.244  12.377  1.00  0.00     0.142 C 
HETATM   22  S   UNL     1     -38.490 -51.471  13.538  1.00  0.00     0.146 S 
HETATM   23  O   UNL     1     -39.004 -52.820  13.440  1.00  0.00    -0.228 OA
HETATM   24  O   UNL     1     -38.089 -50.893  14.805  1.00  0.00    -0.228 OA
HETATM   25  C   UNL     1     -39.614 -50.349  12.757  1.00  0.00     0.165 C 
ENDBRANCH   4  19
TORSDOF 5
ENDMDL
MODEL 3
REMARK VINA RESULT:      -5.6      1.522      2.165
REMARK  5 active torsions:
REMARK  status: ('A' for Active; 'I' for Inactive)
REMARK    1  A    between atoms: C_2  and  N_3 
REMARK    2  A    between atoms: N_3  and  C_4 
REMARK    3  A    between atoms: N_3  and  C_6 
REMARK    4  A    between atoms: C_9  and  N_10 
REMARK       I    between atoms: N_10  and  C_11 
REMARK       I    between atoms: C_11  and  N_13 
REMARK    5  A    between atoms: N_13  and  C_14 
ROOT
HETATM    1  N   UNL     1     -43.454 -49.299  12.030  1.00  0.00    -0.308 N 
HETATM    2  C   UNL     1     -43.167 -50.410  12.791  1.00  0.00     0.321 C 
HETATM    3  O   UNL     1     -42.112 -50.627  13.375  1.00  0.00    -0.247 OA
HETATM    4  N   UNL     1     -44.210 -51.307  12.859  1.00  0.00    -0.337 N 
HETATM    5  H   UNL     1     -44.250 -49.350  11.415  1.00  0.00     0.170 HD
HETATM    6  H   UNL     1     -44.952 -51.233  12.179  1.00  0.00     0.164 HD
ENDROOT
BRANCH   1   7
HETATM    7  C   UNL     1     -42.575 -48.200  11.863  1.00  0.00     0.051 A 
HETATM    8  C   UNL     1     -42.558 -47.098  12.706  1.00  0.00     0.035 A 
HETATM    9  C   UNL     1     -41.615 -46.085  12.519  1.00  0.00     0.051 A 
HETATM   10  C   UNL     1     -40.687 -46.183  11.487  1.00  0.00     0.102 A 
HETATM   11  N   UNL     1     -40.719 -47.226  10.628  1.00  0.00    -0.350 N 
HETATM   12  C   UNL     1     -41.657 -48.191  10.820  1.00  0.00     0.119 A 
ATOM     13  HN  UNL     1     -40.055 -47.289   9.855  1.00  0.00     0.166 HD
BRANCH  10  14
HETATM   14  N   UNL     1     -39.669 -45.213  11.395  1.00  0.00    -0.368 N 
BRANCH  14  15
HETATM   15  C   UNL     1     -39.830 -44.342  10.224  1.00  0.00     0.120 C 
HETATM   16  C   UNL     1     -38.759 -44.580   9.168  1.00  0.00     0.026 C 
ENDBRANCH  14  15
BRANCH  14  17
HETATM   17  C   UNL     1     -39.275 -44.625  12.684  1.00  0.00     0.120 C 
HETATM   18  C   UNL     1     -39.591 -43.140  12.803  1.00  0.00     0.026 C 
ENDBRANCH  14  17
ENDBRANCH  10  14
ENDBRANCH   1   7
BRANCH   4  19
HETATM   19  C   UNL     1     -44.083 -52.564  13.599  1.00  0.00     0.101 C 
HETATM   20  C   UNL     1     -44.624 -53.793  12.831  1.00  0.00     0.041 C 
HETATM   21  C   UNL     1     -45.087 -54.863  13.817  1.00  0.00     0.142 C 
HETATM   22  S   UNL     1     -44.798 -54.230  15.451  1.00  0.00     0.146 S 
HETATM   23  O   UNL     1     -45.960 -54.463  16.280  1.00  0.00    -0.228 OA
HETATM   24  O   UNL     1     -43.468 -54.628  15.865  1.00  0.00    -0.228 OA
HETATM   25  C   UNL     1     -44.737 -52.526  14.978  1.00  0.00     0.165 C 
ENDBRANCH   4  19
TORSDOF 5
ENDMDL
MODEL 4
REMARK VINA RESULT:      -5.5      1.513      2.445
REMARK  5 active torsions:
REMARK  status: ('A' for Active; 'I' for Inactive)
REMARK    1  A    between atoms: C_2  and  N_3 
REMARK    2  A    between atoms: N_3  and  C_4 
REMARK    3  A    between atoms: N_3  and  C_6 
REMARK    4  A    between atoms: C_9  and  N_10 
REMARK       I    between atoms: N_10  and  C_11 
REMARK       I    between atoms: C_11  and  N_13 
REMARK    5  A    between atoms: N_13  and  C_14 
ROOT
HETATM    1  N   UNL     1     -40.911 -51.010  11.315  1.00  0.00    -0.308 N 
HETATM    2  C   UNL     1     -41.779 -51.619  12.193  1.00  0.00     0.321 C 
HETATM    3  O   UNL     1     -42.401 -51.062  13.090  1.00  0.00    -0.247 OA
HETATM    4  N   UNL     1     -41.912 -52.973  11.977  1.00  0.00    -0.337 N 
HETATM    5  H   UNL     1     -40.289 -51.604  10.790  1.00  0.00     0.170 HD
HETATM    6  H   UNL     1     -41.214 -53.440  11.417  1.00  0.00     0.164 HD
ENDROOT
BRANCH   1   7
HETATM    7  C   UNL     1     -40.658 -49.616  11.284  1.00  0.00     0.051 A 
HETATM    8  C   UNL     1     -41.520 -48.693  10.710  1.00  0.00     0.035 A 
HETATM    9  C   UNL     1     -41.236 -47.328  10.780  1.00  0.00     0.051 A 
HETATM   10  C   UNL     1     -40.087 -46.891  11.431  1.00  0.00     0.102 A 
HETATM   11  N   UNL     1     -39.212 -47.779  11.955  1.00  0.00    -0.350 N 
HETATM   12  C   UNL     1     -39.502 -49.103  11.859  1.00  0.00     0.119 A 
ATOM     13  HN  UNL     1     -38.356 -47.462  12.412  1.00  0.00     0.166 HD
BRANCH  10  14
HETATM   14  N   UNL     1     -39.885 -45.507  11.598  1.00  0.00    -0.368 N 
BRANCH  14  15
HETATM   15  C   UNL     1     -40.134 -44.752  10.363  1.00  0.00     0.120 C 
HETATM   16  C   UNL     1     -38.931 -44.746   9.430  1.00  0.00     0.026 C 
ENDBRANCH  14  15
BRANCH  14  17
HETATM   17  C   UNL     1     -40.371 -44.974  12.879  1.00  0.00     0.120 C 
HETATM   18  C   UNL     1     -39.284 -44.838  13.939  1.00  0.00     0.026 C 
ENDBRANCH  14  17
ENDBRANCH  10  14
ENDBRANCH   1   7
BRANCH   4  19
HETATM   19  C   UNL     1     -42.770 -53.798  12.829  1.00  0.00     0.101 C 
HETATM   20  C   UNL     1     -44.281 -53.600  12.562  1.00  0.00     0.041 C 
HETATM   21  C   UNL     1     -45.080 -53.907  13.828  1.00  0.00     0.142 C 
HETATM   22  S   UNL     1     -43.913 -54.371  15.083  1.00  0.00     0.146 S 
HETATM   23  O   UNL     1     -44.226 -53.689  16.320  1.00  0.00    -0.228 OA
HETATM   24  O   UNL     1     -43.727 -55.807  15.024  1.00  0.00    -0.228 OA
HETATM   25  C   UNL     1     -42.511 -53.606  14.321  1.00  0.00     0.165 C 
ENDBRANCH   4  19
TORSDOF 5
ENDMDL
MODEL 5
REMARK VINA RESULT:      -5.3      4.181      8.810
REMARK  5 active torsions:
REMARK  status: ('A' for Active; 'I' for Inactive)
REMARK    1  A    between atoms: C_2  and  N_3 
REMARK    2  A    between atoms: N_3  and  C_4 
REMARK    3  A    between atoms: N_3  and  C_6 
REMARK    4  A    between atoms: C_9  and  N_10 
REMARK       I    between atoms: N_10  and  C_11 
REMARK       I    between atoms: C_11  and  N_13 
REMARK    5  A    between atoms: N_13  and  C_14 
ROOT
HETATM    1  N   UNL     1     -40.050 -48.746  11.025  1.00  0.00    -0.308 N 
HETATM    2  C   UNL     1     -40.458 -47.489  11.409  1.00  0.00     0.321 C 
HETATM    3  O   UNL     1     -41.090 -47.218  12.422  1.00  0.00    -0.247 OA
HETATM    4  N   UNL     1     -40.079 -46.501  10.527  1.00  0.00    -0.337 N 
HETATM    5  H   UNL     1     -39.755 -48.867  10.069  1.00  0.00     0.170 HD
HETATM    6  H   UNL     1     -39.794 -46.771   9.598  1.00  0.00     0.164 HD
ENDROOT
BRANCH   1   7
HETATM    7  C   UNL     1     -40.253 -49.919  11.794  1.00  0.00     0.051 A 
HETATM    8  C   UNL     1     -41.472 -50.575  11.885  1.00  0.00     0.035 A 
HETATM    9  C   UNL     1     -41.578 -51.764  12.607  1.00  0.00     0.051 A 
HETATM   10  C   UNL     1     -40.456 -52.297  13.235  1.00  0.00     0.102 A 
HETATM   11  N   UNL     1     -39.271 -51.648  13.197  1.00  0.00    -0.350 N 
HETATM   12  C   UNL     1     -39.197 -50.482  12.502  1.00  0.00     0.119 A 
ATOM     13  HN  UNL     1     -38.452 -52.023  13.677  1.00  0.00     0.166 HD
BRANCH  10  14
HETATM   14  N   UNL     1     -40.558 -53.560  13.852  1.00  0.00    -0.368 N 
BRANCH  14  15
HETATM   15  C   UNL     1     -41.785 -54.271  13.473  1.00  0.00     0.120 C 
HETATM   16  C   UNL     1     -42.607 -54.699  14.681  1.00  0.00     0.026 C 
ENDBRANCH  14  15
BRANCH  14  17
HETATM   17  C   UNL     1     -39.290 -54.300  13.927  1.00  0.00     0.120 C 
HETATM   18  C   UNL     1     -38.934 -54.766  15.334  1.00  0.00     0.026 C 
ENDBRANCH  14  17
ENDBRANCH  10  14
ENDBRANCH   1   7
BRANCH   4  19
HETATM   19  C   UNL     1     -40.446 -45.101  10.751  1.00  0.00     0.101 C 
HETATM   20  C   UNL     1     -39.657 -44.429  11.900  1.00  0.00     0.041 C 
HETATM   21  C   UNL     1     -40.486 -43.305  12.515  1.00  0.00     0.142 C 
HETATM   22  S   UNL     1     -42.026 -43.245  11.633  1.00  0.00     0.146 S 
HETATM   23  O   UNL     1     -43.124 -43.141  12.568  1.00  0.00    -0.228 OA
HETATM   24  O   UNL     1     -41.877 -42.331  10.518  1.00  0.00    -0.228 OA
HETATM   25  C   UNL     1     -41.938 -44.897  11.002  1.00  0.00     0.165 C 
ENDBRANCH   4  19
TORSDOF 5
ENDMDL
MODEL 6
REMARK VINA RESULT:      -5.3      3.949      9.120
REMARK  5 active torsions:
REMARK  status: ('A' for Active; 'I' for Inactive)
REMARK    1  A    between atoms: C_2  and  N_3 
REMARK    2  A    between atoms: N_3  and  C_4 
REMARK    3  A    between atoms: N_3  and  C_6 
REMARK    4  A    between atoms: C_9  and  N_10 
REMARK       I    between atoms: N_10  and  C_11 
REMARK       I    between atoms: C_11  and  N_13 
REMARK    5  A    between atoms: N_13  and  C_14 
ROOT
HETATM    1  N   UNL     1     -41.136 -51.524  11.999  1.00  0.00    -0.308 N 
HETATM    2  C   UNL     1     -41.560 -50.226  12.175  1.00  0.00     0.321 C 
HETATM    3  O   UNL     1     -41.894 -49.718  13.238  1.00  0.00    -0.247 OA
HETATM    4  N   UNL     1     -41.578 -49.496  11.007  1.00  0.00    -0.337 N 
HETATM    5  H   UNL     1     -41.124 -51.885  11.059  1.00  0.00     0.170 HD
HETATM    6  H   UNL     1     -41.549 -49.994  10.129  1.00  0.00     0.164 HD
ENDROOT
BRANCH   1   7
HETATM    7  C   UNL     1     -40.962 -52.455  13.053  1.00  0.00     0.051 A 
HETATM    8  C   UNL     1     -41.901 -53.421  13.385  1.00  0.00     0.035 A 
HETATM    9  C   UNL     1     -41.628 -54.348  14.392  1.00  0.00     0.051 A 
HETATM   10  C   UNL     1     -40.410 -54.307  15.063  1.00  0.00     0.102 A 
HETATM   11  N   UNL     1     -39.503 -53.343  14.785  1.00  0.00    -0.350 N 
HETATM   12  C   UNL     1     -39.799 -52.441  13.812  1.00  0.00     0.119 A 
ATOM     13  HN  UNL     1     -38.619 -53.295  15.292  1.00  0.00     0.166 HD
BRANCH  10  14
HETATM   14  N   UNL     1     -40.107 -55.327  15.986  1.00  0.00    -0.368 N 
BRANCH  14  15
HETATM   15  C   UNL     1     -38.974 -54.979  16.853  1.00  0.00     0.120 C 
HETATM   16  C   UNL     1     -37.753 -55.850  16.593  1.00  0.00     0.026 C 
ENDBRANCH  14  15
BRANCH  14  17
HETATM   17  C   UNL     1     -41.286 -55.985  16.569  1.00  0.00     0.120 C 
HETATM   18  C   UNL     1     -41.132 -56.325  18.046  1.00  0.00     0.026 C 
ENDBRANCH  14  17
ENDBRANCH  10  14
ENDBRANCH   1   7
BRANCH   4  19
HETATM   19  C   UNL     1     -42.028 -48.103  10.989  1.00  0.00     0.101 C 
HETATM   20  C   UNL     1     -42.920 -47.756   9.774  1.00  0.00     0.041 C 
HETATM   21  C   UNL     1     -42.792 -46.271   9.439  1.00  0.00     0.142 C 
HETATM   22  S   UNL     1     -41.658 -45.566  10.608  1.00  0.00     0.146 S 
HETATM   23  O   UNL     1     -40.705 -44.723   9.921  1.00  0.00    -0.228 OA
HETATM   24  O   UNL     1     -42.415 -45.096  11.751  1.00  0.00    -0.228 OA
HETATM   25  C   UNL     1     -40.884 -47.094  11.056  1.00  0.00     0.165 C 
ENDBRANCH   4  19
TORSDOF 5
ENDMDL
MODEL 7
REMARK VINA RESULT:      -5.1      3.844      8.657
REMARK  5 active torsions:
REMARK  status: ('A' for Active; 'I' for Inactive)
REMARK    1  A    between atoms: C_2  and  N_3 
REMARK    2  A    between atoms: N_3  and  C_4 
REMARK    3  A    between atoms: N_3  and  C_6 
REMARK    4  A    between atoms: C_9  and  N_10 
REMARK       I    between atoms: N_10  and  C_11 
REMARK       I    between atoms: C_11  and  N_13 
REMARK    5  A    between atoms: N_13  and  C_14 
ROOT
HETATM    1  N   UNL     1     -41.014 -50.001  10.998  1.00  0.00    -0.308 N 
HETATM    2  C   UNL     1     -41.127 -48.669  11.327  1.00  0.00     0.321 C 
HETATM    3  O   UNL     1     -41.114 -48.206  12.461  1.00  0.00    -0.247 OA
HETATM    4  N   UNL     1     -41.255 -47.846  10.230  1.00  0.00    -0.337 N 
HETATM    5  H   UNL     1     -41.278 -50.272  10.065  1.00  0.00     0.170 HD
HETATM    6  H   UNL     1     -41.516 -48.260   9.347  1.00  0.00     0.164 HD
ENDROOT
BRANCH   1   7
HETATM    7  C   UNL     1     -40.801 -51.038  11.940  1.00  0.00     0.051 A 
HETATM    8  C   UNL     1     -39.622 -51.195  12.653  1.00  0.00     0.035 A 
HETATM    9  C   UNL     1     -39.511 -52.200  13.615  1.00  0.00     0.051 A 
HETATM   10  C   UNL     1     -40.588 -53.045  13.864  1.00  0.00     0.102 A 
HETATM   11  N   UNL     1     -41.729 -52.937  13.146  1.00  0.00    -0.350 N 
HETATM   12  C   UNL     1     -41.806 -51.961  12.202  1.00  0.00     0.119 A 
ATOM     13  HN  UNL     1     -42.512 -53.570  13.308  1.00  0.00     0.166 HD
BRANCH  10  14
HETATM   14  N   UNL     1     -40.498 -53.969  14.923  1.00  0.00    -0.368 N 
BRANCH  14  15
HETATM   15  C   UNL     1     -39.167 -53.980  15.544  1.00  0.00     0.120 C 
HETATM   16  C   UNL     1     -38.622 -55.389  15.728  1.00  0.00     0.026 C 
ENDBRANCH  14  15
BRANCH  14  17
HETATM   17  C   UNL     1     -41.693 -54.029  15.778  1.00  0.00     0.120 C 
HETATM   18  C   UNL     1     -42.417 -55.368  15.727  1.00  0.00     0.026 C 
ENDBRANCH  14  17
ENDBRANCH  10  14
ENDBRANCH   1   7
BRANCH   4  19
HETATM   19  C   UNL     1     -41.415 -46.399  10.380  1.00  0.00     0.101 C 
HETATM   20  C   UNL     1     -40.134 -45.681  10.866  1.00  0.00     0.041 C 
HETATM   21  C   UNL     1     -40.504 -44.407  11.623  1.00  0.00     0.142 C 
HETATM   22  S   UNL     1     -42.275 -44.291  11.619  1.00  0.00     0.146 S 
HETATM   23  O   UNL     1     -42.749 -43.957  12.944  1.00  0.00    -0.228 OA
HETATM   24  O   UNL     1     -42.680 -43.541  10.447  1.00  0.00    -0.228 OA
HETATM   25  C   UNL     1     -42.570 -46.007  11.298  1.00  0.00     0.165 C 
ENDBRANCH   4  19
TORSDOF 5
ENDMDL
MODEL 8
REMARK VINA RESULT:      -5.1     16.126     18.427
REMARK  5 active torsions:
REMARK  status: ('A' for Active; 'I' for Inactive)
REMARK    1  A    between atoms: C_2  and  N_3 
REMARK    2  A    between atoms: N_3  and  C_4 
REMARK    3  A    between atoms: N_3  and  C_6 
REMARK    4  A    between atoms: C_9  and  N_10 
REMARK       I    between atoms: N_10  and  C_11 
REMARK       I    between atoms: C_11  and  N_13 
REMARK    5  A    between atoms: N_13  and  C_14 
ROOT
HETATM    1  N   UNL     1     -50.593 -52.407  -0.193  1.00  0.00    -0.308 N 
HETATM    2  C   UNL     1     -50.825 -51.061  -0.368  1.00  0.00     0.321 C 
HETATM    3  O   UNL     1     -51.473 -50.557  -1.277  1.00  0.00    -0.247 OA
HETATM    4  N   UNL     1     -50.250 -50.278   0.608  1.00  0.00    -0.337 N 
HETATM    5  H   UNL     1     -49.857 -52.672   0.441  1.00  0.00     0.170 HD
HETATM    6  H   UNL     1     -49.526 -50.682   1.183  1.00  0.00     0.164 HD
ENDROOT
BRANCH   1   7
HETATM    7  C   UNL     1     -51.134 -53.422  -1.020  1.00  0.00     0.051 A 
HETATM    8  C   UNL     1     -52.436 -53.888  -0.909  1.00  0.00     0.035 A 
HETATM    9  C   UNL     1     -52.920 -54.842  -1.806  1.00  0.00     0.051 A 
HETATM   10  C   UNL     1     -52.095 -55.324  -2.818  1.00  0.00     0.102 A 
HETATM   11  N   UNL     1     -50.810 -54.916  -2.913  1.00  0.00    -0.350 N 
HETATM   12  C   UNL     1     -50.357 -54.000  -2.017  1.00  0.00     0.119 A 
ATOM     13  HN  UNL     1     -50.195 -55.286  -3.639  1.00  0.00     0.166 HD
BRANCH  10  14
HETATM   14  N   UNL     1     -52.642 -56.190  -3.785  1.00  0.00    -0.368 N 
BRANCH  14  15
HETATM   15  C   UNL     1     -51.616 -56.989  -4.467  1.00  0.00     0.120 C 
HETATM   16  C   UNL     1     -51.680 -56.851  -5.982  1.00  0.00     0.026 C 
ENDBRANCH  14  15
BRANCH  14  17
HETATM   17  C   UNL     1     -53.903 -56.830  -3.381  1.00  0.00     0.120 C 
HETATM   18  C   UNL     1     -53.753 -58.299  -3.005  1.00  0.00     0.026 C 
ENDBRANCH  14  17
ENDBRANCH  10  14
ENDBRANCH   1   7
BRANCH   4  19
HETATM   19  C   UNL     1     -50.364 -48.819   0.576  1.00  0.00     0.101 C 
HETATM   20  C   UNL     1     -49.100 -48.087   1.087  1.00  0.00     0.041 C 
HETATM   21  C   UNL     1     -49.480 -46.723   1.656  1.00  0.00     0.142 C 
HETATM   22  S   UNL     1     -51.239 -46.554   1.483  1.00  0.00     0.146 S 
HETATM   23  O   UNL     1     -51.807 -46.051   2.714  1.00  0.00    -0.228 OA
HETATM   24  O   UNL     1     -51.514 -45.936   0.202  1.00  0.00    -0.228 OA
HETATM   25  C   UNL     1     -51.575 -48.286   1.338  1.00  0.00     0.165 C 
ENDBRANCH   4  19
TORSDOF 5
ENDMDL
MODEL 9
REMARK VINA RESULT:      -5.1      4.505      9.065
REMARK  5 active torsions:
REMARK  status: ('A' for Active; 'I' for Inactive)
REMARK    1  A    between atoms: C_2  and  N_3 
REMARK    2  A    between atoms: N_3  and  C_4 
REMARK    3  A    between atoms: N_3  and  C_6 
REMARK    4  A    between atoms: C_9  and  N_10 
REMARK       I    between atoms: N_10  and  C_11 
REMARK       I    between atoms: C_11  and  N_13 
REMARK    5  A    between atoms: N_13  and  C_14 
ROOT
HETATM    1  N   UNL     1     -39.955 -47.471  11.299  1.00  0.00    -0.308 N 
HETATM    2  C   UNL     1     -40.706 -46.486  11.900  1.00  0.00     0.321 C 
HETATM    3  O   UNL     1     -41.509 -46.651  12.810  1.00  0.00    -0.247 OA
HETATM    4  N   UNL     1     -40.474 -45.231  11.381  1.00  0.00    -0.337 N 
HETATM    5  H   UNL     1     -39.520 -47.250  10.418  1.00  0.00     0.170 HD
HETATM    6  H   UNL     1     -40.015 -45.160  10.485  1.00  0.00     0.164 HD
ENDROOT
BRANCH   1   7
HETATM    7  C   UNL     1     -39.958 -48.830  11.699  1.00  0.00     0.051 A 
HETATM    8  C   UNL     1     -39.270 -49.305  12.806  1.00  0.00     0.035 A 
HETATM    9  C   UNL     1     -39.378 -50.646  13.179  1.00  0.00     0.051 A 
HETATM   10  C   UNL     1     -40.181 -51.509  12.440  1.00  0.00     0.102 A 
HETATM   11  N   UNL     1     -40.822 -51.075  11.331  1.00  0.00    -0.350 N 
HETATM   12  C   UNL     1     -40.688 -49.769  10.980  1.00  0.00     0.119 A 
ATOM     13  HN  UNL     1     -41.393 -51.711  10.773  1.00  0.00     0.166 HD
BRANCH  10  14
HETATM   14  N   UNL     1     -40.373 -52.824  12.906  1.00  0.00    -0.368 N 
BRANCH  14  15
HETATM   15  C   UNL     1     -39.561 -53.123  14.091  1.00  0.00     0.120 C 
HETATM   16  C   UNL     1     -39.197 -54.598  14.192  1.00  0.00     0.026 C 
ENDBRANCH  14  15
BRANCH  14  17
HETATM   17  C   UNL     1     -41.768 -53.288  12.851  1.00  0.00     0.120 C 
HETATM   18  C   UNL     1     -42.571 -52.966  14.105  1.00  0.00     0.026 C 
ENDBRANCH  14  17
ENDBRANCH  10  14
ENDBRANCH   1   7
BRANCH   4  19
HETATM   19  C   UNL     1     -41.201 -44.060  11.873  1.00  0.00     0.101 C 
HETATM   20  C   UNL     1     -42.542 -43.811  11.143  1.00  0.00     0.041 C 
HETATM   21  C   UNL     1     -42.893 -42.325  11.186  1.00  0.00     0.142 C 
HETATM   22  S   UNL     1     -41.592 -41.506  12.073  1.00  0.00     0.146 S 
HETATM   23  O   UNL     1     -41.191 -40.310  11.363  1.00  0.00    -0.228 OA
HETATM   24  O   UNL     1     -41.943 -41.482  13.479  1.00  0.00    -0.228 OA
HETATM   25  C   UNL     1     -40.380 -42.773  11.834  1.00  0.00     0.165 C 
ENDBRANCH   4  19
TORSDOF 5
ENDMDL
