MODEL 1
REMARK VINA RESULT:      -6.3      0.000      0.000
REMARK  4 active torsions:
REMARK  status: ('A' for Active; 'I' for Inactive)
REMARK       I    between atoms: C_2  and  N_3 
REMARK       I    between atoms: C_2  and  N_16 
REMARK    1  A    between atoms: N_3  and  C_4 
REMARK    2  A    between atoms: N_7  and  C_8 
REMARK    3  A    between atoms: C_8  and  C_9 
REMARK    4  A    between atoms: N_16  and  C_17 
ROOT
HETATM    1  O   UNL     1     -42.180 -52.182  13.748  1.00  0.00    -0.247 OA
HETATM    2  C   UNL     1     -42.884 -51.642  12.905  1.00  0.00     0.321 C 
HETATM    3  N   UNL     1     -42.420 -50.609  12.113  1.00  0.00    -0.338 N 
HETATM    4  N   UNL     1     -44.194 -51.952  12.605  1.00  0.00    -0.309 N 
HETATM    5  H   UNL     1     -43.121 -49.995  11.731  1.00  0.00     0.164 HD
HETATM    6  H   UNL     1     -44.602 -51.454  11.830  1.00  0.00     0.170 HD
ENDROOT
BRANCH   3   7
HETATM    7  C   UNL     1     -41.103 -50.020  12.368  1.00  0.00     0.089 C 
HETATM    8  C   UNL     1     -41.173 -48.997  13.508  1.00  0.00     0.055 C 
HETATM    9  C   UNL     1     -41.871 -47.714  13.054  1.00  0.00     0.274 C 
HETATM   10  N   UNL     1     -41.250 -47.092  11.876  1.00  0.00     0.088 N 
HETATM   11  C   UNL     1     -41.206 -48.053  10.758  1.00  0.00     0.274 C 
HETATM   12  C   UNL     1     -40.532 -49.386  11.098  1.00  0.00     0.055 C 
BRANCH  10  13
HETATM   13  C   UNL     1     -39.917 -46.514  12.131  1.00  0.00     0.277 C 
BRANCH  13  14
HETATM   14  C   UNL     1     -39.723 -45.060  11.670  1.00  0.00     0.014 C 
HETATM   15  C   UNL     1     -39.026 -44.149  12.695  1.00  0.00     0.006 C 
HETATM   16  C   UNL     1     -39.889 -42.892  12.803  1.00  0.00     0.000 C 
HETATM   17  C   UNL     1     -40.770 -42.905  11.566  1.00  0.00     0.000 C 
HETATM   18  C   UNL     1     -41.065 -44.381  11.376  1.00  0.00     0.006 C 
ENDBRANCH  13  14
ENDBRANCH  10  13
ENDBRANCH   3   7
BRANCH   4  19
HETATM   19  C   UNL     1     -44.998 -52.928  13.230  1.00  0.00     0.038 A 
HETATM   20  C   UNL     1     -44.753 -54.297  13.155  1.00  0.00     0.046 A 
HETATM   21  C   UNL     1     -45.611 -55.161  13.813  1.00  0.00     0.090 A 
HETATM   22  N   UNL     1     -46.675 -54.758  14.537  1.00  0.00    -0.375 N 
HETATM   23  C   UNL     1     -46.896 -53.429  14.598  1.00  0.00     0.090 A 
ATOM     24  HN  UNL     1     -47.282 -55.424  15.014  1.00  0.00     0.164 HD
HETATM   25  C   UNL     1     -46.097 -52.486  13.970  1.00  0.00     0.046 A 
ENDBRANCH   4  19
TORSDOF 4
ENDMDL
MODEL 2
REMARK VINA RESULT:      -6.0      0.902      1.699
REMARK  4 active torsions:
REMARK  status: ('A' for Active; 'I' for Inactive)
REMARK       I    between atoms: C_2  and  N_3 
REMARK       I    between atoms: C_2  and  N_16 
REMARK    1  A    between atoms: N_3  and  C_4 
REMARK    2  A    between atoms: N_7  and  C_8 
REMARK    3  A    between atoms: C_8  and  C_9 
REMARK    4  A    between atoms: N_16  and  C_17 
ROOT
HETATM    1  O   UNL     1     -42.647 -51.222  14.146  1.00  0.00    -0.247 OA
HETATM    2  C   UNL     1     -43.246 -50.959  13.111  1.00  0.00     0.321 C 
HETATM    3  N   UNL     1     -42.806 -49.986  12.235  1.00  0.00    -0.338 N 
HETATM    4  N   UNL     1     -44.402 -51.557  12.656  1.00  0.00    -0.309 N 
HETATM    5  H   UNL     1     -43.507 -49.582  11.633  1.00  0.00     0.164 HD
HETATM    6  H   UNL     1     -44.723 -51.267  11.745  1.00  0.00     0.170 HD
ENDROOT
BRANCH   3   7
HETATM    7  C   UNL     1     -41.679 -49.124  12.597  1.00  0.00     0.089 C 
HETATM    8  C   UNL     1     -42.157 -47.909  13.402  1.00  0.00     0.055 C 
HETATM    9  C   UNL     1     -42.883 -46.906  12.505  1.00  0.00     0.274 C 
HETATM   10  N   UNL     1     -42.081 -46.450  11.362  1.00  0.00     0.088 N 
HETATM   11  C   UNL     1     -41.642 -47.605  10.556  1.00  0.00     0.274 C 
HETATM   12  C   UNL     1     -40.903 -48.685  11.354  1.00  0.00     0.055 C 
BRANCH  10  13
HETATM   13  C   UNL     1     -40.936 -45.595  11.730  1.00  0.00     0.277 C 
BRANCH  13  14
HETATM   14  C   UNL     1     -41.290 -44.173  12.195  1.00  0.00     0.014 C 
HETATM   15  C   UNL     1     -42.367 -43.471  11.351  1.00  0.00     0.006 C 
HETATM   16  C   UNL     1     -41.809 -42.088  11.012  1.00  0.00     0.000 C 
HETATM   17  C   UNL     1     -40.677 -41.862  12.000  1.00  0.00     0.000 C 
HETATM   18  C   UNL     1     -40.070 -43.246  12.142  1.00  0.00     0.006 C 
ENDBRANCH  13  14
ENDBRANCH  10  13
ENDBRANCH   3   7
BRANCH   4  19
HETATM   19  C   UNL     1     -45.147 -52.564  13.303  1.00  0.00     0.038 A 
HETATM   20  C   UNL     1     -46.253 -52.311  14.112  1.00  0.00     0.046 A 
HETATM   21  C   UNL     1     -46.908 -53.382  14.694  1.00  0.00     0.090 A 
HETATM   22  N   UNL     1     -46.546 -54.669  14.519  1.00  0.00    -0.375 N 
HETATM   23  C   UNL     1     -45.474 -54.895  13.733  1.00  0.00     0.090 A 
ATOM     24  HN  UNL     1     -47.058 -55.434  14.960  1.00  0.00     0.164 HD
HETATM   25  C   UNL     1     -44.751 -53.889  13.111  1.00  0.00     0.046 A 
ENDBRANCH   4  19
TORSDOF 4
ENDMDL
MODEL 3
REMARK VINA RESULT:      -5.6      1.585      1.954
REMARK  4 active torsions:
REMARK  status: ('A' for Active; 'I' for Inactive)
REMARK       I    between atoms: C_2  and  N_3 
REMARK       I    between atoms: C_2  and  N_16 
REMARK    1  A    between atoms: N_3  and  C_4 
REMARK    2  A    between atoms: N_7  and  C_8 
REMARK    3  A    between atoms: C_8  and  C_9 
REMARK    4  A    between atoms: N_16  and  C_17 
ROOT
HETATM    1  O   UNL     1     -41.987 -52.821  13.433  1.00  0.00    -0.247 OA
HETATM    2  C   UNL     1     -42.680 -52.112  12.714  1.00  0.00     0.321 C 
HETATM    3  N   UNL     1     -42.142 -51.098  11.946  1.00  0.00    -0.338 N 
HETATM    4  N   UNL     1     -44.046 -52.196  12.546  1.00  0.00    -0.309 N 
HETATM    5  H   UNL     1     -42.773 -50.355  11.689  1.00  0.00     0.164 HD
HETATM    6  H   UNL     1     -44.448 -51.578  11.859  1.00  0.00     0.170 HD
ENDROOT
BRANCH   3   7
HETATM    7  C   UNL     1     -40.730 -50.736  12.087  1.00  0.00     0.089 C 
HETATM    8  C   UNL     1     -40.417 -50.299  13.524  1.00  0.00     0.055 C 
HETATM    9  C   UNL     1     -40.998 -48.915  13.815  1.00  0.00     0.274 C 
HETATM   10  N   UNL     1     -40.544 -47.877  12.879  1.00  0.00     0.088 N 
HETATM   11  C   UNL     1     -40.868 -48.266  11.494  1.00  0.00     0.274 C 
HETATM   12  C   UNL     1     -40.341 -49.646  11.087  1.00  0.00     0.055 C 
BRANCH  10  13
HETATM   13  C   UNL     1     -39.117 -47.526  13.011  1.00  0.00     0.277 C 
BRANCH  13  14
HETATM   14  C   UNL     1     -38.805 -46.350  13.951  1.00  0.00     0.014 C 
HETATM   15  C   UNL     1     -38.492 -46.752  15.402  1.00  0.00     0.006 C 
HETATM   16  C   UNL     1     -39.361 -45.859  16.288  1.00  0.00     0.000 C 
HETATM   17  C   UNL     1     -39.793 -44.709  15.394  1.00  0.00     0.000 C 
HETATM   18  C   UNL     1     -39.989 -45.381  14.048  1.00  0.00     0.006 C 
ENDBRANCH  13  14
ENDBRANCH  10  13
ENDBRANCH   3   7
BRANCH   4  19
HETATM   19  C   UNL     1     -44.926 -53.089  13.193  1.00  0.00     0.038 A 
HETATM   20  C   UNL     1     -44.775 -54.474  13.175  1.00  0.00     0.046 A 
HETATM   21  C   UNL     1     -45.701 -55.250  13.849  1.00  0.00     0.090 A 
HETATM   22  N   UNL     1     -46.746 -54.747  14.535  1.00  0.00    -0.375 N 
HETATM   23  C   UNL     1     -46.876 -53.405  14.542  1.00  0.00     0.090 A 
ATOM     24  HN  UNL     1     -47.406 -55.352  15.026  1.00  0.00     0.164 HD
HETATM   25  C   UNL     1     -46.004 -52.545  13.894  1.00  0.00     0.046 A 
ENDBRANCH   4  19
TORSDOF 4
ENDMDL
MODEL 4
REMARK VINA RESULT:      -5.5      4.001      8.183
REMARK  4 active torsions:
REMARK  status: ('A' for Active; 'I' for Inactive)
REMARK       I    between atoms: C_2  and  N_3 
REMARK       I    between atoms: C_2  and  N_16 
REMARK    1  A    between atoms: N_3  and  C_4 
REMARK    2  A    between atoms: N_7  and  C_8 
REMARK    3  A    between atoms: C_8  and  C_9 
REMARK    4  A    between atoms: N_16  and  C_17 
ROOT
HETATM    1  O   UNL     1     -43.335 -49.135  13.058  1.00  0.00    -0.247 OA
HETATM    2  C   UNL     1     -42.664 -49.596  12.144  1.00  0.00     0.321 C 
HETATM    3  N   UNL     1     -42.132 -50.870  12.195  1.00  0.00    -0.338 N 
HETATM    4  N   UNL     1     -42.338 -48.965  10.962  1.00  0.00    -0.309 N 
HETATM    5  H   UNL     1     -41.323 -51.036  11.615  1.00  0.00     0.164 HD
HETATM    6  H   UNL     1     -41.836 -49.518  10.287  1.00  0.00     0.170 HD
ENDROOT
BRANCH   3   7
HETATM    7  C   UNL     1     -42.228 -51.661  13.424  1.00  0.00     0.089 C 
HETATM    8  C   UNL     1     -41.003 -51.434  14.318  1.00  0.00     0.055 C 
HETATM    9  C   UNL     1     -39.767 -52.127  13.743  1.00  0.00     0.274 C 
HETATM   10  N   UNL     1     -39.949 -53.568  13.521  1.00  0.00     0.088 N 
HETATM   11  C   UNL     1     -41.104 -53.802  12.634  1.00  0.00     0.274 C 
HETATM   12  C   UNL     1     -42.406 -53.147  13.107  1.00  0.00     0.055 C 
BRANCH  10  13
HETATM   13  C   UNL     1     -40.063 -54.360  14.760  1.00  0.00     0.277 C 
BRANCH  13  14
HETATM   14  C   UNL     1     -38.854 -54.292  15.707  1.00  0.00     0.014 C 
HETATM   15  C   UNL     1     -38.207 -55.652  16.020  1.00  0.00     0.006 C 
HETATM   16  C   UNL     1     -38.062 -55.714  17.541  1.00  0.00     0.000 C 
HETATM   17  C   UNL     1     -38.199 -54.277  18.014  1.00  0.00     0.000 C 
HETATM   18  C   UNL     1     -39.241 -53.708  17.070  1.00  0.00     0.006 C 
ENDBRANCH  13  14
ENDBRANCH  10  13
ENDBRANCH   3   7
BRANCH   4  19
HETATM   19  C   UNL     1     -42.682 -47.651  10.581  1.00  0.00     0.038 A 
HETATM   20  C   UNL     1     -42.123 -46.509  11.149  1.00  0.00     0.046 A 
HETATM   21  C   UNL     1     -42.537 -45.270  10.691  1.00  0.00     0.090 A 
HETATM   22  N   UNL     1     -43.450 -45.096   9.714  1.00  0.00    -0.375 N 
HETATM   23  C   UNL     1     -43.980 -46.214   9.177  1.00  0.00     0.090 A 
ATOM     24  HN  UNL     1     -43.726 -44.166   9.398  1.00  0.00     0.164 HD
HETATM   25  C   UNL     1     -43.633 -47.496   9.570  1.00  0.00     0.046 A 
ENDBRANCH   4  19
TORSDOF 4
ENDMDL
MODEL 5
REMARK VINA RESULT:      -5.4      3.271      8.784
REMARK  4 active torsions:
REMARK  status: ('A' for Active; 'I' for Inactive)
REMARK       I    between atoms: C_2  and  N_3 
REMARK       I    between atoms: C_2  and  N_16 
REMARK    1  A    between atoms: N_3  and  C_4 
REMARK    2  A    between atoms: N_7  and  C_8 
REMARK    3  A    between atoms: C_8  and  C_9 
REMARK    4  A    between atoms: N_16  and  C_17 
ROOT
HETATM    1  O   UNL     1     -42.945 -49.025  13.592  1.00  0.00    -0.247 OA
HETATM    2  C   UNL     1     -42.758 -49.779  12.646  1.00  0.00     0.321 C 
HETATM    3  N   UNL     1     -43.037 -51.130  12.718  1.00  0.00    -0.338 N 
HETATM    4  N   UNL     1     -42.268 -49.434  11.404  1.00  0.00    -0.309 N 
HETATM    5  H   UNL     1     -42.534 -51.721  12.074  1.00  0.00     0.164 HD
HETATM    6  H   UNL     1     -42.245 -50.170  10.716  1.00  0.00     0.170 HD
ENDROOT
BRANCH   3   7
HETATM    7  C   UNL     1     -43.425 -51.736  13.994  1.00  0.00     0.089 C 
HETATM    8  C   UNL     1     -42.188 -52.116  14.817  1.00  0.00     0.055 C 
HETATM    9  C   UNL     1     -41.492 -53.344  14.228  1.00  0.00     0.274 C 
HETATM   10  N   UNL     1     -42.371 -54.514  14.098  1.00  0.00     0.088 N 
HETATM   11  C   UNL     1     -43.550 -54.174  13.279  1.00  0.00     0.274 C 
HETATM   12  C   UNL     1     -44.329 -52.950  13.771  1.00  0.00     0.055 C 
BRANCH  10  13
HETATM   13  C   UNL     1     -42.775 -55.112  15.385  1.00  0.00     0.277 C 
BRANCH  13  14
HETATM   14  C   UNL     1     -41.669 -55.214  16.447  1.00  0.00     0.014 C 
HETATM   15  C   UNL     1     -41.356 -56.646  16.913  1.00  0.00     0.006 C 
HETATM   16  C   UNL     1     -41.363 -56.608  18.441  1.00  0.00     0.000 C 
HETATM   17  C   UNL     1     -41.233 -55.139  18.804  1.00  0.00     0.000 C 
HETATM   18  C   UNL     1     -42.043 -54.450  17.722  1.00  0.00     0.006 C 
ENDBRANCH  13  14
ENDBRANCH  10  13
ENDBRANCH   3   7
BRANCH   4  19
HETATM   19  C   UNL     1     -41.850 -48.155  10.983  1.00  0.00     0.038 A 
HETATM   20  C   UNL     1     -40.605 -47.608  11.286  1.00  0.00     0.046 A 
HETATM   21  C   UNL     1     -40.304 -46.342  10.815  1.00  0.00     0.090 A 
HETATM   22  N   UNL     1     -41.144 -45.599  10.068  1.00  0.00    -0.375 N 
HETATM   23  C   UNL     1     -42.345 -46.144   9.785  1.00  0.00     0.090 A 
ATOM     24  HN  UNL     1     -40.885 -44.671   9.733  1.00  0.00     0.164 HD
HETATM   25  C   UNL     1     -42.739 -47.402  10.214  1.00  0.00     0.046 A 
ENDBRANCH   4  19
TORSDOF 4
ENDMDL
MODEL 6
REMARK VINA RESULT:      -5.3      4.614      8.600
REMARK  4 active torsions:
REMARK  status: ('A' for Active; 'I' for Inactive)
REMARK       I    between atoms: C_2  and  N_3 
REMARK       I    between atoms: C_2  and  N_16 
REMARK    1  A    between atoms: N_3  and  C_4 
REMARK    2  A    between atoms: N_7  and  C_8 
REMARK    3  A    between atoms: C_8  and  C_9 
REMARK    4  A    between atoms: N_16  and  C_17 
ROOT
HETATM    1  O   UNL     1     -38.622 -50.202  13.957  1.00  0.00    -0.247 OA
HETATM    2  C   UNL     1     -38.755 -51.195  14.659  1.00  0.00     0.321 C 
HETATM    3  N   UNL     1     -39.596 -52.235  14.309  1.00  0.00    -0.338 N 
HETATM    4  N   UNL     1     -38.124 -51.446  15.859  1.00  0.00    -0.309 N 
HETATM    5  H   UNL     1     -39.929 -52.810  15.067  1.00  0.00     0.164 HD
HETATM    6  H   UNL     1     -38.295 -52.349  16.271  1.00  0.00     0.170 HD
ENDROOT
BRANCH   3   7
HETATM    7  C   UNL     1     -40.479 -52.109  13.147  1.00  0.00     0.089 C 
HETATM    8  C   UNL     1     -41.733 -51.299  13.498  1.00  0.00     0.055 C 
HETATM    9  C   UNL     1     -42.686 -52.115  14.374  1.00  0.00     0.274 C 
HETATM   10  N   UNL     1     -43.083 -53.397  13.776  1.00  0.00     0.088 N 
HETATM   11  C   UNL     1     -41.888 -54.203  13.463  1.00  0.00     0.274 C 
HETATM   12  C   UNL     1     -40.853 -53.484  12.592  1.00  0.00     0.055 C 
BRANCH  10  13
HETATM   13  C   UNL     1     -43.959 -53.267  12.596  1.00  0.00     0.277 C 
BRANCH  13  14
HETATM   14  C   UNL     1     -45.452 -53.058  12.894  1.00  0.00     0.014 C 
HETATM   15  C   UNL     1     -45.888 -51.587  12.992  1.00  0.00     0.006 C 
HETATM   16  C   UNL     1     -46.690 -51.465  14.288  1.00  0.00     0.000 C 
HETATM   17  C   UNL     1     -47.070 -52.888  14.657  1.00  0.00     0.000 C 
HETATM   18  C   UNL     1     -45.849 -53.685  14.236  1.00  0.00     0.006 C 
ENDBRANCH  13  14
ENDBRANCH  10  13
ENDBRANCH   3   7
BRANCH   4  19
HETATM   19  C   UNL     1     -37.224 -50.597  16.536  1.00  0.00     0.038 A 
HETATM   20  C   UNL     1     -36.194 -49.900  15.908  1.00  0.00     0.046 A 
HETATM   21  C   UNL     1     -35.374 -49.093  16.677  1.00  0.00     0.090 A 
HETATM   22  N   UNL     1     -35.515 -48.929  18.007  1.00  0.00    -0.375 N 
HETATM   23  C   UNL     1     -36.517 -49.610  18.598  1.00  0.00     0.090 A 
ATOM     24  HN  UNL     1     -34.894 -48.319  18.541  1.00  0.00     0.164 HD
HETATM   25  C   UNL     1     -37.387 -50.446  17.915  1.00  0.00     0.046 A 
ENDBRANCH   4  19
TORSDOF 4
ENDMDL
MODEL 7
REMARK VINA RESULT:      -5.3      6.332      8.475
REMARK  4 active torsions:
REMARK  status: ('A' for Active; 'I' for Inactive)
REMARK       I    between atoms: C_2  and  N_3 
REMARK       I    between atoms: C_2  and  N_16 
REMARK    1  A    between atoms: N_3  and  C_4 
REMARK    2  A    between atoms: N_7  and  C_8 
REMARK    3  A    between atoms: C_8  and  C_9 
REMARK    4  A    between atoms: N_16  and  C_17 
ROOT
HETATM    1  O   UNL     1     -38.749 -56.011  15.284  1.00  0.00    -0.247 OA
HETATM    2  C   UNL     1     -38.597 -55.044  16.019  1.00  0.00     0.321 C 
HETATM    3  N   UNL     1     -39.215 -53.833  15.777  1.00  0.00    -0.338 N 
HETATM    4  N   UNL     1     -37.826 -54.993  17.161  1.00  0.00    -0.309 N 
HETATM    5  H   UNL     1     -38.773 -53.021  16.180  1.00  0.00     0.164 HD
HETATM    6  H   UNL     1     -37.869 -54.135  17.688  1.00  0.00     0.170 HD
ENDROOT
BRANCH   3   7
HETATM    7  C   UNL     1     -39.960 -53.621  14.534  1.00  0.00     0.089 C 
HETATM    8  C   UNL     1     -39.962 -52.138  14.143  1.00  0.00     0.055 C 
HETATM    9  C   UNL     1     -40.884 -51.330  15.057  1.00  0.00     0.274 C 
HETATM   10  N   UNL     1     -42.266 -51.829  15.089  1.00  0.00     0.088 N 
HETATM   11  C   UNL     1     -42.284 -53.246  15.497  1.00  0.00     0.274 C 
HETATM   12  C   UNL     1     -41.387 -54.157  14.653  1.00  0.00     0.055 C 
BRANCH  10  13
HETATM   13  C   UNL     1     -43.009 -51.630  13.830  1.00  0.00     0.277 C 
BRANCH  13  14
HETATM   14  C   UNL     1     -44.394 -50.977  13.971  1.00  0.00     0.014 C 
HETATM   15  C   UNL     1     -44.872 -50.792  15.421  1.00  0.00     0.006 C 
HETATM   16  C   UNL     1     -46.294 -51.352  15.475  1.00  0.00     0.000 C 
HETATM   17  C   UNL     1     -46.749 -51.425  14.028  1.00  0.00     0.000 C 
HETATM   18  C   UNL     1     -45.481 -51.818  13.293  1.00  0.00     0.006 C 
ENDBRANCH  13  14
ENDBRANCH  10  13
ENDBRANCH   3   7
BRANCH   4  19
HETATM   19  C   UNL     1     -37.032 -56.029  17.695  1.00  0.00     0.038 A 
HETATM   20  C   UNL     1     -35.643 -56.074  17.590  1.00  0.00     0.046 A 
HETATM   21  C   UNL     1     -34.970 -57.142  18.156  1.00  0.00     0.090 A 
HETATM   22  N   UNL     1     -35.576 -58.148  18.817  1.00  0.00    -0.375 N 
HETATM   23  C   UNL     1     -36.920 -58.088  18.909  1.00  0.00     0.090 A 
ATOM     24  HN  UNL     1     -35.045 -58.916  19.228  1.00  0.00     0.164 HD
HETATM   25  C   UNL     1     -37.683 -57.063  18.371  1.00  0.00     0.046 A 
ENDBRANCH   4  19
TORSDOF 4
ENDMDL
MODEL 8
REMARK VINA RESULT:      -5.2      3.148      9.352
REMARK  4 active torsions:
REMARK  status: ('A' for Active; 'I' for Inactive)
REMARK       I    between atoms: C_2  and  N_3 
REMARK       I    between atoms: C_2  and  N_16 
REMARK    1  A    between atoms: N_3  and  C_4 
REMARK    2  A    between atoms: N_7  and  C_8 
REMARK    3  A    between atoms: C_8  and  C_9 
REMARK    4  A    between atoms: N_16  and  C_17 
ROOT
HETATM    1  O   UNL     1     -39.744 -44.667  10.514  1.00  0.00    -0.247 OA
HETATM    2  C   UNL     1     -40.601 -44.823  11.374  1.00  0.00     0.321 C 
HETATM    3  N   UNL     1     -41.003 -46.077  11.793  1.00  0.00    -0.338 N 
HETATM    4  N   UNL     1     -41.281 -43.830  12.048  1.00  0.00    -0.309 N 
HETATM    5  H   UNL     1     -41.923 -46.134  12.201  1.00  0.00     0.164 HD
HETATM    6  H   UNL     1     -41.905 -44.135  12.778  1.00  0.00     0.170 HD
ENDROOT
BRANCH   3   7
HETATM    7  C   UNL     1     -40.518 -47.274  11.102  1.00  0.00     0.089 C 
HETATM    8  C   UNL     1     -41.689 -48.120  10.586  1.00  0.00     0.055 C 
HETATM    9  C   UNL     1     -42.398 -48.837  11.735  1.00  0.00     0.274 C 
HETATM   10  N   UNL     1     -41.506 -49.680  12.543  1.00  0.00     0.088 N 
HETATM   11  C   UNL     1     -40.392 -48.874  13.077  1.00  0.00     0.274 C 
HETATM   12  C   UNL     1     -39.607 -48.100  12.012  1.00  0.00     0.055 C 
BRANCH  10  13
HETATM   13  C   UNL     1     -41.005 -50.876  11.840  1.00  0.00     0.277 C 
BRANCH  13  14
HETATM   14  C   UNL     1     -41.778 -52.178  12.108  1.00  0.00     0.014 C 
HETATM   15  C   UNL     1     -42.852 -52.073  13.204  1.00  0.00     0.006 C 
HETATM   16  C   UNL     1     -42.618 -53.257  14.143  1.00  0.00     0.000 C 
HETATM   17  C   UNL     1     -41.752 -54.225  13.357  1.00  0.00     0.000 C 
HETATM   18  C   UNL     1     -40.843 -53.302  12.567  1.00  0.00     0.006 C 
ENDBRANCH  13  14
ENDBRANCH  10  13
ENDBRANCH   3   7
BRANCH   4  19
HETATM   19  C   UNL     1     -41.153 -42.438  11.859  1.00  0.00     0.038 A 
HETATM   20  C   UNL     1     -40.181 -41.658  12.481  1.00  0.00     0.046 A 
HETATM   21  C   UNL     1     -40.151 -40.300  12.216  1.00  0.00     0.090 A 
HETATM   22  N   UNL     1     -41.006 -39.678  11.381  1.00  0.00    -0.375 N 
HETATM   23  C   UNL     1     -41.941 -40.449  10.788  1.00  0.00     0.090 A 
ATOM     24  HN  UNL     1     -40.950 -38.674  11.205  1.00  0.00     0.164 HD
HETATM   25  C   UNL     1     -42.054 -41.815  10.992  1.00  0.00     0.046 A 
ENDBRANCH   4  19
TORSDOF 4
ENDMDL
MODEL 9
REMARK VINA RESULT:      -5.2      6.263      8.688
REMARK  4 active torsions:
REMARK  status: ('A' for Active; 'I' for Inactive)
REMARK       I    between atoms: C_2  and  N_3 
REMARK       I    between atoms: C_2  and  N_16 
REMARK    1  A    between atoms: N_3  and  C_4 
REMARK    2  A    between atoms: N_7  and  C_8 
REMARK    3  A    between atoms: C_8  and  C_9 
REMARK    4  A    between atoms: N_16  and  C_17 
ROOT
HETATM    1  O   UNL     1     -40.107 -55.340  18.516  1.00  0.00    -0.247 OA
HETATM    2  C   UNL     1     -39.834 -55.803  17.417  1.00  0.00     0.321 C 
HETATM    3  N   UNL     1     -40.155 -55.148  16.243  1.00  0.00    -0.338 N 
HETATM    4  N   UNL     1     -39.187 -56.994  17.163  1.00  0.00    -0.309 N 
HETATM    5  H   UNL     1     -40.239 -55.727  15.422  1.00  0.00     0.164 HD
HETATM    6  H   UNL     1     -38.979 -57.190  16.197  1.00  0.00     0.170 HD
ENDROOT
BRANCH   3   7
HETATM    7  C   UNL     1     -40.979 -53.938  16.277  1.00  0.00     0.089 C 
HETATM    8  C   UNL     1     -42.455 -54.273  16.029  1.00  0.00     0.055 C 
HETATM    9  C   UNL     1     -42.699 -54.628  14.562  1.00  0.00     0.274 C 
HETATM   10  N   UNL     1     -42.271 -53.581  13.624  1.00  0.00     0.088 N 
HETATM   11  C   UNL     1     -40.844 -53.270  13.826  1.00  0.00     0.274 C 
HETATM   12  C   UNL     1     -40.476 -52.904  15.268  1.00  0.00     0.055 C 
BRANCH  10  13
HETATM   13  C   UNL     1     -43.092 -52.355  13.672  1.00  0.00     0.277 C 
BRANCH  13  14
HETATM   14  C   UNL     1     -44.602 -52.573  13.863  1.00  0.00     0.014 C 
HETATM   15  C   UNL     1     -45.407 -52.671  12.556  1.00  0.00     0.006 C 
HETATM   16  C   UNL     1     -46.592 -51.718  12.713  1.00  0.00     0.000 C 
HETATM   17  C   UNL     1     -46.693 -51.449  14.204  1.00  0.00     0.000 C 
HETATM   18  C   UNL     1     -45.240 -51.418  14.643  1.00  0.00     0.006 C 
ENDBRANCH  13  14
ENDBRANCH  10  13
ENDBRANCH   3   7
BRANCH   4  19
HETATM   19  C   UNL     1     -38.741 -57.935  18.115  1.00  0.00     0.038 A 
HETATM   20  C   UNL     1     -39.347 -59.173  18.323  1.00  0.00     0.046 A 
HETATM   21  C   UNL     1     -38.818 -60.016  19.285  1.00  0.00     0.090 A 
HETATM   22  N   UNL     1     -37.738 -59.718  20.034  1.00  0.00    -0.375 N 
HETATM   23  C   UNL     1     -37.166 -58.516  19.819  1.00  0.00     0.090 A 
ATOM     24  HN  UNL     1     -37.373 -60.368  20.730  1.00  0.00     0.164 HD
HETATM   25  C   UNL     1     -37.624 -57.602  18.883  1.00  0.00     0.046 A 
ENDBRANCH   4  19
TORSDOF 4
ENDMDL
