MODEL 1
REMARK VINA RESULT:      -6.0      0.000      0.000
REMARK  3 active torsions:
REMARK  status: ('A' for Active; 'I' for Inactive)
REMARK    1  A    between atoms: S_2  and  N_5 
REMARK    2  A    between atoms: C_8  and  N_11 
REMARK       I    between atoms: N_11  and  C_12 
REMARK       I    between atoms: C_12  and  N_14 
REMARK    3  A    between atoms: N_14  and  C_15 
ROOT
HETATM    1  N   UNL     1     -42.645 -50.823  12.079  1.00  0.00    -0.338 N 
HETATM    2  C   UNL     1     -42.134 -49.548  12.198  1.00  0.00     0.322 C 
HETATM    3  O   UNL     1     -41.900 -49.036  13.288  1.00  0.00    -0.247 OA
HETATM    4  N   UNL     1     -41.973 -48.941  10.978  1.00  0.00    -0.295 N 
HETATM    5  H   UNL     1     -42.385 -51.318  11.237  1.00  0.00     0.164 HD
HETATM    6  H   UNL     1     -42.686 -49.158  10.298  1.00  0.00     0.172 HD
ENDROOT
BRANCH   1   7
HETATM    7  C   UNL     1     -42.941 -51.582  13.294  1.00  0.00     0.089 C 
HETATM    8  C   UNL     1     -42.658 -53.078  13.116  1.00  0.00     0.045 C 
HETATM    9  C   UNL     1     -43.771 -53.783  12.359  1.00  0.00     0.137 C 
HETATM   10  N   UNL     1     -45.097 -53.545  12.977  1.00  0.00    -0.311 N 
HETATM   11  C   UNL     1     -45.421 -52.095  13.039  1.00  0.00     0.137 C 
HETATM   12  C   UNL     1     -44.359 -51.314  13.802  1.00  0.00     0.045 C 
BRANCH  10  13
HETATM   13  S   UNL     1     -45.534 -54.464  14.344  1.00  0.00     0.224 S 
HETATM   14  C   UNL     1     -47.001 -53.630  14.912  1.00  0.00     0.186 C 
HETATM   15  O   UNL     1     -44.507 -54.270  15.347  1.00  0.00    -0.206 OA
HETATM   16  O   UNL     1     -45.899 -55.792  13.906  1.00  0.00    -0.206 OA
ENDBRANCH  10  13
ENDBRANCH   1   7
BRANCH   4  17
HETATM   17  C   UNL     1     -41.573 -47.601  10.901  1.00  0.00     0.108 A 
HETATM   18  C   UNL     1     -42.486 -46.579  10.656  1.00  0.00     0.049 A 
HETATM   19  C   UNL     1     -42.006 -45.292  10.441  1.00  0.00     0.005 A 
HETATM   20  C   UNL     1     -40.639 -45.069  10.478  1.00  0.00     0.017 A 
HETATM   21  C   UNL     1     -39.809 -46.137  10.785  1.00  0.00     0.089 A 
HETATM   22  N   UNL     1     -40.249 -47.392  11.032  1.00  0.00    -0.352 N 
ATOM     23  HN  UNL     1     -39.612 -48.141  11.303  1.00  0.00     0.166 HD
ENDBRANCH   4  17
TORSDOF 3
ENDMDL
MODEL 2
REMARK VINA RESULT:      -5.9      1.320      1.856
REMARK  3 active torsions:
REMARK  status: ('A' for Active; 'I' for Inactive)
REMARK    1  A    between atoms: S_2  and  N_5 
REMARK    2  A    between atoms: C_8  and  N_11 
REMARK       I    between atoms: N_11  and  C_12 
REMARK       I    between atoms: C_12  and  N_14 
REMARK    3  A    between atoms: N_14  and  C_15 
ROOT
HETATM    1  N   UNL     1     -43.843 -49.996  12.407  1.00  0.00    -0.338 N 
HETATM    2  C   UNL     1     -43.068 -48.859  12.520  1.00  0.00     0.322 C 
HETATM    3  O   UNL     1     -42.580 -48.503  13.586  1.00  0.00    -0.247 OA
HETATM    4  N   UNL     1     -42.963 -48.188  11.328  1.00  0.00    -0.295 N 
HETATM    5  H   UNL     1     -43.813 -50.453  11.507  1.00  0.00     0.164 HD
HETATM    6  H   UNL     1     -43.795 -48.201  10.758  1.00  0.00     0.172 HD
ENDROOT
BRANCH   1   7
HETATM    7  C   UNL     1     -44.110 -50.790  13.606  1.00  0.00     0.089 C 
HETATM    8  C   UNL     1     -43.051 -51.877  13.819  1.00  0.00     0.045 C 
HETATM    9  C   UNL     1     -43.282 -53.082  12.923  1.00  0.00     0.137 C 
HETATM   10  N   UNL     1     -44.657 -53.620  13.063  1.00  0.00    -0.311 N 
HETATM   11  C   UNL     1     -45.683 -52.593  12.737  1.00  0.00     0.137 C 
HETATM   12  C   UNL     1     -45.533 -51.354  13.609  1.00  0.00     0.045 C 
BRANCH  10  13
HETATM   13  S   UNL     1     -45.006 -54.625  14.394  1.00  0.00     0.224 S 
HETATM   14  C   UNL     1     -43.392 -55.217  14.859  1.00  0.00     0.186 C 
HETATM   15  O   UNL     1     -45.759 -55.759  13.898  1.00  0.00    -0.206 OA
HETATM   16  O   UNL     1     -45.523 -53.805  15.465  1.00  0.00    -0.206 OA
ENDBRANCH  10  13
ENDBRANCH   1   7
BRANCH   4  17
HETATM   17  C   UNL     1     -42.312 -46.949  11.268  1.00  0.00     0.108 A 
HETATM   18  C   UNL     1     -41.050 -46.813  10.695  1.00  0.00     0.049 A 
HETATM   19  C   UNL     1     -40.396 -45.591  10.803  1.00  0.00     0.005 A 
HETATM   20  C   UNL     1     -41.021 -44.551  11.474  1.00  0.00     0.017 A 
HETATM   21  C   UNL     1     -42.301 -44.762  11.963  1.00  0.00     0.089 A 
HETATM   22  N   UNL     1     -42.975 -45.929  11.844  1.00  0.00    -0.352 N 
ATOM     23  HN  UNL     1     -43.935 -46.030  12.173  1.00  0.00     0.166 HD
ENDBRANCH   4  17
TORSDOF 3
ENDMDL
MODEL 3
REMARK VINA RESULT:      -5.9      3.291      8.025
REMARK  3 active torsions:
REMARK  status: ('A' for Active; 'I' for Inactive)
REMARK    1  A    between atoms: S_2  and  N_5 
REMARK    2  A    between atoms: C_8  and  N_11 
REMARK       I    between atoms: N_11  and  C_12 
REMARK       I    between atoms: C_12  and  N_14 
REMARK    3  A    between atoms: N_14  and  C_15 
ROOT
HETATM    1  N   UNL     1     -42.568 -50.028  11.921  1.00  0.00    -0.338 N 
HETATM    2  C   UNL     1     -42.968 -50.991  12.826  1.00  0.00     0.322 C 
HETATM    3  O   UNL     1     -43.337 -50.709  13.960  1.00  0.00    -0.247 OA
HETATM    4  N   UNL     1     -42.857 -52.258  12.312  1.00  0.00    -0.295 N 
HETATM    5  H   UNL     1     -42.725 -50.255  10.949  1.00  0.00     0.164 HD
HETATM    6  H   UNL     1     -42.061 -52.404  11.709  1.00  0.00     0.172 HD
ENDROOT
BRANCH   1   7
HETATM    7  C   UNL     1     -42.561 -48.627  12.338  1.00  0.00     0.089 C 
HETATM    8  C   UNL     1     -43.277 -47.726  11.327  1.00  0.00     0.045 C 
HETATM    9  C   UNL     1     -42.404 -47.411  10.124  1.00  0.00     0.137 C 
HETATM   10  N   UNL     1     -41.091 -46.851  10.524  1.00  0.00    -0.311 N 
HETATM   11  C   UNL     1     -40.345 -47.783  11.412  1.00  0.00     0.137 C 
HETATM   12  C   UNL     1     -41.147 -48.135  12.658  1.00  0.00     0.045 C 
BRANCH  10  13
HETATM   13  S   UNL     1     -41.003 -45.200  10.936  1.00  0.00     0.224 S 
HETATM   14  C   UNL     1     -39.517 -44.678  10.106  1.00  0.00     0.186 C 
HETATM   15  O   UNL     1     -40.758 -45.119  12.361  1.00  0.00    -0.206 OA
HETATM   16  O   UNL     1     -42.129 -44.518  10.339  1.00  0.00    -0.206 OA
ENDBRANCH  10  13
ENDBRANCH   1   7
BRANCH   4  17
HETATM   17  C   UNL     1     -43.107 -53.374  13.120  1.00  0.00     0.108 A 
HETATM   18  C   UNL     1     -44.333 -54.034  13.097  1.00  0.00     0.049 A 
HETATM   19  C   UNL     1     -44.568 -55.038  14.029  1.00  0.00     0.005 A 
HETATM   20  C   UNL     1     -43.578 -55.348  14.948  1.00  0.00     0.017 A 
HETATM   21  C   UNL     1     -42.368 -54.677  14.860  1.00  0.00     0.089 A 
HETATM   22  N   UNL     1     -42.098 -53.720  13.942  1.00  0.00    -0.352 N 
ATOM     23  HN  UNL     1     -41.179 -53.283  13.877  1.00  0.00     0.166 HD
ENDBRANCH   4  17
TORSDOF 3
ENDMDL
MODEL 4
REMARK VINA RESULT:      -5.8      3.266      8.066
REMARK  3 active torsions:
REMARK  status: ('A' for Active; 'I' for Inactive)
REMARK    1  A    between atoms: S_2  and  N_5 
REMARK    2  A    between atoms: C_8  and  N_11 
REMARK       I    between atoms: N_11  and  C_12 
REMARK       I    between atoms: C_12  and  N_14 
REMARK    3  A    between atoms: N_14  and  C_15 
ROOT
HETATM    1  N   UNL     1     -43.541 -49.448  12.205  1.00  0.00    -0.338 N 
HETATM    2  C   UNL     1     -43.828 -50.575  12.947  1.00  0.00     0.322 C 
HETATM    3  O   UNL     1     -43.025 -51.062  13.734  1.00  0.00    -0.247 OA
HETATM    4  N   UNL     1     -45.072 -51.078  12.658  1.00  0.00    -0.295 N 
HETATM    5  H   UNL     1     -44.336 -48.873  11.964  1.00  0.00     0.164 HD
HETATM    6  H   UNL     1     -45.345 -51.004  11.690  1.00  0.00     0.172 HD
ENDROOT
BRANCH   1   7
HETATM    7  C   UNL     1     -42.224 -48.827  12.346  1.00  0.00     0.089 C 
HETATM    8  C   UNL     1     -42.278 -47.562  13.210  1.00  0.00     0.045 C 
HETATM    9  C   UNL     1     -42.802 -46.364  12.437  1.00  0.00     0.137 C 
HETATM   10  N   UNL     1     -42.044 -46.140  11.183  1.00  0.00    -0.311 N 
HETATM   11  C   UNL     1     -42.095 -47.330  10.291  1.00  0.00     0.137 C 
HETATM   12  C   UNL     1     -41.565 -48.576  10.987  1.00  0.00     0.045 C 
BRANCH  10  13
HETATM   13  S   UNL     1     -40.542 -45.341  11.272  1.00  0.00     0.224 S 
HETATM   14  C   UNL     1     -40.935 -43.894  12.232  1.00  0.00     0.186 C 
HETATM   15  O   UNL     1     -40.203 -44.898   9.936  1.00  0.00    -0.206 OA
HETATM   16  O   UNL     1     -39.629 -46.164  12.033  1.00  0.00    -0.206 OA
ENDBRANCH  10  13
ENDBRANCH   1   7
BRANCH   4  17
HETATM   17  C   UNL     1     -45.496 -52.286  13.226  1.00  0.00     0.108 A 
HETATM   18  C   UNL     1     -46.524 -52.331  14.164  1.00  0.00     0.049 A 
HETATM   19  C   UNL     1     -46.796 -53.537  14.800  1.00  0.00     0.005 A 
HETATM   20  C   UNL     1     -46.036 -54.651  14.481  1.00  0.00     0.017 A 
HETATM   21  C   UNL     1     -45.070 -54.525  13.494  1.00  0.00     0.089 A 
HETATM   22  N   UNL     1     -44.806 -53.374  12.834  1.00  0.00    -0.352 N 
ATOM     23  HN  UNL     1     -44.122 -53.332  12.079  1.00  0.00     0.166 HD
ENDBRANCH   4  17
TORSDOF 3
ENDMDL
MODEL 5
REMARK VINA RESULT:      -5.3      5.197      7.249
REMARK  3 active torsions:
REMARK  status: ('A' for Active; 'I' for Inactive)
REMARK    1  A    between atoms: S_2  and  N_5 
REMARK    2  A    between atoms: C_8  and  N_11 
REMARK       I    between atoms: N_11  and  C_12 
REMARK       I    between atoms: C_12  and  N_14 
REMARK    3  A    between atoms: N_14  and  C_15 
ROOT
HETATM    1  N   UNL     1     -40.328 -47.600  12.913  1.00  0.00    -0.338 N 
HETATM    2  C   UNL     1     -39.121 -48.078  13.379  1.00  0.00     0.322 C 
HETATM    3  O   UNL     1     -38.299 -48.611  12.642  1.00  0.00    -0.247 OA
HETATM    4  N   UNL     1     -38.993 -47.919  14.736  1.00  0.00    -0.295 N 
HETATM    5  H   UNL     1     -40.711 -46.817  13.424  1.00  0.00     0.164 HD
HETATM    6  H   UNL     1     -39.845 -48.047  15.261  1.00  0.00     0.172 HD
ENDROOT
BRANCH   1   7
HETATM    7  C   UNL     1     -40.649 -47.756  11.495  1.00  0.00     0.089 C 
HETATM    8  C   UNL     1     -40.778 -46.403  10.786  1.00  0.00     0.045 C 
HETATM    9  C   UNL     1     -42.119 -45.743  11.056  1.00  0.00     0.137 C 
HETATM   10  N   UNL     1     -43.253 -46.642  10.733  1.00  0.00    -0.311 N 
HETATM   11  C   UNL     1     -43.190 -47.906  11.514  1.00  0.00     0.137 C 
HETATM   12  C   UNL     1     -41.878 -48.644  11.283  1.00  0.00     0.045 C 
BRANCH  10  13
HETATM   13  S   UNL     1     -43.732 -46.796   9.105  1.00  0.00     0.224 S 
HETATM   14  C   UNL     1     -45.456 -47.215   9.251  1.00  0.00     0.186 C 
HETATM   15  O   UNL     1     -43.048 -47.949   8.557  1.00  0.00    -0.206 OA
HETATM   16  O   UNL     1     -43.624 -45.502   8.472  1.00  0.00    -0.206 OA
ENDBRANCH  10  13
ENDBRANCH   1   7
BRANCH   4  17
HETATM   17  C   UNL     1     -37.885 -48.447  15.410  1.00  0.00     0.108 A 
HETATM   18  C   UNL     1     -36.987 -47.631  16.093  1.00  0.00     0.049 A 
HETATM   19  C   UNL     1     -35.829 -48.199  16.612  1.00  0.00     0.005 A 
HETATM   20  C   UNL     1     -35.607 -49.555  16.432  1.00  0.00     0.017 A 
HETATM   21  C   UNL     1     -36.583 -50.300  15.788  1.00  0.00     0.089 A 
HETATM   22  N   UNL     1     -37.735 -49.781  15.303  1.00  0.00    -0.352 N 
ATOM     23  HN  UNL     1     -38.452 -50.369  14.879  1.00  0.00     0.166 HD
ENDBRANCH   4  17
TORSDOF 3
ENDMDL
MODEL 6
REMARK VINA RESULT:      -5.2      1.983      2.690
REMARK  3 active torsions:
REMARK  status: ('A' for Active; 'I' for Inactive)
REMARK    1  A    between atoms: S_2  and  N_5 
REMARK    2  A    between atoms: C_8  and  N_11 
REMARK       I    between atoms: N_11  and  C_12 
REMARK       I    between atoms: C_12  and  N_14 
REMARK    3  A    between atoms: N_14  and  C_15 
ROOT
HETATM    1  N   UNL     1     -42.238 -50.353  12.200  1.00  0.00    -0.338 N 
HETATM    2  C   UNL     1     -42.670 -49.064  11.964  1.00  0.00     0.322 C 
HETATM    3  O   UNL     1     -43.078 -48.336  12.862  1.00  0.00    -0.247 OA
HETATM    4  N   UNL     1     -42.623 -48.740  10.631  1.00  0.00    -0.295 N 
HETATM    5  H   UNL     1     -41.531 -50.696  11.564  1.00  0.00     0.164 HD
HETATM    6  H   UNL     1     -42.856 -49.494  10.003  1.00  0.00     0.172 HD
ENDROOT
BRANCH   1   7
HETATM    7  C   UNL     1     -42.290 -50.876  13.564  1.00  0.00     0.089 C 
HETATM    8  C   UNL     1     -41.100 -51.793  13.870  1.00  0.00     0.045 C 
HETATM    9  C   UNL     1     -41.287 -53.184  13.289  1.00  0.00     0.137 C 
HETATM   10  N   UNL     1     -42.571 -53.792  13.711  1.00  0.00    -0.311 N 
HETATM   11  C   UNL     1     -43.733 -52.957  13.305  1.00  0.00     0.137 C 
HETATM   12  C   UNL     1     -43.633 -51.545  13.866  1.00  0.00     0.045 C 
BRANCH  10  13
HETATM   13  S   UNL     1     -42.667 -54.499  15.259  1.00  0.00     0.224 S 
HETATM   14  C   UNL     1     -40.981 -54.984  15.562  1.00  0.00     0.186 C 
HETATM   15  O   UNL     1     -43.454 -55.708  15.138  1.00  0.00    -0.206 OA
HETATM   16  O   UNL     1     -43.028 -53.472  16.209  1.00  0.00    -0.206 OA
ENDBRANCH  10  13
ENDBRANCH   1   7
BRANCH   4  17
HETATM   17  C   UNL     1     -43.131 -47.515  10.181  1.00  0.00     0.108 A 
HETATM   18  C   UNL     1     -44.197 -47.449   9.288  1.00  0.00     0.049 A 
HETATM   19  C   UNL     1     -44.554 -46.211   8.765  1.00  0.00     0.005 A 
HETATM   20  C   UNL     1     -43.838 -45.087   9.149  1.00  0.00     0.017 A 
HETATM   21  C   UNL     1     -42.828 -45.242  10.086  1.00  0.00     0.089 A 
HETATM   22  N   UNL     1     -42.481 -46.427  10.638  1.00  0.00    -0.352 N 
ATOM     23  HN  UNL     1     -41.766 -46.493  11.361  1.00  0.00     0.166 HD
ENDBRANCH   4  17
TORSDOF 3
ENDMDL
MODEL 7
REMARK VINA RESULT:      -5.1     13.770     14.669
REMARK  3 active torsions:
REMARK  status: ('A' for Active; 'I' for Inactive)
REMARK    1  A    between atoms: S_2  and  N_5 
REMARK    2  A    between atoms: C_8  and  N_11 
REMARK       I    between atoms: N_11  and  C_12 
REMARK       I    between atoms: C_12  and  N_14 
REMARK    3  A    between atoms: N_14  and  C_15 
ROOT
HETATM    1  N   UNL     1     -31.337 -53.440  18.912  1.00  0.00    -0.338 N 
HETATM    2  C   UNL     1     -30.089 -52.852  18.951  1.00  0.00     0.322 C 
HETATM    3  O   UNL     1     -29.158 -53.248  18.259  1.00  0.00    -0.247 OA
HETATM    4  N   UNL     1     -30.029 -51.833  19.867  1.00  0.00    -0.295 N 
HETATM    5  H   UNL     1     -32.112 -52.827  19.120  1.00  0.00     0.164 HD
HETATM    6  H   UNL     1     -30.562 -51.987  20.710  1.00  0.00     0.172 HD
ENDROOT
BRANCH   1   7
HETATM    7  C   UNL     1     -31.549 -54.590  18.033  1.00  0.00     0.089 C 
HETATM    8  C   UNL     1     -32.992 -54.661  17.523  1.00  0.00     0.045 C 
HETATM    9  C   UNL     1     -33.938 -55.235  18.564  1.00  0.00     0.137 C 
HETATM   10  N   UNL     1     -33.470 -56.547  19.073  1.00  0.00    -0.311 N 
HETATM   11  C   UNL     1     -32.115 -56.448  19.678  1.00  0.00     0.137 C 
HETATM   12  C   UNL     1     -31.097 -55.898  18.688  1.00  0.00     0.045 C 
BRANCH  10  13
HETATM   13  S   UNL     1     -33.768 -57.937  18.133  1.00  0.00     0.224 S 
HETATM   14  C   UNL     1     -35.431 -58.366  18.602  1.00  0.00     0.186 C 
HETATM   15  O   UNL     1     -32.894 -58.985  18.617  1.00  0.00    -0.206 OA
HETATM   16  O   UNL     1     -33.765 -57.556  16.740  1.00  0.00    -0.206 OA
ENDBRANCH  10  13
ENDBRANCH   1   7
BRANCH   4  17
HETATM   17  C   UNL     1     -28.813 -51.190  20.133  1.00  0.00     0.108 A 
HETATM   18  C   UNL     1     -28.621 -49.842  19.847  1.00  0.00     0.049 A 
HETATM   19  C   UNL     1     -27.347 -49.303  19.993  1.00  0.00     0.005 A 
HETATM   20  C   UNL     1     -26.315 -50.124  20.418  1.00  0.00     0.017 A 
HETATM   21  C   UNL     1     -26.612 -51.441  20.734  1.00  0.00     0.089 A 
HETATM   22  N   UNL     1     -27.847 -51.984  20.634  1.00  0.00    -0.352 N 
ATOM     23  HN  UNL     1     -28.037 -52.943  20.923  1.00  0.00     0.166 HD
ENDBRANCH   4  17
TORSDOF 3
ENDMDL
MODEL 8
REMARK VINA RESULT:      -5.1      2.072      2.263
REMARK  3 active torsions:
REMARK  status: ('A' for Active; 'I' for Inactive)
REMARK    1  A    between atoms: S_2  and  N_5 
REMARK    2  A    between atoms: C_8  and  N_11 
REMARK       I    between atoms: N_11  and  C_12 
REMARK       I    between atoms: C_12  and  N_14 
REMARK    3  A    between atoms: N_14  and  C_15 
ROOT
HETATM    1  N   UNL     1     -41.059 -51.402  12.265  1.00  0.00    -0.338 N 
HETATM    2  C   UNL     1     -40.849 -50.038  12.232  1.00  0.00     0.322 C 
HETATM    3  O   UNL     1     -40.353 -49.429  13.173  1.00  0.00    -0.247 OA
HETATM    4  N   UNL     1     -41.295 -49.477  11.062  1.00  0.00    -0.295 N 
HETATM    5  H   UNL     1     -41.021 -51.868  11.370  1.00  0.00     0.164 HD
HETATM    6  H   UNL     1     -42.138 -49.887  10.688  1.00  0.00     0.172 HD
ENDROOT
BRANCH   1   7
HETATM    7  C   UNL     1     -40.700 -52.142  13.474  1.00  0.00     0.089 C 
HETATM    8  C   UNL     1     -40.609 -53.649  13.215  1.00  0.00     0.045 C 
HETATM    9  C   UNL     1     -41.978 -54.306  13.174  1.00  0.00     0.137 C 
HETATM   10  N   UNL     1     -42.773 -54.005  14.389  1.00  0.00    -0.311 N 
HETATM   11  C   UNL     1     -42.962 -52.541  14.571  1.00  0.00     0.137 C 
HETATM   12  C   UNL     1     -41.630 -51.807  14.643  1.00  0.00     0.045 C 
BRANCH  10  13
HETATM   13  S   UNL     1     -42.461 -54.898  15.806  1.00  0.00     0.224 S 
HETATM   14  C   UNL     1     -43.395 -54.007  17.032  1.00  0.00     0.186 C 
HETATM   15  O   UNL     1     -41.057 -54.735  16.124  1.00  0.00    -0.206 OA
HETATM   16  O   UNL     1     -43.037 -56.214  15.655  1.00  0.00    -0.206 OA
ENDBRANCH  10  13
ENDBRANCH   1   7
BRANCH   4  17
HETATM   17  C   UNL     1     -41.273 -48.087  10.889  1.00  0.00     0.108 A 
HETATM   18  C   UNL     1     -42.392 -47.388  10.445  1.00  0.00     0.049 A 
HETATM   19  C   UNL     1     -42.261 -46.036  10.151  1.00  0.00     0.005 A 
HETATM   20  C   UNL     1     -41.025 -45.430  10.310  1.00  0.00     0.017 A 
HETATM   21  C   UNL     1     -39.981 -46.192  10.811  1.00  0.00     0.089 A 
HETATM   22  N   UNL     1     -40.086 -47.501  11.138  1.00  0.00    -0.352 N 
ATOM     23  HN  UNL     1     -39.309 -48.015  11.550  1.00  0.00     0.166 HD
ENDBRANCH   4  17
TORSDOF 3
ENDMDL
MODEL 9
REMARK VINA RESULT:      -5.1     15.118     15.830
REMARK  3 active torsions:
REMARK  status: ('A' for Active; 'I' for Inactive)
REMARK    1  A    between atoms: S_2  and  N_5 
REMARK    2  A    between atoms: C_8  and  N_11 
REMARK       I    between atoms: N_11  and  C_12 
REMARK       I    between atoms: C_12  and  N_14 
REMARK    3  A    between atoms: N_14  and  C_15 
ROOT
HETATM    1  N   UNL     1     -51.112 -51.416  -0.853  1.00  0.00    -0.338 N 
HETATM    2  C   UNL     1     -50.712 -50.449   0.047  1.00  0.00     0.322 C 
HETATM    3  O   UNL     1     -49.914 -50.684   0.947  1.00  0.00    -0.247 OA
HETATM    4  N   UNL     1     -51.342 -49.250  -0.172  1.00  0.00    -0.295 N 
HETATM    5  H   UNL     1     -51.368 -51.076  -1.769  1.00  0.00     0.164 HD
HETATM    6  H   UNL     1     -52.303 -49.322  -0.470  1.00  0.00     0.172 HD
ENDROOT
BRANCH   1   7
HETATM    7  C   UNL     1     -50.584 -52.772  -0.714  1.00  0.00     0.089 C 
HETATM    8  C   UNL     1     -49.255 -52.947  -1.456  1.00  0.00     0.045 C 
HETATM    9  C   UNL     1     -49.455 -53.138  -2.950  1.00  0.00     0.137 C 
HETATM   10  N   UNL     1     -50.398 -54.244  -3.244  1.00  0.00    -0.311 N 
HETATM   11  C   UNL     1     -51.728 -54.011  -2.620  1.00  0.00     0.137 C 
HETATM   12  C   UNL     1     -51.617 -53.829  -1.113  1.00  0.00     0.045 C 
BRANCH  10  13
HETATM   13  S   UNL     1     -49.817 -55.845  -3.185  1.00  0.00     0.224 S 
HETATM   14  C   UNL     1     -48.839 -55.952  -4.669  1.00  0.00     0.186 C 
HETATM   15  O   UNL     1     -50.954 -56.727  -3.348  1.00  0.00    -0.206 OA
HETATM   16  O   UNL     1     -48.940 -55.972  -2.044  1.00  0.00    -0.206 OA
ENDBRANCH  10  13
ENDBRANCH   1   7
BRANCH   4  17
HETATM   17  C   UNL     1     -51.152 -48.179   0.711  1.00  0.00     0.108 A 
HETATM   18  C   UNL     1     -52.226 -47.528   1.311  1.00  0.00     0.049 A 
HETATM   19  C   UNL     1     -51.979 -46.380   2.056  1.00  0.00     0.005 A 
HETATM   20  C   UNL     1     -50.675 -45.924   2.176  1.00  0.00     0.017 A 
HETATM   21  C   UNL     1     -49.664 -46.669   1.591  1.00  0.00     0.089 A 
HETATM   22  N   UNL     1     -49.870 -47.808   0.889  1.00  0.00    -0.352 N 
ATOM     23  HN  UNL     1     -49.095 -48.355   0.515  1.00  0.00     0.166 HD
ENDBRANCH   4  17
TORSDOF 3
ENDMDL
