MODEL 1
REMARK VINA RESULT:      -7.0      0.000      0.000
REMARK  7 active torsions:
REMARK  status: ('A' for Active; 'I' for Inactive)
REMARK    1  A    between atoms: C_2  and  C_4 
REMARK    2  A    between atoms: C_7  and  O_8 
REMARK    3  A    between atoms: O_8  and  C_9 
REMARK    4  A    between atoms: C_9  and  C_10 
REMARK    5  A    between atoms: C_10  and  O_11 
REMARK    6  A    between atoms: C_10  and  C_12 
REMARK    7  A    between atoms: C_12  and  N_13 
ROOT
HETATM    1  C   UNL     1     -40.092 -49.458  11.632  1.00  0.00     0.160 C 
ENDROOT
BRANCH   1   2
HETATM    2  C   UNL     1     -39.748 -50.562  12.645  1.00  0.00     0.209 C 
BRANCH   2   3
HETATM    3  O   UNL     1     -39.982 -51.824  12.005  1.00  0.00    -0.349 OA
BRANCH   3   4
HETATM    4  C   UNL     1     -41.016 -52.578  12.479  1.00  0.00     0.068 A 
HETATM    5  C   UNL     1     -40.656 -53.548  13.418  1.00  0.00     0.037 A 
HETATM    6  C   UNL     1     -41.628 -54.353  14.016  1.00  0.00     0.018 A 
HETATM    7  C   UNL     1     -42.979 -54.166  13.704  1.00  0.00     0.009 A 
HETATM    8  C   UNL     1     -43.341 -53.200  12.759  1.00  0.00     0.018 A 
HETATM    9  C   UNL     1     -42.359 -52.410  12.145  1.00  0.00     0.037 A 
BRANCH   7  10
HETATM   10  C   UNL     1     -43.992 -54.996  14.410  1.00  0.00     0.155 C 
HETATM   11  C   UNL     1     -45.399 -55.015  13.872  1.00  0.00     0.096 C 
HETATM   12  O   UNL     1     -43.678 -55.610  15.426  1.00  0.00    -0.293 OA
ENDBRANCH   7  10
ENDBRANCH   3   4
ENDBRANCH   2   3
ENDBRANCH   1   2
BRANCH   1  13
HETATM   13  O   UNL     1     -40.335 -50.079  10.361  1.00  0.00    -0.392 OA
HETATM   14  H   UNL     1     -41.115 -49.644   9.967  1.00  0.00     0.210 HD
ENDBRANCH   1  13
BRANCH   1  15
HETATM   15  C   UNL     1     -41.324 -48.659  12.073  1.00  0.00     0.164 C 
BRANCH  15  16
HETATM   16  N   UNL     1     -41.628 -47.554  11.184  1.00  0.00    -0.339 N 
HETATM   17  C   UNL     1     -40.736 -46.585  10.809  1.00  0.00     0.184 A 
HETATM   18  N   UNL     1     -41.261 -45.745   9.948  1.00  0.00    -0.350 N 
HETATM   19  C   UNL     1     -42.550 -46.181   9.765  1.00  0.00     0.060 A 
ATOM     20  HN  UNL     1     -40.810 -44.941   9.511  1.00  0.00     0.166 HD
HETATM   21  C   UNL     1     -43.560 -45.648   8.950  1.00  0.00     0.032 A 
HETATM   22  C   UNL     1     -42.812 -47.319  10.526  1.00  0.00     0.062 A 
HETATM   23  C   UNL     1     -44.808 -46.280   8.924  1.00  0.00     0.002 A 
HETATM   24  C   UNL     1     -45.048 -47.421   9.694  1.00  0.00     0.002 A 
HETATM   25  C   UNL     1     -44.054 -47.966  10.514  1.00  0.00     0.032 A 
ENDBRANCH  15  16
ENDBRANCH   1  15
TORSDOF 7
ENDMDL
MODEL 2
REMARK VINA RESULT:      -6.6      3.832      6.308
REMARK  7 active torsions:
REMARK  status: ('A' for Active; 'I' for Inactive)
REMARK    1  A    between atoms: C_2  and  C_4 
REMARK    2  A    between atoms: C_7  and  O_8 
REMARK    3  A    between atoms: O_8  and  C_9 
REMARK    4  A    between atoms: C_9  and  C_10 
REMARK    5  A    between atoms: C_10  and  O_11 
REMARK    6  A    between atoms: C_10  and  C_12 
REMARK    7  A    between atoms: C_12  and  N_13 
ROOT
HETATM    1  C   UNL     1     -41.562 -51.431  12.099  1.00  0.00     0.160 C 
ENDROOT
BRANCH   1   2
HETATM    2  C   UNL     1     -41.929 -50.232  12.989  1.00  0.00     0.209 C 
BRANCH   2   3
HETATM    3  O   UNL     1     -43.311 -49.929  12.758  1.00  0.00    -0.349 OA
BRANCH   3   4
HETATM    4  C   UNL     1     -44.216 -50.448  13.639  1.00  0.00     0.068 A 
HETATM    5  C   UNL     1     -43.868 -50.317  14.986  1.00  0.00     0.037 A 
HETATM    6  C   UNL     1     -44.732 -50.764  15.988  1.00  0.00     0.018 A 
HETATM    7  C   UNL     1     -45.973 -51.313  15.648  1.00  0.00     0.009 A 
HETATM    8  C   UNL     1     -46.319 -51.450  14.299  1.00  0.00     0.018 A 
HETATM    9  C   UNL     1     -45.439 -51.021  13.297  1.00  0.00     0.037 A 
BRANCH   7  10
HETATM   10  C   UNL     1     -46.895 -51.716  16.744  1.00  0.00     0.155 C 
HETATM   11  C   UNL     1     -48.086 -50.839  17.032  1.00  0.00     0.096 C 
HETATM   12  O   UNL     1     -46.652 -52.719  17.409  1.00  0.00    -0.293 OA
ENDBRANCH   7  10
ENDBRANCH   3   4
ENDBRANCH   2   3
ENDBRANCH   1   2
BRANCH   1  13
HETATM   13  O   UNL     1     -40.767 -50.948  11.005  1.00  0.00    -0.392 OA
HETATM   14  H   UNL     1     -41.293 -50.271  10.538  1.00  0.00     0.210 HD
ENDBRANCH   1  13
BRANCH   1  15
HETATM   15  C   UNL     1     -40.787 -52.495  12.885  1.00  0.00     0.164 C 
BRANCH  15  16
HETATM   16  N   UNL     1     -41.554 -53.058  13.981  1.00  0.00    -0.339 N 
HETATM   17  C   UNL     1     -41.186 -53.004  15.299  1.00  0.00     0.184 A 
HETATM   18  N   UNL     1     -42.096 -53.537  16.081  1.00  0.00    -0.350 N 
HETATM   19  C   UNL     1     -43.090 -53.961  15.235  1.00  0.00     0.060 A 
ATOM     20  HN  UNL     1     -42.070 -53.618  17.098  1.00  0.00     0.166 HD
HETATM   21  C   UNL     1     -44.299 -54.603  15.538  1.00  0.00     0.032 A 
HETATM   22  C   UNL     1     -42.781 -53.672  13.906  1.00  0.00     0.062 A 
HETATM   23  C   UNL     1     -45.166 -54.936  14.491  1.00  0.00     0.002 A 
HETATM   24  C   UNL     1     -44.837 -54.635  13.167  1.00  0.00     0.002 A 
HETATM   25  C   UNL     1     -43.634 -53.996  12.845  1.00  0.00     0.032 A 
ENDBRANCH  15  16
ENDBRANCH   1  15
TORSDOF 7
ENDMDL
MODEL 3
REMARK VINA RESULT:      -6.5      2.263      2.963
REMARK  7 active torsions:
REMARK  status: ('A' for Active; 'I' for Inactive)
REMARK    1  A    between atoms: C_2  and  C_4 
REMARK    2  A    between atoms: C_7  and  O_8 
REMARK    3  A    between atoms: O_8  and  C_9 
REMARK    4  A    between atoms: C_9  and  C_10 
REMARK    5  A    between atoms: C_10  and  O_11 
REMARK    6  A    between atoms: C_10  and  C_12 
REMARK    7  A    between atoms: C_12  and  N_13 
ROOT
HETATM    1  C   UNL     1     -37.776 -50.842  13.001  1.00  0.00     0.160 C 
ENDROOT
BRANCH   1   2
HETATM    2  C   UNL     1     -38.718 -51.675  13.886  1.00  0.00     0.209 C 
BRANCH   2   3
HETATM    3  O   UNL     1     -39.187 -52.778  13.100  1.00  0.00    -0.349 OA
BRANCH   3   4
HETATM    4  C   UNL     1     -40.511 -53.094  13.202  1.00  0.00     0.068 A 
HETATM    5  C   UNL     1     -41.361 -52.340  12.389  1.00  0.00     0.037 A 
HETATM    6  C   UNL     1     -42.734 -52.598  12.365  1.00  0.00     0.018 A 
HETATM    7  C   UNL     1     -43.262 -53.644  13.129  1.00  0.00     0.009 A 
HETATM    8  C   UNL     1     -42.413 -54.396  13.948  1.00  0.00     0.018 A 
HETATM    9  C   UNL     1     -41.040 -54.118  13.987  1.00  0.00     0.037 A 
BRANCH   7  10
HETATM   10  C   UNL     1     -44.718 -53.933  13.026  1.00  0.00     0.155 C 
HETATM   11  C   UNL     1     -45.272 -55.091  13.814  1.00  0.00     0.096 C 
HETATM   12  O   UNL     1     -45.424 -53.257  12.282  1.00  0.00    -0.293 OA
ENDBRANCH   7  10
ENDBRANCH   3   4
ENDBRANCH   2   3
ENDBRANCH   1   2
BRANCH   1  13
HETATM   13  O   UNL     1     -36.844 -51.738  12.376  1.00  0.00    -0.392 OA
HETATM   14  H   UNL     1     -36.961 -51.655  11.410  1.00  0.00     0.210 HD
ENDBRANCH   1  13
BRANCH   1  15
HETATM   15  C   UNL     1     -38.554 -50.062  11.935  1.00  0.00     0.164 C 
BRANCH  15  16
HETATM   16  N   UNL     1     -39.248 -48.907  12.475  1.00  0.00    -0.339 N 
HETATM   17  C   UNL     1     -38.740 -48.067  13.429  1.00  0.00     0.184 A 
HETATM   18  N   UNL     1     -39.555 -47.071  13.685  1.00  0.00    -0.350 N 
HETATM   19  C   UNL     1     -40.640 -47.279  12.871  1.00  0.00     0.060 A 
ATOM     20  HN  UNL     1     -39.413 -46.307  14.347  1.00  0.00     0.166 HD
HETATM   21  C   UNL     1     -41.811 -46.517  12.741  1.00  0.00     0.032 A 
HETATM   22  C   UNL     1     -40.477 -48.426  12.094  1.00  0.00     0.062 A 
HETATM   23  C   UNL     1     -42.786 -46.933  11.827  1.00  0.00     0.002 A 
HETATM   24  C   UNL     1     -42.601 -48.084  11.057  1.00  0.00     0.002 A 
HETATM   25  C   UNL     1     -41.441 -48.858  11.175  1.00  0.00     0.032 A 
ENDBRANCH  15  16
ENDBRANCH   1  15
TORSDOF 7
ENDMDL
MODEL 4
REMARK VINA RESULT:      -6.5      3.056      7.161
REMARK  7 active torsions:
REMARK  status: ('A' for Active; 'I' for Inactive)
REMARK    1  A    between atoms: C_2  and  C_4 
REMARK    2  A    between atoms: C_7  and  O_8 
REMARK    3  A    between atoms: O_8  and  C_9 
REMARK    4  A    between atoms: C_9  and  C_10 
REMARK    5  A    between atoms: C_10  and  O_11 
REMARK    6  A    between atoms: C_10  and  C_12 
REMARK    7  A    between atoms: C_12  and  N_13 
ROOT
HETATM    1  C   UNL     1     -41.446 -52.442  12.096  1.00  0.00     0.160 C 
ENDROOT
BRANCH   1   2
HETATM    2  C   UNL     1     -40.542 -51.259  12.484  1.00  0.00     0.209 C 
BRANCH   2   3
HETATM    3  O   UNL     1     -41.384 -50.230  13.020  1.00  0.00    -0.349 OA
BRANCH   3   4
HETATM    4  C   UNL     1     -41.673 -49.176  12.202  1.00  0.00     0.068 A 
HETATM    5  C   UNL     1     -43.026 -48.830  12.145  1.00  0.00     0.037 A 
HETATM    6  C   UNL     1     -43.448 -47.738  11.383  1.00  0.00     0.018 A 
HETATM    7  C   UNL     1     -42.509 -46.959  10.699  1.00  0.00     0.009 A 
HETATM    8  C   UNL     1     -41.155 -47.308  10.750  1.00  0.00     0.018 A 
HETATM    9  C   UNL     1     -40.740 -48.417  11.498  1.00  0.00     0.037 A 
BRANCH   7  10
HETATM   10  C   UNL     1     -42.988 -45.764   9.952  1.00  0.00     0.155 C 
HETATM   11  C   UNL     1     -44.078 -45.952   8.930  1.00  0.00     0.096 C 
HETATM   12  O   UNL     1     -42.467 -44.670  10.151  1.00  0.00    -0.293 OA
ENDBRANCH   7  10
ENDBRANCH   3   4
ENDBRANCH   2   3
ENDBRANCH   1   2
BRANCH   1  13
HETATM   13  O   UNL     1     -40.661 -53.369  11.329  1.00  0.00    -0.392 OA
HETATM   14  H   UNL     1     -40.777 -53.141  10.387  1.00  0.00     0.210 HD
ENDBRANCH   1  13
BRANCH   1  15
HETATM   15  C   UNL     1     -42.021 -53.136  13.336  1.00  0.00     0.164 C 
BRANCH  15  16
HETATM   16  N   UNL     1     -43.472 -53.120  13.370  1.00  0.00    -0.339 N 
HETATM   17  C   UNL     1     -44.279 -53.928  12.615  1.00  0.00     0.184 A 
HETATM   18  N   UNL     1     -45.549 -53.745  12.893  1.00  0.00    -0.350 N 
HETATM   19  C   UNL     1     -45.565 -52.771  13.860  1.00  0.00     0.060 A 
ATOM     20  HN  UNL     1     -46.350 -54.223  12.479  1.00  0.00     0.166 HD
HETATM   21  C   UNL     1     -46.662 -52.190  14.516  1.00  0.00     0.032 A 
HETATM   22  C   UNL     1     -44.274 -52.358  14.185  1.00  0.00     0.062 A 
HETATM   23  C   UNL     1     -46.424 -51.207  15.483  1.00  0.00     0.002 A 
HETATM   24  C   UNL     1     -45.120 -50.810  15.794  1.00  0.00     0.002 A 
HETATM   25  C   UNL     1     -44.015 -51.377  15.149  1.00  0.00     0.032 A 
ENDBRANCH  15  16
ENDBRANCH   1  15
TORSDOF 7
ENDMDL
MODEL 5
REMARK VINA RESULT:      -6.5      2.952      6.641
REMARK  7 active torsions:
REMARK  status: ('A' for Active; 'I' for Inactive)
REMARK    1  A    between atoms: C_2  and  C_4 
REMARK    2  A    between atoms: C_7  and  O_8 
REMARK    3  A    between atoms: O_8  and  C_9 
REMARK    4  A    between atoms: C_9  and  C_10 
REMARK    5  A    between atoms: C_10  and  O_11 
REMARK    6  A    between atoms: C_10  and  C_12 
REMARK    7  A    between atoms: C_12  and  N_13 
ROOT
HETATM    1  C   UNL     1     -41.353 -52.740  12.400  1.00  0.00     0.160 C 
ENDROOT
BRANCH   1   2
HETATM    2  C   UNL     1     -40.342 -51.808  13.087  1.00  0.00     0.209 C 
BRANCH   2   3
HETATM    3  O   UNL     1     -41.052 -50.637  13.511  1.00  0.00    -0.349 OA
BRANCH   3   4
HETATM    4  C   UNL     1     -41.507 -49.799  12.535  1.00  0.00     0.068 A 
HETATM    5  C   UNL     1     -42.823 -49.359  12.703  1.00  0.00     0.037 A 
HETATM    6  C   UNL     1     -43.392 -48.459  11.799  1.00  0.00     0.018 A 
HETATM    7  C   UNL     1     -42.631 -47.961  10.736  1.00  0.00     0.009 A 
HETATM    8  C   UNL     1     -41.315 -48.406  10.563  1.00  0.00     0.018 A 
HETATM    9  C   UNL     1     -40.757 -49.326  11.459  1.00  0.00     0.037 A 
BRANCH   7  10
HETATM   10  C   UNL     1     -43.248 -46.953   9.832  1.00  0.00     0.155 C 
HETATM   11  C   UNL     1     -44.025 -47.446   8.640  1.00  0.00     0.096 C 
HETATM   12  O   UNL     1     -43.082 -45.756  10.050  1.00  0.00    -0.293 OA
ENDBRANCH   7  10
ENDBRANCH   3   4
ENDBRANCH   2   3
ENDBRANCH   1   2
BRANCH   1  13
HETATM   13  O   UNL     1     -40.662 -53.470  11.374  1.00  0.00    -0.392 OA
HETATM   14  H   UNL     1     -40.663 -52.917  10.570  1.00  0.00     0.210 HD
ENDBRANCH   1  13
BRANCH   1  15
HETATM   15  C   UNL     1     -41.989 -53.711  13.401  1.00  0.00     0.164 C 
BRANCH  15  16
HETATM   16  N   UNL     1     -42.975 -53.076  14.256  1.00  0.00    -0.339 N 
HETATM   17  C   UNL     1     -42.793 -52.801  15.585  1.00  0.00     0.184 A 
HETATM   18  N   UNL     1     -43.822 -52.166  16.096  1.00  0.00    -0.350 N 
HETATM   19  C   UNL     1     -44.711 -52.033  15.059  1.00  0.00     0.060 A 
ATOM     20  HN  UNL     1     -43.937 -51.843  17.057  1.00  0.00     0.166 HD
HETATM   21  C   UNL     1     -45.979 -51.433  15.048  1.00  0.00     0.032 A 
HETATM   22  C   UNL     1     -44.206 -52.592  13.886  1.00  0.00     0.062 A 
HETATM   23  C   UNL     1     -46.705 -51.414  13.852  1.00  0.00     0.002 A 
HETATM   24  C   UNL     1     -46.178 -51.979  12.687  1.00  0.00     0.002 A 
HETATM   25  C   UNL     1     -44.916 -52.583  12.679  1.00  0.00     0.032 A 
ENDBRANCH  15  16
ENDBRANCH   1  15
TORSDOF 7
ENDMDL
MODEL 6
REMARK VINA RESULT:      -6.4      3.109      3.816
REMARK  7 active torsions:
REMARK  status: ('A' for Active; 'I' for Inactive)
REMARK    1  A    between atoms: C_2  and  C_4 
REMARK    2  A    between atoms: C_7  and  O_8 
REMARK    3  A    between atoms: O_8  and  C_9 
REMARK    4  A    between atoms: C_9  and  C_10 
REMARK    5  A    between atoms: C_10  and  O_11 
REMARK    6  A    between atoms: C_10  and  C_12 
REMARK    7  A    between atoms: C_12  and  N_13 
ROOT
HETATM    1  C   UNL     1     -38.008 -50.545  13.107  1.00  0.00     0.160 C 
ENDROOT
BRANCH   1   2
HETATM    2  C   UNL     1     -38.403 -51.628  14.124  1.00  0.00     0.209 C 
BRANCH   2   3
HETATM    3  O   UNL     1     -38.853 -52.771  13.386  1.00  0.00    -0.349 OA
BRANCH   3   4
HETATM    4  C   UNL     1     -40.087 -53.265  13.696  1.00  0.00     0.068 A 
HETATM    5  C   UNL     1     -40.389 -53.282  15.060  1.00  0.00     0.037 A 
HETATM    6  C   UNL     1     -41.638 -53.718  15.506  1.00  0.00     0.018 A 
HETATM    7  C   UNL     1     -42.614 -54.106  14.582  1.00  0.00     0.009 A 
HETATM    8  C   UNL     1     -42.311 -54.096  13.216  1.00  0.00     0.018 A 
HETATM    9  C   UNL     1     -41.049 -53.679  12.775  1.00  0.00     0.037 A 
BRANCH   7  10
HETATM   10  C   UNL     1     -43.956 -54.501  15.089  1.00  0.00     0.155 C 
HETATM   11  C   UNL     1     -44.444 -53.879  16.371  1.00  0.00     0.096 C 
HETATM   12  O   UNL     1     -44.615 -55.342  14.483  1.00  0.00    -0.293 OA
ENDBRANCH   7  10
ENDBRANCH   3   4
ENDBRANCH   2   3
ENDBRANCH   1   2
BRANCH   1  13
HETATM   13  O   UNL     1     -38.033 -51.133  11.798  1.00  0.00    -0.392 OA
HETATM   14  H   UNL     1     -38.121 -52.098  11.912  1.00  0.00     0.210 HD
ENDBRANCH   1  13
BRANCH   1  15
HETATM   15  C   UNL     1     -38.963 -49.347  13.166  1.00  0.00     0.164 C 
BRANCH  15  16
HETATM   16  N   UNL     1     -40.339 -49.708  12.881  1.00  0.00    -0.339 N 
HETATM   17  C   UNL     1     -40.833 -49.977  11.633  1.00  0.00     0.184 A 
HETATM   18  N   UNL     1     -42.095 -50.337  11.675  1.00  0.00    -0.350 N 
HETATM   19  C   UNL     1     -42.435 -50.290  13.004  1.00  0.00     0.060 A 
ATOM     20  HN  UNL     1     -42.693 -50.595  10.890  1.00  0.00     0.166 HD
HETATM   21  C   UNL     1     -43.665 -50.576  13.616  1.00  0.00     0.032 A 
HETATM   22  C   UNL     1     -41.352 -49.900  13.791  1.00  0.00     0.062 A 
HETATM   23  C   UNL     1     -43.768 -50.461  15.007  1.00  0.00     0.002 A 
HETATM   24  C   UNL     1     -42.668 -50.071  15.776  1.00  0.00     0.002 A 
HETATM   25  C   UNL     1     -41.434 -49.780  15.183  1.00  0.00     0.032 A 
ENDBRANCH  15  16
ENDBRANCH   1  15
TORSDOF 7
ENDMDL
MODEL 7
REMARK VINA RESULT:      -6.3      3.767      6.073
REMARK  7 active torsions:
REMARK  status: ('A' for Active; 'I' for Inactive)
REMARK    1  A    between atoms: C_2  and  C_4 
REMARK    2  A    between atoms: C_7  and  O_8 
REMARK    3  A    between atoms: O_8  and  C_9 
REMARK    4  A    between atoms: C_9  and  C_10 
REMARK    5  A    between atoms: C_10  and  O_11 
REMARK    6  A    between atoms: C_10  and  C_12 
REMARK    7  A    between atoms: C_12  and  N_13 
ROOT
HETATM    1  C   UNL     1     -45.883 -54.344  14.613  1.00  0.00     0.160 C 
ENDROOT
BRANCH   1   2
HETATM    2  C   UNL     1     -45.650 -53.965  16.085  1.00  0.00     0.209 C 
BRANCH   2   3
HETATM    3  O   UNL     1     -44.471 -54.649  16.526  1.00  0.00    -0.349 OA
BRANCH   3   4
HETATM    4  C   UNL     1     -43.281 -54.241  15.996  1.00  0.00     0.068 A 
HETATM    5  C   UNL     1     -42.781 -53.046  16.521  1.00  0.00     0.037 A 
HETATM    6  C   UNL     1     -41.548 -52.546  16.098  1.00  0.00     0.018 A 
HETATM    7  C   UNL     1     -40.785 -53.260  15.169  1.00  0.00     0.009 A 
HETATM    8  C   UNL     1     -41.287 -54.453  14.637  1.00  0.00     0.018 A 
HETATM    9  C   UNL     1     -42.534 -54.940  15.048  1.00  0.00     0.037 A 
BRANCH   7  10
HETATM   10  C   UNL     1     -39.446 -52.731  14.792  1.00  0.00     0.155 C 
HETATM   11  C   UNL     1     -38.760 -51.786  15.743  1.00  0.00     0.096 C 
HETATM   12  O   UNL     1     -38.950 -53.038  13.712  1.00  0.00    -0.293 OA
ENDBRANCH   7  10
ENDBRANCH   3   4
ENDBRANCH   2   3
ENDBRANCH   1   2
BRANCH   1  13
HETATM   13  O   UNL     1     -47.100 -55.102  14.535  1.00  0.00    -0.392 OA
HETATM   14  H   UNL     1     -46.944 -55.954  14.985  1.00  0.00     0.210 HD
ENDBRANCH   1  13
BRANCH   1  15
HETATM   15  C   UNL     1     -45.980 -53.099  13.723  1.00  0.00     0.164 C 
BRANCH  15  16
HETATM   16  N   UNL     1     -44.698 -52.697  13.174  1.00  0.00    -0.339 N 
HETATM   17  C   UNL     1     -44.020 -53.375  12.198  1.00  0.00     0.184 A 
HETATM   18  N   UNL     1     -42.918 -52.753  11.847  1.00  0.00    -0.350 N 
HETATM   19  C   UNL     1     -42.876 -51.630  12.635  1.00  0.00     0.060 A 
ATOM     20  HN  UNL     1     -42.240 -53.042  11.142  1.00  0.00     0.166 HD
HETATM   21  C   UNL     1     -41.912 -50.612  12.678  1.00  0.00     0.032 A 
HETATM   22  C   UNL     1     -43.983 -51.563  13.480  1.00  0.00     0.062 A 
HETATM   23  C   UNL     1     -42.093 -49.551  13.574  1.00  0.00     0.002 A 
HETATM   24  C   UNL     1     -43.212 -49.504  14.410  1.00  0.00     0.002 A 
HETATM   25  C   UNL     1     -44.182 -50.511  14.382  1.00  0.00     0.032 A 
ENDBRANCH  15  16
ENDBRANCH   1  15
TORSDOF 7
ENDMDL
MODEL 8
REMARK VINA RESULT:      -6.3      1.708      2.882
REMARK  7 active torsions:
REMARK  status: ('A' for Active; 'I' for Inactive)
REMARK    1  A    between atoms: C_2  and  C_4 
REMARK    2  A    between atoms: C_7  and  O_8 
REMARK    3  A    between atoms: O_8  and  C_9 
REMARK    4  A    between atoms: C_9  and  C_10 
REMARK    5  A    between atoms: C_10  and  O_11 
REMARK    6  A    between atoms: C_10  and  C_12 
REMARK    7  A    between atoms: C_12  and  N_13 
ROOT
HETATM    1  C   UNL     1     -39.201 -49.620  12.306  1.00  0.00     0.160 C 
ENDROOT
BRANCH   1   2
HETATM    2  C   UNL     1     -39.152 -50.907  13.145  1.00  0.00     0.209 C 
BRANCH   2   3
HETATM    3  O   UNL     1     -39.570 -51.989  12.303  1.00  0.00    -0.349 OA
BRANCH   3   4
HETATM    4  C   UNL     1     -40.681 -52.682  12.688  1.00  0.00     0.068 A 
HETATM    5  C   UNL     1     -40.466 -53.627  13.695  1.00  0.00     0.037 A 
HETATM    6  C   UNL     1     -41.531 -54.369  14.212  1.00  0.00     0.018 A 
HETATM    7  C   UNL     1     -42.831 -54.141  13.750  1.00  0.00     0.009 A 
HETATM    8  C   UNL     1     -43.047 -53.200  12.737  1.00  0.00     0.018 A 
HETATM    9  C   UNL     1     -41.973 -52.475  12.206  1.00  0.00     0.037 A 
BRANCH   7  10
HETATM   10  C   UNL     1     -43.949 -54.902  14.371  1.00  0.00     0.155 C 
HETATM   11  C   UNL     1     -45.360 -54.516  14.011  1.00  0.00     0.096 C 
HETATM   12  O   UNL     1     -43.706 -55.790  15.183  1.00  0.00    -0.293 OA
ENDBRANCH   7  10
ENDBRANCH   3   4
ENDBRANCH   2   3
ENDBRANCH   1   2
BRANCH   1  13
HETATM   13  O   UNL     1     -38.949 -49.971  10.936  1.00  0.00    -0.392 OA
HETATM   14  H   UNL     1     -39.635 -49.538  10.393  1.00  0.00     0.210 HD
ENDBRANCH   1  13
BRANCH   1  15
HETATM   15  C   UNL     1     -40.561 -48.923  12.430  1.00  0.00     0.164 C 
BRANCH  15  16
HETATM   16  N   UNL     1     -40.591 -47.624  11.785  1.00  0.00    -0.339 N 
HETATM   17  C   UNL     1     -41.214 -47.357  10.596  1.00  0.00     0.184 A 
HETATM   18  N   UNL     1     -41.137 -46.086  10.278  1.00  0.00    -0.350 N 
HETATM   19  C   UNL     1     -40.425 -45.507  11.299  1.00  0.00     0.060 A 
ATOM     20  HN  UNL     1     -41.521 -45.628   9.452  1.00  0.00     0.166 HD
HETATM   21  C   UNL     1     -40.048 -44.166  11.468  1.00  0.00     0.032 A 
HETATM   22  C   UNL     1     -40.069 -46.447  12.265  1.00  0.00     0.062 A 
HETATM   23  C   UNL     1     -39.321 -43.810  12.610  1.00  0.00     0.002 A 
HETATM   24  C   UNL     1     -38.977 -44.769  13.567  1.00  0.00     0.002 A 
HETATM   25  C   UNL     1     -39.343 -46.111  13.414  1.00  0.00     0.032 A 
ENDBRANCH  15  16
ENDBRANCH   1  15
TORSDOF 7
ENDMDL
MODEL 9
REMARK VINA RESULT:      -6.2      3.546      5.393
REMARK  7 active torsions:
REMARK  status: ('A' for Active; 'I' for Inactive)
REMARK    1  A    between atoms: C_2  and  C_4 
REMARK    2  A    between atoms: C_7  and  O_8 
REMARK    3  A    between atoms: O_8  and  C_9 
REMARK    4  A    between atoms: C_9  and  C_10 
REMARK    5  A    between atoms: C_10  and  O_11 
REMARK    6  A    between atoms: C_10  and  C_12 
REMARK    7  A    between atoms: C_12  and  N_13 
ROOT
HETATM    1  C   UNL     1     -41.053 -48.517  13.621  1.00  0.00     0.160 C 
ENDROOT
BRANCH   1   2
HETATM    2  C   UNL     1     -41.959 -48.738  14.843  1.00  0.00     0.209 C 
BRANCH   2   3
HETATM    3  O   UNL     1     -43.293 -48.946  14.360  1.00  0.00    -0.349 OA
BRANCH   3   4
HETATM    4  C   UNL     1     -43.768 -50.225  14.378  1.00  0.00     0.068 A 
HETATM    5  C   UNL     1     -43.781 -50.831  15.637  1.00  0.00     0.037 A 
HETATM    6  C   UNL     1     -44.289 -52.122  15.798  1.00  0.00     0.018 A 
HETATM    7  C   UNL     1     -44.825 -52.805  14.702  1.00  0.00     0.009 A 
HETATM    8  C   UNL     1     -44.807 -52.202  13.439  1.00  0.00     0.018 A 
HETATM    9  C   UNL     1     -44.276 -50.915  13.278  1.00  0.00     0.037 A 
BRANCH   7  10
HETATM   10  C   UNL     1     -45.418 -54.151  14.924  1.00  0.00     0.155 C 
HETATM   11  C   UNL     1     -45.403 -55.134  13.783  1.00  0.00     0.096 C 
HETATM   12  O   UNL     1     -45.937 -54.419  16.004  1.00  0.00    -0.293 OA
ENDBRANCH   7  10
ENDBRANCH   3   4
ENDBRANCH   2   3
ENDBRANCH   1   2
BRANCH   1  13
HETATM   13  O   UNL     1     -40.413 -47.239  13.767  1.00  0.00    -0.392 OA
HETATM   14  H   UNL     1     -41.096 -46.600  14.046  1.00  0.00     0.210 HD
ENDBRANCH   1  13
BRANCH   1  15
HETATM   15  C   UNL     1     -40.000 -49.624  13.497  1.00  0.00     0.164 C 
BRANCH  15  16
HETATM   16  N   UNL     1     -40.545 -50.867  12.987  1.00  0.00    -0.339 N 
HETATM   17  C   UNL     1     -40.860 -51.101  11.675  1.00  0.00     0.184 A 
HETATM   18  N   UNL     1     -41.275 -52.332  11.485  1.00  0.00    -0.350 N 
HETATM   19  C   UNL     1     -41.236 -52.917  12.726  1.00  0.00     0.060 A 
ATOM     20  HN  UNL     1     -41.565 -52.760  10.606  1.00  0.00     0.166 HD
HETATM   21  C   UNL     1     -41.578 -54.225  13.101  1.00  0.00     0.032 A 
HETATM   22  C   UNL     1     -40.778 -52.023  13.693  1.00  0.00     0.062 A 
HETATM   23  C   UNL     1     -41.447 -54.596  14.445  1.00  0.00     0.002 A 
HETATM   24  C   UNL     1     -40.984 -53.683  15.397  1.00  0.00     0.002 A 
HETATM   25  C   UNL     1     -40.640 -52.375  15.041  1.00  0.00     0.032 A 
ENDBRANCH  15  16
ENDBRANCH   1  15
TORSDOF 7
ENDMDL
