MODEL 1
REMARK VINA RESULT:      -6.0      0.000      0.000
REMARK  3 active torsions:
REMARK  status: ('A' for Active; 'I' for Inactive)
REMARK    1  A    between atoms: C_8  and  C_9 
REMARK    2  A    between atoms: C_9  and  C_10 
REMARK       I    between atoms: C_10  and  N_12 
REMARK    3  A    between atoms: N_12  and  C_13 
ROOT
HETATM    1  C   UNL     1     -41.944 -48.713  11.678  1.00  0.00     0.222 C 
HETATM    2  O   UNL     1     -41.468 -47.996  12.553  1.00  0.00    -0.273 OA
HETATM    3  N   UNL     1     -42.441 -49.983  11.927  1.00  0.00    -0.356 N 
HETATM    4  H   UNL     1     -43.177 -50.285  11.295  1.00  0.00     0.162 HD
ENDROOT
BRANCH   1   5
HETATM    5  C   UNL     1     -41.974 -48.293  10.222  1.00  0.00     0.146 C 
BRANCH   5   6
HETATM    6  C   UNL     1     -42.621 -46.979   9.952  1.00  0.00     0.006 A 
HETATM    7  C   UNL     1     -43.956 -46.652   9.567  1.00  0.00     0.038 A 
HETATM    8  C   UNL     1     -45.114 -47.540   9.298  1.00  0.00     0.071 C 
HETATM    9  N   UNL     1     -44.120 -45.328   9.460  1.00  0.00    -0.265 N 
HETATM   10  O   UNL     1     -42.916 -44.763   9.809  1.00  0.00    -0.242 OA
ATOM     11  HN  UNL     1     -44.968 -44.837   9.177  1.00  0.00     0.194 HD
HETATM   12  C   UNL     1     -42.027 -45.741  10.110  1.00  0.00     0.081 A 
HETATM   13  C   UNL     1     -40.690 -45.291  10.545  1.00  0.00     0.079 C 
ENDBRANCH   5   6
ENDBRANCH   1   5
BRANCH   3  14
HETATM   14  C   UNL     1     -42.403 -50.569  13.269  1.00  0.00     0.086 C 
HETATM   15  C   UNL     1     -42.075 -52.076  13.237  1.00  0.00     0.040 C 
HETATM   16  C   UNL     1     -43.079 -52.872  12.420  1.00  0.00     0.142 C 
HETATM   17  S   UNL     1     -44.712 -52.747  13.110  1.00  0.00     0.144 S 
HETATM   18  O   UNL     1     -45.659 -53.181  12.099  1.00  0.00    -0.228 OA
HETATM   19  O   UNL     1     -44.694 -53.361  14.424  1.00  0.00    -0.228 OA
HETATM   20  C   UNL     1     -44.929 -50.996  13.333  1.00  0.00     0.142 C 
HETATM   21  C   UNL     1     -43.731 -50.337  14.008  1.00  0.00     0.040 C 
ENDBRANCH   3  14
TORSDOF 3
ENDMDL
MODEL 2
REMARK VINA RESULT:      -5.9      4.906      6.996
REMARK  3 active torsions:
REMARK  status: ('A' for Active; 'I' for Inactive)
REMARK    1  A    between atoms: C_8  and  C_9 
REMARK    2  A    between atoms: C_9  and  C_10 
REMARK       I    between atoms: C_10  and  N_12 
REMARK    3  A    between atoms: N_12  and  C_13 
ROOT
HETATM    1  C   UNL     1     -44.138 -54.813  14.338  1.00  0.00     0.222 C 
HETATM    2  O   UNL     1     -43.824 -55.766  15.045  1.00  0.00    -0.273 OA
HETATM    3  N   UNL     1     -43.224 -53.879  13.876  1.00  0.00    -0.356 N 
HETATM    4  H   UNL     1     -43.470 -53.441  12.994  1.00  0.00     0.162 HD
ENDROOT
BRANCH   1   5
HETATM    5  C   UNL     1     -45.578 -54.537  13.954  1.00  0.00     0.146 C 
BRANCH   5   6
HETATM    6  C   UNL     1     -46.135 -53.251  14.457  1.00  0.00     0.006 A 
HETATM    7  C   UNL     1     -46.311 -52.760  15.786  1.00  0.00     0.038 A 
HETATM    8  C   UNL     1     -46.004 -53.404  17.087  1.00  0.00     0.071 C 
HETATM    9  N   UNL     1     -46.826 -51.525  15.784  1.00  0.00    -0.265 N 
HETATM   10  O   UNL     1     -46.961 -51.168  14.462  1.00  0.00    -0.242 OA
ATOM     11  HN  UNL     1     -47.071 -50.962  16.598  1.00  0.00     0.194 HD
HETATM   12  C   UNL     1     -46.542 -52.188  13.673  1.00  0.00     0.081 A 
HETATM   13  C   UNL     1     -46.587 -51.942  12.218  1.00  0.00     0.079 C 
ENDBRANCH   5   6
ENDBRANCH   1   5
BRANCH   3  14
HETATM   14  C   UNL     1     -41.805 -53.958  14.233  1.00  0.00     0.086 C 
HETATM   15  C   UNL     1     -41.315 -52.686  14.955  1.00  0.00     0.040 C 
HETATM   16  C   UNL     1     -41.507 -51.432  14.117  1.00  0.00     0.142 C 
HETATM   17  S   UNL     1     -40.574 -51.520  12.606  1.00  0.00     0.144 S 
HETATM   18  O   UNL     1     -41.094 -50.512  11.700  1.00  0.00    -0.228 OA
HETATM   19  O   UNL     1     -39.166 -51.558  12.948  1.00  0.00    -0.228 OA
HETATM   20  C   UNL     1     -41.014 -53.113  11.947  1.00  0.00     0.142 C 
HETATM   21  C   UNL     1     -40.939 -54.221  12.990  1.00  0.00     0.040 C 
ENDBRANCH   3  14
TORSDOF 3
ENDMDL
MODEL 3
REMARK VINA RESULT:      -5.8      3.586      5.034
REMARK  3 active torsions:
REMARK  status: ('A' for Active; 'I' for Inactive)
REMARK    1  A    between atoms: C_8  and  C_9 
REMARK    2  A    between atoms: C_9  and  C_10 
REMARK       I    between atoms: C_10  and  N_12 
REMARK    3  A    between atoms: N_12  and  C_13 
ROOT
HETATM    1  C   UNL     1     -40.653 -52.925  13.675  1.00  0.00     0.222 C 
HETATM    2  O   UNL     1     -40.005 -53.806  13.118  1.00  0.00    -0.273 OA
HETATM    3  N   UNL     1     -41.982 -53.077  14.037  1.00  0.00    -0.356 N 
HETATM    4  H   UNL     1     -42.271 -52.527  14.841  1.00  0.00     0.162 HD
ENDROOT
BRANCH   1   5
HETATM    5  C   UNL     1     -40.067 -51.557  13.964  1.00  0.00     0.146 C 
BRANCH   5   6
HETATM    6  C   UNL     1     -39.845 -50.695  12.771  1.00  0.00     0.006 A 
HETATM    7  C   UNL     1     -38.667 -50.432  12.009  1.00  0.00     0.038 A 
HETATM    8  C   UNL     1     -37.282 -50.933  12.192  1.00  0.00     0.071 C 
HETATM    9  N   UNL     1     -38.924 -49.610  10.984  1.00  0.00    -0.265 N 
HETATM   10  O   UNL     1     -40.275 -49.351  11.030  1.00  0.00    -0.242 OA
ATOM     11  HN  UNL     1     -38.254 -49.248  10.306  1.00  0.00     0.194 HD
HETATM   12  C   UNL     1     -40.825 -50.001  12.084  1.00  0.00     0.081 A 
HETATM   13  C   UNL     1     -42.284 -49.855  12.247  1.00  0.00     0.079 C 
ENDBRANCH   5   6
ENDBRANCH   1   5
BRANCH   3  14
HETATM   14  C   UNL     1     -42.716 -54.310  13.747  1.00  0.00     0.086 C 
HETATM   15  C   UNL     1     -43.970 -54.053  12.886  1.00  0.00     0.040 C 
HETATM   16  C   UNL     1     -44.941 -53.088  13.547  1.00  0.00     0.142 C 
HETATM   17  S   UNL     1     -45.539 -53.735  15.091  1.00  0.00     0.144 S 
HETATM   18  O   UNL     1     -46.126 -52.638  15.838  1.00  0.00    -0.228 OA
HETATM   19  O   UNL     1     -46.302 -54.936  14.810  1.00  0.00    -0.228 OA
HETATM   20  C   UNL     1     -44.051 -54.224  15.933  1.00  0.00     0.142 C 
HETATM   21  C   UNL     1     -43.112 -55.033  15.045  1.00  0.00     0.040 C 
ENDBRANCH   3  14
TORSDOF 3
ENDMDL
MODEL 4
REMARK VINA RESULT:      -5.7      3.081      3.841
REMARK  3 active torsions:
REMARK  status: ('A' for Active; 'I' for Inactive)
REMARK    1  A    between atoms: C_8  and  C_9 
REMARK    2  A    between atoms: C_9  and  C_10 
REMARK       I    between atoms: C_10  and  N_12 
REMARK    3  A    between atoms: N_12  and  C_13 
ROOT
HETATM    1  C   UNL     1     -43.309 -49.512  13.530  1.00  0.00     0.222 C 
HETATM    2  O   UNL     1     -42.947 -48.890  14.524  1.00  0.00    -0.273 OA
HETATM    3  N   UNL     1     -44.217 -50.557  13.580  1.00  0.00    -0.356 N 
HETATM    4  H   UNL     1     -44.766 -50.686  12.735  1.00  0.00     0.162 HD
ENDROOT
BRANCH   1   5
HETATM    5  C   UNL     1     -42.741 -49.227  12.153  1.00  0.00     0.146 C 
BRANCH   5   6
HETATM    6  C   UNL     1     -41.327 -49.647  11.949  1.00  0.00     0.006 A 
HETATM    7  C   UNL     1     -40.737 -50.944  11.863  1.00  0.00     0.038 A 
HETATM    8  C   UNL     1     -41.362 -52.285  11.974  1.00  0.00     0.071 C 
HETATM    9  N   UNL     1     -39.419 -50.864  11.640  1.00  0.00    -0.265 N 
HETATM   10  O   UNL     1     -39.129 -49.523  11.535  1.00  0.00    -0.242 OA
ATOM     11  HN  UNL     1     -38.763 -51.641  11.563  1.00  0.00     0.194 HD
HETATM   12  C   UNL     1     -40.262 -48.799  11.709  1.00  0.00     0.081 A 
HETATM   13  C   UNL     1     -40.121 -47.335  11.585  1.00  0.00     0.079 C 
ENDBRANCH   5   6
ENDBRANCH   1   5
BRANCH   3  14
HETATM   14  C   UNL     1     -44.791 -51.011  14.849  1.00  0.00     0.086 C 
HETATM   15  C   UNL     1     -43.971 -52.154  15.482  1.00  0.00     0.040 C 
HETATM   16  C   UNL     1     -43.864 -53.366  14.570  1.00  0.00     0.142 C 
HETATM   17  S   UNL     1     -45.466 -54.054  14.223  1.00  0.00     0.144 S 
HETATM   18  O   UNL     1     -45.337 -54.927  13.071  1.00  0.00    -0.228 OA
HETATM   19  O   UNL     1     -46.025 -54.542  15.468  1.00  0.00    -0.228 OA
HETATM   20  C   UNL     1     -46.418 -52.637  13.720  1.00  0.00     0.142 C 
HETATM   21  C   UNL     1     -46.252 -51.453  14.665  1.00  0.00     0.040 C 
ENDBRANCH   3  14
TORSDOF 3
ENDMDL
MODEL 5
REMARK VINA RESULT:      -5.7      2.652      6.931
REMARK  3 active torsions:
REMARK  status: ('A' for Active; 'I' for Inactive)
REMARK    1  A    between atoms: C_8  and  C_9 
REMARK    2  A    between atoms: C_9  and  C_10 
REMARK       I    between atoms: C_10  and  N_12 
REMARK    3  A    between atoms: N_12  and  C_13 
ROOT
HETATM    1  C   UNL     1     -42.182 -50.563  12.303  1.00  0.00     0.222 C 
HETATM    2  O   UNL     1     -41.260 -51.268  11.906  1.00  0.00    -0.273 OA
HETATM    3  N   UNL     1     -42.430 -49.292  11.810  1.00  0.00    -0.356 N 
HETATM    4  H   UNL     1     -43.402 -49.000  11.852  1.00  0.00     0.162 HD
ENDROOT
BRANCH   1   5
HETATM    5  C   UNL     1     -43.103 -51.001  13.424  1.00  0.00     0.146 C 
BRANCH   5   6
HETATM    6  C   UNL     1     -43.823 -52.284  13.192  1.00  0.00     0.006 A 
HETATM    7  C   UNL     1     -43.379 -53.638  13.280  1.00  0.00     0.038 A 
HETATM    8  C   UNL     1     -42.040 -54.181  13.617  1.00  0.00     0.071 C 
HETATM    9  N   UNL     1     -44.374 -54.493  13.017  1.00  0.00    -0.265 N 
HETATM   10  O   UNL     1     -45.492 -53.723  12.792  1.00  0.00    -0.242 OA
ATOM     11  HN  UNL     1     -44.316 -55.511  12.989  1.00  0.00     0.194 HD
HETATM   12  C   UNL     1     -45.169 -52.412  12.904  1.00  0.00     0.081 A 
HETATM   13  C   UNL     1     -46.277 -51.453  12.728  1.00  0.00     0.079 C 
ENDBRANCH   5   6
ENDBRANCH   1   5
BRANCH   3  14
HETATM   14  C   UNL     1     -41.574 -48.690  10.785  1.00  0.00     0.086 C 
HETATM   15  C   UNL     1     -40.424 -47.865  11.398  1.00  0.00     0.040 C 
HETATM   16  C   UNL     1     -40.926 -46.742  12.290  1.00  0.00     0.142 C 
HETATM   17  S   UNL     1     -41.915 -45.585  11.373  1.00  0.00     0.144 S 
HETATM   18  O   UNL     1     -42.668 -44.787  12.324  1.00  0.00    -0.228 OA
HETATM   19  O   UNL     1     -41.067 -44.954  10.381  1.00  0.00    -0.228 OA
HETATM   20  C   UNL     1     -43.071 -46.628  10.512  1.00  0.00     0.142 C 
HETATM   21  C   UNL     1     -42.397 -47.811   9.828  1.00  0.00     0.040 C 
ENDBRANCH   3  14
TORSDOF 3
ENDMDL
MODEL 6
REMARK VINA RESULT:      -5.7      3.493      4.767
REMARK  3 active torsions:
REMARK  status: ('A' for Active; 'I' for Inactive)
REMARK    1  A    between atoms: C_8  and  C_9 
REMARK    2  A    between atoms: C_9  and  C_10 
REMARK       I    between atoms: C_10  and  N_12 
REMARK    3  A    between atoms: N_12  and  C_13 
ROOT
HETATM    1  C   UNL     1     -40.884 -52.730  13.510  1.00  0.00     0.222 C 
HETATM    2  O   UNL     1     -40.244 -53.517  12.821  1.00  0.00    -0.273 OA
HETATM    3  N   UNL     1     -42.164 -52.995  13.973  1.00  0.00    -0.356 N 
HETATM    4  H   UNL     1     -42.406 -52.535  14.845  1.00  0.00     0.162 HD
ENDROOT
BRANCH   1   5
HETATM    5  C   UNL     1     -40.350 -51.357  13.869  1.00  0.00     0.146 C 
BRANCH   5   6
HETATM    6  C   UNL     1     -39.828 -50.558  12.726  1.00  0.00     0.006 A 
HETATM    7  C   UNL     1     -40.484 -49.661  11.831  1.00  0.00     0.038 A 
HETATM    8  C   UNL     1     -41.911 -49.261  11.758  1.00  0.00     0.071 C 
HETATM    9  N   UNL     1     -39.620 -49.128  10.958  1.00  0.00    -0.265 N 
HETATM   10  O   UNL     1     -38.383 -49.631  11.286  1.00  0.00    -0.242 OA
ATOM     11  HN  UNL     1     -39.836 -48.478  10.201  1.00  0.00     0.194 HD
HETATM   12  C   UNL     1     -38.503 -50.474  12.341  1.00  0.00     0.081 A 
HETATM   13  C   UNL     1     -37.248 -51.069  12.841  1.00  0.00     0.079 C 
ENDBRANCH   5   6
ENDBRANCH   1   5
BRANCH   3  14
HETATM   14  C   UNL     1     -42.853 -54.243  13.638  1.00  0.00     0.086 C 
HETATM   15  C   UNL     1     -44.110 -54.001  12.777  1.00  0.00     0.040 C 
HETATM   16  C   UNL     1     -45.118 -53.092  13.462  1.00  0.00     0.142 C 
HETATM   17  S   UNL     1     -45.702 -53.809  14.980  1.00  0.00     0.144 S 
HETATM   18  O   UNL     1     -46.331 -52.758  15.758  1.00  0.00    -0.228 OA
HETATM   19  O   UNL     1     -46.421 -55.026  14.655  1.00  0.00    -0.228 OA
HETATM   20  C   UNL     1     -44.202 -54.274  15.816  1.00  0.00     0.142 C 
HETATM   21  C   UNL     1     -43.231 -55.021  14.910  1.00  0.00     0.040 C 
ENDBRANCH   3  14
TORSDOF 3
ENDMDL
MODEL 7
REMARK VINA RESULT:      -5.6      2.294      2.996
REMARK  3 active torsions:
REMARK  status: ('A' for Active; 'I' for Inactive)
REMARK    1  A    between atoms: C_8  and  C_9 
REMARK    2  A    between atoms: C_9  and  C_10 
REMARK       I    between atoms: C_10  and  N_12 
REMARK    3  A    between atoms: N_12  and  C_13 
ROOT
HETATM    1  C   UNL     1     -42.949 -49.880  12.891  1.00  0.00     0.222 C 
HETATM    2  O   UNL     1     -43.127 -48.847  13.530  1.00  0.00    -0.273 OA
HETATM    3  N   UNL     1     -43.787 -50.980  12.982  1.00  0.00    -0.356 N 
HETATM    4  H   UNL     1     -43.830 -51.553  12.145  1.00  0.00     0.162 HD
ENDROOT
BRANCH   1   5
HETATM    5  C   UNL     1     -41.749 -50.067  11.983  1.00  0.00     0.146 C 
BRANCH   5   6
HETATM    6  C   UNL     1     -41.116 -48.810  11.498  1.00  0.00     0.006 A 
HETATM    7  C   UNL     1     -41.565 -47.835  10.558  1.00  0.00     0.038 A 
HETATM    8  C   UNL     1     -42.812 -47.790   9.755  1.00  0.00     0.071 C 
HETATM    9  N   UNL     1     -40.686 -46.832  10.440  1.00  0.00    -0.265 N 
HETATM   10  O   UNL     1     -39.668 -47.109  11.323  1.00  0.00    -0.242 OA
ATOM     11  HN  UNL     1     -40.756 -46.026   9.819  1.00  0.00     0.194 HD
HETATM   12  C   UNL     1     -39.926 -48.278  11.959  1.00  0.00     0.081 A 
HETATM   13  C   UNL     1     -38.939 -48.695  12.975  1.00  0.00     0.079 C 
ENDBRANCH   5   6
ENDBRANCH   1   5
BRANCH   3  14
HETATM   14  C   UNL     1     -44.941 -50.988  13.883  1.00  0.00     0.086 C 
HETATM   15  C   UNL     1     -44.560 -51.423  15.313  1.00  0.00     0.040 C 
HETATM   16  C   UNL     1     -43.940 -52.810  15.353  1.00  0.00     0.142 C 
HETATM   17  S   UNL     1     -45.077 -54.041  14.761  1.00  0.00     0.144 S 
HETATM   18  O   UNL     1     -44.319 -55.241  14.457  1.00  0.00    -0.228 OA
HETATM   19  O   UNL     1     -46.206 -54.085  15.670  1.00  0.00    -0.228 OA
HETATM   20  C   UNL     1     -45.649 -53.360  13.220  1.00  0.00     0.142 C 
HETATM   21  C   UNL     1     -46.057 -51.897  13.340  1.00  0.00     0.040 C 
ENDBRANCH   3  14
TORSDOF 3
ENDMDL
MODEL 8
REMARK VINA RESULT:      -5.6      2.913      3.873
REMARK  3 active torsions:
REMARK  status: ('A' for Active; 'I' for Inactive)
REMARK    1  A    between atoms: C_8  and  C_9 
REMARK    2  A    between atoms: C_9  and  C_10 
REMARK       I    between atoms: C_10  and  N_12 
REMARK    3  A    between atoms: N_12  and  C_13 
ROOT
HETATM    1  C   UNL     1     -42.071 -48.651  11.532  1.00  0.00     0.222 C 
HETATM    2  O   UNL     1     -43.115 -48.773  12.165  1.00  0.00    -0.273 OA
HETATM    3  N   UNL     1     -40.819 -48.859  12.089  1.00  0.00    -0.356 N 
HETATM    4  H   UNL     1     -40.107 -49.170  11.434  1.00  0.00     0.162 HD
ENDROOT
BRANCH   1   5
HETATM    5  C   UNL     1     -42.056 -48.195  10.086  1.00  0.00     0.146 C 
BRANCH   5   6
HETATM    6  C   UNL     1     -42.749 -46.905   9.818  1.00  0.00     0.006 A 
HETATM    7  C   UNL     1     -44.050 -46.628   9.300  1.00  0.00     0.038 A 
HETATM    8  C   UNL     1     -45.113 -47.560   8.848  1.00  0.00     0.071 C 
HETATM    9  N   UNL     1     -44.283 -45.311   9.250  1.00  0.00    -0.265 N 
HETATM   10  O   UNL     1     -43.163 -44.704   9.768  1.00  0.00    -0.242 OA
ATOM     11  HN  UNL     1     -45.123 -44.851   8.899  1.00  0.00     0.194 HD
HETATM   12  C   UNL     1     -42.254 -45.649  10.114  1.00  0.00     0.081 A 
HETATM   13  C   UNL     1     -41.006 -45.154  10.726  1.00  0.00     0.079 C 
ENDBRANCH   5   6
ENDBRANCH   1   5
BRANCH   3  14
HETATM   14  C   UNL     1     -40.661 -49.218  13.500  1.00  0.00     0.086 C 
HETATM   15  C   UNL     1     -39.337 -48.689  14.090  1.00  0.00     0.040 C 
HETATM   16  C   UNL     1     -38.119 -49.213  13.347  1.00  0.00     0.142 C 
HETATM   17  S   UNL     1     -38.019 -50.984  13.445  1.00  0.00     0.144 S 
HETATM   18  O   UNL     1     -37.097 -51.438  12.419  1.00  0.00    -0.228 OA
HETATM   19  O   UNL     1     -37.822 -51.348  14.835  1.00  0.00    -0.228 OA
HETATM   20  C   UNL     1     -39.650 -51.513  12.973  1.00  0.00     0.142 C 
HETATM   21  C   UNL     1     -40.749 -50.741  13.693  1.00  0.00     0.040 C 
ENDBRANCH   3  14
TORSDOF 3
ENDMDL
MODEL 9
REMARK VINA RESULT:      -5.6      2.224      3.003
REMARK  3 active torsions:
REMARK  status: ('A' for Active; 'I' for Inactive)
REMARK    1  A    between atoms: C_8  and  C_9 
REMARK    2  A    between atoms: C_9  and  C_10 
REMARK       I    between atoms: C_10  and  N_12 
REMARK    3  A    between atoms: N_12  and  C_13 
ROOT
HETATM    1  C   UNL     1     -41.947 -50.516  12.332  1.00  0.00     0.222 C 
HETATM    2  O   UNL     1     -40.982 -50.890  11.674  1.00  0.00    -0.273 OA
HETATM    3  N   UNL     1     -42.946 -51.373  12.767  1.00  0.00    -0.356 N 
HETATM    4  H   UNL     1     -43.410 -51.088  13.624  1.00  0.00     0.162 HD
ENDROOT
BRANCH   1   5
HETATM    5  C   UNL     1     -42.167 -49.056  12.679  1.00  0.00     0.146 C 
BRANCH   5   6
HETATM    6  C   UNL     1     -41.396 -48.084  11.855  1.00  0.00     0.006 A 
HETATM    7  C   UNL     1     -41.688 -47.485  10.593  1.00  0.00     0.038 A 
HETATM    8  C   UNL     1     -42.858 -47.670   9.699  1.00  0.00     0.071 C 
HETATM    9  N   UNL     1     -40.724 -46.632  10.225  1.00  0.00    -0.265 N 
HETATM   10  O   UNL     1     -39.807 -46.625  11.251  1.00  0.00    -0.242 OA
ATOM     11  HN  UNL     1     -40.678 -46.096   9.359  1.00  0.00     0.194 HD
HETATM   12  C   UNL     1     -40.209 -47.479  12.224  1.00  0.00     0.081 A 
HETATM   13  C   UNL     1     -39.345 -47.554  13.418  1.00  0.00     0.079 C 
ENDBRANCH   5   6
ENDBRANCH   1   5
BRANCH   3  14
HETATM   14  C   UNL     1     -42.924 -52.800  12.438  1.00  0.00     0.086 C 
HETATM   15  C   UNL     1     -44.343 -53.399  12.352  1.00  0.00     0.040 C 
HETATM   16  C   UNL     1     -45.120 -53.242  13.649  1.00  0.00     0.142 C 
HETATM   17  S   UNL     1     -44.316 -54.092  14.987  1.00  0.00     0.144 S 
HETATM   18  O   UNL     1     -44.868 -53.589  16.232  1.00  0.00    -0.228 OA
HETATM   19  O   UNL     1     -44.325 -55.511  14.689  1.00  0.00    -0.228 OA
HETATM   20  C   UNL     1     -42.633 -53.526  14.878  1.00  0.00     0.142 C 
HETATM   21  C   UNL     1     -42.084 -53.587  13.457  1.00  0.00     0.040 C 
ENDBRANCH   3  14
TORSDOF 3
ENDMDL
