MODEL 1
REMARK VINA RESULT:      -6.3      0.000      0.000
REMARK  6 active torsions:
REMARK  status: ('A' for Active; 'I' for Inactive)
REMARK    1  A    between atoms: C_2  and  C_3 
REMARK    2  A    between atoms: C_5  and  N_6 
REMARK       I    between atoms: N_6  and  C_7 
REMARK       I    between atoms: C_7  and  N_9 
REMARK    3  A    between atoms: N_9  and  C_10 
REMARK    4  A    between atoms: C_10  and  C_11 
REMARK    5  A    between atoms: C_11  and  O_13 
REMARK    6  A    between atoms: C_11  and  C_14 
ROOT
HETATM    1  C   UNL     1     -41.237 -48.072  10.652  1.00  0.00     0.166 C 
ENDROOT
BRANCH   1   2
HETATM    2  N   UNL     1     -41.915 -49.309  11.013  1.00  0.00    -0.340 N 
HETATM    3  C   UNL     1     -41.196 -50.308  11.615  1.00  0.00     0.316 C 
HETATM    4  N   UNL     1     -41.955 -51.430  11.855  1.00  0.00    -0.338 N 
HETATM    5  O   UNL     1     -40.014 -50.194  11.912  1.00  0.00    -0.247 OA
HETATM    6  H   UNL     1     -42.950 -51.274  11.923  1.00  0.00     0.164 HD
HETATM    7  H   UNL     1     -42.695 -49.590  10.433  1.00  0.00     0.164 HD
BRANCH   4   8
HETATM    8  C   UNL     1     -41.404 -52.547  12.563  1.00  0.00     0.090 A 
HETATM    9  C   UNL     1     -42.256 -53.711  13.014  1.00  0.00     0.010 A 
HETATM   10  C   UNL     1     -41.672 -52.761  14.026  1.00  0.00     0.032 A 
BRANCH   9  11
HETATM   11  C   UNL     1     -43.747 -53.756  12.870  1.00  0.00     0.002 C 
HETATM   12  C   UNL     1     -44.406 -54.596  13.952  1.00  0.00     0.005 C 
ENDBRANCH   9  11
ENDBRANCH   4   8
ENDBRANCH   1   2
BRANCH   1  13
HETATM   13  C   UNL     1     -42.208 -46.900  10.362  1.00  0.00     0.100 C 
HETATM   14  C   UNL     1     -42.642 -46.257  11.687  1.00  0.00     0.053 C 
BRANCH  13  15
HETATM   15  O   UNL     1     -41.472 -45.901   9.622  1.00  0.00    -0.384 OA
HETATM   16  H   UNL     1     -40.752 -46.356   9.153  1.00  0.00     0.211 HD
ENDBRANCH  13  15
BRANCH  13  17
HETATM   17  C   UNL     1     -43.408 -47.343   9.568  1.00  0.00     0.011 A 
HETATM   18  C   UNL     1     -43.455 -47.764   8.216  1.00  0.00     0.119 A 
HETATM   19  N   UNL     1     -44.687 -48.087   7.815  1.00  0.00    -0.310 N 
HETATM   20  N   UNL     1     -45.440 -47.871   8.907  1.00  0.00    -0.307 N 
ATOM     21  HN  UNL     1     -44.986 -48.418   6.898  1.00  0.00     0.186 HD
HETATM   22  C   UNL     1     -46.864 -48.092   8.866  1.00  0.00     0.177 C 
HETATM   23  C   UNL     1     -44.724 -47.435   9.981  1.00  0.00     0.121 A 
ENDBRANCH  13  17
ENDBRANCH   1  13
TORSDOF 6
ENDMDL
MODEL 2
REMARK VINA RESULT:      -6.1      1.825      2.172
REMARK  6 active torsions:
REMARK  status: ('A' for Active; 'I' for Inactive)
REMARK    1  A    between atoms: C_2  and  C_3 
REMARK    2  A    between atoms: C_5  and  N_6 
REMARK       I    between atoms: N_6  and  C_7 
REMARK       I    between atoms: C_7  and  N_9 
REMARK    3  A    between atoms: N_9  and  C_10 
REMARK    4  A    between atoms: C_10  and  C_11 
REMARK    5  A    between atoms: C_11  and  O_13 
REMARK    6  A    between atoms: C_11  and  C_14 
ROOT
HETATM    1  C   UNL     1     -41.628 -48.626  11.525  1.00  0.00     0.166 C 
ENDROOT
BRANCH   1   2
HETATM    2  N   UNL     1     -42.708 -49.596  11.632  1.00  0.00    -0.340 N 
HETATM    3  C   UNL     1     -43.249 -49.851  12.866  1.00  0.00     0.316 C 
HETATM    4  N   UNL     1     -44.223 -50.821  12.821  1.00  0.00    -0.338 N 
HETATM    5  O   UNL     1     -42.902 -49.264  13.881  1.00  0.00    -0.247 OA
HETATM    6  H   UNL     1     -44.673 -50.944  11.924  1.00  0.00     0.164 HD
HETATM    7  H   UNL     1     -42.709 -50.356  10.964  1.00  0.00     0.164 HD
BRANCH   4   8
HETATM    8  C   UNL     1     -44.972 -51.159  13.995  1.00  0.00     0.090 A 
HETATM    9  C   UNL     1     -45.524 -52.548  14.222  1.00  0.00     0.010 A 
HETATM   10  C   UNL     1     -46.455 -51.398  13.940  1.00  0.00     0.032 A 
BRANCH   9  11
HETATM   11  C   UNL     1     -45.443 -53.652  13.212  1.00  0.00     0.002 C 
HETATM   12  C   UNL     1     -45.300 -55.019  13.861  1.00  0.00     0.005 C 
ENDBRANCH   9  11
ENDBRANCH   4   8
ENDBRANCH   1   2
BRANCH   1  13
HETATM   13  C   UNL     1     -42.065 -47.288  10.875  1.00  0.00     0.100 C 
HETATM   14  C   UNL     1     -42.401 -46.273  11.977  1.00  0.00     0.053 C 
BRANCH  13  15
HETATM   15  O   UNL     1     -40.933 -46.769  10.146  1.00  0.00    -0.384 OA
HETATM   16  H   UNL     1     -40.942 -47.176   9.263  1.00  0.00     0.211 HD
ENDBRANCH  13  15
BRANCH  13  17
HETATM   17  C   UNL     1     -43.234 -47.467   9.944  1.00  0.00     0.011 A 
HETATM   18  C   UNL     1     -43.212 -47.707   8.548  1.00  0.00     0.119 A 
HETATM   19  N   UNL     1     -44.433 -47.812   8.018  1.00  0.00    -0.310 N 
HETATM   20  N   UNL     1     -45.248 -47.637   9.072  1.00  0.00    -0.307 N 
ATOM     21  HN  UNL     1     -44.686 -47.984   7.045  1.00  0.00     0.186 HD
HETATM   22  C   UNL     1     -46.680 -47.663   8.898  1.00  0.00     0.177 C 
HETATM   23  C   UNL     1     -44.584 -47.437  10.243  1.00  0.00     0.121 A 
ENDBRANCH  13  17
ENDBRANCH   1  13
TORSDOF 6
ENDMDL
MODEL 3
REMARK VINA RESULT:      -6.0      1.621      2.119
REMARK  6 active torsions:
REMARK  status: ('A' for Active; 'I' for Inactive)
REMARK    1  A    between atoms: C_2  and  C_3 
REMARK    2  A    between atoms: C_5  and  N_6 
REMARK       I    between atoms: N_6  and  C_7 
REMARK       I    between atoms: C_7  and  N_9 
REMARK    3  A    between atoms: N_9  and  C_10 
REMARK    4  A    between atoms: C_10  and  C_11 
REMARK    5  A    between atoms: C_11  and  O_13 
REMARK    6  A    between atoms: C_11  and  C_14 
ROOT
HETATM    1  C   UNL     1     -42.378 -48.243  11.790  1.00  0.00     0.166 C 
ENDROOT
BRANCH   1   2
HETATM    2  N   UNL     1     -42.479 -49.690  11.672  1.00  0.00    -0.340 N 
HETATM    3  C   UNL     1     -42.665 -50.437  12.806  1.00  0.00     0.316 C 
HETATM    4  N   UNL     1     -42.694 -51.787  12.547  1.00  0.00    -0.338 N 
HETATM    5  O   UNL     1     -42.802 -49.941  13.917  1.00  0.00    -0.247 OA
HETATM    6  H   UNL     1     -42.951 -52.043  11.604  1.00  0.00     0.164 HD
HETATM    7  H   UNL     1     -41.966 -50.124  10.915  1.00  0.00     0.164 HD
BRANCH   4   8
HETATM    8  C   UNL     1     -42.973 -52.726  13.593  1.00  0.00     0.090 A 
HETATM    9  C   UNL     1     -42.060 -53.893  13.888  1.00  0.00     0.010 A 
HETATM   10  C   UNL     1     -43.422 -54.129  13.291  1.00  0.00     0.032 A 
BRANCH   9  11
HETATM   11  C   UNL     1     -40.859 -54.242  13.061  1.00  0.00     0.002 C 
HETATM   12  C   UNL     1     -39.603 -54.392  13.903  1.00  0.00     0.005 C 
ENDBRANCH   9  11
ENDBRANCH   4   8
ENDBRANCH   1   2
BRANCH   1  13
HETATM   13  C   UNL     1     -42.206 -47.524  10.428  1.00  0.00     0.100 C 
HETATM   14  C   UNL     1     -41.249 -46.335  10.597  1.00  0.00     0.053 C 
BRANCH  13  15
HETATM   15  O   UNL     1     -41.575 -48.455   9.523  1.00  0.00    -0.384 OA
HETATM   16  H   UNL     1     -41.909 -49.343   9.738  1.00  0.00     0.211 HD
ENDBRANCH  13  15
BRANCH  13  17
HETATM   17  C   UNL     1     -43.523 -47.069   9.859  1.00  0.00     0.011 A 
HETATM   18  C   UNL     1     -43.814 -45.854   9.191  1.00  0.00     0.119 A 
HETATM   19  N   UNL     1     -45.092 -45.761   8.815  1.00  0.00    -0.310 N 
HETATM   20  N   UNL     1     -45.630 -46.916   9.241  1.00  0.00    -0.307 N 
ATOM     21  HN  UNL     1     -45.550 -44.995   8.321  1.00  0.00     0.186 HD
HETATM   22  C   UNL     1     -47.032 -47.187   9.034  1.00  0.00     0.177 C 
HETATM   23  C   UNL     1     -44.736 -47.733   9.862  1.00  0.00     0.121 A 
ENDBRANCH  13  17
ENDBRANCH   1  13
TORSDOF 6
ENDMDL
MODEL 4
REMARK VINA RESULT:      -5.9      2.238      7.317
REMARK  6 active torsions:
REMARK  status: ('A' for Active; 'I' for Inactive)
REMARK    1  A    between atoms: C_2  and  C_3 
REMARK    2  A    between atoms: C_5  and  N_6 
REMARK       I    between atoms: N_6  and  C_7 
REMARK       I    between atoms: C_7  and  N_9 
REMARK    3  A    between atoms: N_9  and  C_10 
REMARK    4  A    between atoms: C_10  and  C_11 
REMARK    5  A    between atoms: C_11  and  O_13 
REMARK    6  A    between atoms: C_11  and  C_14 
ROOT
HETATM    1  C   UNL     1     -40.495 -50.545  11.965  1.00  0.00     0.166 C 
ENDROOT
BRANCH   1   2
HETATM    2  N   UNL     1     -40.997 -49.873  10.775  1.00  0.00    -0.340 N 
HETATM    3  C   UNL     1     -41.583 -48.641  10.907  1.00  0.00     0.316 C 
HETATM    4  N   UNL     1     -42.051 -48.151   9.710  1.00  0.00    -0.338 N 
HETATM    5  O   UNL     1     -41.661 -48.050  11.976  1.00  0.00    -0.247 OA
HETATM    6  H   UNL     1     -41.606 -48.525   8.884  1.00  0.00     0.164 HD
HETATM    7  H   UNL     1     -41.331 -50.462  10.023  1.00  0.00     0.164 HD
BRANCH   4   8
HETATM    8  C   UNL     1     -42.612 -46.835   9.628  1.00  0.00     0.090 A 
HETATM    9  C   UNL     1     -44.104 -46.597   9.617  1.00  0.00     0.010 A 
HETATM   10  C   UNL     1     -43.286 -46.344   8.377  1.00  0.00     0.032 A 
BRANCH   9  11
HETATM   11  C   UNL     1     -45.122 -47.696   9.575  1.00  0.00     0.002 C 
HETATM   12  C   UNL     1     -46.482 -47.205   9.106  1.00  0.00     0.005 C 
ENDBRANCH   9  11
ENDBRANCH   4   8
ENDBRANCH   1   2
BRANCH   1  13
HETATM   13  C   UNL     1     -41.216 -51.883  12.267  1.00  0.00     0.100 C 
HETATM   14  C   UNL     1     -42.667 -51.598  12.681  1.00  0.00     0.053 C 
BRANCH  13  15
HETATM   15  O   UNL     1     -41.262 -52.638  11.037  1.00  0.00    -0.384 OA
HETATM   16  H   UNL     1     -41.035 -52.030  10.312  1.00  0.00     0.211 HD
ENDBRANCH  13  15
BRANCH  13  17
HETATM   17  C   UNL     1     -40.507 -52.680  13.329  1.00  0.00     0.011 A 
HETATM   18  C   UNL     1     -40.271 -54.076  13.363  1.00  0.00     0.119 A 
HETATM   19  N   UNL     1     -39.613 -54.466  14.458  1.00  0.00    -0.310 N 
HETATM   20  N   UNL     1     -39.426 -53.321  15.136  1.00  0.00    -0.307 N 
ATOM     21  HN  UNL     1     -39.323 -55.408  14.718  1.00  0.00     0.186 HD
HETATM   22  C   UNL     1     -38.754 -53.331  16.412  1.00  0.00     0.177 C 
HETATM   23  C   UNL     1     -39.932 -52.228  14.502  1.00  0.00     0.121 A 
ENDBRANCH  13  17
ENDBRANCH   1  13
TORSDOF 6
ENDMDL
MODEL 5
REMARK VINA RESULT:      -5.8      1.614      2.305
REMARK  6 active torsions:
REMARK  status: ('A' for Active; 'I' for Inactive)
REMARK    1  A    between atoms: C_2  and  C_3 
REMARK    2  A    between atoms: C_5  and  N_6 
REMARK       I    between atoms: N_6  and  C_7 
REMARK       I    between atoms: C_7  and  N_9 
REMARK    3  A    between atoms: N_9  and  C_10 
REMARK    4  A    between atoms: C_10  and  C_11 
REMARK    5  A    between atoms: C_11  and  O_13 
REMARK    6  A    between atoms: C_11  and  C_14 
ROOT
HETATM    1  C   UNL     1     -40.104 -49.909  11.083  1.00  0.00     0.166 C 
ENDROOT
BRANCH   1   2
HETATM    2  N   UNL     1     -41.124 -50.910  11.357  1.00  0.00    -0.340 N 
HETATM    3  C   UNL     1     -40.799 -51.994  12.130  1.00  0.00     0.316 C 
HETATM    4  N   UNL     1     -41.845 -52.876  12.264  1.00  0.00    -0.338 N 
HETATM    5  O   UNL     1     -39.699 -52.138  12.647  1.00  0.00    -0.247 OA
HETATM    6  H   UNL     1     -42.766 -52.482  12.129  1.00  0.00     0.164 HD
HETATM    7  H   UNL     1     -41.833 -51.048  10.647  1.00  0.00     0.164 HD
BRANCH   4   8
HETATM    8  C   UNL     1     -41.729 -54.024  13.113  1.00  0.00     0.090 A 
HETATM    9  C   UNL     1     -42.925 -54.635  13.805  1.00  0.00     0.010 A 
HETATM   10  C   UNL     1     -41.872 -53.916  14.606  1.00  0.00     0.032 A 
BRANCH   9  11
HETATM   11  C   UNL     1     -44.303 -54.045  13.764  1.00  0.00     0.002 C 
HETATM   12  C   UNL     1     -45.387 -55.110  13.791  1.00  0.00     0.005 C 
ENDBRANCH   9  11
ENDBRANCH   4   8
ENDBRANCH   1   2
BRANCH   1  13
HETATM   13  C   UNL     1     -40.492 -48.487  11.562  1.00  0.00     0.100 C 
HETATM   14  C   UNL     1     -40.451 -48.438  13.097  1.00  0.00     0.053 C 
BRANCH  13  15
HETATM   15  O   UNL     1     -39.482 -47.575  11.078  1.00  0.00    -0.384 OA
HETATM   16  H   UNL     1     -39.851 -47.114  10.306  1.00  0.00     0.211 HD
ENDBRANCH  13  15
BRANCH  13  17
HETATM   17  C   UNL     1     -41.845 -48.068  11.053  1.00  0.00     0.011 A 
HETATM   18  C   UNL     1     -42.992 -47.717  11.806  1.00  0.00     0.119 A 
HETATM   19  N   UNL     1     -44.039 -47.399  11.041  1.00  0.00    -0.310 N 
HETATM   20  N   UNL     1     -43.571 -47.546   9.791  1.00  0.00    -0.307 N 
ATOM     21  HN  UNL     1     -44.972 -47.111  11.336  1.00  0.00     0.186 HD
HETATM   22  C   UNL     1     -44.430 -47.307   8.657  1.00  0.00     0.177 C 
HETATM   23  C   UNL     1     -42.267 -47.935   9.743  1.00  0.00     0.121 A 
ENDBRANCH  13  17
ENDBRANCH   1  13
TORSDOF 6
ENDMDL
MODEL 6
REMARK VINA RESULT:      -5.8      3.322      4.862
REMARK  6 active torsions:
REMARK  status: ('A' for Active; 'I' for Inactive)
REMARK    1  A    between atoms: C_2  and  C_3 
REMARK    2  A    between atoms: C_5  and  N_6 
REMARK       I    between atoms: N_6  and  C_7 
REMARK       I    between atoms: C_7  and  N_9 
REMARK    3  A    between atoms: N_9  and  C_10 
REMARK    4  A    between atoms: C_10  and  C_11 
REMARK    5  A    between atoms: C_11  and  O_13 
REMARK    6  A    between atoms: C_11  and  C_14 
ROOT
HETATM    1  C   UNL     1     -39.981 -50.840  12.538  1.00  0.00     0.166 C 
ENDROOT
BRANCH   1   2
HETATM    2  N   UNL     1     -41.436 -50.822  12.578  1.00  0.00    -0.340 N 
HETATM    3  C   UNL     1     -42.115 -52.012  12.522  1.00  0.00     0.316 C 
HETATM    4  N   UNL     1     -43.479 -51.838  12.520  1.00  0.00    -0.338 N 
HETATM    5  O   UNL     1     -41.554 -53.099  12.490  1.00  0.00    -0.247 OA
HETATM    6  H   UNL     1     -43.807 -50.971  12.923  1.00  0.00     0.164 HD
HETATM    7  H   UNL     1     -41.895 -50.012  12.181  1.00  0.00     0.164 HD
BRANCH   4   8
HETATM    8  C   UNL     1     -44.360 -52.968  12.561  1.00  0.00     0.090 A 
HETATM    9  C   UNL     1     -45.829 -52.829  12.887  1.00  0.00     0.010 A 
HETATM   10  C   UNL     1     -44.896 -53.501  13.860  1.00  0.00     0.032 A 
BRANCH   9  11
HETATM   11  C   UNL     1     -46.472 -51.540  13.303  1.00  0.00     0.002 C 
HETATM   12  C   UNL     1     -46.832 -51.526  14.780  1.00  0.00     0.005 C 
ENDBRANCH   9  11
ENDBRANCH   4   8
ENDBRANCH   1   2
BRANCH   1  13
HETATM   13  C   UNL     1     -39.379 -49.795  11.564  1.00  0.00     0.100 C 
HETATM   14  C   UNL     1     -37.887 -50.093  11.355  1.00  0.00     0.053 C 
BRANCH  13  15
HETATM   15  O   UNL     1     -40.033 -49.965  10.288  1.00  0.00    -0.384 OA
HETATM   16  H   UNL     1     -40.700 -49.262  10.206  1.00  0.00     0.211 HD
ENDBRANCH  13  15
BRANCH  13  17
HETATM   17  C   UNL     1     -39.575 -48.386  12.056  1.00  0.00     0.011 A 
HETATM   18  C   UNL     1     -40.371 -47.363  11.484  1.00  0.00     0.119 A 
HETATM   19  N   UNL     1     -40.320 -46.219  12.170  1.00  0.00    -0.310 N 
HETATM   20  N   UNL     1     -39.487 -46.499  13.187  1.00  0.00    -0.307 N 
ATOM     21  HN  UNL     1     -40.799 -45.341  11.970  1.00  0.00     0.186 HD
HETATM   22  C   UNL     1     -39.157 -45.487  14.159  1.00  0.00     0.177 C 
HETATM   23  C   UNL     1     -39.023 -47.779  13.169  1.00  0.00     0.121 A 
ENDBRANCH  13  17
ENDBRANCH   1  13
TORSDOF 6
ENDMDL
MODEL 7
REMARK VINA RESULT:      -5.7      4.371      6.463
REMARK  6 active torsions:
REMARK  status: ('A' for Active; 'I' for Inactive)
REMARK    1  A    between atoms: C_2  and  C_3 
REMARK    2  A    between atoms: C_5  and  N_6 
REMARK       I    between atoms: N_6  and  C_7 
REMARK       I    between atoms: C_7  and  N_9 
REMARK    3  A    between atoms: N_9  and  C_10 
REMARK    4  A    between atoms: C_10  and  C_11 
REMARK    5  A    between atoms: C_11  and  O_13 
REMARK    6  A    between atoms: C_11  and  C_14 
ROOT
HETATM    1  C   UNL     1     -41.296 -54.385  13.958  1.00  0.00     0.166 C 
ENDROOT
BRANCH   1   2
HETATM    2  N   UNL     1     -42.386 -53.627  14.555  1.00  0.00    -0.340 N 
HETATM    3  C   UNL     1     -43.561 -53.499  13.861  1.00  0.00     0.316 C 
HETATM    4  N   UNL     1     -44.480 -52.720  14.524  1.00  0.00    -0.338 N 
HETATM    5  O   UNL     1     -43.759 -54.036  12.779  1.00  0.00    -0.247 OA
HETATM    6  H   UNL     1     -44.357 -52.661  15.525  1.00  0.00     0.164 HD
HETATM    7  H   UNL     1     -42.131 -52.866  15.171  1.00  0.00     0.164 HD
BRANCH   4   8
HETATM    8  C   UNL     1     -45.803 -52.546  14.002  1.00  0.00     0.090 A 
HETATM    9  C   UNL     1     -46.841 -51.706  14.710  1.00  0.00     0.010 A 
HETATM   10  C   UNL     1     -46.994 -53.203  14.643  1.00  0.00     0.032 A 
BRANCH   9  11
HETATM   11  C   UNL     1     -46.630 -51.080  16.056  1.00  0.00     0.002 C 
HETATM   12  C   UNL     1     -47.856 -51.198  16.946  1.00  0.00     0.005 C 
ENDBRANCH   9  11
ENDBRANCH   4   8
ENDBRANCH   1   2
BRANCH   1  13
HETATM   13  C   UNL     1     -39.971 -53.587  13.863  1.00  0.00     0.100 C 
HETATM   14  C   UNL     1     -39.513 -53.188  15.273  1.00  0.00     0.053 C 
BRANCH  13  15
HETATM   15  O   UNL     1     -38.968 -54.473  13.322  1.00  0.00    -0.384 OA
HETATM   16  H   UNL     1     -38.100 -54.060  13.473  1.00  0.00     0.211 HD
ENDBRANCH  13  15
BRANCH  13  17
HETATM   17  C   UNL     1     -40.106 -52.371  12.985  1.00  0.00     0.011 A 
HETATM   18  C   UNL     1     -40.862 -52.231  11.795  1.00  0.00     0.119 A 
HETATM   19  N   UNL     1     -40.760 -51.015  11.254  1.00  0.00    -0.310 N 
HETATM   20  N   UNL     1     -39.934 -50.367  12.092  1.00  0.00    -0.307 N 
ATOM     21  HN  UNL     1     -41.204 -50.662  10.406  1.00  0.00     0.186 HD
HETATM   22  C   UNL     1     -39.556 -49.000  11.830  1.00  0.00     0.177 C 
HETATM   23  C   UNL     1     -39.523 -51.128  13.143  1.00  0.00     0.121 A 
ENDBRANCH  13  17
ENDBRANCH   1  13
TORSDOF 6
ENDMDL
MODEL 8
REMARK VINA RESULT:      -5.7      2.571      3.657
REMARK  6 active torsions:
REMARK  status: ('A' for Active; 'I' for Inactive)
REMARK    1  A    between atoms: C_2  and  C_3 
REMARK    2  A    between atoms: C_5  and  N_6 
REMARK       I    between atoms: N_6  and  C_7 
REMARK       I    between atoms: C_7  and  N_9 
REMARK    3  A    between atoms: N_9  and  C_10 
REMARK    4  A    between atoms: C_10  and  C_11 
REMARK    5  A    between atoms: C_11  and  O_13 
REMARK    6  A    between atoms: C_11  and  C_14 
ROOT
HETATM    1  C   UNL     1     -40.876 -49.718  12.765  1.00  0.00     0.166 C 
ENDROOT
BRANCH   1   2
HETATM    2  N   UNL     1     -41.968 -50.661  12.569  1.00  0.00    -0.340 N 
HETATM    3  C   UNL     1     -43.212 -50.344  13.052  1.00  0.00     0.316 C 
HETATM    4  N   UNL     1     -44.129 -51.346  12.836  1.00  0.00    -0.338 N 
HETATM    5  O   UNL     1     -43.464 -49.280  13.599  1.00  0.00    -0.247 OA
HETATM    6  H   UNL     1     -43.917 -51.972  12.072  1.00  0.00     0.164 HD
HETATM    7  H   UNL     1     -41.725 -51.643  12.534  1.00  0.00     0.164 HD
BRANCH   4   8
HETATM    8  C   UNL     1     -45.506 -51.163  13.186  1.00  0.00     0.090 A 
HETATM    9  C   UNL     1     -46.360 -52.297  13.706  1.00  0.00     0.010 A 
HETATM   10  C   UNL     1     -46.614 -51.723  12.337  1.00  0.00     0.032 A 
BRANCH   9  11
HETATM   11  C   UNL     1     -45.892 -53.718  13.797  1.00  0.00     0.002 C 
HETATM   12  C   UNL     1     -46.032 -54.283  15.201  1.00  0.00     0.005 C 
ENDBRANCH   9  11
ENDBRANCH   4   8
ENDBRANCH   1   2
BRANCH   1  13
HETATM   13  C   UNL     1     -40.231 -49.240  11.439  1.00  0.00     0.100 C 
HETATM   14  C   UNL     1     -38.737 -48.970  11.668  1.00  0.00     0.053 C 
BRANCH  13  15
HETATM   15  O   UNL     1     -40.330 -50.325  10.492  1.00  0.00    -0.384 OA
HETATM   16  H   UNL     1     -39.887 -50.040   9.674  1.00  0.00     0.211 HD
ENDBRANCH  13  15
BRANCH  13  17
HETATM   17  C   UNL     1     -40.914 -48.016  10.888  1.00  0.00     0.011 A 
HETATM   18  C   UNL     1     -40.448 -46.678  10.892  1.00  0.00     0.119 A 
HETATM   19  N   UNL     1     -41.305 -45.827  10.324  1.00  0.00    -0.310 N 
HETATM   20  N   UNL     1     -42.330 -46.614   9.953  1.00  0.00    -0.307 N 
ATOM     21  HN  UNL     1     -41.206 -44.820  10.200  1.00  0.00     0.186 HD
HETATM   22  C   UNL     1     -43.488 -46.046   9.308  1.00  0.00     0.177 C 
HETATM   23  C   UNL     1     -42.142 -47.927  10.259  1.00  0.00     0.121 A 
ENDBRANCH  13  17
ENDBRANCH   1  13
TORSDOF 6
ENDMDL
MODEL 9
REMARK VINA RESULT:      -5.4      2.565      3.737
REMARK  6 active torsions:
REMARK  status: ('A' for Active; 'I' for Inactive)
REMARK    1  A    between atoms: C_2  and  C_3 
REMARK    2  A    between atoms: C_5  and  N_6 
REMARK       I    between atoms: N_6  and  C_7 
REMARK       I    between atoms: C_7  and  N_9 
REMARK    3  A    between atoms: N_9  and  C_10 
REMARK    4  A    between atoms: C_10  and  C_11 
REMARK    5  A    between atoms: C_11  and  O_13 
REMARK    6  A    between atoms: C_11  and  C_14 
ROOT
HETATM    1  C   UNL     1     -42.125 -49.707  12.197  1.00  0.00     0.166 C 
ENDROOT
BRANCH   1   2
HETATM    2  N   UNL     1     -42.379 -51.137  12.102  1.00  0.00    -0.340 N 
HETATM    3  C   UNL     1     -42.313 -51.899  13.240  1.00  0.00     0.316 C 
HETATM    4  N   UNL     1     -42.528 -53.234  12.990  1.00  0.00    -0.338 N 
HETATM    5  O   UNL     1     -42.100 -51.427  14.348  1.00  0.00    -0.247 OA
HETATM    6  H   UNL     1     -43.053 -53.441  12.152  1.00  0.00     0.164 HD
HETATM    7  H   UNL     1     -42.131 -51.589  11.231  1.00  0.00     0.164 HD
BRANCH   4   8
HETATM    8  C   UNL     1     -42.592 -54.178  14.066  1.00  0.00     0.090 A 
HETATM    9  C   UNL     1     -43.845 -54.967  14.369  1.00  0.00     0.010 A 
HETATM   10  C   UNL     1     -43.378 -53.893  15.316  1.00  0.00     0.032 A 
BRANCH   9  11
HETATM   11  C   UNL     1     -45.150 -54.761  13.661  1.00  0.00     0.002 C 
HETATM   12  C   UNL     1     -46.326 -54.703  14.622  1.00  0.00     0.005 C 
ENDBRANCH   9  11
ENDBRANCH   4   8
ENDBRANCH   1   2
BRANCH   1  13
HETATM   13  C   UNL     1     -40.808 -49.268  11.508  1.00  0.00     0.100 C 
HETATM   14  C   UNL     1     -39.635 -49.465  12.480  1.00  0.00     0.053 C 
BRANCH  13  15
HETATM   15  O   UNL     1     -40.589 -50.153  10.388  1.00  0.00    -0.384 OA
HETATM   16  H   UNL     1     -41.370 -50.093   9.812  1.00  0.00     0.211 HD
ENDBRANCH  13  15
BRANCH  13  17
HETATM   17  C   UNL     1     -40.868 -47.842  11.030  1.00  0.00     0.011 A 
HETATM   18  C   UNL     1     -41.865 -47.229  10.231  1.00  0.00     0.119 A 
HETATM   19  N   UNL     1     -41.611 -45.942   9.980  1.00  0.00    -0.310 N 
HETATM   20  N   UNL     1     -40.447 -45.722  10.614  1.00  0.00    -0.307 N 
ATOM     21  HN  UNL     1     -42.169 -45.284   9.436  1.00  0.00     0.186 HD
HETATM   22  C   UNL     1     -39.822 -44.423  10.560  1.00  0.00     0.177 C 
HETATM   23  C   UNL     1     -39.968 -46.819  11.262  1.00  0.00     0.121 A 
ENDBRANCH  13  17
ENDBRANCH   1  13
TORSDOF 6
ENDMDL
