MODEL 1
REMARK VINA RESULT:      -7.0      0.000      0.000
REMARK  6 active torsions:
REMARK  status: ('A' for Active; 'I' for Inactive)
REMARK    1  A    between atoms: N_5  and  C_6 
REMARK    2  A    between atoms: C_6  and  C_7 
REMARK    3  A    between atoms: C_7  and  O_8 
REMARK    4  A    between atoms: C_7  and  C_9 
REMARK    5  A    between atoms: C_9  and  N_10 
REMARK       I    between atoms: N_10  and  C_11 
REMARK       I    between atoms: C_11  and  N_13 
REMARK    6  A    between atoms: N_13  and  C_14 
ROOT
HETATM    1  N   UNL     1     -40.572 -50.786  11.472  1.00  0.00    -0.340 N 
HETATM    2  C   UNL     1     -41.229 -49.581  11.478  1.00  0.00     0.322 C 
HETATM    3  O   UNL     1     -41.664 -49.093  12.519  1.00  0.00    -0.247 OA
HETATM    4  N   UNL     1     -41.321 -49.036  10.222  1.00  0.00    -0.287 N 
HETATM    5  H   UNL     1     -40.386 -51.264  10.603  1.00  0.00     0.164 HD
HETATM    6  H   UNL     1     -41.054 -49.588   9.426  1.00  0.00     0.172 HD
ENDROOT
BRANCH   1   7
HETATM    7  C   UNL     1     -40.499 -51.596  12.674  1.00  0.00     0.157 C 
BRANCH   7   8
HETATM    8  C   UNL     1     -41.193 -52.943  12.460  1.00  0.00     0.164 C 
BRANCH   8   9
HETATM    9  C   UNL     1     -42.721 -52.727  12.320  1.00  0.00     0.305 C 
BRANCH   9  10
HETATM   10  N   UNL     1     -43.522 -53.106  13.501  1.00  0.00     0.091 N 
HETATM   11  C   UNL     1     -44.852 -53.608  13.108  1.00  0.00     0.273 C 
HETATM   12  C   UNL     1     -45.799 -52.523  12.572  1.00  0.00     0.034 C 
HETATM   13  C   UNL     1     -45.934 -51.329  13.528  1.00  0.00    -0.015 C 
HETATM   14  C   UNL     1     -46.850 -51.662  14.710  1.00  0.00     0.010 C 
HETATM   15  C   UNL     1     -44.551 -50.863  14.003  1.00  0.00     0.034 C 
HETATM   16  C   UNL     1     -43.676 -52.025  14.488  1.00  0.00     0.273 C 
ENDBRANCH   9  10
ENDBRANCH   8   9
BRANCH   8  17
HETATM   17  O   UNL     1     -40.621 -53.556  11.294  1.00  0.00    -0.392 OA
HETATM   18  H   UNL     1     -41.215 -53.359  10.547  1.00  0.00     0.210 HD
ENDBRANCH   8  17
ENDBRANCH   7   8
ENDBRANCH   1   7
BRANCH   4  19
HETATM   19  C   UNL     1     -41.958 -47.836  10.006  1.00  0.00     0.176 A 
HETATM   20  C   UNL     1     -43.109 -47.550   9.320  1.00  0.00     0.085 A 
HETATM   21  C   UNL     1     -43.293 -46.162   9.510  1.00  0.00     0.033 A 
HETATM   22  C   UNL     1     -44.420 -45.307   9.081  1.00  0.00     0.070 C 
HETATM   23  N   UNL     1     -42.280 -45.625  10.199  1.00  0.00    -0.264 N 
HETATM   24  O   UNL     1     -41.449 -46.684  10.517  1.00  0.00    -0.220 OA
ATOM     25  HN  UNL     1     -42.148 -44.643  10.439  1.00  0.00     0.194 HD
ENDBRANCH   4  19
TORSDOF 6
ENDMDL
MODEL 2
REMARK VINA RESULT:      -6.6      2.299      3.189
REMARK  6 active torsions:
REMARK  status: ('A' for Active; 'I' for Inactive)
REMARK    1  A    between atoms: N_5  and  C_6 
REMARK    2  A    between atoms: C_6  and  C_7 
REMARK    3  A    between atoms: C_7  and  O_8 
REMARK    4  A    between atoms: C_7  and  C_9 
REMARK    5  A    between atoms: C_9  and  N_10 
REMARK       I    between atoms: N_10  and  C_11 
REMARK       I    between atoms: C_11  and  N_13 
REMARK    6  A    between atoms: N_13  and  C_14 
ROOT
HETATM    1  N   UNL     1     -39.957 -47.955  11.124  1.00  0.00    -0.340 N 
HETATM    2  C   UNL     1     -41.291 -47.639  11.047  1.00  0.00     0.322 C 
HETATM    3  O   UNL     1     -42.039 -47.773  12.013  1.00  0.00    -0.247 OA
HETATM    4  N   UNL     1     -41.641 -47.177   9.803  1.00  0.00    -0.287 N 
HETATM    5  H   UNL     1     -39.397 -48.020  10.288  1.00  0.00     0.164 HD
HETATM    6  H   UNL     1     -40.979 -47.241   9.051  1.00  0.00     0.172 HD
ENDROOT
BRANCH   1   7
HETATM    7  C   UNL     1     -39.416 -48.599  12.307  1.00  0.00     0.157 C 
BRANCH   7   8
HETATM    8  C   UNL     1     -39.034 -50.050  12.004  1.00  0.00     0.164 C 
BRANCH   8   9
HETATM    9  C   UNL     1     -40.292 -50.951  12.089  1.00  0.00     0.305 C 
BRANCH   9  10
HETATM   10  N   UNL     1     -40.645 -51.414  13.445  1.00  0.00     0.091 N 
HETATM   11  C   UNL     1     -40.075 -52.745  13.723  1.00  0.00     0.273 C 
HETATM   12  C   UNL     1     -40.746 -53.889  12.946  1.00  0.00     0.034 C 
HETATM   13  C   UNL     1     -42.272 -53.909  13.120  1.00  0.00    -0.015 C 
HETATM   14  C   UNL     1     -42.670 -54.488  14.481  1.00  0.00     0.010 C 
HETATM   15  C   UNL     1     -42.853 -52.503  12.915  1.00  0.00     0.034 C 
HETATM   16  C   UNL     1     -42.093 -51.434  13.709  1.00  0.00     0.273 C 
ENDBRANCH   9  10
ENDBRANCH   8   9
BRANCH   8  17
HETATM   17  O   UNL     1     -38.425 -50.085  10.703  1.00  0.00    -0.392 OA
HETATM   18  H   UNL     1     -38.283 -49.160  10.430  1.00  0.00     0.210 HD
ENDBRANCH   8  17
ENDBRANCH   7   8
ENDBRANCH   1   7
BRANCH   4  19
HETATM   19  C   UNL     1     -42.936 -46.819   9.510  1.00  0.00     0.176 A 
HETATM   20  C   UNL     1     -44.063 -47.588   9.377  1.00  0.00     0.085 A 
HETATM   21  C   UNL     1     -45.098 -46.653   9.146  1.00  0.00     0.033 A 
HETATM   22  C   UNL     1     -46.552 -46.889   9.020  1.00  0.00     0.070 C 
HETATM   23  N   UNL     1     -44.620 -45.406   9.064  1.00  0.00    -0.264 N 
HETATM   24  O   UNL     1     -43.262 -45.516   9.304  1.00  0.00    -0.220 OA
ATOM     25  HN  UNL     1     -45.146 -44.555   8.867  1.00  0.00     0.194 HD
ENDBRANCH   4  19
TORSDOF 6
ENDMDL
MODEL 3
REMARK VINA RESULT:      -6.3      3.216      4.307
REMARK  6 active torsions:
REMARK  status: ('A' for Active; 'I' for Inactive)
REMARK    1  A    between atoms: N_5  and  C_6 
REMARK    2  A    between atoms: C_6  and  C_7 
REMARK    3  A    between atoms: C_7  and  O_8 
REMARK    4  A    between atoms: C_7  and  C_9 
REMARK    5  A    between atoms: C_9  and  N_10 
REMARK       I    between atoms: N_10  and  C_11 
REMARK       I    between atoms: C_11  and  N_13 
REMARK    6  A    between atoms: N_13  and  C_14 
ROOT
HETATM    1  N   UNL     1     -43.225 -53.140  11.892  1.00  0.00    -0.340 N 
HETATM    2  C   UNL     1     -42.467 -52.062  12.275  1.00  0.00     0.322 C 
HETATM    3  O   UNL     1     -42.842 -51.296  13.160  1.00  0.00    -0.247 OA
HETATM    4  N   UNL     1     -41.297 -51.974  11.563  1.00  0.00    -0.287 N 
HETATM    5  H   UNL     1     -43.004 -53.648  11.049  1.00  0.00     0.164 HD
HETATM    6  H   UNL     1     -41.159 -52.572  10.769  1.00  0.00     0.172 HD
ENDROOT
BRANCH   1   7
HETATM    7  C   UNL     1     -44.566 -53.327  12.417  1.00  0.00     0.157 C 
BRANCH   7   8
HETATM    8  C   UNL     1     -44.561 -54.352  13.554  1.00  0.00     0.164 C 
BRANCH   8   9
HETATM    9  C   UNL     1     -44.702 -53.623  14.914  1.00  0.00     0.305 C 
BRANCH   9  10
HETATM   10  N   UNL     1     -46.024 -53.746  15.561  1.00  0.00     0.091 N 
HETATM   11  C   UNL     1     -47.034 -52.916  14.878  1.00  0.00     0.273 C 
HETATM   12  C   UNL     1     -46.854 -51.405  15.092  1.00  0.00     0.034 C 
HETATM   13  C   UNL     1     -46.756 -51.024  16.576  1.00  0.00    -0.015 C 
HETATM   14  C   UNL     1     -48.133 -51.038  17.247  1.00  0.00     0.010 C 
HETATM   15  C   UNL     1     -45.767 -51.946  17.303  1.00  0.00     0.034 C 
HETATM   16  C   UNL     1     -46.016 -53.428  16.998  1.00  0.00     0.273 C 
ENDBRANCH   9  10
ENDBRANCH   8   9
BRANCH   8  17
HETATM   17  O   UNL     1     -45.632 -55.279  13.318  1.00  0.00    -0.392 OA
HETATM   18  H   UNL     1     -46.280 -55.155  14.036  1.00  0.00     0.210 HD
ENDBRANCH   8  17
ENDBRANCH   7   8
ENDBRANCH   1   7
BRANCH   4  19
HETATM   19  C   UNL     1     -40.400 -50.954  11.782  1.00  0.00     0.176 A 
HETATM   20  C   UNL     1     -39.464 -50.790  12.769  1.00  0.00     0.085 A 
HETATM   21  C   UNL     1     -38.800 -49.590  12.424  1.00  0.00     0.033 A 
HETATM   22  C   UNL     1     -37.631 -48.957  13.069  1.00  0.00     0.070 C 
HETATM   23  N   UNL     1     -39.348 -49.022  11.344  1.00  0.00    -0.264 N 
HETATM   24  O   UNL     1     -40.347 -49.890  10.939  1.00  0.00    -0.220 OA
ATOM     25  HN  UNL     1     -39.085 -48.138  10.911  1.00  0.00     0.194 HD
ENDBRANCH   4  19
TORSDOF 6
ENDMDL
MODEL 4
REMARK VINA RESULT:      -6.2      2.805      6.985
REMARK  6 active torsions:
REMARK  status: ('A' for Active; 'I' for Inactive)
REMARK    1  A    between atoms: N_5  and  C_6 
REMARK    2  A    between atoms: C_6  and  C_7 
REMARK    3  A    between atoms: C_7  and  O_8 
REMARK    4  A    between atoms: C_7  and  C_9 
REMARK    5  A    between atoms: C_9  and  N_10 
REMARK       I    between atoms: N_10  and  C_11 
REMARK       I    between atoms: C_11  and  N_13 
REMARK    6  A    between atoms: N_13  and  C_14 
ROOT
HETATM    1  N   UNL     1     -40.962 -51.649  11.629  1.00  0.00    -0.340 N 
HETATM    2  C   UNL     1     -42.052 -51.931  12.414  1.00  0.00     0.322 C 
HETATM    3  O   UNL     1     -42.171 -51.455  13.541  1.00  0.00    -0.247 OA
HETATM    4  N   UNL     1     -42.937 -52.773  11.788  1.00  0.00    -0.287 N 
HETATM    5  H   UNL     1     -40.782 -52.183  10.793  1.00  0.00     0.164 HD
HETATM    6  H   UNL     1     -42.670 -53.210  10.924  1.00  0.00     0.172 HD
ENDROOT
BRANCH   1   7
HETATM    7  C   UNL     1     -39.840 -50.897  12.161  1.00  0.00     0.157 C 
BRANCH   7   8
HETATM    8  C   UNL     1     -39.545 -49.676  11.285  1.00  0.00     0.164 C 
BRANCH   8   9
HETATM    9  C   UNL     1     -39.395 -48.418  12.177  1.00  0.00     0.305 C 
BRANCH   9  10
HETATM   10  N   UNL     1     -40.588 -47.551  12.250  1.00  0.00     0.091 N 
HETATM   11  C   UNL     1     -40.857 -46.899  10.956  1.00  0.00     0.273 C 
HETATM   12  C   UNL     1     -39.845 -45.804  10.583  1.00  0.00     0.034 C 
HETATM   13  C   UNL     1     -39.671 -44.754  11.690  1.00  0.00    -0.015 C 
HETATM   14  C   UNL     1     -40.847 -43.774  11.718  1.00  0.00     0.010 C 
HETATM   15  C   UNL     1     -39.477 -45.438  13.051  1.00  0.00     0.034 C 
HETATM   16  C   UNL     1     -40.519 -46.532  13.310  1.00  0.00     0.273 C 
ENDBRANCH   9  10
ENDBRANCH   8   9
BRANCH   8  17
HETATM   17  O   UNL     1     -38.358 -49.952  10.527  1.00  0.00    -0.392 OA
HETATM   18  H   UNL     1     -38.385 -50.897  10.287  1.00  0.00     0.210 HD
ENDBRANCH   8  17
ENDBRANCH   7   8
ENDBRANCH   1   7
BRANCH   4  19
HETATM   19  C   UNL     1     -44.089 -53.193  12.410  1.00  0.00     0.176 A 
HETATM   20  C   UNL     1     -44.275 -54.099  13.421  1.00  0.00     0.085 A 
HETATM   21  C   UNL     1     -45.664 -54.052  13.681  1.00  0.00     0.033 A 
HETATM   22  C   UNL     1     -46.436 -54.745  14.734  1.00  0.00     0.070 C 
HETATM   23  N   UNL     1     -46.292 -53.232  12.831  1.00  0.00    -0.264 N 
HETATM   24  O   UNL     1     -45.296 -52.686  12.041  1.00  0.00    -0.220 OA
ATOM     25  HN  UNL     1     -47.293 -53.047  12.777  1.00  0.00     0.194 HD
ENDBRANCH   4  19
TORSDOF 6
ENDMDL
MODEL 5
REMARK VINA RESULT:      -5.9      4.337      7.852
REMARK  6 active torsions:
REMARK  status: ('A' for Active; 'I' for Inactive)
REMARK    1  A    between atoms: N_5  and  C_6 
REMARK    2  A    between atoms: C_6  and  C_7 
REMARK    3  A    between atoms: C_7  and  O_8 
REMARK    4  A    between atoms: C_7  and  C_9 
REMARK    5  A    between atoms: C_9  and  N_10 
REMARK       I    between atoms: N_10  and  C_11 
REMARK       I    between atoms: C_11  and  N_13 
REMARK    6  A    between atoms: N_13  and  C_14 
ROOT
HETATM    1  N   UNL     1     -39.744 -53.691  13.642  1.00  0.00    -0.340 N 
HETATM    2  C   UNL     1     -39.631 -54.222  14.903  1.00  0.00     0.322 C 
HETATM    3  O   UNL     1     -40.343 -53.837  15.828  1.00  0.00    -0.247 OA
HETATM    4  N   UNL     1     -38.660 -55.189  14.972  1.00  0.00    -0.287 N 
HETATM    5  H   UNL     1     -39.039 -53.874  12.945  1.00  0.00     0.164 HD
HETATM    6  H   UNL     1     -38.044 -55.323  14.189  1.00  0.00     0.172 HD
ENDROOT
BRANCH   1   7
HETATM    7  C   UNL     1     -40.608 -52.552  13.393  1.00  0.00     0.157 C 
BRANCH   7   8
HETATM    8  C   UNL     1     -41.693 -52.911  12.375  1.00  0.00     0.164 C 
BRANCH   8   9
HETATM    9  C   UNL     1     -43.025 -52.222  12.766  1.00  0.00     0.305 C 
BRANCH   9  10
HETATM   10  N   UNL     1     -43.981 -53.072  13.503  1.00  0.00     0.091 N 
HETATM   11  C   UNL     1     -45.330 -52.999  12.911  1.00  0.00     0.273 C 
HETATM   12  C   UNL     1     -46.045 -51.659  13.141  1.00  0.00     0.034 C 
HETATM   13  C   UNL     1     -46.084 -51.253  14.622  1.00  0.00    -0.015 C 
HETATM   14  C   UNL     1     -47.146 -52.046  15.389  1.00  0.00     0.010 C 
HETATM   15  C   UNL     1     -44.695 -51.412  15.258  1.00  0.00     0.034 C 
HETATM   16  C   UNL     1     -44.059 -52.770  14.942  1.00  0.00     0.273 C 
ENDBRANCH   9  10
ENDBRANCH   8   9
BRANCH   8  17
HETATM   17  O   UNL     1     -41.232 -52.508  11.076  1.00  0.00    -0.392 OA
HETATM   18  H   UNL     1     -41.562 -53.168  10.439  1.00  0.00     0.210 HD
ENDBRANCH   8  17
ENDBRANCH   7   8
ENDBRANCH   1   7
BRANCH   4  19
HETATM   19  C   UNL     1     -38.375 -55.837  16.151  1.00  0.00     0.176 A 
HETATM   20  C   UNL     1     -37.364 -55.638  17.054  1.00  0.00     0.085 A 
HETATM   21  C   UNL     1     -37.638 -56.556  18.094  1.00  0.00     0.033 A 
HETATM   22  C   UNL     1     -36.942 -56.732  19.385  1.00  0.00     0.070 C 
HETATM   23  N   UNL     1     -38.700 -57.317  17.805  1.00  0.00    -0.264 N 
HETATM   24  O   UNL     1     -39.165 -56.854  16.587  1.00  0.00    -0.220 OA
ATOM     25  HN  UNL     1     -39.085 -58.078  18.364  1.00  0.00     0.194 HD
ENDBRANCH   4  19
TORSDOF 6
ENDMDL
MODEL 6
REMARK VINA RESULT:      -5.9      2.778      7.743
REMARK  6 active torsions:
REMARK  status: ('A' for Active; 'I' for Inactive)
REMARK    1  A    between atoms: N_5  and  C_6 
REMARK    2  A    between atoms: C_6  and  C_7 
REMARK    3  A    between atoms: C_7  and  O_8 
REMARK    4  A    between atoms: C_7  and  C_9 
REMARK    5  A    between atoms: C_9  and  N_10 
REMARK       I    between atoms: N_10  and  C_11 
REMARK       I    between atoms: C_11  and  N_13 
REMARK    6  A    between atoms: N_13  and  C_14 
ROOT
HETATM    1  N   UNL     1     -40.870 -50.926  11.109  1.00  0.00    -0.340 N 
HETATM    2  C   UNL     1     -41.374 -51.524  12.236  1.00  0.00     0.322 C 
HETATM    3  O   UNL     1     -41.532 -50.896  13.281  1.00  0.00    -0.247 OA
HETATM    4  N   UNL     1     -41.658 -52.852  12.034  1.00  0.00    -0.287 N 
HETATM    5  H   UNL     1     -40.570 -51.484  10.324  1.00  0.00     0.164 HD
HETATM    6  H   UNL     1     -41.358 -53.294  11.184  1.00  0.00     0.172 HD
ENDROOT
BRANCH   1   7
HETATM    7  C   UNL     1     -40.367 -49.565  11.154  1.00  0.00     0.157 C 
BRANCH   7   8
HETATM    8  C   UNL     1     -41.500 -48.563  10.915  1.00  0.00     0.164 C 
BRANCH   8   9
HETATM    9  C   UNL     1     -41.132 -47.198  11.547  1.00  0.00     0.305 C 
BRANCH   9  10
HETATM   10  N   UNL     1     -41.229 -46.037  10.640  1.00  0.00     0.091 N 
HETATM   11  C   UNL     1     -39.962 -45.284  10.595  1.00  0.00     0.273 C 
HETATM   12  C   UNL     1     -39.651 -44.501  11.880  1.00  0.00     0.034 C 
HETATM   13  C   UNL     1     -40.806 -43.586  12.311  1.00  0.00    -0.015 C 
HETATM   14  C   UNL     1     -40.863 -42.318  11.454  1.00  0.00     0.010 C 
HETATM   15  C   UNL     1     -42.138 -44.350  12.274  1.00  0.00     0.034 C 
HETATM   16  C   UNL     1     -42.334 -45.120  10.964  1.00  0.00     0.273 C 
ENDBRANCH   9  10
ENDBRANCH   8   9
BRANCH   8  17
HETATM   17  O   UNL     1     -41.715 -48.468   9.499  1.00  0.00    -0.392 OA
HETATM   18  H   UNL     1     -42.424 -47.813   9.361  1.00  0.00     0.210 HD
ENDBRANCH   8  17
ENDBRANCH   7   8
ENDBRANCH   1   7
BRANCH   4  19
HETATM   19  C   UNL     1     -42.158 -53.640  13.045  1.00  0.00     0.176 A 
HETATM   20  C   UNL     1     -41.514 -54.310  14.052  1.00  0.00     0.085 A 
HETATM   21  C   UNL     1     -42.559 -54.881  14.815  1.00  0.00     0.033 A 
HETATM   22  C   UNL     1     -42.477 -55.638  16.081  1.00  0.00     0.070 C 
HETATM   23  N   UNL     1     -43.754 -54.639  14.264  1.00  0.00    -0.264 N 
HETATM   24  O   UNL     1     -43.496 -53.850  13.157  1.00  0.00    -0.220 OA
ATOM     25  HN  UNL     1     -44.662 -54.967  14.590  1.00  0.00     0.194 HD
ENDBRANCH   4  19
TORSDOF 6
ENDMDL
MODEL 7
REMARK VINA RESULT:      -5.8      2.591      3.457
REMARK  6 active torsions:
REMARK  status: ('A' for Active; 'I' for Inactive)
REMARK    1  A    between atoms: N_5  and  C_6 
REMARK    2  A    between atoms: C_6  and  C_7 
REMARK    3  A    between atoms: C_7  and  O_8 
REMARK    4  A    between atoms: C_7  and  C_9 
REMARK    5  A    between atoms: C_9  and  N_10 
REMARK       I    between atoms: N_10  and  C_11 
REMARK       I    between atoms: C_11  and  N_13 
REMARK    6  A    between atoms: N_13  and  C_14 
ROOT
HETATM    1  N   UNL     1     -41.462 -50.879  11.396  1.00  0.00    -0.340 N 
HETATM    2  C   UNL     1     -41.502 -49.540  11.692  1.00  0.00     0.322 C 
HETATM    3  O   UNL     1     -41.740 -49.140  12.830  1.00  0.00    -0.247 OA
HETATM    4  N   UNL     1     -41.252 -48.759  10.591  1.00  0.00    -0.287 N 
HETATM    5  H   UNL     1     -41.454 -51.192  10.437  1.00  0.00     0.164 HD
HETATM    6  H   UNL     1     -41.210 -49.189   9.684  1.00  0.00     0.172 HD
ENDROOT
BRANCH   1   7
HETATM    7  C   UNL     1     -41.846 -51.868  12.387  1.00  0.00     0.157 C 
BRANCH   7   8
HETATM    8  C   UNL     1     -40.798 -52.981  12.472  1.00  0.00     0.164 C 
BRANCH   8   9
HETATM    9  C   UNL     1     -41.286 -54.085  13.443  1.00  0.00     0.305 C 
BRANCH   9  10
HETATM   10  N   UNL     1     -41.799 -53.601  14.740  1.00  0.00     0.091 N 
HETATM   11  C   UNL     1     -40.842 -53.869  15.830  1.00  0.00     0.273 C 
HETATM   12  C   UNL     1     -40.723 -55.353  16.210  1.00  0.00     0.034 C 
HETATM   13  C   UNL     1     -42.083 -55.998  16.516  1.00  0.00    -0.015 C 
HETATM   14  C   UNL     1     -42.589 -55.597  17.905  1.00  0.00     0.010 C 
HETATM   15  C   UNL     1     -43.102 -55.646  15.423  1.00  0.00     0.034 C 
HETATM   16  C   UNL     1     -43.119 -54.147  15.099  1.00  0.00     0.273 C 
ENDBRANCH   9  10
ENDBRANCH   8   9
BRANCH   8  17
HETATM   17  O   UNL     1     -40.577 -53.482  11.144  1.00  0.00    -0.392 OA
HETATM   18  H   UNL     1     -41.250 -53.075  10.569  1.00  0.00     0.210 HD
ENDBRANCH   8  17
ENDBRANCH   7   8
ENDBRANCH   1   7
BRANCH   4  19
HETATM   19  C   UNL     1     -41.261 -47.386  10.668  1.00  0.00     0.176 A 
HETATM   20  C   UNL     1     -40.245 -46.503  10.923  1.00  0.00     0.085 A 
HETATM   21  C   UNL     1     -40.848 -45.231  10.800  1.00  0.00     0.033 A 
HETATM   22  C   UNL     1     -40.222 -43.894  10.872  1.00  0.00     0.070 C 
HETATM   23  N   UNL     1     -42.161 -45.335  10.564  1.00  0.00    -0.264 N 
HETATM   24  O   UNL     1     -42.413 -46.692  10.472  1.00  0.00    -0.220 OA
ATOM     25  HN  UNL     1     -42.834 -44.575  10.472  1.00  0.00     0.194 HD
ENDBRANCH   4  19
TORSDOF 6
ENDMDL
MODEL 8
REMARK VINA RESULT:      -5.7      2.173      2.736
REMARK  6 active torsions:
REMARK  status: ('A' for Active; 'I' for Inactive)
REMARK    1  A    between atoms: N_5  and  C_6 
REMARK    2  A    between atoms: C_6  and  C_7 
REMARK    3  A    between atoms: C_7  and  O_8 
REMARK    4  A    between atoms: C_7  and  C_9 
REMARK    5  A    between atoms: C_9  and  N_10 
REMARK       I    between atoms: N_10  and  C_11 
REMARK       I    between atoms: C_11  and  N_13 
REMARK    6  A    between atoms: N_13  and  C_14 
ROOT
HETATM    1  N   UNL     1     -40.503 -51.054  11.378  1.00  0.00    -0.340 N 
HETATM    2  C   UNL     1     -40.801 -49.765  11.746  1.00  0.00     0.322 C 
HETATM    3  O   UNL     1     -41.819 -49.497  12.380  1.00  0.00    -0.247 OA
HETATM    4  N   UNL     1     -39.846 -48.874  11.323  1.00  0.00    -0.287 N 
HETATM    5  H   UNL     1     -39.775 -51.239  10.705  1.00  0.00     0.164 HD
HETATM    6  H   UNL     1     -39.129 -49.185  10.692  1.00  0.00     0.172 HD
ENDROOT
BRANCH   1   7
HETATM    7  C   UNL     1     -41.457 -52.126  11.599  1.00  0.00     0.157 C 
BRANCH   7   8
HETATM    8  C   UNL     1     -40.987 -53.041  12.731  1.00  0.00     0.164 C 
BRANCH   8   9
HETATM    9  C   UNL     1     -42.146 -53.268  13.735  1.00  0.00     0.305 C 
BRANCH   9  10
HETATM   10  N   UNL     1     -43.477 -52.828  13.271  1.00  0.00     0.091 N 
HETATM   11  C   UNL     1     -44.156 -52.007  14.290  1.00  0.00     0.273 C 
HETATM   12  C   UNL     1     -44.630 -52.798  15.519  1.00  0.00     0.034 C 
HETATM   13  C   UNL     1     -45.491 -54.014  15.146  1.00  0.00    -0.015 C 
HETATM   14  C   UNL     1     -46.913 -53.594  14.763  1.00  0.00     0.010 C 
HETATM   15  C   UNL     1     -44.822 -54.820  14.023  1.00  0.00     0.034 C 
HETATM   16  C   UNL     1     -44.359 -53.933  12.862  1.00  0.00     0.273 C 
ENDBRANCH   9  10
ENDBRANCH   8   9
BRANCH   8  17
HETATM   17  O   UNL     1     -40.526 -54.269  12.146  1.00  0.00    -0.392 OA
HETATM   18  H   UNL     1     -41.234 -54.589  11.558  1.00  0.00     0.210 HD
ENDBRANCH   8  17
ENDBRANCH   7   8
ENDBRANCH   1   7
BRANCH   4  19
HETATM   19  C   UNL     1     -39.962 -47.527  11.575  1.00  0.00     0.176 A 
HETATM   20  C   UNL     1     -39.536 -46.782  12.644  1.00  0.00     0.085 A 
HETATM   21  C   UNL     1     -39.878 -45.453  12.301  1.00  0.00     0.033 A 
HETATM   22  C   UNL     1     -39.580 -44.201  13.027  1.00  0.00     0.070 C 
HETATM   23  N   UNL     1     -40.537 -45.403  11.138  1.00  0.00    -0.264 N 
HETATM   24  O   UNL     1     -40.579 -46.709  10.682  1.00  0.00    -0.220 OA
ATOM     25  HN  UNL     1     -40.927 -44.578  10.684  1.00  0.00     0.194 HD
ENDBRANCH   4  19
TORSDOF 6
ENDMDL
MODEL 9
REMARK VINA RESULT:      -5.7      3.832      4.181
REMARK  6 active torsions:
REMARK  status: ('A' for Active; 'I' for Inactive)
REMARK    1  A    between atoms: N_5  and  C_6 
REMARK    2  A    between atoms: C_6  and  C_7 
REMARK    3  A    between atoms: C_7  and  O_8 
REMARK    4  A    between atoms: C_7  and  C_9 
REMARK    5  A    between atoms: C_9  and  N_10 
REMARK       I    between atoms: N_10  and  C_11 
REMARK       I    between atoms: C_11  and  N_13 
REMARK    6  A    between atoms: N_13  and  C_14 
ROOT
HETATM    1  N   UNL     1     -39.798 -52.696  14.496  1.00  0.00    -0.340 N 
HETATM    2  C   UNL     1     -39.281 -51.524  14.003  1.00  0.00     0.322 C 
HETATM    3  O   UNL     1     -38.785 -51.464  12.880  1.00  0.00    -0.247 OA
HETATM    4  N   UNL     1     -39.394 -50.491  14.899  1.00  0.00    -0.287 N 
HETATM    5  H   UNL     1     -40.028 -52.783  15.474  1.00  0.00     0.164 HD
HETATM    6  H   UNL     1     -39.689 -50.687  15.839  1.00  0.00     0.172 HD
ENDROOT
BRANCH   1   7
HETATM    7  C   UNL     1     -39.642 -53.940  13.764  1.00  0.00     0.157 C 
BRANCH   7   8
HETATM    8  C   UNL     1     -40.854 -54.192  12.864  1.00  0.00     0.164 C 
BRANCH   8   9
HETATM    9  C   UNL     1     -42.141 -53.695  13.569  1.00  0.00     0.305 C 
BRANCH   9  10
HETATM   10  N   UNL     1     -43.033 -52.860  12.739  1.00  0.00     0.091 N 
HETATM   11  C   UNL     1     -43.284 -51.552  13.372  1.00  0.00     0.273 C 
HETATM   12  C   UNL     1     -44.183 -51.618  14.616  1.00  0.00     0.034 C 
HETATM   13  C   UNL     1     -45.506 -52.353  14.353  1.00  0.00    -0.015 C 
HETATM   14  C   UNL     1     -46.492 -51.468  13.586  1.00  0.00     0.010 C 
HETATM   15  C   UNL     1     -45.248 -53.676  13.618  1.00  0.00     0.034 C 
HETATM   16  C   UNL     1     -44.316 -53.503  12.413  1.00  0.00     0.273 C 
ENDBRANCH   9  10
ENDBRANCH   8   9
BRANCH   8  17
HETATM   17  O   UNL     1     -40.624 -53.522  11.614  1.00  0.00    -0.392 OA
HETATM   18  H   UNL     1     -40.920 -54.125  10.908  1.00  0.00     0.210 HD
ENDBRANCH   8  17
ENDBRANCH   7   8
ENDBRANCH   1   7
BRANCH   4  19
HETATM   19  C   UNL     1     -38.923 -49.233  14.607  1.00  0.00     0.176 A 
HETATM   20  C   UNL     1     -39.587 -48.108  14.194  1.00  0.00     0.085 A 
HETATM   21  C   UNL     1     -38.583 -47.114  14.128  1.00  0.00     0.033 A 
HETATM   22  C   UNL     1     -38.721 -45.673  13.832  1.00  0.00     0.070 C 
HETATM   23  N   UNL     1     -37.377 -47.621  14.406  1.00  0.00    -0.264 N 
HETATM   24  O   UNL     1     -37.597 -48.951  14.716  1.00  0.00    -0.220 OA
ATOM     25  HN  UNL     1     -36.483 -47.130  14.392  1.00  0.00     0.194 HD
ENDBRANCH   4  19
TORSDOF 6
ENDMDL
