MODEL 1
REMARK VINA RESULT:      -6.1      0.000      0.000
REMARK  9 active torsions:
REMARK  status: ('A' for Active; 'I' for Inactive)
REMARK    1  A    between atoms: N_2  and  C_3 
REMARK    2  A    between atoms: N_2  and  C_21 
REMARK    3  A    between atoms: C_3  and  C_4 
REMARK    4  A    between atoms: C_4  and  O_5 
REMARK    5  A    between atoms: C_4  and  C_6 
REMARK    6  A    between atoms: C_6  and  N_7 
REMARK    7  A    between atoms: C_14  and  C_15 
REMARK    8  A    between atoms: C_15  and  N_16 
REMARK    9  A    between atoms: C_21  and  C_22 
ROOT
HETATM    1  N   UNL     1     -42.379 -54.061  14.337  1.00  0.00    -0.254 N 
HETATM    2  N   UNL     1     -41.969 -53.766  15.623  1.00  0.00    -0.300 N 
ATOM      3  HN  UNL     1     -40.994 -53.538  15.818  1.00  0.00     0.187 HD
HETATM    4  C   UNL     1     -42.849 -53.782  16.577  1.00  0.00     0.029 A 
HETATM    5  C   UNL     1     -42.364 -53.395  17.959  1.00  0.00     0.070 C 
HETATM    6  C   UNL     1     -44.276 -54.140  16.398  1.00  0.00    -0.013 A 
HETATM    7  C   UNL     1     -45.253 -54.110  17.537  1.00  0.00     0.052 C 
HETATM    8  C   UNL     1     -44.621 -54.446  15.136  1.00  0.00     0.103 A 
HETATM    9  C   UNL     1     -43.684 -54.350  13.998  1.00  0.00     0.282 A 
HETATM   10  O   UNL     1     -44.083 -54.495  12.847  1.00  0.00    -0.265 OA
ENDROOT
BRANCH   1  11
HETATM   11  C   UNL     1     -41.342 -54.047  13.292  1.00  0.00     0.186 C 
BRANCH  11  12
HETATM   12  C   UNL     1     -41.489 -52.879  12.303  1.00  0.00     0.166 C 
BRANCH  12  13
HETATM   13  C   UNL     1     -41.200 -51.500  12.961  1.00  0.00     0.305 C 
BRANCH  13  14
HETATM   14  N   UNL     1     -42.335 -50.549  12.908  1.00  0.00     0.090 N 
HETATM   15  C   UNL     1     -41.975 -49.329  12.171  1.00  0.00     0.310 C 
BRANCH  14  16
HETATM   16  C   UNL     1     -42.823 -50.222  14.263  1.00  0.00     0.310 C 
BRANCH  16  17
HETATM   17  C   UNL     1     -44.242 -50.719  14.484  1.00  0.00    -0.030 A 
HETATM   18  C   UNL     1     -45.024 -51.124  13.388  1.00  0.00     0.009 A 
HETATM   19  C   UNL     1     -46.372 -51.437  13.558  1.00  0.00     0.001 A 
HETATM   20  C   UNL     1     -46.951 -51.362  14.824  1.00  0.00     0.000 A 
HETATM   21  C   UNL     1     -46.178 -50.994  15.923  1.00  0.00     0.001 A 
HETATM   22  C   UNL     1     -44.827 -50.680  15.758  1.00  0.00     0.009 A 
ENDBRANCH  16  17
ENDBRANCH  14  16
ENDBRANCH  13  14
ENDBRANCH  12  13
BRANCH  12  23
HETATM   23  O   UNL     1     -40.617 -53.142  11.194  1.00  0.00    -0.392 OA
HETATM   24  H   UNL     1     -39.913 -53.723  11.552  1.00  0.00     0.210 HD
ENDBRANCH  12  23
ENDBRANCH  11  12
ENDBRANCH   1  11
BRANCH   8  25
HETATM   25  C   UNL     1     -46.071 -54.772  14.821  1.00  0.00    -0.031 C 
BRANCH  25  26
HETATM   26  N   UNL     1     -47.276 -55.043  14.560  1.00  0.00    -0.365 N 
ATOM     27  HN2 UNL     1     -46.303 -54.803  14.752  1.00  0.00     0.165 HD
ATOM     28  HN1 UNL     1     -48.250 -55.261  14.350  1.00  0.00     0.165 HD
ENDBRANCH  25  26
ENDBRANCH   8  25
TORSDOF 9
ENDMDL
MODEL 2
REMARK VINA RESULT:      -5.7      1.900      4.610
REMARK  9 active torsions:
REMARK  status: ('A' for Active; 'I' for Inactive)
REMARK    1  A    between atoms: N_2  and  C_3 
REMARK    2  A    between atoms: N_2  and  C_21 
REMARK    3  A    between atoms: C_3  and  C_4 
REMARK    4  A    between atoms: C_4  and  O_5 
REMARK    5  A    between atoms: C_4  and  C_6 
REMARK    6  A    between atoms: C_6  and  N_7 
REMARK    7  A    between atoms: C_14  and  C_15 
REMARK    8  A    between atoms: C_15  and  N_16 
REMARK    9  A    between atoms: C_21  and  C_22 
ROOT
HETATM    1  N   UNL     1     -44.106 -54.695  13.839  1.00  0.00    -0.254 N 
HETATM    2  N   UNL     1     -43.391 -55.179  14.917  1.00  0.00    -0.300 N 
ATOM      3  HN  UNL     1     -43.820 -55.831  15.575  1.00  0.00     0.187 HD
HETATM    4  C   UNL     1     -42.164 -54.789  15.077  1.00  0.00     0.029 A 
HETATM    5  C   UNL     1     -41.402 -55.391  16.240  1.00  0.00     0.070 C 
HETATM    6  C   UNL     1     -41.470 -53.816  14.200  1.00  0.00    -0.013 A 
HETATM    7  C   UNL     1     -40.038 -53.428  14.419  1.00  0.00     0.052 C 
HETATM    8  C   UNL     1     -42.215 -53.353  13.181  1.00  0.00     0.103 A 
HETATM    9  C   UNL     1     -43.582 -53.835  12.897  1.00  0.00     0.282 A 
HETATM   10  O   UNL     1     -44.163 -53.493  11.873  1.00  0.00    -0.265 OA
ENDROOT
BRANCH   1  11
HETATM   11  C   UNL     1     -45.500 -55.153  13.710  1.00  0.00     0.186 C 
BRANCH  11  12
HETATM   12  C   UNL     1     -46.438 -54.560  14.774  1.00  0.00     0.166 C 
BRANCH  12  13
HETATM   13  C   UNL     1     -46.849 -53.095  14.456  1.00  0.00     0.305 C 
BRANCH  13  14
HETATM   14  N   UNL     1     -46.294 -52.089  15.391  1.00  0.00     0.090 N 
HETATM   15  C   UNL     1     -47.357 -51.445  16.175  1.00  0.00     0.310 C 
BRANCH  14  16
HETATM   16  C   UNL     1     -45.482 -51.084  14.676  1.00  0.00     0.310 C 
BRANCH  16  17
HETATM   17  C   UNL     1     -44.070 -51.005  15.231  1.00  0.00    -0.030 A 
HETATM   18  C   UNL     1     -43.718 -51.751  16.368  1.00  0.00     0.009 A 
HETATM   19  C   UNL     1     -42.475 -51.573  16.975  1.00  0.00     0.001 A 
HETATM   20  C   UNL     1     -41.566 -50.658  16.447  1.00  0.00     0.000 A 
HETATM   21  C   UNL     1     -41.890 -49.935  15.300  1.00  0.00     0.001 A 
HETATM   22  C   UNL     1     -43.133 -50.111  14.689  1.00  0.00     0.009 A 
ENDBRANCH  16  17
ENDBRANCH  14  16
ENDBRANCH  13  14
ENDBRANCH  12  13
BRANCH  12  23
HETATM   23  O   UNL     1     -47.575 -55.430  14.876  1.00  0.00    -0.392 OA
HETATM   24  H   UNL     1     -48.271 -54.894  15.312  1.00  0.00     0.210 HD
ENDBRANCH  12  23
ENDBRANCH  11  12
ENDBRANCH   1  11
BRANCH   8  25
HETATM   25  C   UNL     1     -41.590 -52.394  12.182  1.00  0.00    -0.031 C 
BRANCH  25  26
HETATM   26  N   UNL     1     -41.071 -51.598  11.352  1.00  0.00    -0.365 N 
ATOM     27  HN2 UNL     1     -41.472 -52.233  12.041  1.00  0.00     0.165 HD
ATOM     28  HN1 UNL     1     -40.652 -50.954  10.681  1.00  0.00     0.165 HD
ENDBRANCH  25  26
ENDBRANCH   8  25
TORSDOF 9
ENDMDL
MODEL 3
REMARK VINA RESULT:      -5.5      2.067      3.410
REMARK  9 active torsions:
REMARK  status: ('A' for Active; 'I' for Inactive)
REMARK    1  A    between atoms: N_2  and  C_3 
REMARK    2  A    between atoms: N_2  and  C_21 
REMARK    3  A    between atoms: C_3  and  C_4 
REMARK    4  A    between atoms: C_4  and  O_5 
REMARK    5  A    between atoms: C_4  and  C_6 
REMARK    6  A    between atoms: C_6  and  N_7 
REMARK    7  A    between atoms: C_14  and  C_15 
REMARK    8  A    between atoms: C_15  and  N_16 
REMARK    9  A    between atoms: C_21  and  C_22 
ROOT
HETATM    1  N   UNL     1     -41.201 -53.462  13.120  1.00  0.00    -0.254 N 
HETATM    2  N   UNL     1     -42.522 -53.653  13.472  1.00  0.00    -0.300 N 
ATOM      3  HN  UNL     1     -43.273 -53.242  12.916  1.00  0.00     0.187 HD
HETATM    4  C   UNL     1     -42.791 -54.365  14.523  1.00  0.00     0.029 A 
HETATM    5  C   UNL     1     -44.255 -54.595  14.836  1.00  0.00     0.070 C 
HETATM    6  C   UNL     1     -41.770 -54.967  15.413  1.00  0.00    -0.013 A 
HETATM    7  C   UNL     1     -42.145 -55.808  16.598  1.00  0.00     0.052 C 
HETATM    8  C   UNL     1     -40.500 -54.731  15.046  1.00  0.00     0.103 A 
HETATM    9  C   UNL     1     -40.139 -54.010  13.808  1.00  0.00     0.282 A 
HETATM   10  O   UNL     1     -38.971 -53.949  13.440  1.00  0.00    -0.265 OA
ENDROOT
BRANCH   1  11
HETATM   11  C   UNL     1     -40.946 -52.632  11.930  1.00  0.00     0.186 C 
BRANCH  11  12
HETATM   12  C   UNL     1     -40.401 -51.234  12.267  1.00  0.00     0.166 C 
BRANCH  12  13
HETATM   13  C   UNL     1     -40.779 -50.778  13.705  1.00  0.00     0.305 C 
BRANCH  13  14
HETATM   14  N   UNL     1     -42.050 -50.020  13.790  1.00  0.00     0.090 N 
HETATM   15  C   UNL     1     -41.813 -48.571  13.719  1.00  0.00     0.310 C 
BRANCH  14  16
HETATM   16  C   UNL     1     -42.803 -50.373  15.010  1.00  0.00     0.310 C 
BRANCH  16  17
HETATM   17  C   UNL     1     -44.251 -50.708  14.698  1.00  0.00    -0.030 A 
HETATM   18  C   UNL     1     -45.176 -50.877  15.744  1.00  0.00     0.009 A 
HETATM   19  C   UNL     1     -46.467 -51.332  15.480  1.00  0.00     0.001 A 
HETATM   20  C   UNL     1     -46.854 -51.612  14.171  1.00  0.00     0.000 A 
HETATM   21  C   UNL     1     -45.958 -51.418  13.122  1.00  0.00     0.001 A 
HETATM   22  C   UNL     1     -44.663 -50.962  13.381  1.00  0.00     0.009 A 
ENDBRANCH  16  17
ENDBRANCH  14  16
ENDBRANCH  13  14
ENDBRANCH  12  13
BRANCH  12  23
HETATM   23  O   UNL     1     -38.980 -51.267  12.068  1.00  0.00    -0.392 OA
HETATM   24  H   UNL     1     -38.620 -51.721  12.858  1.00  0.00     0.210 HD
ENDBRANCH  12  23
ENDBRANCH  11  12
ENDBRANCH   1  11
BRANCH   8  25
HETATM   25  C   UNL     1     -39.368 -55.347  15.851  1.00  0.00    -0.031 C 
BRANCH  25  26
HETATM   26  N   UNL     1     -38.428 -55.858  16.520  1.00  0.00    -0.365 N 
ATOM     27  HN2 UNL     1     -39.177 -55.419  15.984  1.00  0.00     0.165 HD
ATOM     28  HN1 UNL     1     -37.668 -56.272  17.060  1.00  0.00     0.165 HD
ENDBRANCH  25  26
ENDBRANCH   8  25
TORSDOF 9
ENDMDL
MODEL 4
REMARK VINA RESULT:      -5.5      2.285      6.175
REMARK  9 active torsions:
REMARK  status: ('A' for Active; 'I' for Inactive)
REMARK    1  A    between atoms: N_2  and  C_3 
REMARK    2  A    between atoms: N_2  and  C_21 
REMARK    3  A    between atoms: C_3  and  C_4 
REMARK    4  A    between atoms: C_4  and  O_5 
REMARK    5  A    between atoms: C_4  and  C_6 
REMARK    6  A    between atoms: C_6  and  N_7 
REMARK    7  A    between atoms: C_14  and  C_15 
REMARK    8  A    between atoms: C_15  and  N_16 
REMARK    9  A    between atoms: C_21  and  C_22 
ROOT
HETATM    1  N   UNL     1     -41.506 -50.151  12.580  1.00  0.00    -0.254 N 
HETATM    2  N   UNL     1     -42.056 -49.608  11.436  1.00  0.00    -0.300 N 
ATOM      3  HN  UNL     1     -42.785 -50.105  10.923  1.00  0.00     0.187 HD
HETATM    4  C   UNL     1     -41.630 -48.452  11.026  1.00  0.00     0.029 A 
HETATM    5  C   UNL     1     -42.304 -47.871   9.801  1.00  0.00     0.070 C 
HETATM    6  C   UNL     1     -40.550 -47.676  11.681  1.00  0.00    -0.013 A 
HETATM    7  C   UNL     1     -40.122 -46.328  11.177  1.00  0.00     0.052 C 
HETATM    8  C   UNL     1     -40.027 -48.257  12.773  1.00  0.00     0.103 A 
HETATM    9  C   UNL     1     -40.539 -49.522  13.338  1.00  0.00     0.282 A 
HETATM   10  O   UNL     1     -40.129 -49.936  14.416  1.00  0.00    -0.265 OA
ENDROOT
BRANCH   1  11
HETATM   11  C   UNL     1     -42.009 -51.471  12.995  1.00  0.00     0.186 C 
BRANCH  11  12
HETATM   12  C   UNL     1     -41.179 -52.642  12.443  1.00  0.00     0.166 C 
BRANCH  12  13
HETATM   13  C   UNL     1     -41.616 -54.013  13.031  1.00  0.00     0.305 C 
BRANCH  13  14
HETATM   14  N   UNL     1     -42.493 -53.913  14.222  1.00  0.00     0.090 N 
HETATM   15  C   UNL     1     -41.861 -54.518  15.402  1.00  0.00     0.310 C 
BRANCH  14  16
HETATM   16  C   UNL     1     -43.816 -54.517  13.964  1.00  0.00     0.310 C 
BRANCH  16  17
HETATM   17  C   UNL     1     -44.926 -53.480  14.016  1.00  0.00    -0.030 A 
HETATM   18  C   UNL     1     -45.473 -52.975  12.824  1.00  0.00     0.009 A 
HETATM   19  C   UNL     1     -46.382 -51.917  12.856  1.00  0.00     0.001 A 
HETATM   20  C   UNL     1     -46.763 -51.361  14.075  1.00  0.00     0.000 A 
HETATM   21  C   UNL     1     -46.253 -51.875  15.266  1.00  0.00     0.001 A 
HETATM   22  C   UNL     1     -45.343 -52.934  15.240  1.00  0.00     0.009 A 
ENDBRANCH  16  17
ENDBRANCH  14  16
ENDBRANCH  13  14
ENDBRANCH  12  13
BRANCH  12  23
HETATM   23  O   UNL     1     -41.288 -52.609  11.012  1.00  0.00    -0.392 OA
HETATM   24  H   UNL     1     -40.829 -53.417  10.700  1.00  0.00     0.210 HD
ENDBRANCH  12  23
ENDBRANCH  11  12
ENDBRANCH   1  11
BRANCH   8  25
HETATM   25  C   UNL     1     -38.953 -47.526  13.561  1.00  0.00    -0.031 C 
BRANCH  25  26
HETATM   26  N   UNL     1     -38.061 -46.919  14.215  1.00  0.00    -0.365 N 
ATOM     27  HN2 UNL     1     -38.787 -47.425  13.709  1.00  0.00     0.165 HD
ATOM     28  HN1 UNL     1     -37.340 -46.427  14.744  1.00  0.00     0.165 HD
ENDBRANCH  25  26
ENDBRANCH   8  25
TORSDOF 9
ENDMDL
MODEL 5
REMARK VINA RESULT:      -5.5      2.143      3.277
REMARK  9 active torsions:
REMARK  status: ('A' for Active; 'I' for Inactive)
REMARK    1  A    between atoms: N_2  and  C_3 
REMARK    2  A    between atoms: N_2  and  C_21 
REMARK    3  A    between atoms: C_3  and  C_4 
REMARK    4  A    between atoms: C_4  and  O_5 
REMARK    5  A    between atoms: C_4  and  C_6 
REMARK    6  A    between atoms: C_6  and  N_7 
REMARK    7  A    between atoms: C_14  and  C_15 
REMARK    8  A    between atoms: C_15  and  N_16 
REMARK    9  A    between atoms: C_21  and  C_22 
ROOT
HETATM    1  N   UNL     1     -41.995 -52.951  12.434  1.00  0.00    -0.254 N 
HETATM    2  N   UNL     1     -43.288 -52.614  12.087  1.00  0.00    -0.300 N 
ATOM      3  HN  UNL     1     -43.468 -51.971  11.315  1.00  0.00     0.187 HD
HETATM    4  C   UNL     1     -44.270 -53.131  12.760  1.00  0.00     0.029 A 
HETATM    5  C   UNL     1     -45.670 -52.778  12.305  1.00  0.00     0.070 C 
HETATM    6  C   UNL     1     -44.106 -54.041  13.919  1.00  0.00    -0.013 A 
HETATM    7  C   UNL     1     -45.283 -54.632  14.638  1.00  0.00     0.052 C 
HETATM    8  C   UNL     1     -42.830 -54.318  14.236  1.00  0.00     0.103 A 
HETATM    9  C   UNL     1     -41.680 -53.835  13.446  1.00  0.00     0.282 A 
HETATM   10  O   UNL     1     -40.546 -54.234  13.686  1.00  0.00    -0.265 OA
ENDROOT
BRANCH   1  11
HETATM   11  C   UNL     1     -40.915 -52.326  11.653  1.00  0.00     0.186 C 
BRANCH  11  12
HETATM   12  C   UNL     1     -40.881 -50.793  11.776  1.00  0.00     0.166 C 
BRANCH  12  13
HETATM   13  C   UNL     1     -39.951 -50.308  12.923  1.00  0.00     0.305 C 
BRANCH  13  14
HETATM   14  N   UNL     1     -40.667 -49.751  14.095  1.00  0.00     0.090 N 
HETATM   15  C   UNL     1     -40.010 -48.534  14.593  1.00  0.00     0.310 C 
BRANCH  14  16
HETATM   16  C   UNL     1     -40.799 -50.757  15.169  1.00  0.00     0.310 C 
BRANCH  16  17
HETATM   17  C   UNL     1     -42.236 -50.885  15.643  1.00  0.00    -0.030 A 
HETATM   18  C   UNL     1     -42.540 -51.686  16.758  1.00  0.00     0.009 A 
HETATM   19  C   UNL     1     -43.866 -51.933  17.111  1.00  0.00     0.001 A 
HETATM   20  C   UNL     1     -44.902 -51.375  16.364  1.00  0.00     0.000 A 
HETATM   21  C   UNL     1     -44.614 -50.553  15.276  1.00  0.00     0.001 A 
HETATM   22  C   UNL     1     -43.287 -50.302  14.919  1.00  0.00     0.009 A 
ENDBRANCH  16  17
ENDBRANCH  14  16
ENDBRANCH  13  14
ENDBRANCH  12  13
BRANCH  12  23
HETATM   23  O   UNL     1     -40.485 -50.268  10.501  1.00  0.00    -0.392 OA
HETATM   24  H   UNL     1     -39.505 -50.256  10.520  1.00  0.00     0.210 HD
ENDBRANCH  12  23
ENDBRANCH  11  12
ENDBRANCH   1  11
BRANCH   8  25
HETATM   25  C   UNL     1     -42.541 -55.286  15.371  1.00  0.00    -0.031 C 
BRANCH  25  26
HETATM   26  N   UNL     1     -42.300 -56.089  16.314  1.00  0.00    -0.365 N 
ATOM     27  HN2 UNL     1     -42.519 -55.452  15.548  1.00  0.00     0.165 HD
ATOM     28  HN1 UNL     1     -42.106 -56.738  17.077  1.00  0.00     0.165 HD
ENDBRANCH  25  26
ENDBRANCH   8  25
TORSDOF 9
ENDMDL
MODEL 6
REMARK VINA RESULT:      -5.5      3.459      5.665
REMARK  9 active torsions:
REMARK  status: ('A' for Active; 'I' for Inactive)
REMARK    1  A    between atoms: N_2  and  C_3 
REMARK    2  A    between atoms: N_2  and  C_21 
REMARK    3  A    between atoms: C_3  and  C_4 
REMARK    4  A    between atoms: C_4  and  O_5 
REMARK    5  A    between atoms: C_4  and  C_6 
REMARK    6  A    between atoms: C_6  and  N_7 
REMARK    7  A    between atoms: C_14  and  C_15 
REMARK    8  A    between atoms: C_15  and  N_16 
REMARK    9  A    between atoms: C_21  and  C_22 
ROOT
HETATM    1  N   UNL     1     -40.907 -51.231  12.048  1.00  0.00    -0.254 N 
HETATM    2  N   UNL     1     -42.258 -51.518  12.039  1.00  0.00    -0.300 N 
ATOM      3  HN  UNL     1     -42.913 -50.918  11.537  1.00  0.00     0.187 HD
HETATM    4  C   UNL     1     -42.679 -52.565  12.681  1.00  0.00     0.029 A 
HETATM    5  C   UNL     1     -44.159 -52.870  12.594  1.00  0.00     0.070 C 
HETATM    6  C   UNL     1     -41.810 -53.470  13.471  1.00  0.00    -0.013 A 
HETATM    7  C   UNL     1     -42.352 -54.684  14.166  1.00  0.00     0.052 C 
HETATM    8  C   UNL     1     -40.509 -53.135  13.472  1.00  0.00     0.103 A 
HETATM    9  C   UNL     1     -39.964 -52.013  12.682  1.00  0.00     0.282 A 
HETATM   10  O   UNL     1     -38.753 -51.839  12.598  1.00  0.00    -0.265 OA
ENDROOT
BRANCH   1  11
HETATM   11  C   UNL     1     -40.481 -50.024  11.320  1.00  0.00     0.186 C 
BRANCH  11  12
HETATM   12  C   UNL     1     -41.040 -48.722  11.919  1.00  0.00     0.166 C 
BRANCH  12  13
HETATM   13  C   UNL     1     -42.319 -48.230  11.186  1.00  0.00     0.305 C 
BRANCH  13  14
HETATM   14  N   UNL     1     -42.077 -47.161  10.189  1.00  0.00     0.090 N 
HETATM   15  C   UNL     1     -40.954 -46.302  10.589  1.00  0.00     0.310 C 
BRANCH  14  16
HETATM   16  C   UNL     1     -43.296 -46.362   9.954  1.00  0.00     0.310 C 
BRANCH  16  17
HETATM   17  C   UNL     1     -44.312 -47.120   9.117  1.00  0.00    -0.030 A 
HETATM   18  C   UNL     1     -45.624 -47.294   9.590  1.00  0.00     0.009 A 
HETATM   19  C   UNL     1     -46.520 -48.114   8.905  1.00  0.00     0.001 A 
HETATM   20  C   UNL     1     -46.122 -48.757   7.735  1.00  0.00     0.000 A 
HETATM   21  C   UNL     1     -44.835 -48.567   7.238  1.00  0.00     0.001 A 
HETATM   22  C   UNL     1     -43.934 -47.746   7.920  1.00  0.00     0.009 A 
ENDBRANCH  16  17
ENDBRANCH  14  16
ENDBRANCH  13  14
ENDBRANCH  12  13
BRANCH  12  23
HETATM   23  O   UNL     1     -41.274 -48.958  13.315  1.00  0.00    -0.392 OA
HETATM   24  H   UNL     1     -41.121 -48.094  13.752  1.00  0.00     0.210 HD
ENDBRANCH  12  23
ENDBRANCH  11  12
ENDBRANCH   1  11
BRANCH   8  25
HETATM   25  C   UNL     1     -39.515 -54.024  14.201  1.00  0.00    -0.031 C 
BRANCH  25  26
HETATM   26  N   UNL     1     -38.690 -54.762  14.806  1.00  0.00    -0.365 N 
ATOM     27  HN2 UNL     1     -39.345 -54.144  14.329  1.00  0.00     0.165 HD
ATOM     28  HN1 UNL     1     -38.022 -55.359  15.295  1.00  0.00     0.165 HD
ENDBRANCH  25  26
ENDBRANCH   8  25
TORSDOF 9
ENDMDL
MODEL 7
REMARK VINA RESULT:      -5.4      2.165      5.523
REMARK  9 active torsions:
REMARK  status: ('A' for Active; 'I' for Inactive)
REMARK    1  A    between atoms: N_2  and  C_3 
REMARK    2  A    between atoms: N_2  and  C_21 
REMARK    3  A    between atoms: C_3  and  C_4 
REMARK    4  A    between atoms: C_4  and  O_5 
REMARK    5  A    between atoms: C_4  and  C_6 
REMARK    6  A    between atoms: C_6  and  N_7 
REMARK    7  A    between atoms: C_14  and  C_15 
REMARK    8  A    between atoms: C_15  and  N_16 
REMARK    9  A    between atoms: C_21  and  C_22 
ROOT
HETATM    1  N   UNL     1     -41.647 -50.597  12.323  1.00  0.00    -0.254 N 
HETATM    2  N   UNL     1     -40.296 -50.476  12.062  1.00  0.00    -0.300 N 
ATOM      3  HN  UNL     1     -39.733 -51.300  11.845  1.00  0.00     0.187 HD
HETATM    4  C   UNL     1     -39.756 -49.297  12.097  1.00  0.00     0.029 A 
HETATM    5  C   UNL     1     -38.286 -49.208  11.746  1.00  0.00     0.070 C 
HETATM    6  C   UNL     1     -40.482 -48.051  12.441  1.00  0.00    -0.013 A 
HETATM    7  C   UNL     1     -39.809 -46.710  12.433  1.00  0.00     0.052 C 
HETATM    8  C   UNL     1     -41.787 -48.222  12.714  1.00  0.00     0.103 A 
HETATM    9  C   UNL     1     -42.472 -49.525  12.595  1.00  0.00     0.282 A 
HETATM   10  O   UNL     1     -43.690 -49.603  12.711  1.00  0.00    -0.265 OA
ENDROOT
BRANCH   1  11
HETATM   11  C   UNL     1     -42.209 -51.957  12.289  1.00  0.00     0.186 C 
BRANCH  11  12
HETATM   12  C   UNL     1     -41.183 -53.050  12.631  1.00  0.00     0.166 C 
BRANCH  12  13
HETATM   13  C   UNL     1     -41.836 -54.291  13.302  1.00  0.00     0.305 C 
BRANCH  13  14
HETATM   14  N   UNL     1     -42.405 -54.030  14.645  1.00  0.00     0.090 N 
HETATM   15  C   UNL     1     -41.539 -54.563  15.706  1.00  0.00     0.310 C 
BRANCH  14  16
HETATM   16  C   UNL     1     -43.775 -54.570  14.761  1.00  0.00     0.310 C 
BRANCH  16  17
HETATM   17  C   UNL     1     -44.823 -53.516  14.447  1.00  0.00    -0.030 A 
HETATM   18  C   UNL     1     -45.451 -53.500  13.189  1.00  0.00     0.009 A 
HETATM   19  C   UNL     1     -46.300 -52.452  12.836  1.00  0.00     0.001 A 
HETATM   20  C   UNL     1     -46.541 -51.416  13.736  1.00  0.00     0.000 A 
HETATM   21  C   UNL     1     -45.951 -51.437  14.998  1.00  0.00     0.001 A 
HETATM   22  C   UNL     1     -45.100 -52.485  15.357  1.00  0.00     0.009 A 
ENDBRANCH  16  17
ENDBRANCH  14  16
ENDBRANCH  13  14
ENDBRANCH  12  13
BRANCH  12  23
HETATM   23  O   UNL     1     -40.499 -53.391  11.417  1.00  0.00    -0.392 OA
HETATM   24  H   UNL     1     -40.214 -54.322  11.534  1.00  0.00     0.210 HD
ENDBRANCH  12  23
ENDBRANCH  11  12
ENDBRANCH   1  11
BRANCH   8  25
HETATM   25  C   UNL     1     -42.646 -47.007  13.023  1.00  0.00    -0.031 C 
BRANCH  25  26
HETATM   26  N   UNL     1     -43.359 -45.999  13.280  1.00  0.00    -0.365 N 
ATOM     27  HN2 UNL     1     -42.767 -46.798  13.055  1.00  0.00     0.165 HD
ATOM     28  HN1 UNL     1     -43.936 -45.184  13.489  1.00  0.00     0.165 HD
ENDBRANCH  25  26
ENDBRANCH   8  25
TORSDOF 9
ENDMDL
MODEL 8
REMARK VINA RESULT:      -5.4      3.149      6.979
REMARK  9 active torsions:
REMARK  status: ('A' for Active; 'I' for Inactive)
REMARK    1  A    between atoms: N_2  and  C_3 
REMARK    2  A    between atoms: N_2  and  C_21 
REMARK    3  A    between atoms: C_3  and  C_4 
REMARK    4  A    between atoms: C_4  and  O_5 
REMARK    5  A    between atoms: C_4  and  C_6 
REMARK    6  A    between atoms: C_6  and  N_7 
REMARK    7  A    between atoms: C_14  and  C_15 
REMARK    8  A    between atoms: C_15  and  N_16 
REMARK    9  A    between atoms: C_21  and  C_22 
ROOT
HETATM    1  N   UNL     1     -41.949 -48.468  11.827  1.00  0.00    -0.254 N 
HETATM    2  N   UNL     1     -43.172 -48.576  11.195  1.00  0.00    -0.300 N 
ATOM      3  HN  UNL     1     -43.732 -49.424  11.289  1.00  0.00     0.187 HD
HETATM    4  C   UNL     1     -43.596 -47.579  10.480  1.00  0.00     0.029 A 
HETATM    5  C   UNL     1     -44.968 -47.721   9.855  1.00  0.00     0.070 C 
HETATM    6  C   UNL     1     -42.836 -46.326  10.253  1.00  0.00    -0.013 A 
HETATM    7  C   UNL     1     -43.394 -45.194   9.442  1.00  0.00     0.052 C 
HETATM    8  C   UNL     1     -41.641 -46.279  10.866  1.00  0.00     0.103 A 
HETATM    9  C   UNL     1     -41.153 -47.343  11.767  1.00  0.00     0.282 A 
HETATM   10  O   UNL     1     -40.126 -47.187  12.417  1.00  0.00    -0.265 OA
ENDROOT
BRANCH   1  11
HETATM   11  C   UNL     1     -41.504 -49.632  12.611  1.00  0.00     0.186 C 
BRANCH  11  12
HETATM   12  C   UNL     1     -40.694 -50.648  11.789  1.00  0.00     0.166 C 
BRANCH  12  13
HETATM   13  C   UNL     1     -41.282 -52.085  11.869  1.00  0.00     0.305 C 
BRANCH  13  14
HETATM   14  N   UNL     1     -42.389 -52.236  12.843  1.00  0.00     0.090 N 
HETATM   15  C   UNL     1     -41.930 -52.895  14.074  1.00  0.00     0.310 C 
BRANCH  14  16
HETATM   16  C   UNL     1     -43.529 -52.963  12.249  1.00  0.00     0.310 C 
BRANCH  16  17
HETATM   17  C   UNL     1     -44.790 -52.806  13.082  1.00  0.00    -0.030 A 
HETATM   18  C   UNL     1     -45.327 -51.528  13.312  1.00  0.00     0.009 A 
HETATM   19  C   UNL     1     -46.392 -51.357  14.196  1.00  0.00     0.001 A 
HETATM   20  C   UNL     1     -46.940 -52.459  14.850  1.00  0.00     0.000 A 
HETATM   21  C   UNL     1     -46.437 -53.735  14.606  1.00  0.00     0.001 A 
HETATM   22  C   UNL     1     -45.371 -53.912  13.721  1.00  0.00     0.009 A 
ENDBRANCH  16  17
ENDBRANCH  14  16
ENDBRANCH  13  14
ENDBRANCH  12  13
BRANCH  12  23
HETATM   23  O   UNL     1     -40.640 -50.162  10.439  1.00  0.00    -0.392 OA
HETATM   24  H   UNL     1     -41.408 -50.570   9.987  1.00  0.00     0.210 HD
ENDBRANCH  12  23
ENDBRANCH  11  12
ENDBRANCH   1  11
BRANCH   8  25
HETATM   25  C   UNL     1     -40.798 -45.019  10.752  1.00  0.00    -0.031 C 
BRANCH  25  26
HETATM   26  N   UNL     1     -40.099 -43.974  10.658  1.00  0.00    -0.365 N 
ATOM     27  HN2 UNL     1     -40.660 -44.824  10.707  1.00  0.00     0.165 HD
ATOM     28  HN1 UNL     1     -39.533 -43.128  10.583  1.00  0.00     0.165 HD
ENDBRANCH  25  26
ENDBRANCH   8  25
TORSDOF 9
ENDMDL
MODEL 9
REMARK VINA RESULT:      -5.3      3.040      5.343
REMARK  9 active torsions:
REMARK  status: ('A' for Active; 'I' for Inactive)
REMARK    1  A    between atoms: N_2  and  C_3 
REMARK    2  A    between atoms: N_2  and  C_21 
REMARK    3  A    between atoms: C_3  and  C_4 
REMARK    4  A    between atoms: C_4  and  O_5 
REMARK    5  A    between atoms: C_4  and  C_6 
REMARK    6  A    between atoms: C_6  and  N_7 
REMARK    7  A    between atoms: C_14  and  C_15 
REMARK    8  A    between atoms: C_15  and  N_16 
REMARK    9  A    between atoms: C_21  and  C_22 
ROOT
HETATM    1  N   UNL     1     -41.986 -52.892  12.459  1.00  0.00    -0.254 N 
HETATM    2  N   UNL     1     -43.280 -52.566  12.105  1.00  0.00    -0.300 N 
ATOM      3  HN  UNL     1     -43.461 -51.915  11.340  1.00  0.00     0.187 HD
HETATM    4  C   UNL     1     -44.262 -53.102  12.763  1.00  0.00     0.029 A 
HETATM    5  C   UNL     1     -45.662 -52.758  12.301  1.00  0.00     0.070 C 
HETATM    6  C   UNL     1     -44.097 -54.023  13.913  1.00  0.00    -0.013 A 
HETATM    7  C   UNL     1     -45.273 -54.637  14.615  1.00  0.00     0.052 C 
HETATM    8  C   UNL     1     -42.821 -54.290  14.237  1.00  0.00     0.103 A 
HETATM    9  C   UNL     1     -41.669 -53.784  13.463  1.00  0.00     0.282 A 
HETATM   10  O   UNL     1     -40.533 -54.174  13.707  1.00  0.00    -0.265 OA
ENDROOT
BRANCH   1  11
HETATM   11  C   UNL     1     -40.906 -52.245  11.694  1.00  0.00     0.186 C 
BRANCH  11  12
HETATM   12  C   UNL     1     -40.964 -50.709  11.738  1.00  0.00     0.166 C 
BRANCH  12  13
HETATM   13  C   UNL     1     -40.171 -50.117  12.936  1.00  0.00     0.305 C 
BRANCH  13  14
HETATM   14  N   UNL     1     -39.195 -49.066  12.561  1.00  0.00     0.090 N 
HETATM   15  C   UNL     1     -37.821 -49.589  12.564  1.00  0.00     0.310 C 
BRANCH  14  16
HETATM   16  C   UNL     1     -39.313 -47.887  13.442  1.00  0.00     0.310 C 
BRANCH  16  17
HETATM   17  C   UNL     1     -39.611 -46.624  12.653  1.00  0.00    -0.030 A 
HETATM   18  C   UNL     1     -40.032 -46.713  11.314  1.00  0.00     0.009 A 
HETATM   19  C   UNL     1     -40.161 -45.564  10.535  1.00  0.00     0.001 A 
HETATM   20  C   UNL     1     -39.885 -44.314  11.085  1.00  0.00     0.000 A 
HETATM   21  C   UNL     1     -39.498 -44.209  12.420  1.00  0.00     0.001 A 
HETATM   22  C   UNL     1     -39.368 -45.357  13.204  1.00  0.00     0.009 A 
ENDBRANCH  16  17
ENDBRANCH  14  16
ENDBRANCH  13  14
ENDBRANCH  12  13
BRANCH  12  23
HETATM   23  O   UNL     1     -40.479 -50.225  10.477  1.00  0.00    -0.392 OA
HETATM   24  H   UNL     1     -41.083 -50.604   9.805  1.00  0.00     0.210 HD
ENDBRANCH  12  23
ENDBRANCH  11  12
ENDBRANCH   1  11
BRANCH   8  25
HETATM   25  C   UNL     1     -42.530 -55.268  15.363  1.00  0.00    -0.031 C 
BRANCH  25  26
HETATM   26  N   UNL     1     -42.289 -56.080  16.298  1.00  0.00    -0.365 N 
ATOM     27  HN2 UNL     1     -42.503 -55.441  15.533  1.00  0.00     0.165 HD
ATOM     28  HN1 UNL     1     -42.093 -56.736  17.055  1.00  0.00     0.165 HD
ENDBRANCH  25  26
ENDBRANCH   8  25
TORSDOF 9
ENDMDL
