MODEL 1
REMARK VINA RESULT:      -5.9      0.000      0.000
REMARK  5 active torsions:
REMARK  status: ('A' for Active; 'I' for Inactive)
REMARK    1  A    between atoms: N_5  and  C_6 
REMARK    2  A    between atoms: C_6  and  C_7 
REMARK    3  A    between atoms: C_7  and  O_8 
REMARK    4  A    between atoms: C_7  and  C_9 
REMARK    5  A    between atoms: C_9  and  N_10 
ROOT
HETATM    1  C   UNL     1     -40.976 -49.311  11.271  1.00  0.00     0.164 C 
ENDROOT
BRANCH   1   2
HETATM    2  C   UNL     1     -40.342 -47.926  11.556  1.00  0.00     0.305 C 
BRANCH   2   3
HETATM    3  N   UNL     1     -41.280 -46.783  11.633  1.00  0.00     0.091 N 
HETATM    4  C   UNL     1     -41.225 -45.869  10.478  1.00  0.00     0.273 C 
HETATM    5  C   UNL     1     -39.890 -45.126  10.365  1.00  0.00     0.034 C 
HETATM    6  C   UNL     1     -39.584 -44.321  11.636  1.00  0.00    -0.015 C 
HETATM    7  C   UNL     1     -40.431 -43.047  11.694  1.00  0.00     0.010 C 
HETATM    8  C   UNL     1     -39.781 -45.189  12.890  1.00  0.00     0.034 C 
HETATM    9  C   UNL     1     -41.083 -46.002  12.866  1.00  0.00     0.273 C 
ENDBRANCH   2   3
ENDBRANCH   1   2
BRANCH   1  10
HETATM   10  O   UNL     1     -40.237 -50.015  10.264  1.00  0.00    -0.392 OA
HETATM   11  H   UNL     1     -40.577 -50.930  10.199  1.00  0.00     0.210 HD
ENDBRANCH   1  10
BRANCH   1  12
HETATM   12  C   UNL     1     -41.024 -50.163  12.563  1.00  0.00     0.166 C 
BRANCH  12  13
HETATM   13  N   UNL     1     -42.185 -51.046  12.552  1.00  0.00    -0.307 N 
HETATM   14  C   UNL     1     -42.077 -52.333  12.107  1.00  0.00     0.186 C 
HETATM   15  N   UNL     1     -42.981 -53.238  12.239  1.00  0.00    -0.355 N 
HETATM   16  C   UNL     1     -44.108 -52.906  12.959  1.00  0.00     0.017 C 
ATOM     17  HN  UNL     1     -42.868 -54.164  11.827  1.00  0.00     0.166 HD
HETATM   18  C   UNL     1     -45.040 -54.061  13.216  1.00  0.00     0.069 C 
HETATM   19  C   UNL     1     -44.351 -51.676  13.445  1.00  0.00     0.028 C 
HETATM   20  C   UNL     1     -45.492 -51.264  14.323  1.00  0.00     0.056 C 
HETATM   21  C   UNL     1     -43.349 -50.617  13.158  1.00  0.00     0.256 C 
HETATM   22  O   UNL     1     -43.541 -49.449  13.496  1.00  0.00    -0.267 OA
ENDBRANCH  12  13
ENDBRANCH   1  12
TORSDOF 5
ENDMDL
MODEL 2
REMARK VINA RESULT:      -5.9      3.344      6.839
REMARK  5 active torsions:
REMARK  status: ('A' for Active; 'I' for Inactive)
REMARK    1  A    between atoms: N_5  and  C_6 
REMARK    2  A    between atoms: C_6  and  C_7 
REMARK    3  A    between atoms: C_7  and  O_8 
REMARK    4  A    between atoms: C_7  and  C_9 
REMARK    5  A    between atoms: C_9  and  N_10 
ROOT
HETATM    1  C   UNL     1     -41.132 -52.612  12.367  1.00  0.00     0.164 C 
ENDROOT
BRANCH   1   2
HETATM    2  C   UNL     1     -42.677 -52.645  12.255  1.00  0.00     0.305 C 
BRANCH   2   3
HETATM    3  N   UNL     1     -43.412 -53.010  13.488  1.00  0.00     0.091 N 
HETATM    4  C   UNL     1     -44.750 -53.582  13.254  1.00  0.00     0.273 C 
HETATM    5  C   UNL     1     -45.729 -52.582  12.632  1.00  0.00     0.034 C 
HETATM    6  C   UNL     1     -45.884 -51.328  13.505  1.00  0.00    -0.015 C 
HETATM    7  C   UNL     1     -46.759 -51.617  14.727  1.00  0.00     0.010 C 
HETATM    8  C   UNL     1     -44.507 -50.777  13.912  1.00  0.00     0.034 C 
HETATM    9  C   UNL     1     -43.540 -51.862  14.403  1.00  0.00     0.273 C 
ENDBRANCH   2   3
ENDBRANCH   1   2
BRANCH   1  10
HETATM   10  O   UNL     1     -40.529 -53.446  11.368  1.00  0.00    -0.392 OA
HETATM   11  H   UNL     1     -39.560 -53.310  11.381  1.00  0.00     0.210 HD
ENDBRANCH   1  10
BRANCH   1  12
HETATM   12  C   UNL     1     -40.607 -51.163  12.211  1.00  0.00     0.166 C 
BRANCH  12  13
HETATM   13  N   UNL     1     -39.795 -50.786  13.363  1.00  0.00    -0.307 N 
HETATM   14  C   UNL     1     -39.416 -51.721  14.284  1.00  0.00     0.186 C 
HETATM   15  N   UNL     1     -38.549 -51.531  15.215  1.00  0.00    -0.355 N 
HETATM   16  C   UNL     1     -37.892 -50.320  15.230  1.00  0.00     0.017 C 
ATOM     17  HN  UNL     1     -38.356 -52.248  15.914  1.00  0.00     0.166 HD
HETATM   18  C   UNL     1     -36.776 -50.235  16.238  1.00  0.00     0.069 C 
HETATM   19  C   UNL     1     -38.171 -49.306  14.391  1.00  0.00     0.028 C 
HETATM   20  C   UNL     1     -37.435 -48.008  14.274  1.00  0.00     0.056 C 
HETATM   21  C   UNL     1     -39.272 -49.509  13.416  1.00  0.00     0.256 C 
HETATM   22  O   UNL     1     -39.642 -48.599  12.674  1.00  0.00    -0.267 OA
ENDBRANCH  12  13
ENDBRANCH   1  12
TORSDOF 5
ENDMDL
MODEL 3
REMARK VINA RESULT:      -5.8      2.391      6.719
REMARK  5 active torsions:
REMARK  status: ('A' for Active; 'I' for Inactive)
REMARK    1  A    between atoms: N_5  and  C_6 
REMARK    2  A    between atoms: C_6  and  C_7 
REMARK    3  A    between atoms: C_7  and  O_8 
REMARK    4  A    between atoms: C_7  and  C_9 
REMARK    5  A    between atoms: C_9  and  N_10 
ROOT
HETATM    1  C   UNL     1     -41.258 -52.439  12.264  1.00  0.00     0.164 C 
ENDROOT
BRANCH   1   2
HETATM    2  C   UNL     1     -42.775 -52.749  12.242  1.00  0.00     0.305 C 
BRANCH   2   3
HETATM    3  N   UNL     1     -43.421 -52.942  13.560  1.00  0.00     0.091 N 
HETATM    4  C   UNL     1     -44.732 -53.614  13.506  1.00  0.00     0.273 C 
HETATM    5  C   UNL     1     -45.802 -52.783  12.791  1.00  0.00     0.034 C 
HETATM    6  C   UNL     1     -45.987 -51.411  13.456  1.00  0.00    -0.015 C 
HETATM    7  C   UNL     1     -46.778 -51.538  14.760  1.00  0.00     0.010 C 
HETATM    8  C   UNL     1     -44.628 -50.729  13.682  1.00  0.00     0.034 C 
HETATM    9  C   UNL     1     -43.571 -51.667  14.282  1.00  0.00     0.273 C 
ENDBRANCH   2   3
ENDBRANCH   1   2
BRANCH   1  10
HETATM   10  O   UNL     1     -40.529 -53.390  11.477  1.00  0.00    -0.392 OA
HETATM   11  H   UNL     1     -40.514 -54.249  11.945  1.00  0.00     0.210 HD
ENDBRANCH   1  10
BRANCH   1  12
HETATM   12  C   UNL     1     -40.987 -51.012  11.726  1.00  0.00     0.166 C 
BRANCH  12  13
HETATM   13  N   UNL     1     -40.165 -50.257  12.666  1.00  0.00    -0.307 N 
HETATM   14  C   UNL     1     -38.931 -50.713  13.033  1.00  0.00     0.186 C 
HETATM   15  N   UNL     1     -38.060 -50.035  13.693  1.00  0.00    -0.355 N 
HETATM   16  C   UNL     1     -38.363 -48.720  13.974  1.00  0.00     0.017 C 
ATOM     17  HN  UNL     1     -37.181 -50.453  13.996  1.00  0.00     0.166 HD
HETATM   18  C   UNL     1     -37.231 -47.945  14.595  1.00  0.00     0.069 C 
HETATM   19  C   UNL     1     -39.542 -48.144  13.681  1.00  0.00     0.028 C 
HETATM   20  C   UNL     1     -39.907 -46.703  13.856  1.00  0.00     0.056 C 
HETATM   21  C   UNL     1     -40.578 -48.995  13.042  1.00  0.00     0.256 C 
HETATM   22  O   UNL     1     -41.710 -48.563  12.821  1.00  0.00    -0.267 OA
ENDBRANCH  12  13
ENDBRANCH   1  12
TORSDOF 5
ENDMDL
MODEL 4
REMARK VINA RESULT:      -5.7      3.414      7.382
REMARK  5 active torsions:
REMARK  status: ('A' for Active; 'I' for Inactive)
REMARK    1  A    between atoms: N_5  and  C_6 
REMARK    2  A    between atoms: C_6  and  C_7 
REMARK    3  A    between atoms: C_7  and  O_8 
REMARK    4  A    between atoms: C_7  and  C_9 
REMARK    5  A    between atoms: C_9  and  N_10 
ROOT
HETATM    1  C   UNL     1     -42.160 -53.915  14.443  1.00  0.00     0.164 C 
ENDROOT
BRANCH   1   2
HETATM    2  C   UNL     1     -43.688 -54.058  14.237  1.00  0.00     0.305 C 
BRANCH   2   3
HETATM    3  N   UNL     1     -44.531 -53.847  15.437  1.00  0.00     0.091 N 
HETATM    4  C   UNL     1     -45.966 -54.108  15.229  1.00  0.00     0.273 C 
HETATM    5  C   UNL     1     -46.619 -53.122  14.255  1.00  0.00     0.034 C 
HETATM    6  C   UNL     1     -46.453 -51.670  14.727  1.00  0.00    -0.015 C 
HETATM    7  C   UNL     1     -47.409 -51.358  15.881  1.00  0.00     0.010 C 
HETATM    8  C   UNL     1     -44.991 -51.388  15.111  1.00  0.00     0.034 C 
HETATM    9  C   UNL     1     -44.369 -52.489  15.982  1.00  0.00     0.273 C 
ENDBRANCH   2   3
ENDBRANCH   1   2
BRANCH   1  10
HETATM   10  O   UNL     1     -41.693 -54.815  15.458  1.00  0.00    -0.392 OA
HETATM   11  H   UNL     1     -40.862 -54.466  15.837  1.00  0.00     0.210 HD
ENDBRANCH   1  10
BRANCH   1  12
HETATM   12  C   UNL     1     -41.404 -54.196  13.120  1.00  0.00     0.166 C 
BRANCH  12  13
HETATM   13  N   UNL     1     -40.744 -52.986  12.641  1.00  0.00    -0.307 N 
HETATM   14  C   UNL     1     -41.389 -52.130  11.794  1.00  0.00     0.186 C 
HETATM   15  N   UNL     1     -40.973 -50.955  11.474  1.00  0.00    -0.355 N 
HETATM   16  C   UNL     1     -39.836 -50.495  12.101  1.00  0.00     0.017 C 
ATOM     17  HN  UNL     1     -41.466 -50.388  10.785  1.00  0.00     0.166 HD
HETATM   18  C   UNL     1     -39.508 -49.055  11.807  1.00  0.00     0.069 C 
HETATM   19  C   UNL     1     -39.096 -51.233  12.948  1.00  0.00     0.028 C 
HETATM   20  C   UNL     1     -37.916 -50.774  13.746  1.00  0.00     0.056 C 
HETATM   21  C   UNL     1     -39.527 -52.633  13.190  1.00  0.00     0.256 C 
HETATM   22  O   UNL     1     -38.856 -53.396  13.884  1.00  0.00    -0.267 OA
ENDBRANCH  12  13
ENDBRANCH   1  12
TORSDOF 5
ENDMDL
MODEL 5
REMARK VINA RESULT:      -5.5      3.234      4.174
REMARK  5 active torsions:
REMARK  status: ('A' for Active; 'I' for Inactive)
REMARK    1  A    between atoms: N_5  and  C_6 
REMARK    2  A    between atoms: C_6  and  C_7 
REMARK    3  A    between atoms: C_7  and  O_8 
REMARK    4  A    between atoms: C_7  and  C_9 
REMARK    5  A    between atoms: C_9  and  N_10 
ROOT
HETATM    1  C   UNL     1     -41.097 -50.855  11.971  1.00  0.00     0.164 C 
ENDROOT
BRANCH   1   2
HETATM    2  C   UNL     1     -40.350 -49.983  13.010  1.00  0.00     0.305 C 
BRANCH   2   3
HETATM    3  N   UNL     1     -38.927 -50.321  13.243  1.00  0.00     0.091 N 
HETATM    4  C   UNL     1     -38.623 -50.776  14.611  1.00  0.00     0.273 C 
HETATM    5  C   UNL     1     -38.824 -49.683  15.665  1.00  0.00     0.034 C 
HETATM    6  C   UNL     1     -37.966 -48.445  15.363  1.00  0.00    -0.015 C 
HETATM    7  C   UNL     1     -36.500 -48.695  15.722  1.00  0.00     0.010 C 
HETATM    8  C   UNL     1     -38.126 -48.019  13.894  1.00  0.00     0.034 C 
HETATM    9  C   UNL     1     -38.040 -49.193  12.909  1.00  0.00     0.273 C 
ENDBRANCH   2   3
ENDBRANCH   1   2
BRANCH   1  10
HETATM   10  O   UNL     1     -40.643 -50.569  10.641  1.00  0.00    -0.392 OA
HETATM   11  H   UNL     1     -41.397 -50.244  10.109  1.00  0.00     0.210 HD
ENDBRANCH   1  10
BRANCH   1  12
HETATM   12  C   UNL     1     -40.888 -52.360  12.273  1.00  0.00     0.166 C 
BRANCH  12  13
HETATM   13  N   UNL     1     -42.085 -52.933  12.879  1.00  0.00    -0.307 N 
HETATM   14  C   UNL     1     -43.282 -52.901  12.221  1.00  0.00     0.186 C 
HETATM   15  N   UNL     1     -44.337 -53.543  12.579  1.00  0.00    -0.355 N 
HETATM   16  C   UNL     1     -44.226 -54.393  13.657  1.00  0.00     0.017 C 
ATOM     17  HN  UNL     1     -45.221 -53.427  12.084  1.00  0.00     0.166 HD
HETATM   18  C   UNL     1     -45.449 -55.235  13.909  1.00  0.00     0.069 C 
HETATM   19  C   UNL     1     -43.113 -54.516  14.402  1.00  0.00     0.028 C 
HETATM   20  C   UNL     1     -42.878 -55.489  15.515  1.00  0.00     0.056 C 
HETATM   21  C   UNL     1     -41.954 -53.658  14.046  1.00  0.00     0.256 C 
HETATM   22  O   UNL     1     -40.931 -53.652  14.731  1.00  0.00    -0.267 OA
ENDBRANCH  12  13
ENDBRANCH   1  12
TORSDOF 5
ENDMDL
MODEL 6
REMARK VINA RESULT:      -5.5      1.930      2.730
REMARK  5 active torsions:
REMARK  status: ('A' for Active; 'I' for Inactive)
REMARK    1  A    between atoms: N_5  and  C_6 
REMARK    2  A    between atoms: C_6  and  C_7 
REMARK    3  A    between atoms: C_7  and  O_8 
REMARK    4  A    between atoms: C_7  and  C_9 
REMARK    5  A    between atoms: C_9  and  N_10 
ROOT
HETATM    1  C   UNL     1     -40.476 -49.226  11.492  1.00  0.00     0.164 C 
ENDROOT
BRANCH   1   2
HETATM    2  C   UNL     1     -40.062 -47.753  11.253  1.00  0.00     0.305 C 
BRANCH   2   3
HETATM    3  N   UNL     1     -41.101 -46.731  11.520  1.00  0.00     0.091 N 
HETATM    4  C   UNL     1     -41.176 -45.659  10.512  1.00  0.00     0.273 C 
HETATM    5  C   UNL     1     -39.923 -44.778  10.480  1.00  0.00     0.034 C 
HETATM    6  C   UNL     1     -39.648 -44.139  11.849  1.00  0.00    -0.015 C 
HETATM    7  C   UNL     1     -40.610 -42.978  12.114  1.00  0.00     0.010 C 
HETATM    8  C   UNL     1     -39.714 -45.195  12.964  1.00  0.00     0.034 C 
HETATM    9  C   UNL     1     -40.933 -46.122  12.851  1.00  0.00     0.273 C 
ENDBRANCH   2   3
ENDBRANCH   1   2
BRANCH   1  10
HETATM   10  O   UNL     1     -40.431 -49.975  10.270  1.00  0.00    -0.392 OA
HETATM   11  H   UNL     1     -40.581 -49.368   9.517  1.00  0.00     0.210 HD
ENDBRANCH   1  10
BRANCH   1  12
HETATM   12  C   UNL     1     -39.544 -49.890  12.536  1.00  0.00     0.166 C 
BRANCH  12  13
HETATM   13  N   UNL     1     -40.222 -51.002  13.194  1.00  0.00    -0.307 N 
HETATM   14  C   UNL     1     -41.581 -51.000  13.341  1.00  0.00     0.186 C 
HETATM   15  N   UNL     1     -42.282 -52.008  13.724  1.00  0.00    -0.355 N 
HETATM   16  C   UNL     1     -41.623 -53.201  13.919  1.00  0.00     0.017 C 
ATOM     17  HN  UNL     1     -43.287 -51.925  13.878  1.00  0.00     0.166 HD
HETATM   18  C   UNL     1     -42.529 -54.370  14.199  1.00  0.00     0.069 C 
HETATM   19  C   UNL     1     -40.289 -53.344  13.820  1.00  0.00     0.028 C 
HETATM   20  C   UNL     1     -39.512 -54.621  13.911  1.00  0.00     0.056 C 
HETATM   21  C   UNL     1     -39.492 -52.130  13.510  1.00  0.00     0.256 C 
HETATM   22  O   UNL     1     -38.261 -52.163  13.487  1.00  0.00    -0.267 OA
ENDBRANCH  12  13
ENDBRANCH   1  12
TORSDOF 5
ENDMDL
MODEL 7
REMARK VINA RESULT:      -5.3      1.593      7.585
REMARK  5 active torsions:
REMARK  status: ('A' for Active; 'I' for Inactive)
REMARK    1  A    between atoms: N_5  and  C_6 
REMARK    2  A    between atoms: C_6  and  C_7 
REMARK    3  A    between atoms: C_7  and  O_8 
REMARK    4  A    between atoms: C_7  and  C_9 
REMARK    5  A    between atoms: C_9  and  N_10 
ROOT
HETATM    1  C   UNL     1     -41.923 -50.494  12.696  1.00  0.00     0.164 C 
ENDROOT
BRANCH   1   2
HETATM    2  C   UNL     1     -42.870 -51.447  13.467  1.00  0.00     0.305 C 
BRANCH   2   3
HETATM    3  N   UNL     1     -43.564 -52.474  12.657  1.00  0.00     0.091 N 
HETATM    4  C   UNL     1     -45.026 -52.512  12.842  1.00  0.00     0.273 C 
HETATM    5  C   UNL     1     -45.439 -52.946  14.252  1.00  0.00     0.034 C 
HETATM    6  C   UNL     1     -44.868 -54.326  14.608  1.00  0.00    -0.015 C 
HETATM    7  C   UNL     1     -45.647 -55.439  13.902  1.00  0.00     0.010 C 
HETATM    8  C   UNL     1     -43.366 -54.392  14.283  1.00  0.00     0.034 C 
HETATM    9  C   UNL     1     -43.018 -53.820  12.902  1.00  0.00     0.273 C 
ENDBRANCH   2   3
ENDBRANCH   1   2
BRANCH   1  10
HETATM   10  O   UNL     1     -41.594 -51.032  11.408  1.00  0.00    -0.392 OA
HETATM   11  H   UNL     1     -40.730 -50.673  11.122  1.00  0.00     0.210 HD
ENDBRANCH   1  10
BRANCH   1  12
HETATM   12  C   UNL     1     -42.578 -49.102  12.519  1.00  0.00     0.166 C 
BRANCH  12  13
HETATM   13  N   UNL     1     -41.620 -48.150  11.968  1.00  0.00    -0.307 N 
HETATM   14  C   UNL     1     -41.684 -47.780  10.654  1.00  0.00     0.186 C 
HETATM   15  N   UNL     1     -41.018 -46.814  10.127  1.00  0.00    -0.355 N 
HETATM   16  C   UNL     1     -40.249 -46.041  10.969  1.00  0.00     0.017 C 
ATOM     17  HN  UNL     1     -41.059 -46.628   9.125  1.00  0.00     0.166 HD
HETATM   18  C   UNL     1     -39.638 -44.832  10.313  1.00  0.00     0.069 C 
HETATM   19  C   UNL     1     -40.087 -46.297  12.280  1.00  0.00     0.028 C 
HETATM   20  C   UNL     1     -39.359 -45.451  13.278  1.00  0.00     0.056 C 
HETATM   21  C   UNL     1     -40.760 -47.501  12.830  1.00  0.00     0.256 C 
HETATM   22  O   UNL     1     -40.590 -47.848  13.999  1.00  0.00    -0.267 OA
ENDBRANCH  12  13
ENDBRANCH   1  12
TORSDOF 5
ENDMDL
MODEL 8
REMARK VINA RESULT:      -5.3      5.352      7.390
REMARK  5 active torsions:
REMARK  status: ('A' for Active; 'I' for Inactive)
REMARK    1  A    between atoms: N_5  and  C_6 
REMARK    2  A    between atoms: C_6  and  C_7 
REMARK    3  A    between atoms: C_7  and  O_8 
REMARK    4  A    between atoms: C_7  and  C_9 
REMARK    5  A    between atoms: C_9  and  N_10 
ROOT
HETATM    1  C   UNL     1     -42.401 -53.429  13.058  1.00  0.00     0.164 C 
ENDROOT
BRANCH   1   2
HETATM    2  C   UNL     1     -43.873 -53.288  13.520  1.00  0.00     0.305 C 
BRANCH   2   3
HETATM    3  N   UNL     1     -44.110 -52.398  14.680  1.00  0.00     0.091 N 
HETATM    4  C   UNL     1     -44.797 -53.043  15.813  1.00  0.00     0.273 C 
HETATM    5  C   UNL     1     -46.235 -53.459  15.484  1.00  0.00     0.034 C 
HETATM    6  C   UNL     1     -47.077 -52.260  15.023  1.00  0.00    -0.015 C 
HETATM    7  C   UNL     1     -47.471 -51.380  16.211  1.00  0.00     0.010 C 
HETATM    8  C   UNL     1     -46.332 -51.456  13.944  1.00  0.00     0.034 C 
HETATM    9  C   UNL     1     -44.861 -51.191  14.292  1.00  0.00     0.273 C 
ENDBRANCH   2   3
ENDBRANCH   1   2
BRANCH   1  10
HETATM   10  O   UNL     1     -42.221 -52.882  11.745  1.00  0.00    -0.392 OA
HETATM   11  H   UNL     1     -41.960 -51.942  11.824  1.00  0.00     0.210 HD
ENDBRANCH   1  10
BRANCH   1  12
HETATM   12  C   UNL     1     -41.449 -52.713  14.049  1.00  0.00     0.166 C 
BRANCH  12  13
HETATM   13  N   UNL     1     -40.609 -53.682  14.744  1.00  0.00    -0.307 N 
HETATM   14  C   UNL     1     -39.635 -54.366  14.073  1.00  0.00     0.186 C 
HETATM   15  N   UNL     1     -38.724 -55.086  14.627  1.00  0.00    -0.355 N 
HETATM   16  C   UNL     1     -38.677 -55.098  16.004  1.00  0.00     0.017 C 
ATOM     17  HN  UNL     1     -38.063 -55.627  14.069  1.00  0.00     0.166 HD
HETATM   18  C   UNL     1     -37.486 -55.821  16.575  1.00  0.00     0.069 C 
HETATM   19  C   UNL     1     -39.577 -54.480  16.789  1.00  0.00     0.028 C 
HETATM   20  C   UNL     1     -39.536 -54.356  18.280  1.00  0.00     0.056 C 
HETATM   21  C   UNL     1     -40.696 -53.770  16.118  1.00  0.00     0.256 C 
HETATM   22  O   UNL     1     -41.605 -53.253  16.769  1.00  0.00    -0.267 OA
ENDBRANCH  12  13
ENDBRANCH   1  12
TORSDOF 5
ENDMDL
MODEL 9
REMARK VINA RESULT:      -5.3      5.216      7.807
REMARK  5 active torsions:
REMARK  status: ('A' for Active; 'I' for Inactive)
REMARK    1  A    between atoms: N_5  and  C_6 
REMARK    2  A    between atoms: C_6  and  C_7 
REMARK    3  A    between atoms: C_7  and  O_8 
REMARK    4  A    between atoms: C_7  and  C_9 
REMARK    5  A    between atoms: C_9  and  N_10 
ROOT
HETATM    1  C   UNL     1     -40.028 -53.617  14.027  1.00  0.00     0.164 C 
ENDROOT
BRANCH   1   2
HETATM    2  C   UNL     1     -39.216 -54.726  14.740  1.00  0.00     0.305 C 
BRANCH   2   3
HETATM    3  N   UNL     1     -38.730 -54.407  16.103  1.00  0.00     0.091 N 
HETATM    4  C   UNL     1     -38.048 -55.520  16.785  1.00  0.00     0.273 C 
HETATM    5  C   UNL     1     -38.980 -56.697  17.091  1.00  0.00     0.034 C 
HETATM    6  C   UNL     1     -40.175 -56.259  17.952  1.00  0.00    -0.015 C 
HETATM    7  C   UNL     1     -39.753 -56.051  19.408  1.00  0.00     0.010 C 
HETATM    8  C   UNL     1     -40.832 -54.997  17.367  1.00  0.00     0.034 C 
HETATM    9  C   UNL     1     -39.819 -53.916  16.965  1.00  0.00     0.273 C 
ENDBRANCH   2   3
ENDBRANCH   1   2
BRANCH   1  10
HETATM   10  O   UNL     1     -39.159 -52.713  13.332  1.00  0.00    -0.392 OA
HETATM   11  H   UNL     1     -39.248 -51.820  13.721  1.00  0.00     0.210 HD
ENDBRANCH   1  10
BRANCH   1  12
HETATM   12  C   UNL     1     -41.032 -54.238  13.024  1.00  0.00     0.166 C 
BRANCH  12  13
HETATM   13  N   UNL     1     -42.347 -53.623  13.169  1.00  0.00    -0.307 N 
HETATM   14  C   UNL     1     -42.671 -52.498  12.463  1.00  0.00     0.186 C 
HETATM   15  N   UNL     1     -43.853 -51.999  12.372  1.00  0.00    -0.355 N 
HETATM   16  C   UNL     1     -44.883 -52.701  12.960  1.00  0.00     0.017 C 
ATOM     17  HN  UNL     1     -44.021 -51.120  11.884  1.00  0.00     0.166 HD
HETATM   18  C   UNL     1     -46.253 -52.149  12.667  1.00  0.00     0.069 C 
HETATM   19  C   UNL     1     -44.708 -53.815  13.692  1.00  0.00     0.028 C 
HETATM   20  C   UNL     1     -45.777 -54.689  14.270  1.00  0.00     0.056 C 
HETATM   21  C   UNL     1     -43.315 -54.289  13.893  1.00  0.00     0.256 C 
HETATM   22  O   UNL     1     -43.067 -55.252  14.621  1.00  0.00    -0.267 OA
ENDBRANCH  12  13
ENDBRANCH   1  12
TORSDOF 5
ENDMDL
