MODEL 1
REMARK VINA RESULT:      -9.0      0.000      0.000
REMARK  9 active torsions:
REMARK  status: ('A' for Active; 'I' for Inactive)
REMARK    1  A    between atoms: N_1  and  C_3 
REMARK    2  A    between atoms: N_2  and  C_5 
REMARK       I    between atoms: N_2  and  C_12 
REMARK       I    between atoms: N_2  and  C_13 
REMARK    3  A    between atoms: C_9  and  O_30 
REMARK    4  A    between atoms: C_12  and  C_26 
REMARK    5  A    between atoms: C_13  and  C_27 
REMARK    6  A    between atoms: C_15  and  C_25 
REMARK    7  A    between atoms: C_20  and  O_22 
REMARK    8  A    between atoms: C_20  and  C_29 
REMARK    9  A    between atoms: O_22  and  C_25 
ROOT
HETATM    1  N   UNL     1     -42.441 -50.738  13.885  1.00  0.00    -0.297 N 
HETATM    2  C   UNL     1     -42.242 -49.143  12.380  1.00  0.00     0.123 A 
HETATM    3  C   UNL     1     -41.614 -48.471  11.290  1.00  0.00     0.149 A 
HETATM    4  C   UNL     1     -41.794 -50.427  12.709  1.00  0.00     0.142 A 
HETATM    5  N   UNL     1     -43.238 -48.770  13.253  1.00  0.00    -0.346 N 
ATOM      6  HN  UNL     1     -43.863 -47.968  13.171  1.00  0.00     0.167 HD
HETATM    7  C   UNL     1     -43.214 -49.661  14.212  1.00  0.00     0.188 C 
HETATM    8  N   UNL     1     -40.680 -49.184  10.594  1.00  0.00    -0.336 N 
ATOM      9  HN  UNL     1     -40.201 -48.768   9.795  1.00  0.00     0.168 HD
HETATM   10  N   UNL     1     -40.887 -51.152  12.030  1.00  0.00    -0.336 N 
ATOM     11  HN  UNL     1     -40.608 -52.102  12.275  1.00  0.00     0.168 HD
HETATM   12  C   UNL     1     -40.396 -50.458  10.983  1.00  0.00     0.183 A 
ENDROOT
BRANCH   1  13
HETATM   13  C   UNL     1     -42.364 -51.964  14.666  1.00  0.00     0.262 C 
HETATM   14  C   UNL     1     -41.044 -52.118  15.443  1.00  0.00     0.204 C 
HETATM   15  C   UNL     1     -40.574 -53.536  15.149  1.00  0.00     0.234 C 
HETATM   16  F   UNL     1     -40.272 -54.169  16.308  1.00  0.00    -0.244 F 
HETATM   17  C   UNL     1     -41.723 -54.189  14.392  1.00  0.00     0.185 C 
HETATM   18  O   UNL     1     -42.439 -53.099  13.773  1.00  0.00    -0.353 OA
BRANCH  14  19
HETATM   19  O   UNL     1     -41.242 -51.897  16.843  1.00  0.00    -0.388 OA
HETATM   20  H   UNL     1     -40.591 -52.448  17.323  1.00  0.00     0.210 HD
ENDBRANCH  14  19
BRANCH  17  21
HETATM   21  C   UNL     1     -42.664 -55.005  15.290  1.00  0.00     0.214 C 
BRANCH  21  22
HETATM   22  O   UNL     1     -43.983 -55.123  14.731  1.00  0.00    -0.315 OA
BRANCH  22  23
HETATM   23  C   UNL     1     -44.972 -54.482  15.399  1.00  0.00     0.293 C 
HETATM   24  O   UNL     1     -45.324 -54.711  16.541  1.00  0.00    -0.259 OA
BRANCH  23  25
HETATM   25  C   UNL     1     -45.592 -53.445  14.537  1.00  0.00     0.039 A 
HETATM   26  C   UNL     1     -45.546 -53.518  13.140  1.00  0.00     0.017 A 
HETATM   27  C   UNL     1     -46.111 -52.495  12.367  1.00  0.00     0.001 A 
HETATM   28  C   UNL     1     -46.724 -51.409  12.988  1.00  0.00     0.000 A 
HETATM   29  C   UNL     1     -46.775 -51.334  14.380  1.00  0.00     0.001 A 
HETATM   30  C   UNL     1     -46.209 -52.348  15.152  1.00  0.00     0.017 A 
ENDBRANCH  23  25
ENDBRANCH  22  23
ENDBRANCH  21  22
ENDBRANCH  17  21
ENDBRANCH   1  13
BRANCH   3  31
HETATM   31  N   UNL     1     -41.901 -47.080  10.995  1.00  0.00    -0.226 N 
HETATM   32  C   UNL     1     -42.512 -46.655   9.807  1.00  0.00     0.266 C 
HETATM   33  O   UNL     1     -42.006 -45.733   9.146  1.00  0.00    -0.267 OA
HETATM   34  C   UNL     1     -40.966 -46.165  11.520  1.00  0.00     0.266 C 
HETATM   35  O   UNL     1     -39.767 -46.429  11.661  1.00  0.00    -0.267 OA
BRANCH  32  36
HETATM   36  C   UNL     1     -43.821 -47.145   9.244  1.00  0.00     0.033 C 
HETATM   37  C   UNL     1     -45.065 -47.131   9.869  1.00  0.00     0.017 C 
HETATM   38  C   UNL     1     -46.136 -47.869   9.339  1.00  0.00     0.001 C 
HETATM   39  C   UNL     1     -46.016 -48.535   8.120  1.00  0.00     0.000 C 
HETATM   40  C   UNL     1     -44.838 -48.423   7.398  1.00  0.00     0.001 C 
HETATM   41  C   UNL     1     -43.756 -47.740   7.958  1.00  0.00     0.017 C 
ENDBRANCH  32  36
BRANCH  34  42
HETATM   42  C   UNL     1     -41.370 -44.735  11.774  1.00  0.00     0.033 A 
HETATM   43  C   UNL     1     -40.708 -43.622  11.240  1.00  0.00     0.017 A 
HETATM   44  C   UNL     1     -41.059 -42.330  11.654  1.00  0.00     0.001 A 
HETATM   45  C   UNL     1     -42.105 -42.136  12.556  1.00  0.00     0.000 A 
HETATM   46  C   UNL     1     -42.819 -43.231  13.034  1.00  0.00     0.001 A 
HETATM   47  C   UNL     1     -42.453 -44.520  12.645  1.00  0.00     0.017 A 
ENDBRANCH  34  42
ENDBRANCH   3  31
TORSDOF 9
ENDMDL
MODEL 2
REMARK VINA RESULT:      -8.7      1.650      3.574
REMARK  9 active torsions:
REMARK  status: ('A' for Active; 'I' for Inactive)
REMARK    1  A    between atoms: N_1  and  C_3 
REMARK    2  A    between atoms: N_2  and  C_5 
REMARK       I    between atoms: N_2  and  C_12 
REMARK       I    between atoms: N_2  and  C_13 
REMARK    3  A    between atoms: C_9  and  O_30 
REMARK    4  A    between atoms: C_12  and  C_26 
REMARK    5  A    between atoms: C_13  and  C_27 
REMARK    6  A    between atoms: C_15  and  C_25 
REMARK    7  A    between atoms: C_20  and  O_22 
REMARK    8  A    between atoms: C_20  and  C_29 
REMARK    9  A    between atoms: O_22  and  C_25 
ROOT
HETATM    1  N   UNL     1     -42.763 -51.268  12.865  1.00  0.00    -0.297 N 
HETATM    2  C   UNL     1     -42.262 -49.369  11.870  1.00  0.00     0.123 A 
HETATM    3  C   UNL     1     -41.388 -48.440  11.232  1.00  0.00     0.149 A 
HETATM    4  C   UNL     1     -41.796 -50.670  12.086  1.00  0.00     0.142 A 
HETATM    5  N   UNL     1     -43.536 -49.250  12.377  1.00  0.00    -0.346 N 
ATOM      6  HN  UNL     1     -44.191 -48.482  12.228  1.00  0.00     0.167 HD
HETATM    7  C   UNL     1     -43.730 -50.332  13.090  1.00  0.00     0.188 C 
HETATM    8  N   UNL     1     -40.190 -48.932  10.799  1.00  0.00    -0.336 N 
ATOM      9  HN  UNL     1     -39.522 -48.324  10.323  1.00  0.00     0.168 HD
HETATM   10  N   UNL     1     -40.628 -51.179  11.657  1.00  0.00    -0.336 N 
ATOM     11  HN  UNL     1     -40.332 -52.145  11.799  1.00  0.00     0.168 HD
HETATM   12  C   UNL     1     -39.899 -50.245  11.012  1.00  0.00     0.183 A 
ENDROOT
BRANCH   1  13
HETATM   13  C   UNL     1     -42.805 -52.632  13.370  1.00  0.00     0.262 C 
HETATM   14  C   UNL     1     -44.168 -53.321  13.176  1.00  0.00     0.204 C 
HETATM   15  C   UNL     1     -44.494 -53.943  14.528  1.00  0.00     0.234 C 
HETATM   16  F   UNL     1     -44.840 -55.243  14.363  1.00  0.00    -0.244 F 
HETATM   17  C   UNL     1     -43.236 -53.758  15.366  1.00  0.00     0.185 C 
HETATM   18  O   UNL     1     -42.563 -52.615  14.796  1.00  0.00    -0.353 OA
BRANCH  14  19
HETATM   19  O   UNL     1     -44.106 -54.300  12.135  1.00  0.00    -0.388 OA
HETATM   20  H   UNL     1     -44.070 -55.181  12.561  1.00  0.00     0.210 HD
ENDBRANCH  14  19
BRANCH  17  21
HETATM   21  C   UNL     1     -42.310 -54.983  15.360  1.00  0.00     0.214 C 
BRANCH  21  22
HETATM   22  O   UNL     1     -41.320 -54.922  16.400  1.00  0.00    -0.315 OA
BRANCH  22  23
HETATM   23  C   UNL     1     -40.030 -55.021  15.999  1.00  0.00     0.293 C 
HETATM   24  O   UNL     1     -39.406 -56.056  15.855  1.00  0.00    -0.259 OA
BRANCH  23  25
HETATM   25  C   UNL     1     -39.456 -53.672  15.761  1.00  0.00     0.039 A 
HETATM   26  C   UNL     1     -39.176 -53.203  14.472  1.00  0.00     0.017 A 
HETATM   27  C   UNL     1     -38.597 -51.940  14.298  1.00  0.00     0.001 A 
HETATM   28  C   UNL     1     -38.305 -51.147  15.406  1.00  0.00     0.000 A 
HETATM   29  C   UNL     1     -38.585 -51.609  16.692  1.00  0.00     0.001 A 
HETATM   30  C   UNL     1     -39.156 -52.870  16.869  1.00  0.00     0.017 A 
ENDBRANCH  23  25
ENDBRANCH  22  23
ENDBRANCH  21  22
ENDBRANCH  17  21
ENDBRANCH   1  13
BRANCH   3  31
HETATM   31  N   UNL     1     -41.730 -47.034  11.125  1.00  0.00    -0.226 N 
HETATM   32  C   UNL     1     -42.362 -46.478  10.004  1.00  0.00     0.266 C 
HETATM   33  O   UNL     1     -41.895 -45.458   9.472  1.00  0.00    -0.267 OA
HETATM   34  C   UNL     1     -40.828 -46.162  11.768  1.00  0.00     0.266 C 
HETATM   35  O   UNL     1     -39.619 -46.396  11.873  1.00  0.00    -0.267 OA
BRANCH  32  36
HETATM   36  C   UNL     1     -43.654 -46.938   9.380  1.00  0.00     0.033 C 
HETATM   37  C   UNL     1     -44.934 -46.828   9.915  1.00  0.00     0.017 C 
HETATM   38  C   UNL     1     -46.005 -47.545   9.355  1.00  0.00     0.001 C 
HETATM   39  C   UNL     1     -45.838 -48.289   8.187  1.00  0.00     0.000 C 
HETATM   40  C   UNL     1     -44.610 -48.276   7.543  1.00  0.00     0.001 C 
HETATM   41  C   UNL     1     -43.534 -47.613   8.138  1.00  0.00     0.017 C 
ENDBRANCH  32  36
BRANCH  34  42
HETATM   42  C   UNL     1     -41.285 -44.795  12.210  1.00  0.00     0.033 A 
HETATM   43  C   UNL     1     -42.480 -44.547  12.898  1.00  0.00     0.017 A 
HETATM   44  C   UNL     1     -42.896 -43.231  13.131  1.00  0.00     0.001 A 
HETATM   45  C   UNL     1     -42.101 -42.156  12.733  1.00  0.00     0.000 A 
HETATM   46  C   UNL     1     -40.877 -42.392  12.116  1.00  0.00     0.001 A 
HETATM   47  C   UNL     1     -40.472 -43.702  11.857  1.00  0.00     0.017 A 
ENDBRANCH  34  42
ENDBRANCH   3  31
TORSDOF 9
ENDMDL
MODEL 3
REMARK VINA RESULT:      -8.6      2.115      4.222
REMARK  9 active torsions:
REMARK  status: ('A' for Active; 'I' for Inactive)
REMARK    1  A    between atoms: N_1  and  C_3 
REMARK    2  A    between atoms: N_2  and  C_5 
REMARK       I    between atoms: N_2  and  C_12 
REMARK       I    between atoms: N_2  and  C_13 
REMARK    3  A    between atoms: C_9  and  O_30 
REMARK    4  A    between atoms: C_12  and  C_26 
REMARK    5  A    between atoms: C_13  and  C_27 
REMARK    6  A    between atoms: C_15  and  C_25 
REMARK    7  A    between atoms: C_20  and  O_22 
REMARK    8  A    between atoms: C_20  and  C_29 
REMARK    9  A    between atoms: O_22  and  C_25 
ROOT
HETATM    1  N   UNL     1     -42.826 -51.280  12.915  1.00  0.00    -0.297 N 
HETATM    2  C   UNL     1     -42.256 -49.392  11.937  1.00  0.00     0.123 A 
HETATM    3  C   UNL     1     -41.342 -48.477  11.336  1.00  0.00     0.149 A 
HETATM    4  C   UNL     1     -41.817 -50.697  12.181  1.00  0.00     0.142 A 
HETATM    5  N   UNL     1     -43.551 -49.256  12.383  1.00  0.00    -0.346 N 
ATOM      6  HN  UNL     1     -44.189 -48.481  12.200  1.00  0.00     0.167 HD
HETATM    7  C   UNL     1     -43.791 -50.331  13.091  1.00  0.00     0.188 C 
HETATM    8  N   UNL     1     -40.131 -48.984  10.962  1.00  0.00    -0.336 N 
ATOM      9  HN  UNL     1     -39.434 -48.388  10.515  1.00  0.00     0.168 HD
HETATM   10  N   UNL     1     -40.635 -51.223  11.809  1.00  0.00    -0.336 N 
ATOM     11  HN  UNL     1     -40.359 -52.191  11.969  1.00  0.00     0.168 HD
HETATM   12  C   UNL     1     -39.866 -50.300  11.195  1.00  0.00     0.183 A 
ENDROOT
BRANCH   1  13
HETATM   13  C   UNL     1     -42.908 -52.641  13.425  1.00  0.00     0.262 C 
HETATM   14  C   UNL     1     -44.237 -53.345  13.094  1.00  0.00     0.204 C 
HETATM   15  C   UNL     1     -44.696 -53.960  14.409  1.00  0.00     0.234 C 
HETATM   16  F   UNL     1     -45.011 -55.265  14.219  1.00  0.00    -0.244 F 
HETATM   17  C   UNL     1     -43.536 -53.757  15.373  1.00  0.00     0.185 C 
HETATM   18  O   UNL     1     -42.817 -52.612  14.868  1.00  0.00    -0.353 OA
BRANCH  14  19
HETATM   19  O   UNL     1     -44.057 -54.330  12.073  1.00  0.00    -0.388 OA
HETATM   20  H   UNL     1     -43.599 -53.897  11.323  1.00  0.00     0.210 HD
ENDBRANCH  14  19
BRANCH  17  21
HETATM   21  C   UNL     1     -42.602 -54.973  15.474  1.00  0.00     0.214 C 
BRANCH  21  22
HETATM   22  O   UNL     1     -41.414 -54.685  16.230  1.00  0.00    -0.315 OA
BRANCH  22  23
HETATM   23  C   UNL     1     -40.239 -54.979  15.624  1.00  0.00     0.293 C 
HETATM   24  O   UNL     1     -39.921 -54.662  14.493  1.00  0.00    -0.259 OA
BRANCH  23  25
HETATM   25  C   UNL     1     -39.369 -55.765  16.535  1.00  0.00     0.039 A 
HETATM   26  C   UNL     1     -38.052 -55.383  16.815  1.00  0.00     0.017 A 
HETATM   27  C   UNL     1     -37.255 -56.178  17.649  1.00  0.00     0.001 A 
HETATM   28  C   UNL     1     -37.774 -57.345  18.205  1.00  0.00     0.000 A 
HETATM   29  C   UNL     1     -39.087 -57.728  17.932  1.00  0.00     0.001 A 
HETATM   30  C   UNL     1     -39.881 -56.942  17.097  1.00  0.00     0.017 A 
ENDBRANCH  23  25
ENDBRANCH  22  23
ENDBRANCH  21  22
ENDBRANCH  17  21
ENDBRANCH   1  13
BRANCH   3  31
HETATM   31  N   UNL     1     -41.661 -47.067  11.207  1.00  0.00    -0.226 N 
HETATM   32  C   UNL     1     -42.253 -46.513  10.064  1.00  0.00     0.266 C 
HETATM   33  O   UNL     1     -41.757 -45.504   9.536  1.00  0.00    -0.267 OA
HETATM   34  C   UNL     1     -40.766 -46.201  11.868  1.00  0.00     0.266 C 
HETATM   35  O   UNL     1     -39.564 -46.451  12.010  1.00  0.00    -0.267 OA
BRANCH  32  36
HETATM   36  C   UNL     1     -43.533 -46.962   9.406  1.00  0.00     0.033 C 
HETATM   37  C   UNL     1     -44.823 -46.867   9.922  1.00  0.00     0.017 C 
HETATM   38  C   UNL     1     -45.881 -47.573   9.326  1.00  0.00     0.001 C 
HETATM   39  C   UNL     1     -45.692 -48.289   8.144  1.00  0.00     0.000 C 
HETATM   40  C   UNL     1     -44.453 -48.259   7.523  1.00  0.00     0.001 C 
HETATM   41  C   UNL     1     -43.389 -47.607   8.151  1.00  0.00     0.017 C 
ENDBRANCH  32  36
BRANCH  34  42
HETATM   42  C   UNL     1     -41.218 -44.824  12.285  1.00  0.00     0.033 A 
HETATM   43  C   UNL     1     -42.446 -44.549  12.899  1.00  0.00     0.017 A 
HETATM   44  C   UNL     1     -42.845 -43.223  13.110  1.00  0.00     0.001 A 
HETATM   45  C   UNL     1     -42.002 -42.167  12.764  1.00  0.00     0.000 A 
HETATM   46  C   UNL     1     -40.748 -42.432  12.222  1.00  0.00     0.001 A 
HETATM   47  C   UNL     1     -40.359 -43.751  11.985  1.00  0.00     0.017 A 
ENDBRANCH  34  42
ENDBRANCH   3  31
TORSDOF 9
ENDMDL
MODEL 4
REMARK VINA RESULT:      -7.6      5.345      8.789
REMARK  9 active torsions:
REMARK  status: ('A' for Active; 'I' for Inactive)
REMARK    1  A    between atoms: N_1  and  C_3 
REMARK    2  A    between atoms: N_2  and  C_5 
REMARK       I    between atoms: N_2  and  C_12 
REMARK       I    between atoms: N_2  and  C_13 
REMARK    3  A    between atoms: C_9  and  O_30 
REMARK    4  A    between atoms: C_12  and  C_26 
REMARK    5  A    between atoms: C_13  and  C_27 
REMARK    6  A    between atoms: C_15  and  C_25 
REMARK    7  A    between atoms: C_20  and  O_22 
REMARK    8  A    between atoms: C_20  and  C_29 
REMARK    9  A    between atoms: O_22  and  C_25 
ROOT
HETATM    1  N   UNL     1     -38.718 -54.790  15.774  1.00  0.00    -0.297 N 
HETATM    2  C   UNL     1     -39.778 -53.041  14.960  1.00  0.00     0.123 A 
HETATM    3  C   UNL     1     -40.544 -51.841  15.050  1.00  0.00     0.149 A 
HETATM    4  C   UNL     1     -39.232 -53.564  16.137  1.00  0.00     0.142 A 
HETATM    5  N   UNL     1     -39.462 -53.864  13.904  1.00  0.00    -0.346 N 
ATOM      6  HN  UNL     1     -39.578 -53.666  12.910  1.00  0.00     0.167 HD
HETATM    7  C   UNL     1     -38.980 -54.955  14.445  1.00  0.00     0.188 C 
HETATM    8  N   UNL     1     -40.603 -51.248  16.280  1.00  0.00    -0.336 N 
ATOM      9  HN  UNL     1     -41.123 -50.381  16.412  1.00  0.00     0.168 HD
HETATM   10  N   UNL     1     -39.265 -52.991  17.353  1.00  0.00    -0.336 N 
ATOM     11  HN  UNL     1     -38.825 -53.382  18.187  1.00  0.00     0.168 HD
HETATM   12  C   UNL     1     -39.956 -51.833  17.327  1.00  0.00     0.183 A 
ENDROOT
BRANCH   1  13
HETATM   13  C   UNL     1     -38.015 -55.758  16.601  1.00  0.00     0.262 C 
HETATM   14  C   UNL     1     -38.925 -56.489  17.606  1.00  0.00     0.204 C 
HETATM   15  C   UNL     1     -38.187 -56.412  18.937  1.00  0.00     0.234 C 
HETATM   16  F   UNL     1     -38.119 -57.645  19.495  1.00  0.00    -0.244 F 
HETATM   17  C   UNL     1     -36.821 -55.827  18.603  1.00  0.00     0.185 C 
HETATM   18  O   UNL     1     -37.017 -55.070  17.390  1.00  0.00    -0.353 OA
BRANCH  14  19
HETATM   19  O   UNL     1     -39.160 -57.840  17.200  1.00  0.00    -0.388 OA
HETATM   20  H   UNL     1     -39.319 -57.833  16.234  1.00  0.00     0.210 HD
ENDBRANCH  14  19
BRANCH  17  21
HETATM   21  C   UNL     1     -35.732 -56.891  18.401  1.00  0.00     0.214 C 
BRANCH  21  22
HETATM   22  O   UNL     1     -34.410 -56.358  18.585  1.00  0.00    -0.315 OA
BRANCH  22  23
HETATM   23  C   UNL     1     -33.536 -56.574  17.574  1.00  0.00     0.293 C 
HETATM   24  O   UNL     1     -33.777 -57.163  16.537  1.00  0.00    -0.259 OA
BRANCH  23  25
HETATM   25  C   UNL     1     -32.209 -55.993  17.902  1.00  0.00     0.039 A 
HETATM   26  C   UNL     1     -31.173 -56.767  18.434  1.00  0.00     0.017 A 
HETATM   27  C   UNL     1     -29.951 -56.167  18.767  1.00  0.00     0.001 A 
HETATM   28  C   UNL     1     -29.765 -54.802  18.562  1.00  0.00     0.000 A 
HETATM   29  C   UNL     1     -30.795 -54.026  18.028  1.00  0.00     0.001 A 
HETATM   30  C   UNL     1     -32.014 -54.620  17.702  1.00  0.00     0.017 A 
ENDBRANCH  23  25
ENDBRANCH  22  23
ENDBRANCH  21  22
ENDBRANCH  17  21
ENDBRANCH   1  13
BRANCH   3  31
HETATM   31  N   UNL     1     -41.282 -51.329  13.911  1.00  0.00    -0.226 N 
HETATM   32  C   UNL     1     -42.082 -52.134  13.087  1.00  0.00     0.266 C 
HETATM   33  O   UNL     1     -41.948 -52.084  11.854  1.00  0.00    -0.267 OA
HETATM   34  C   UNL     1     -40.654 -50.262  13.237  1.00  0.00     0.266 C 
HETATM   35  O   UNL     1     -39.426 -50.142  13.156  1.00  0.00    -0.267 OA
BRANCH  32  36
HETATM   36  C   UNL     1     -43.202 -53.039  13.530  1.00  0.00     0.033 C 
HETATM   37  C   UNL     1     -43.091 -54.232  14.239  1.00  0.00     0.017 C 
HETATM   38  C   UNL     1     -44.187 -55.106  14.339  1.00  0.00     0.001 C 
HETATM   39  C   UNL     1     -45.437 -54.751  13.834  1.00  0.00     0.000 C 
HETATM   40  C   UNL     1     -45.611 -53.496  13.273  1.00  0.00     0.001 C 
HETATM   41  C   UNL     1     -44.505 -52.656  13.120  1.00  0.00     0.017 C 
ENDBRANCH  32  36
BRANCH  34  42
HETATM   42  C   UNL     1     -41.475 -49.297  12.419  1.00  0.00     0.033 A 
HETATM   43  C   UNL     1     -42.701 -48.759  12.832  1.00  0.00     0.017 A 
HETATM   44  C   UNL     1     -43.467 -47.993  11.944  1.00  0.00     0.001 A 
HETATM   45  C   UNL     1     -42.992 -47.712  10.662  1.00  0.00     0.000 A 
HETATM   46  C   UNL     1     -41.742 -48.179  10.269  1.00  0.00     0.001 A 
HETATM   47  C   UNL     1     -40.990 -48.966  11.141  1.00  0.00     0.017 A 
ENDBRANCH  34  42
ENDBRANCH   3  31
TORSDOF 9
ENDMDL
MODEL 5
REMARK VINA RESULT:      -7.5      5.273     10.686
REMARK  9 active torsions:
REMARK  status: ('A' for Active; 'I' for Inactive)
REMARK    1  A    between atoms: N_1  and  C_3 
REMARK    2  A    between atoms: N_2  and  C_5 
REMARK       I    between atoms: N_2  and  C_12 
REMARK       I    between atoms: N_2  and  C_13 
REMARK    3  A    between atoms: C_9  and  O_30 
REMARK    4  A    between atoms: C_12  and  C_26 
REMARK    5  A    between atoms: C_13  and  C_27 
REMARK    6  A    between atoms: C_15  and  C_25 
REMARK    7  A    between atoms: C_20  and  O_22 
REMARK    8  A    between atoms: C_20  and  C_29 
REMARK    9  A    between atoms: O_22  and  C_25 
ROOT
HETATM    1  N   UNL     1     -40.178 -54.314  14.866  1.00  0.00    -0.297 N 
HETATM    2  C   UNL     1     -39.035 -55.019  16.609  1.00  0.00     0.123 A 
HETATM    3  C   UNL     1     -38.702 -55.075  17.995  1.00  0.00     0.149 A 
HETATM    4  C   UNL     1     -40.216 -54.367  16.241  1.00  0.00     0.142 A 
HETATM    5  N   UNL     1     -38.392 -55.472  15.480  1.00  0.00    -0.346 N 
ATOM      6  HN  UNL     1     -37.602 -56.115  15.434  1.00  0.00     0.167 HD
HETATM    7  C   UNL     1     -39.009 -54.901  14.475  1.00  0.00     0.188 C 
HETATM    8  N   UNL     1     -39.623 -54.561  18.863  1.00  0.00    -0.336 N 
ATOM      9  HN  UNL     1     -39.454 -54.580  19.869  1.00  0.00     0.168 HD
HETATM   10  N   UNL     1     -41.144 -53.868  17.078  1.00  0.00    -0.336 N 
ATOM     11  HN  UNL     1     -42.015 -53.430  16.778  1.00  0.00     0.168 HD
HETATM   12  C   UNL     1     -40.770 -54.022  18.365  1.00  0.00     0.183 A 
ENDROOT
BRANCH   1  13
HETATM   13  C   UNL     1     -41.167 -53.761  13.952  1.00  0.00     0.262 C 
HETATM   14  C   UNL     1     -40.570 -52.807  12.900  1.00  0.00     0.204 C 
HETATM   15  C   UNL     1     -41.468 -51.578  12.926  1.00  0.00     0.234 C 
HETATM   16  F   UNL     1     -41.850 -51.263  11.664  1.00  0.00    -0.244 F 
HETATM   17  C   UNL     1     -42.635 -51.954  13.829  1.00  0.00     0.185 C 
HETATM   18  O   UNL     1     -42.122 -52.980  14.705  1.00  0.00    -0.353 OA
BRANCH  14  19
HETATM   19  O   UNL     1     -40.536 -53.422  11.609  1.00  0.00    -0.388 OA
HETATM   20  H   UNL     1     -40.059 -54.272  11.700  1.00  0.00     0.210 HD
ENDBRANCH  14  19
BRANCH  17  21
HETATM   21  C   UNL     1     -43.863 -52.468  13.063  1.00  0.00     0.214 C 
BRANCH  21  22
HETATM   22  O   UNL     1     -44.980 -52.718  13.932  1.00  0.00    -0.315 OA
BRANCH  22  23
HETATM   23  C   UNL     1     -45.977 -51.801  13.897  1.00  0.00     0.293 C 
HETATM   24  O   UNL     1     -46.528 -51.386  12.895  1.00  0.00    -0.259 OA
BRANCH  23  25
HETATM   25  C   UNL     1     -46.314 -51.349  15.270  1.00  0.00     0.039 A 
HETATM   26  C   UNL     1     -47.581 -51.554  15.828  1.00  0.00     0.017 A 
HETATM   27  C   UNL     1     -47.866 -51.074  17.113  1.00  0.00     0.001 A 
HETATM   28  C   UNL     1     -46.887 -50.398  17.838  1.00  0.00     0.000 A 
HETATM   29  C   UNL     1     -45.621 -50.194  17.288  1.00  0.00     0.001 A 
HETATM   30  C   UNL     1     -45.337 -50.666  16.006  1.00  0.00     0.017 A 
ENDBRANCH  23  25
ENDBRANCH  22  23
ENDBRANCH  21  22
ENDBRANCH  17  21
ENDBRANCH   1  13
BRANCH   3  31
HETATM   31  N   UNL     1     -37.417 -55.580  18.443  1.00  0.00    -0.226 N 
HETATM   32  C   UNL     1     -37.276 -56.528  19.465  1.00  0.00     0.266 C 
HETATM   33  O   UNL     1     -36.482 -56.321  20.397  1.00  0.00    -0.267 OA
HETATM   34  C   UNL     1     -36.365 -54.642  18.379  1.00  0.00     0.266 C 
HETATM   35  O   UNL     1     -36.531 -53.428  18.539  1.00  0.00    -0.267 OA
BRANCH  32  36
HETATM   36  C   UNL     1     -37.940 -57.879  19.536  1.00  0.00     0.033 C 
HETATM   37  C   UNL     1     -38.192 -58.750  18.479  1.00  0.00     0.017 C 
HETATM   38  C   UNL     1     -39.061 -59.841  18.647  1.00  0.00     0.001 C 
HETATM   39  C   UNL     1     -39.597 -60.146  19.898  1.00  0.00     0.000 C 
HETATM   40  C   UNL     1     -39.225 -59.390  20.999  1.00  0.00     0.001 C 
HETATM   41  C   UNL     1     -38.411 -58.270  20.815  1.00  0.00     0.017 C 
ENDBRANCH  32  36
BRANCH  34  42
HETATM   42  C   UNL     1     -34.937 -55.116  18.283  1.00  0.00     0.033 A 
HETATM   43  C   UNL     1     -33.875 -54.570  19.014  1.00  0.00     0.017 A 
HETATM   44  C   UNL     1     -32.559 -54.969  18.748  1.00  0.00     0.001 A 
HETATM   45  C   UNL     1     -32.298 -55.953  17.793  1.00  0.00     0.000 A 
HETATM   46  C   UNL     1     -33.353 -56.556  17.115  1.00  0.00     0.001 A 
HETATM   47  C   UNL     1     -34.662 -56.140  17.359  1.00  0.00     0.017 A 
ENDBRANCH  34  42
ENDBRANCH   3  31
TORSDOF 9
ENDMDL
MODEL 6
REMARK VINA RESULT:      -7.4      5.231      8.170
REMARK  9 active torsions:
REMARK  status: ('A' for Active; 'I' for Inactive)
REMARK    1  A    between atoms: N_1  and  C_3 
REMARK    2  A    between atoms: N_2  and  C_5 
REMARK       I    between atoms: N_2  and  C_12 
REMARK       I    between atoms: N_2  and  C_13 
REMARK    3  A    between atoms: C_9  and  O_30 
REMARK    4  A    between atoms: C_12  and  C_26 
REMARK    5  A    between atoms: C_13  and  C_27 
REMARK    6  A    between atoms: C_15  and  C_25 
REMARK    7  A    between atoms: C_20  and  O_22 
REMARK    8  A    between atoms: C_20  and  C_29 
REMARK    9  A    between atoms: O_22  and  C_25 
ROOT
HETATM    1  N   UNL     1     -38.930 -53.695  15.934  1.00  0.00    -0.297 N 
HETATM    2  C   UNL     1     -40.173 -52.318  14.748  1.00  0.00     0.123 A 
HETATM    3  C   UNL     1     -40.893 -51.907  13.588  1.00  0.00     0.149 A 
HETATM    4  C   UNL     1     -39.732 -53.644  14.815  1.00  0.00     0.142 A 
HETATM    5  N   UNL     1     -39.766 -51.644  15.877  1.00  0.00    -0.346 N 
ATOM      6  HN  UNL     1     -40.069 -50.721  16.189  1.00  0.00     0.167 HD
HETATM    7  C   UNL     1     -38.908 -52.439  16.468  1.00  0.00     0.188 C 
HETATM    8  N   UNL     1     -41.174 -52.879  12.671  1.00  0.00    -0.336 N 
ATOM      9  HN  UNL     1     -41.697 -52.656  11.823  1.00  0.00     0.168 HD
HETATM   10  N   UNL     1     -40.009 -54.620  13.932  1.00  0.00    -0.336 N 
ATOM     11  HN  UNL     1     -39.703 -55.588  14.029  1.00  0.00     0.168 HD
HETATM   12  C   UNL     1     -40.745 -54.151  12.904  1.00  0.00     0.183 A 
ENDROOT
BRANCH   1  13
HETATM   13  C   UNL     1     -38.225 -54.839  16.492  1.00  0.00     0.262 C 
HETATM   14  C   UNL     1     -39.129 -55.787  17.301  1.00  0.00     0.204 C 
HETATM   15  C   UNL     1     -38.377 -56.038  18.601  1.00  0.00     0.234 C 
HETATM   16  F   UNL     1     -38.312 -57.371  18.842  1.00  0.00    -0.244 F 
HETATM   17  C   UNL     1     -37.010 -55.397  18.403  1.00  0.00     0.185 C 
HETATM   18  O   UNL     1     -37.213 -54.367  17.412  1.00  0.00    -0.353 OA
BRANCH  14  19
HETATM   19  O   UNL     1     -39.379 -56.997  16.582  1.00  0.00    -0.388 OA
HETATM   20  H   UNL     1     -39.965 -56.777  15.829  1.00  0.00     0.210 HD
ENDBRANCH  14  19
BRANCH  17  21
HETATM   21  C   UNL     1     -35.932 -56.385  17.935  1.00  0.00     0.214 C 
BRANCH  21  22
HETATM   22  O   UNL     1     -34.603 -55.872  18.130  1.00  0.00    -0.315 OA
BRANCH  22  23
HETATM   23  C   UNL     1     -33.617 -56.499  17.444  1.00  0.00     0.293 C 
HETATM   24  O   UNL     1     -33.772 -57.382  16.621  1.00  0.00    -0.259 OA
BRANCH  23  25
HETATM   25  C   UNL     1     -32.290 -55.965  17.840  1.00  0.00     0.039 A 
HETATM   26  C   UNL     1     -31.329 -56.763  18.470  1.00  0.00     0.017 A 
HETATM   27  C   UNL     1     -30.104 -56.206  18.863  1.00  0.00     0.001 A 
HETATM   28  C   UNL     1     -29.841 -54.860  18.620  1.00  0.00     0.000 A 
HETATM   29  C   UNL     1     -30.795 -54.061  17.988  1.00  0.00     0.001 A 
HETATM   30  C   UNL     1     -32.017 -54.612  17.602  1.00  0.00     0.017 A 
ENDBRANCH  23  25
ENDBRANCH  22  23
ENDBRANCH  21  22
ENDBRANCH  17  21
ENDBRANCH   1  13
BRANCH   3  31
HETATM   31  N   UNL     1     -41.234 -50.514  13.365  1.00  0.00    -0.226 N 
HETATM   32  C   UNL     1     -42.543 -50.069  13.131  1.00  0.00     0.266 C 
HETATM   33  O   UNL     1     -42.781 -49.326  12.166  1.00  0.00    -0.267 OA
HETATM   34  C   UNL     1     -40.244 -49.769  12.692  1.00  0.00     0.266 C 
HETATM   35  O   UNL     1     -39.486 -50.260  11.847  1.00  0.00    -0.267 OA
BRANCH  32  36
HETATM   36  C   UNL     1     -43.748 -50.326  13.998  1.00  0.00     0.033 C 
HETATM   37  C   UNL     1     -43.871 -50.084  15.363  1.00  0.00     0.017 C 
HETATM   38  C   UNL     1     -44.945 -50.627  16.089  1.00  0.00     0.001 C 
HETATM   39  C   UNL     1     -45.970 -51.319  15.445  1.00  0.00     0.000 C 
HETATM   40  C   UNL     1     -45.953 -51.427  14.063  1.00  0.00     0.001 C 
HETATM   41  C   UNL     1     -44.853 -50.940  13.353  1.00  0.00     0.017 C 
ENDBRANCH  32  36
BRANCH  34  42
HETATM   42  C   UNL     1     -40.187 -48.271  12.852  1.00  0.00     0.033 A 
HETATM   43  C   UNL     1     -40.077 -47.368  11.787  1.00  0.00     0.017 A 
HETATM   44  C   UNL     1     -39.876 -46.005  12.040  1.00  0.00     0.001 A 
HETATM   45  C   UNL     1     -39.839 -45.526  13.350  1.00  0.00     0.000 A 
HETATM   46  C   UNL     1     -40.023 -46.405  14.413  1.00  0.00     0.001 A 
HETATM   47  C   UNL     1     -40.196 -47.767  14.165  1.00  0.00     0.017 A 
ENDBRANCH  34  42
ENDBRANCH   3  31
TORSDOF 9
ENDMDL
MODEL 7
REMARK VINA RESULT:      -7.4      3.214      5.667
REMARK  9 active torsions:
REMARK  status: ('A' for Active; 'I' for Inactive)
REMARK    1  A    between atoms: N_1  and  C_3 
REMARK    2  A    between atoms: N_2  and  C_5 
REMARK       I    between atoms: N_2  and  C_12 
REMARK       I    between atoms: N_2  and  C_13 
REMARK    3  A    between atoms: C_9  and  O_30 
REMARK    4  A    between atoms: C_12  and  C_26 
REMARK    5  A    between atoms: C_13  and  C_27 
REMARK    6  A    between atoms: C_15  and  C_25 
REMARK    7  A    between atoms: C_20  and  O_22 
REMARK    8  A    between atoms: C_20  and  C_29 
REMARK    9  A    between atoms: O_22  and  C_25 
ROOT
HETATM    1  N   UNL     1     -43.669 -50.547  14.620  1.00  0.00    -0.297 N 
HETATM    2  C   UNL     1     -42.352 -48.788  14.751  1.00  0.00     0.123 A 
HETATM    3  C   UNL     1     -41.938 -47.524  15.265  1.00  0.00     0.149 A 
HETATM    4  C   UNL     1     -43.361 -49.478  15.432  1.00  0.00     0.142 A 
HETATM    5  N   UNL     1     -41.971 -49.512  13.645  1.00  0.00    -0.346 N 
ATOM      6  HN  UNL     1     -41.158 -49.350  13.051  1.00  0.00     0.167 HD
HETATM    7  C   UNL     1     -42.873 -50.453  13.515  1.00  0.00     0.188 C 
HETATM    8  N   UNL     1     -42.506 -47.132  16.445  1.00  0.00    -0.336 N 
ATOM      9  HN  UNL     1     -42.245 -46.244  16.875  1.00  0.00     0.168 HD
HETATM   10  N   UNL     1     -43.922 -49.119  16.600  1.00  0.00    -0.336 N 
ATOM     11  HN  UNL     1     -44.631 -49.664  17.091  1.00  0.00     0.168 HD
HETATM   12  C   UNL     1     -43.424 -47.945  17.038  1.00  0.00     0.183 A 
ENDROOT
BRANCH   1  13
HETATM   13  C   UNL     1     -44.639 -51.609  14.847  1.00  0.00     0.262 C 
HETATM   14  C   UNL     1     -46.100 -51.159  14.666  1.00  0.00     0.204 C 
HETATM   15  C   UNL     1     -46.831 -51.684  15.894  1.00  0.00     0.234 C 
HETATM   16  F   UNL     1     -47.947 -52.352  15.513  1.00  0.00    -0.244 F 
HETATM   17  C   UNL     1     -45.820 -52.566  16.615  1.00  0.00     0.185 C 
HETATM   18  O   UNL     1     -44.526 -52.067  16.214  1.00  0.00    -0.353 OA
BRANCH  14  19
HETATM   19  O   UNL     1     -46.651 -51.676  13.451  1.00  0.00    -0.388 OA
HETATM   20  H   UNL     1     -46.566 -52.651  13.481  1.00  0.00     0.210 HD
ENDBRANCH  14  19
BRANCH  17  21
HETATM   21  C   UNL     1     -45.950 -54.056  16.268  1.00  0.00     0.214 C 
BRANCH  21  22
HETATM   22  O   UNL     1     -44.671 -54.685  16.083  1.00  0.00    -0.315 OA
BRANCH  22  23
HETATM   23  C   UNL     1     -44.360 -55.037  14.813  1.00  0.00     0.293 C 
HETATM   24  O   UNL     1     -45.112 -55.567  14.016  1.00  0.00    -0.259 OA
BRANCH  23  25
HETATM   25  C   UNL     1     -42.947 -54.695  14.511  1.00  0.00     0.039 A 
HETATM   26  C   UNL     1     -42.554 -54.207  13.260  1.00  0.00     0.017 A 
HETATM   27  C   UNL     1     -41.203 -53.935  13.007  1.00  0.00     0.001 A 
HETATM   28  C   UNL     1     -40.251 -54.145  14.003  1.00  0.00     0.000 A 
HETATM   29  C   UNL     1     -40.639 -54.628  15.253  1.00  0.00     0.001 A 
HETATM   30  C   UNL     1     -41.983 -54.905  15.505  1.00  0.00     0.017 A 
ENDBRANCH  23  25
ENDBRANCH  22  23
ENDBRANCH  21  22
ENDBRANCH  17  21
ENDBRANCH   1  13
BRANCH   3  31
HETATM   31  N   UNL     1     -41.025 -46.672  14.527  1.00  0.00    -0.226 N 
HETATM   32  C   UNL     1     -39.764 -46.295  15.010  1.00  0.00     0.266 C 
HETATM   33  O   UNL     1     -39.428 -45.099  15.001  1.00  0.00    -0.267 OA
HETATM   34  C   UNL     1     -41.652 -45.692  13.731  1.00  0.00     0.266 C 
HETATM   35  O   UNL     1     -42.728 -45.162  14.032  1.00  0.00    -0.267 OA
BRANCH  32  36
HETATM   36  C   UNL     1     -38.671 -47.217  15.486  1.00  0.00     0.033 C 
HETATM   37  C   UNL     1     -37.866 -47.058  16.611  1.00  0.00     0.017 C 
HETATM   38  C   UNL     1     -36.713 -47.843  16.778  1.00  0.00     0.001 C 
HETATM   39  C   UNL     1     -36.410 -48.873  15.888  1.00  0.00     0.000 C 
HETATM   40  C   UNL     1     -37.289 -49.158  14.854  1.00  0.00     0.001 C 
HETATM   41  C   UNL     1     -38.401 -48.335  14.657  1.00  0.00     0.017 C 
ENDBRANCH  32  36
BRANCH  34  42
HETATM   42  C   UNL     1     -40.931 -45.112  12.541  1.00  0.00     0.033 A 
HETATM   43  C   UNL     1     -40.906 -43.748  12.222  1.00  0.00     0.017 A 
HETATM   44  C   UNL     1     -40.341 -43.319  11.014  1.00  0.00     0.001 A 
HETATM   45  C   UNL     1     -39.750 -44.236  10.144  1.00  0.00     0.000 A 
HETATM   46  C   UNL     1     -39.703 -45.584  10.487  1.00  0.00     0.001 A 
HETATM   47  C   UNL     1     -40.290 -46.017  11.677  1.00  0.00     0.017 A 
ENDBRANCH  34  42
ENDBRANCH   3  31
TORSDOF 9
ENDMDL
MODEL 8
REMARK VINA RESULT:      -7.2      2.435      8.613
REMARK  9 active torsions:
REMARK  status: ('A' for Active; 'I' for Inactive)
REMARK    1  A    between atoms: N_1  and  C_3 
REMARK    2  A    between atoms: N_2  and  C_5 
REMARK       I    between atoms: N_2  and  C_12 
REMARK       I    between atoms: N_2  and  C_13 
REMARK    3  A    between atoms: C_9  and  O_30 
REMARK    4  A    between atoms: C_12  and  C_26 
REMARK    5  A    between atoms: C_13  and  C_27 
REMARK    6  A    between atoms: C_15  and  C_25 
REMARK    7  A    between atoms: C_20  and  O_22 
REMARK    8  A    between atoms: C_20  and  C_29 
REMARK    9  A    between atoms: O_22  and  C_25 
ROOT
HETATM    1  N   UNL     1     -41.739 -48.019  12.659  1.00  0.00    -0.297 N 
HETATM    2  C   UNL     1     -42.124 -49.573  14.170  1.00  0.00     0.123 A 
HETATM    3  C   UNL     1     -42.220 -50.084  15.498  1.00  0.00     0.149 A 
HETATM    4  C   UNL     1     -41.988 -48.191  14.003  1.00  0.00     0.142 A 
HETATM    5  N   UNL     1     -42.107 -50.185  12.937  1.00  0.00    -0.346 N 
ATOM      6  HN  UNL     1     -42.345 -51.154  12.725  1.00  0.00     0.167 HD
HETATM    7  C   UNL     1     -41.721 -49.261  12.094  1.00  0.00     0.188 C 
HETATM    8  N   UNL     1     -42.263 -49.160  16.503  1.00  0.00    -0.336 N 
ATOM      9  HN  UNL     1     -42.344 -49.456  17.476  1.00  0.00     0.168 HD
HETATM   10  N   UNL     1     -42.043 -47.263  14.975  1.00  0.00    -0.336 N 
ATOM     11  HN  UNL     1     -41.977 -46.257  14.817  1.00  0.00     0.168 HD
HETATM   12  C   UNL     1     -42.196 -47.836  16.187  1.00  0.00     0.183 A 
ENDROOT
BRANCH   1  13
HETATM   13  C   UNL     1     -41.537 -46.778  11.927  1.00  0.00     0.262 C 
HETATM   14  C   UNL     1     -40.055 -46.395  11.759  1.00  0.00     0.204 C 
HETATM   15  C   UNL     1     -39.978 -44.927  12.158  1.00  0.00     0.234 C 
HETATM   16  F   UNL     1     -39.323 -44.226  11.200  1.00  0.00    -0.244 F 
HETATM   17  C   UNL     1     -41.424 -44.486  12.342  1.00  0.00     0.185 C 
HETATM   18  O   UNL     1     -42.152 -45.692  12.657  1.00  0.00    -0.353 OA
BRANCH  14  19
HETATM   19  O   UNL     1     -39.617 -46.610  10.414  1.00  0.00    -0.388 OA
HETATM   20  H   UNL     1     -39.976 -47.473  10.122  1.00  0.00     0.210 HD
ENDBRANCH  14  19
BRANCH  17  21
HETATM   21  C   UNL     1     -42.021 -43.809  11.099  1.00  0.00     0.214 C 
BRANCH  21  22
HETATM   22  O   UNL     1     -42.383 -44.759  10.083  1.00  0.00    -0.315 OA
BRANCH  22  23
HETATM   23  C   UNL     1     -43.638 -44.650   9.586  1.00  0.00     0.293 C 
HETATM   24  O   UNL     1     -44.325 -43.645   9.601  1.00  0.00    -0.259 OA
BRANCH  23  25
HETATM   25  C   UNL     1     -44.084 -45.945   9.014  1.00  0.00     0.039 A 
HETATM   26  C   UNL     1     -43.232 -46.751   8.251  1.00  0.00     0.017 A 
HETATM   27  C   UNL     1     -43.708 -47.946   7.697  1.00  0.00     0.001 A 
HETATM   28  C   UNL     1     -45.028 -48.336   7.911  1.00  0.00     0.000 A 
HETATM   29  C   UNL     1     -45.881 -47.538   8.674  1.00  0.00     0.001 A 
HETATM   30  C   UNL     1     -45.410 -46.344   9.221  1.00  0.00     0.017 A 
ENDBRANCH  23  25
ENDBRANCH  22  23
ENDBRANCH  21  22
ENDBRANCH  17  21
ENDBRANCH   1  13
BRANCH   3  31
HETATM   31  N   UNL     1     -42.191 -51.511  15.762  1.00  0.00    -0.226 N 
HETATM   32  C   UNL     1     -43.344 -52.304  15.833  1.00  0.00     0.266 C 
HETATM   33  O   UNL     1     -43.516 -53.062  16.802  1.00  0.00    -0.267 OA
HETATM   34  C   UNL     1     -41.153 -51.926  16.621  1.00  0.00     0.266 C 
HETATM   35  O   UNL     1     -40.705 -51.220  17.532  1.00  0.00    -0.267 OA
BRANCH  32  36
HETATM   36  C   UNL     1     -44.421 -52.422  14.785  1.00  0.00     0.033 C 
HETATM   37  C   UNL     1     -44.400 -53.216  13.642  1.00  0.00     0.017 C 
HETATM   38  C   UNL     1     -45.343 -53.017  12.619  1.00  0.00     0.001 C 
HETATM   39  C   UNL     1     -46.386 -52.105  12.772  1.00  0.00     0.000 C 
HETATM   40  C   UNL     1     -46.523 -51.423  13.972  1.00  0.00     0.001 C 
HETATM   41  C   UNL     1     -45.548 -51.579  14.961  1.00  0.00     0.017 C 
ENDBRANCH  32  36
BRANCH  34  42
HETATM   42  C   UNL     1     -40.657 -53.349  16.572  1.00  0.00     0.033 A 
HETATM   43  C   UNL     1     -40.354 -54.038  15.391  1.00  0.00     0.017 A 
HETATM   44  C   UNL     1     -40.048 -55.404  15.432  1.00  0.00     0.001 A 
HETATM   45  C   UNL     1     -39.987 -56.078  16.653  1.00  0.00     0.000 A 
HETATM   46  C   UNL     1     -40.213 -55.386  17.838  1.00  0.00     0.001 A 
HETATM   47  C   UNL     1     -40.545 -54.031  17.797  1.00  0.00     0.017 A 
ENDBRANCH  34  42
ENDBRANCH   3  31
TORSDOF 9
ENDMDL
MODEL 9
REMARK VINA RESULT:      -7.1      2.629      5.172
REMARK  9 active torsions:
REMARK  status: ('A' for Active; 'I' for Inactive)
REMARK    1  A    between atoms: N_1  and  C_3 
REMARK    2  A    between atoms: N_2  and  C_5 
REMARK       I    between atoms: N_2  and  C_12 
REMARK       I    between atoms: N_2  and  C_13 
REMARK    3  A    between atoms: C_9  and  O_30 
REMARK    4  A    between atoms: C_12  and  C_26 
REMARK    5  A    between atoms: C_13  and  C_27 
REMARK    6  A    between atoms: C_15  and  C_25 
REMARK    7  A    between atoms: C_20  and  O_22 
REMARK    8  A    between atoms: C_20  and  C_29 
REMARK    9  A    between atoms: O_22  and  C_25 
ROOT
HETATM    1  N   UNL     1     -42.698 -51.155  13.628  1.00  0.00    -0.297 N 
HETATM    2  C   UNL     1     -41.990 -49.155  13.042  1.00  0.00     0.123 A 
HETATM    3  C   UNL     1     -41.127 -48.238  12.371  1.00  0.00     0.149 A 
HETATM    4  C   UNL     1     -41.896 -50.511  12.712  1.00  0.00     0.142 A 
HETATM    5  N   UNL     1     -42.937 -48.989  14.026  1.00  0.00    -0.346 N 
ATOM      6  HN  UNL     1     -43.341 -48.111  14.354  1.00  0.00     0.167 HD
HETATM    7  C   UNL     1     -43.212 -50.196  14.453  1.00  0.00     0.188 C 
HETATM    8  N   UNL     1     -40.336 -48.758  11.386  1.00  0.00    -0.336 N 
ATOM      9  HN  UNL     1     -39.704 -48.156  10.858  1.00  0.00     0.168 HD
HETATM   10  N   UNL     1     -41.137 -51.042  11.737  1.00  0.00    -0.336 N 
ATOM     11  HN  UNL     1     -41.118 -52.033  11.497  1.00  0.00     0.168 HD
HETATM   12  C   UNL     1     -40.404 -50.092  11.120  1.00  0.00     0.183 A 
ENDROOT
BRANCH   1  13
HETATM   13  C   UNL     1     -42.987 -52.577  13.739  1.00  0.00     0.262 C 
HETATM   14  C   UNL     1     -44.216 -53.022  12.924  1.00  0.00     0.204 C 
HETATM   15  C   UNL     1     -45.043 -53.865  13.885  1.00  0.00     0.234 C 
HETATM   16  F   UNL     1     -45.366 -55.044  13.299  1.00  0.00    -0.244 F 
HETATM   17  C   UNL     1     -44.173 -54.031  15.124  1.00  0.00     0.185 C 
HETATM   18  O   UNL     1     -43.284 -52.893  15.118  1.00  0.00    -0.353 OA
BRANCH  14  19
HETATM   19  O   UNL     1     -43.823 -53.759  11.763  1.00  0.00    -0.388 OA
HETATM   20  H   UNL     1     -44.636 -54.126  11.359  1.00  0.00     0.210 HD
ENDBRANCH  14  19
BRANCH  17  21
HETATM   21  C   UNL     1     -43.368 -55.339  15.138  1.00  0.00     0.214 C 
BRANCH  21  22
HETATM   22  O   UNL     1     -42.730 -55.571  16.405  1.00  0.00    -0.315 OA
BRANCH  22  23
HETATM   23  C   UNL     1     -41.407 -55.855  16.361  1.00  0.00     0.293 C 
HETATM   24  O   UNL     1     -40.899 -56.927  16.633  1.00  0.00    -0.259 OA
BRANCH  23  25
HETATM   25  C   UNL     1     -40.634 -54.661  15.937  1.00  0.00     0.039 A 
HETATM   26  C   UNL     1     -40.492 -53.539  16.761  1.00  0.00     0.017 A 
HETATM   27  C   UNL     1     -39.788 -52.418  16.302  1.00  0.00     0.001 A 
HETATM   28  C   UNL     1     -39.222 -52.423  15.029  1.00  0.00     0.000 A 
HETATM   29  C   UNL     1     -39.357 -53.541  14.205  1.00  0.00     0.001 A 
HETATM   30  C   UNL     1     -40.064 -54.656  14.657  1.00  0.00     0.017 A 
ENDBRANCH  23  25
ENDBRANCH  22  23
ENDBRANCH  21  22
ENDBRANCH  17  21
ENDBRANCH   1  13
BRANCH   3  31
HETATM   31  N   UNL     1     -41.042 -46.847  12.776  1.00  0.00    -0.226 N 
HETATM   32  C   UNL     1     -40.565 -46.437  14.028  1.00  0.00     0.266 C 
HETATM   33  O   UNL     1     -41.226 -45.638  14.712  1.00  0.00    -0.267 OA
HETATM   34  C   UNL     1     -42.056 -46.022  12.248  1.00  0.00     0.266 C 
HETATM   35  O   UNL     1     -43.200 -46.424  12.007  1.00  0.00    -0.267 OA
BRANCH  32  36
HETATM   36  C   UNL     1     -39.240 -46.798  14.648  1.00  0.00     0.033 C 
HETATM   37  C   UNL     1     -38.139 -47.365  14.011  1.00  0.00     0.017 C 
HETATM   38  C   UNL     1     -37.080 -47.901  14.762  1.00  0.00     0.001 C 
HETATM   39  C   UNL     1     -37.049 -47.775  16.150  1.00  0.00     0.000 C 
HETATM   40  C   UNL     1     -38.053 -47.066  16.791  1.00  0.00     0.001 C 
HETATM   41  C   UNL     1     -39.134 -46.590  16.047  1.00  0.00     0.017 C 
ENDBRANCH  32  36
BRANCH  34  42
HETATM   42  C   UNL     1     -41.828 -44.537  12.117  1.00  0.00     0.033 A 
HETATM   43  C   UNL     1     -42.704 -43.559  12.604  1.00  0.00     0.017 A 
HETATM   44  C   UNL     1     -42.488 -42.208  12.301  1.00  0.00     0.001 A 
HETATM   45  C   UNL     1     -41.371 -41.819  11.561  1.00  0.00     0.000 A 
HETATM   46  C   UNL     1     -40.455 -42.776  11.137  1.00  0.00     0.001 A 
HETATM   47  C   UNL     1     -40.682 -44.125  11.413  1.00  0.00     0.017 A 
ENDBRANCH  34  42
ENDBRANCH   3  31
TORSDOF 9
ENDMDL
