MODEL 1
REMARK VINA RESULT:      -6.3      0.000      0.000
REMARK  6 active torsions:
REMARK  status: ('A' for Active; 'I' for Inactive)
REMARK    1  A    between atoms: C_2  and  O_3 
REMARK    2  A    between atoms: C_2  and  C_9 
REMARK    3  A    between atoms: O_3  and  C_4 
REMARK    4  A    between atoms: C_4  and  C_5 
REMARK       I    between atoms: C_9  and  N_11 
REMARK    5  A    between atoms: N_11  and  C_12 
REMARK    6  A    between atoms: C_15  and  N_19 
ROOT
HETATM    1  C   UNL     1     -42.749 -51.008  13.168  1.00  0.00     0.050 C 
HETATM    2  C   UNL     1     -43.354 -49.776  13.339  1.00  0.00     0.035 C 
HETATM    3  C   UNL     1     -43.001 -48.739  12.477  1.00  0.00     0.051 C 
HETATM    4  C   UNL     1     -42.021 -48.931  11.501  1.00  0.00     0.103 C 
HETATM    5  N   UNL     1     -41.328 -50.085  11.439  1.00  0.00    -0.350 N 
ATOM      6  HN  UNL     1     -40.543 -50.192  10.796  1.00  0.00     0.166 HD
HETATM    7  C   UNL     1     -41.704 -51.096  12.254  1.00  0.00     0.119 C 
ENDROOT
BRANCH   1   8
HETATM    8  N   UNL     1     -43.263 -52.126  13.855  1.00  0.00    -0.324 N 
HETATM    9  C   UNL     1     -44.209 -52.956  13.260  1.00  0.00     0.250 C 
HETATM   10  O   UNL     1     -44.631 -52.820  12.115  1.00  0.00    -0.270 OA
HETATM   11  H   UNL     1     -43.253 -52.085  14.868  1.00  0.00     0.169 HD
BRANCH   9  12
HETATM   12  C   UNL     1     -44.659 -54.121  14.157  1.00  0.00     0.209 C 
HETATM   13  C   UNL     1     -43.409 -54.823  14.685  1.00  0.00     0.050 C 
BRANCH  12  14
HETATM   14  O   UNL     1     -45.425 -53.688  15.279  1.00  0.00    -0.368 OA
BRANCH  14  15
HETATM   15  C   UNL     1     -46.714 -53.160  14.926  1.00  0.00     0.286 C 
BRANCH  15  16
HETATM   16  C   UNL     1     -46.833 -51.646  15.133  1.00  0.00     0.408 C 
HETATM   17  F   UNL     1     -47.842 -51.301  15.958  1.00  0.00    -0.169 F 
HETATM   18  F   UNL     1     -45.686 -51.147  15.656  1.00  0.00    -0.169 F 
HETATM   19  F   UNL     1     -47.034 -51.020  13.949  1.00  0.00    -0.169 F 
ENDBRANCH  15  16
ENDBRANCH  14  15
ENDBRANCH  12  14
ENDBRANCH   9  12
ENDBRANCH   1   8
BRANCH   4  20
HETATM   20  N   UNL     1     -41.828 -47.990  10.514  1.00  0.00    -0.363 N 
HETATM   21  C   UNL     1     -40.882 -46.892  10.752  1.00  0.00     0.150 C 
HETATM   22  C   UNL     1     -41.597 -45.537  10.810  1.00  0.00     0.187 C 
HETATM   23  O   UNL     1     -42.441 -45.339   9.661  1.00  0.00    -0.388 OA
HETATM   24  C   UNL     1     -43.449 -46.361   9.618  1.00  0.00     0.187 C 
HETATM   25  C   UNL     1     -42.835 -47.760   9.473  1.00  0.00     0.150 C 
ENDBRANCH   4  20
TORSDOF 6
ENDMDL
MODEL 2
REMARK VINA RESULT:      -5.9      2.003      2.301
REMARK  6 active torsions:
REMARK  status: ('A' for Active; 'I' for Inactive)
REMARK    1  A    between atoms: C_2  and  O_3 
REMARK    2  A    between atoms: C_2  and  C_9 
REMARK    3  A    between atoms: O_3  and  C_4 
REMARK    4  A    between atoms: C_4  and  C_5 
REMARK       I    between atoms: C_9  and  N_11 
REMARK    5  A    between atoms: N_11  and  C_12 
REMARK    6  A    between atoms: C_15  and  N_19 
ROOT
HETATM    1  C   UNL     1     -41.587 -50.421  12.598  1.00  0.00     0.050 C 
HETATM    2  C   UNL     1     -42.566 -49.481  12.864  1.00  0.00     0.035 C 
HETATM    3  C   UNL     1     -42.753 -48.442  11.952  1.00  0.00     0.051 C 
HETATM    4  C   UNL     1     -41.934 -48.331  10.827  1.00  0.00     0.103 C 
HETATM    5  N   UNL     1     -40.886 -49.159  10.654  1.00  0.00    -0.350 N 
ATOM      6  HN  UNL     1     -40.225 -49.018   9.890  1.00  0.00     0.166 HD
HETATM    7  C   UNL     1     -40.736 -50.184  11.523  1.00  0.00     0.119 C 
ENDROOT
BRANCH   1   8
HETATM    8  N   UNL     1     -41.544 -51.602  13.364  1.00  0.00    -0.324 N 
HETATM    9  C   UNL     1     -42.311 -52.709  13.011  1.00  0.00     0.250 C 
HETATM   10  O   UNL     1     -43.030 -52.768  12.018  1.00  0.00    -0.270 OA
HETATM   11  H   UNL     1     -41.290 -51.506  14.341  1.00  0.00     0.169 HD
BRANCH   9  12
HETATM   12  C   UNL     1     -42.142 -53.905  13.962  1.00  0.00     0.209 C 
HETATM   13  C   UNL     1     -42.087 -53.371  15.392  1.00  0.00     0.050 C 
BRANCH  12  14
HETATM   14  O   UNL     1     -43.226 -54.830  13.882  1.00  0.00    -0.368 OA
BRANCH  14  15
HETATM   15  C   UNL     1     -44.298 -54.539  14.794  1.00  0.00     0.286 C 
BRANCH  15  16
HETATM   16  C   UNL     1     -45.690 -54.765  14.194  1.00  0.00     0.408 C 
HETATM   17  F   UNL     1     -46.680 -54.687  15.106  1.00  0.00    -0.169 F 
HETATM   18  F   UNL     1     -45.945 -53.847  13.230  1.00  0.00    -0.169 F 
HETATM   19  F   UNL     1     -45.762 -55.984  13.609  1.00  0.00    -0.169 F 
ENDBRANCH  15  16
ENDBRANCH  14  15
ENDBRANCH  12  14
ENDBRANCH   9  12
ENDBRANCH   1   8
BRANCH   4  20
HETATM   20  N   UNL     1     -42.253 -47.448   9.819  1.00  0.00    -0.363 N 
HETATM   21  C   UNL     1     -41.933 -46.025   9.992  1.00  0.00     0.150 C 
HETATM   22  C   UNL     1     -43.203 -45.170  10.071  1.00  0.00     0.187 C 
HETATM   23  O   UNL     1     -44.086 -45.438   8.967  1.00  0.00    -0.388 OA
HETATM   24  C   UNL     1     -44.489 -46.816   8.992  1.00  0.00     0.187 C 
HETATM   25  C   UNL     1     -43.290 -47.761   8.832  1.00  0.00     0.150 C 
ENDBRANCH   4  20
TORSDOF 6
ENDMDL
MODEL 3
REMARK VINA RESULT:      -5.9      1.874      2.377
REMARK  6 active torsions:
REMARK  status: ('A' for Active; 'I' for Inactive)
REMARK    1  A    between atoms: C_2  and  O_3 
REMARK    2  A    between atoms: C_2  and  C_9 
REMARK    3  A    between atoms: O_3  and  C_4 
REMARK    4  A    between atoms: C_4  and  C_5 
REMARK       I    between atoms: C_9  and  N_11 
REMARK    5  A    between atoms: N_11  and  C_12 
REMARK    6  A    between atoms: C_15  and  N_19 
ROOT
HETATM    1  C   UNL     1     -41.963 -50.427  12.296  1.00  0.00     0.050 C 
HETATM    2  C   UNL     1     -42.513 -49.301  12.880  1.00  0.00     0.035 C 
HETATM    3  C   UNL     1     -41.792 -48.108  12.829  1.00  0.00     0.051 C 
HETATM    4  C   UNL     1     -40.524 -48.071  12.247  1.00  0.00     0.103 C 
HETATM    5  N   UNL     1     -39.931 -49.201  11.817  1.00  0.00    -0.350 N 
ATOM      6  HN  UNL     1     -38.965 -49.194  11.486  1.00  0.00     0.166 HD
HETATM    7  C   UNL     1     -40.652 -50.344  11.837  1.00  0.00     0.119 C 
ENDROOT
BRANCH   1   8
HETATM    8  N   UNL     1     -42.767 -51.570  12.116  1.00  0.00    -0.324 N 
HETATM    9  C   UNL     1     -42.844 -52.549  13.102  1.00  0.00     0.250 C 
HETATM   10  O   UNL     1     -42.279 -52.487  14.190  1.00  0.00    -0.270 OA
HETATM   11  H   UNL     1     -42.946 -51.858  11.161  1.00  0.00     0.169 HD
BRANCH   9  12
HETATM   12  C   UNL     1     -43.764 -53.725  12.733  1.00  0.00     0.209 C 
HETATM   13  C   UNL     1     -43.909 -54.618  13.963  1.00  0.00     0.050 C 
BRANCH  12  14
HETATM   14  O   UNL     1     -45.070 -53.301  12.343  1.00  0.00    -0.368 OA
BRANCH  14  15
HETATM   15  C   UNL     1     -45.947 -53.048  13.453  1.00  0.00     0.286 C 
BRANCH  15  16
HETATM   16  C   UNL     1     -46.386 -51.584  13.565  1.00  0.00     0.408 C 
HETATM   17  F   UNL     1     -45.362 -50.739  13.803  1.00  0.00    -0.169 F 
HETATM   18  F   UNL     1     -46.993 -51.182  12.421  1.00  0.00    -0.169 F 
HETATM   19  F   UNL     1     -47.286 -51.434  14.565  1.00  0.00    -0.169 F 
ENDBRANCH  15  16
ENDBRANCH  14  15
ENDBRANCH  12  14
ENDBRANCH   9  12
ENDBRANCH   1   8
BRANCH   4  20
HETATM   20  N   UNL     1     -39.908 -46.864  11.997  1.00  0.00    -0.363 N 
HETATM   21  C   UNL     1     -39.399 -46.078  13.128  1.00  0.00     0.150 C 
HETATM   22  C   UNL     1     -40.164 -44.759  13.286  1.00  0.00     0.187 C 
HETATM   23  O   UNL     1     -40.215 -44.030  12.047  1.00  0.00    -0.388 OA
HETATM   24  C   UNL     1     -40.896 -44.811  11.052  1.00  0.00     0.187 C 
HETATM   25  C   UNL     1     -40.157 -46.124  10.757  1.00  0.00     0.150 C 
ENDBRANCH   4  20
TORSDOF 6
ENDMDL
MODEL 4
REMARK VINA RESULT:      -5.8      3.305      3.928
REMARK  6 active torsions:
REMARK  status: ('A' for Active; 'I' for Inactive)
REMARK    1  A    between atoms: C_2  and  O_3 
REMARK    2  A    between atoms: C_2  and  C_9 
REMARK    3  A    between atoms: O_3  and  C_4 
REMARK    4  A    between atoms: C_4  and  C_5 
REMARK       I    between atoms: C_9  and  N_11 
REMARK    5  A    between atoms: N_11  and  C_12 
REMARK    6  A    between atoms: C_15  and  N_19 
ROOT
HETATM    1  C   UNL     1     -41.165 -53.044  12.778  1.00  0.00     0.050 C 
HETATM    2  C   UNL     1     -40.264 -53.305  13.794  1.00  0.00     0.035 C 
HETATM    3  C   UNL     1     -39.184 -52.439  13.963  1.00  0.00     0.051 C 
HETATM    4  C   UNL     1     -38.995 -51.366  13.090  1.00  0.00     0.103 C 
HETATM    5  N   UNL     1     -39.787 -51.206  12.013  1.00  0.00    -0.350 N 
ATOM      6  HN  UNL     1     -39.589 -50.486  11.318  1.00  0.00     0.166 HD
HETATM    7  C   UNL     1     -40.851 -52.028  11.880  1.00  0.00     0.119 C 
ENDROOT
BRANCH   1   8
HETATM    8  N   UNL     1     -42.383 -53.750  12.742  1.00  0.00    -0.324 N 
HETATM    9  C   UNL     1     -43.591 -53.099  12.976  1.00  0.00     0.250 C 
HETATM   10  O   UNL     1     -43.704 -51.894  13.182  1.00  0.00    -0.270 OA
HETATM   11  H   UNL     1     -42.344 -54.742  12.946  1.00  0.00     0.169 HD
BRANCH   9  12
HETATM   12  C   UNL     1     -44.816 -54.026  12.902  1.00  0.00     0.209 C 
HETATM   13  C   UNL     1     -44.749 -54.996  14.080  1.00  0.00     0.050 C 
BRANCH  12  14
HETATM   14  O   UNL     1     -46.050 -53.315  12.989  1.00  0.00    -0.368 OA
BRANCH  14  15
HETATM   15  C   UNL     1     -46.629 -53.328  14.304  1.00  0.00     0.286 C 
BRANCH  15  16
HETATM   16  C   UNL     1     -46.803 -51.931  14.910  1.00  0.00     0.408 C 
HETATM   17  F   UNL     1     -47.823 -51.856  15.788  1.00  0.00    -0.169 F 
HETATM   18  F   UNL     1     -45.674 -51.551  15.558  1.00  0.00    -0.169 F 
HETATM   19  F   UNL     1     -47.028 -51.017  13.937  1.00  0.00    -0.169 F 
ENDBRANCH  15  16
ENDBRANCH  14  15
ENDBRANCH  12  14
ENDBRANCH   9  12
ENDBRANCH   1   8
BRANCH   4  20
HETATM   20  N   UNL     1     -38.068 -50.388  13.381  1.00  0.00    -0.363 N 
HETATM   21  C   UNL     1     -37.403 -50.405  14.691  1.00  0.00     0.150 C 
HETATM   22  C   UNL     1     -37.789 -49.184  15.533  1.00  0.00     0.187 C 
HETATM   23  O   UNL     1     -37.601 -47.960  14.800  1.00  0.00    -0.388 OA
HETATM   24  C   UNL     1     -38.433 -47.962  13.630  1.00  0.00     0.187 C 
HETATM   25  C   UNL     1     -38.067 -49.105  12.673  1.00  0.00     0.150 C 
ENDBRANCH   4  20
TORSDOF 6
ENDMDL
MODEL 5
REMARK VINA RESULT:      -5.7      3.599      7.513
REMARK  6 active torsions:
REMARK  status: ('A' for Active; 'I' for Inactive)
REMARK    1  A    between atoms: C_2  and  O_3 
REMARK    2  A    between atoms: C_2  and  C_9 
REMARK    3  A    between atoms: O_3  and  C_4 
REMARK    4  A    between atoms: C_4  and  C_5 
REMARK       I    between atoms: C_9  and  N_11 
REMARK    5  A    between atoms: N_11  and  C_12 
REMARK    6  A    between atoms: C_15  and  N_19 
ROOT
HETATM    1  C   UNL     1     -41.088 -52.070  12.202  1.00  0.00     0.050 C 
HETATM    2  C   UNL     1     -42.381 -51.620  12.398  1.00  0.00     0.035 C 
HETATM    3  C   UNL     1     -43.299 -52.483  12.996  1.00  0.00     0.051 C 
HETATM    4  C   UNL     1     -42.930 -53.785  13.336  1.00  0.00     0.103 C 
HETATM    5  N   UNL     1     -41.716 -54.266  13.004  1.00  0.00    -0.350 N 
ATOM      6  HN  UNL     1     -41.479 -55.246  13.158  1.00  0.00     0.166 HD
HETATM    7  C   UNL     1     -40.822 -53.411  12.460  1.00  0.00     0.119 C 
ENDROOT
BRANCH   1   8
HETATM    8  N   UNL     1     -40.089 -51.147  11.834  1.00  0.00    -0.324 N 
HETATM    9  C   UNL     1     -39.423 -50.395  12.798  1.00  0.00     0.250 C 
HETATM   10  O   UNL     1     -39.607 -50.495  14.008  1.00  0.00    -0.270 OA
HETATM   11  H   UNL     1     -40.147 -50.757  10.900  1.00  0.00     0.169 HD
BRANCH   9  12
HETATM   12  C   UNL     1     -38.370 -49.438  12.215  1.00  0.00     0.209 C 
HETATM   13  C   UNL     1     -37.372 -50.265  11.408  1.00  0.00     0.050 C 
BRANCH  12  14
HETATM   14  O   UNL     1     -38.937 -48.462  11.342  1.00  0.00    -0.368 OA
BRANCH  14  15
HETATM   15  C   UNL     1     -39.997 -47.700  11.943  1.00  0.00     0.286 C 
BRANCH  15  16
HETATM   16  C   UNL     1     -41.253 -47.604  11.070  1.00  0.00     0.408 C 
HETATM   17  F   UNL     1     -41.386 -48.638  10.215  1.00  0.00    -0.169 F 
HETATM   18  F   UNL     1     -42.366 -47.565  11.843  1.00  0.00    -0.169 F 
HETATM   19  F   UNL     1     -41.237 -46.464  10.340  1.00  0.00    -0.169 F 
ENDBRANCH  15  16
ENDBRANCH  14  15
ENDBRANCH  12  14
ENDBRANCH   9  12
ENDBRANCH   1   8
BRANCH   4  20
HETATM   20  N   UNL     1     -43.757 -54.561  14.120  1.00  0.00    -0.363 N 
HETATM   21  C   UNL     1     -45.114 -54.859  13.644  1.00  0.00     0.150 C 
HETATM   22  C   UNL     1     -46.177 -54.214  14.539  1.00  0.00     0.187 C 
HETATM   23  O   UNL     1     -45.963 -54.536  15.925  1.00  0.00    -0.388 OA
HETATM   24  C   UNL     1     -44.682 -54.040  16.346  1.00  0.00     0.187 C 
HETATM   25  C   UNL     1     -43.535 -54.693  15.562  1.00  0.00     0.150 C 
ENDBRANCH   4  20
TORSDOF 6
ENDMDL
MODEL 6
REMARK VINA RESULT:      -5.5      2.493      3.016
REMARK  6 active torsions:
REMARK  status: ('A' for Active; 'I' for Inactive)
REMARK    1  A    between atoms: C_2  and  O_3 
REMARK    2  A    between atoms: C_2  and  C_9 
REMARK    3  A    between atoms: O_3  and  C_4 
REMARK    4  A    between atoms: C_4  and  C_5 
REMARK       I    between atoms: C_9  and  N_11 
REMARK    5  A    between atoms: N_11  and  C_12 
REMARK    6  A    between atoms: C_15  and  N_19 
ROOT
HETATM    1  C   UNL     1     -41.082 -50.271  12.693  1.00  0.00     0.050 C 
HETATM    2  C   UNL     1     -40.872 -49.094  13.387  1.00  0.00     0.035 C 
HETATM    3  C   UNL     1     -40.760 -47.907  12.664  1.00  0.00     0.051 C 
HETATM    4  C   UNL     1     -40.807 -47.921  11.269  1.00  0.00     0.103 C 
HETATM    5  N   UNL     1     -40.859 -49.085  10.593  1.00  0.00    -0.350 N 
ATOM      6  HN  UNL     1     -40.790 -49.106   9.575  1.00  0.00     0.166 HD
HETATM    7  C   UNL     1     -41.005 -50.226  11.304  1.00  0.00     0.119 C 
ENDROOT
BRANCH   1   8
HETATM    8  N   UNL     1     -41.443 -51.433  13.403  1.00  0.00    -0.324 N 
HETATM    9  C   UNL     1     -40.551 -52.493  13.535  1.00  0.00     0.250 C 
HETATM   10  O   UNL     1     -39.402 -52.495  13.100  1.00  0.00    -0.270 OA
HETATM   11  H   UNL     1     -42.432 -51.649  13.455  1.00  0.00     0.169 HD
BRANCH   9  12
HETATM   12  C   UNL     1     -41.115 -53.678  14.336  1.00  0.00     0.209 C 
HETATM   13  C   UNL     1     -41.705 -53.133  15.635  1.00  0.00     0.050 C 
BRANCH  12  14
HETATM   14  O   UNL     1     -42.152 -54.369  13.641  1.00  0.00    -0.368 OA
BRANCH  14  15
HETATM   15  C   UNL     1     -43.403 -54.388  14.345  1.00  0.00     0.286 C 
BRANCH  15  16
HETATM   16  C   UNL     1     -44.624 -54.265  13.428  1.00  0.00     0.408 C 
HETATM   17  F   UNL     1     -45.460 -53.269  13.784  1.00  0.00    -0.169 F 
HETATM   18  F   UNL     1     -44.235 -54.038  12.149  1.00  0.00    -0.169 F 
HETATM   19  F   UNL     1     -45.334 -55.419  13.426  1.00  0.00    -0.169 F 
ENDBRANCH  15  16
ENDBRANCH  14  15
ENDBRANCH  12  14
ENDBRANCH   9  12
ENDBRANCH   1   8
BRANCH   4  20
HETATM   20  N   UNL     1     -40.920 -46.742  10.564  1.00  0.00    -0.363 N 
HETATM   21  C   UNL     1     -39.811 -45.780  10.607  1.00  0.00     0.150 C 
HETATM   22  C   UNL     1     -40.220 -44.482  11.311  1.00  0.00     0.187 C 
HETATM   23  O   UNL     1     -41.436 -43.945  10.758  1.00  0.00    -0.388 OA
HETATM   24  C   UNL     1     -42.505 -44.889  10.931  1.00  0.00     0.187 C 
HETATM   25  C   UNL     1     -42.229 -46.202  10.187  1.00  0.00     0.150 C 
ENDBRANCH   4  20
TORSDOF 6
ENDMDL
MODEL 7
REMARK VINA RESULT:      -5.3      4.011      7.920
REMARK  6 active torsions:
REMARK  status: ('A' for Active; 'I' for Inactive)
REMARK    1  A    between atoms: C_2  and  O_3 
REMARK    2  A    between atoms: C_2  and  C_9 
REMARK    3  A    between atoms: O_3  and  C_4 
REMARK    4  A    between atoms: C_4  and  C_5 
REMARK       I    between atoms: C_9  and  N_11 
REMARK    5  A    between atoms: N_11  and  C_12 
REMARK    6  A    between atoms: C_15  and  N_19 
ROOT
HETATM    1  C   UNL     1     -42.327 -49.215  13.350  1.00  0.00     0.050 C 
HETATM    2  C   UNL     1     -43.322 -49.719  14.168  1.00  0.00     0.035 C 
HETATM    3  C   UNL     1     -43.707 -51.049  14.001  1.00  0.00     0.051 C 
HETATM    4  C   UNL     1     -43.134 -51.832  12.997  1.00  0.00     0.103 C 
HETATM    5  N   UNL     1     -42.278 -51.293  12.107  1.00  0.00    -0.350 N 
ATOM      6  HN  UNL     1     -41.938 -51.833  11.312  1.00  0.00     0.166 HD
HETATM    7  C   UNL     1     -41.884 -50.014  12.301  1.00  0.00     0.119 C 
ENDROOT
BRANCH   1   8
HETATM    8  N   UNL     1     -41.752 -47.966  13.658  1.00  0.00    -0.324 N 
HETATM    9  C   UNL     1     -42.230 -46.798  13.072  1.00  0.00     0.250 C 
HETATM   10  O   UNL     1     -43.183 -46.746  12.300  1.00  0.00    -0.270 OA
HETATM   11  H   UNL     1     -40.786 -47.970  13.965  1.00  0.00     0.169 HD
BRANCH   9  12
HETATM   12  C   UNL     1     -41.481 -45.532  13.521  1.00  0.00     0.209 C 
HETATM   13  C   UNL     1     -40.125 -45.956  14.080  1.00  0.00     0.050 C 
BRANCH  12  14
HETATM   14  O   UNL     1     -41.246 -44.621  12.448  1.00  0.00    -0.368 OA
BRANCH  14  15
HETATM   15  C   UNL     1     -39.941 -44.747  11.862  1.00  0.00     0.286 C 
BRANCH  15  16
HETATM   16  C   UNL     1     -39.928 -45.560  10.563  1.00  0.00     0.408 C 
HETATM   17  F   UNL     1     -39.019 -45.120   9.670  1.00  0.00    -0.169 F 
HETATM   18  F   UNL     1     -39.653 -46.862  10.822  1.00  0.00    -0.169 F 
HETATM   19  F   UNL     1     -41.143 -45.522   9.968  1.00  0.00    -0.169 F 
ENDBRANCH  15  16
ENDBRANCH  14  15
ENDBRANCH  12  14
ENDBRANCH   9  12
ENDBRANCH   1   8
BRANCH   4  20
HETATM   20  N   UNL     1     -43.346 -53.193  12.970  1.00  0.00    -0.363 N 
HETATM   21  C   UNL     1     -44.682 -53.699  12.631  1.00  0.00     0.150 C 
HETATM   22  C   UNL     1     -45.330 -54.416  13.821  1.00  0.00     0.187 C 
HETATM   23  O   UNL     1     -44.453 -55.414  14.374  1.00  0.00    -0.388 OA
HETATM   24  C   UNL     1     -43.247 -54.792  14.845  1.00  0.00     0.187 C 
HETATM   25  C   UNL     1     -42.474 -54.114  13.706  1.00  0.00     0.150 C 
ENDBRANCH   4  20
TORSDOF 6
ENDMDL
MODEL 8
REMARK VINA RESULT:      -5.1      4.572      9.440
REMARK  6 active torsions:
REMARK  status: ('A' for Active; 'I' for Inactive)
REMARK    1  A    between atoms: C_2  and  O_3 
REMARK    2  A    between atoms: C_2  and  C_9 
REMARK    3  A    between atoms: O_3  and  C_4 
REMARK    4  A    between atoms: C_4  and  C_5 
REMARK       I    between atoms: C_9  and  N_11 
REMARK    5  A    between atoms: N_11  and  C_12 
REMARK    6  A    between atoms: C_15  and  N_19 
ROOT
HETATM    1  C   UNL     1     -44.537 -53.962  17.604  1.00  0.00     0.050 C 
HETATM    2  C   UNL     1     -43.764 -54.805  18.381  1.00  0.00     0.035 C 
HETATM    3  C   UNL     1     -44.399 -55.586  19.347  1.00  0.00     0.051 C 
HETATM    4  C   UNL     1     -45.775 -55.476  19.553  1.00  0.00     0.103 C 
HETATM    5  N   UNL     1     -46.498 -54.546  18.900  1.00  0.00    -0.350 N 
ATOM      6  HN  UNL     1     -47.482 -54.393  19.122  1.00  0.00     0.166 HD
HETATM    7  C   UNL     1     -45.880 -53.821  17.941  1.00  0.00     0.119 C 
ENDROOT
BRANCH   1   8
HETATM    8  N   UNL     1     -43.963 -53.356  16.469  1.00  0.00    -0.324 N 
HETATM    9  C   UNL     1     -44.031 -53.970  15.222  1.00  0.00     0.250 C 
HETATM   10  O   UNL     1     -44.611 -55.028  14.998  1.00  0.00    -0.270 OA
HETATM   11  H   UNL     1     -43.191 -52.719  16.632  1.00  0.00     0.169 HD
BRANCH   9  12
HETATM   12  C   UNL     1     -43.347 -53.167  14.102  1.00  0.00     0.209 C 
HETATM   13  C   UNL     1     -42.241 -54.034  13.505  1.00  0.00     0.050 C 
BRANCH  12  14
HETATM   14  O   UNL     1     -44.245 -52.816  13.050  1.00  0.00    -0.368 OA
BRANCH  14  15
HETATM   15  C   UNL     1     -44.925 -51.570  13.266  1.00  0.00     0.286 C 
BRANCH  15  16
HETATM   16  C   UNL     1     -46.451 -51.702  13.299  1.00  0.00     0.408 C 
HETATM   17  F   UNL     1     -47.042 -51.324  12.148  1.00  0.00    -0.169 F 
HETATM   18  F   UNL     1     -46.810 -52.987  13.543  1.00  0.00    -0.169 F 
HETATM   19  F   UNL     1     -46.971 -50.949  14.297  1.00  0.00    -0.169 F 
ENDBRANCH  15  16
ENDBRANCH  14  15
ENDBRANCH  12  14
ENDBRANCH   9  12
ENDBRANCH   1   8
BRANCH   4  20
HETATM   20  N   UNL     1     -46.436 -56.394  20.341  1.00  0.00    -0.363 N 
HETATM   21  C   UNL     1     -45.880 -57.746  20.477  1.00  0.00     0.150 C 
HETATM   22  C   UNL     1     -46.801 -58.798  19.851  1.00  0.00     0.187 C 
HETATM   23  O   UNL     1     -48.149 -58.672  20.338  1.00  0.00    -0.388 OA
HETATM   24  C   UNL     1     -48.670 -57.379  19.993  1.00  0.00     0.187 C 
HETATM   25  C   UNL     1     -47.862 -56.249  20.646  1.00  0.00     0.150 C 
ENDBRANCH   4  20
TORSDOF 6
ENDMDL
MODEL 9
REMARK VINA RESULT:      -5.1      2.298      2.935
REMARK  6 active torsions:
REMARK  status: ('A' for Active; 'I' for Inactive)
REMARK    1  A    between atoms: C_2  and  O_3 
REMARK    2  A    between atoms: C_2  and  C_9 
REMARK    3  A    between atoms: O_3  and  C_4 
REMARK    4  A    between atoms: C_4  and  C_5 
REMARK       I    between atoms: C_9  and  N_11 
REMARK    5  A    between atoms: N_11  and  C_12 
REMARK    6  A    between atoms: C_15  and  N_19 
ROOT
HETATM    1  C   UNL     1     -42.134 -50.105  13.721  1.00  0.00     0.050 C 
HETATM    2  C   UNL     1     -43.096 -49.372  13.049  1.00  0.00     0.035 C 
HETATM    3  C   UNL     1     -42.824 -48.037  12.749  1.00  0.00     0.051 C 
HETATM    4  C   UNL     1     -41.630 -47.447  13.167  1.00  0.00     0.103 C 
HETATM    5  N   UNL     1     -40.766 -48.120  13.951  1.00  0.00    -0.350 N 
ATOM      6  HN  UNL     1     -39.944 -47.660  14.343  1.00  0.00     0.166 HD
HETATM    7  C   UNL     1     -41.021 -49.423  14.204  1.00  0.00     0.119 C 
ENDROOT
BRANCH   1   8
HETATM    8  N   UNL     1     -42.277 -51.503  13.815  1.00  0.00    -0.324 N 
HETATM    9  C   UNL     1     -41.829 -52.335  12.793  1.00  0.00     0.250 C 
HETATM   10  O   UNL     1     -41.252 -51.947  11.782  1.00  0.00    -0.270 OA
HETATM   11  H   UNL     1     -43.033 -51.847  14.396  1.00  0.00     0.169 HD
BRANCH   9  12
HETATM   12  C   UNL     1     -42.072 -53.830  13.064  1.00  0.00     0.209 C 
HETATM   13  C   UNL     1     -41.629 -54.131  14.494  1.00  0.00     0.050 C 
BRANCH  12  14
HETATM   14  O   UNL     1     -43.446 -54.194  12.946  1.00  0.00    -0.368 OA
BRANCH  14  15
HETATM   15  C   UNL     1     -44.037 -54.619  14.184  1.00  0.00     0.286 C 
BRANCH  15  16
HETATM   16  C   UNL     1     -45.563 -54.745  14.123  1.00  0.00     0.408 C 
HETATM   17  F   UNL     1     -46.143 -53.810  13.344  1.00  0.00    -0.169 F 
HETATM   18  F   UNL     1     -45.919 -55.961  13.640  1.00  0.00    -0.169 F 
HETATM   19  F   UNL     1     -46.098 -54.640  15.363  1.00  0.00    -0.169 F 
ENDBRANCH  15  16
ENDBRANCH  14  15
ENDBRANCH  12  14
ENDBRANCH   9  12
ENDBRANCH   1   8
BRANCH   4  20
HETATM   20  N   UNL     1     -41.262 -46.208  12.688  1.00  0.00    -0.363 N 
HETATM   21  C   UNL     1     -42.310 -45.243  12.332  1.00  0.00     0.150 C 
HETATM   22  C   UNL     1     -42.316 -44.950  10.828  1.00  0.00     0.187 C 
HETATM   23  O   UNL     1     -41.006 -44.586  10.358  1.00  0.00    -0.388 OA
HETATM   24  C   UNL     1     -40.090 -45.669  10.586  1.00  0.00     0.187 C 
HETATM   25  C   UNL     1     -39.947 -45.987  12.080  1.00  0.00     0.150 C 
ENDBRANCH   4  20
TORSDOF 6
ENDMDL
