MODEL 1
REMARK VINA RESULT:      -6.4      0.000      0.000
REMARK  6 active torsions:
REMARK  status: ('A' for Active; 'I' for Inactive)
REMARK    1  A    between atoms: O_1  and  C_2 
REMARK    2  A    between atoms: C_2  and  C_3 
REMARK    3  A    between atoms: C_2  and  C_14 
REMARK    4  A    between atoms: C_3  and  N_4 
REMARK       I    between atoms: N_4  and  C_5 
REMARK       I    between atoms: C_5  and  N_7 
REMARK    5  A    between atoms: N_7  and  C_8 
REMARK    6  A    between atoms: C_14  and  N_15 
ROOT
HETATM    1  N   UNL     1     -40.773 -50.508  11.206  1.00  0.00    -0.340 N 
HETATM    2  C   UNL     1     -41.593 -49.410  11.343  1.00  0.00     0.320 C 
HETATM    3  O   UNL     1     -42.089 -49.111  12.421  1.00  0.00    -0.247 OA
HETATM    4  N   UNL     1     -41.750 -48.715  10.168  1.00  0.00    -0.306 N 
HETATM    5  H   UNL     1     -40.215 -50.616  10.372  1.00  0.00     0.164 HD
HETATM    6  H   UNL     1     -41.433 -49.128   9.304  1.00  0.00     0.171 HD
ENDROOT
BRANCH   1   7
HETATM    7  C   UNL     1     -40.411 -51.299  12.382  1.00  0.00     0.157 C 
BRANCH   7   8
HETATM    8  C   UNL     1     -41.093 -52.684  12.380  1.00  0.00     0.164 C 
BRANCH   8   9
HETATM    9  O   UNL     1     -40.543 -53.437  11.289  1.00  0.00    -0.392 OA
HETATM   10  H   UNL     1     -39.711 -52.991  11.055  1.00  0.00     0.210 HD
ENDBRANCH   8   9
BRANCH   8  11
HETATM   11  C   UNL     1     -42.634 -52.564  12.245  1.00  0.00     0.305 C 
BRANCH  11  12
HETATM   12  N   UNL     1     -43.423 -53.024  13.410  1.00  0.00     0.090 N 
HETATM   13  C   UNL     1     -44.698 -53.643  13.013  1.00  0.00     0.272 C 
HETATM   14  C   UNL     1     -45.776 -52.643  12.576  1.00  0.00     0.030 C 
HETATM   15  C   UNL     1     -45.978 -51.531  13.602  1.00  0.00     0.003 C 
HETATM   16  C   UNL     1     -44.647 -50.923  14.033  1.00  0.00     0.030 C 
HETATM   17  C   UNL     1     -43.655 -52.011  14.447  1.00  0.00     0.272 C 
ENDBRANCH  11  12
ENDBRANCH   8  11
ENDBRANCH   7   8
ENDBRANCH   1   7
BRANCH   4  18
HETATM   18  C   UNL     1     -42.442 -47.520  10.087  1.00  0.00     0.070 A 
HETATM   19  C   UNL     1     -42.097 -46.216  10.508  1.00  0.00     0.138 A 
HETATM   20  N   UNL     1     -43.051 -45.319  10.236  1.00  0.00    -0.310 N 
HETATM   21  N   UNL     1     -44.009 -46.050   9.648  1.00  0.00    -0.310 N 
ATOM     22  HN  UNL     1     -43.049 -44.317  10.429  1.00  0.00     0.186 HD
HETATM   23  C   UNL     1     -43.689 -47.374   9.527  1.00  0.00     0.138 A 
HETATM   24  H   UNL     1     -44.856 -45.574   9.354  1.00  0.00     0.186 HD
ENDBRANCH   4  18
TORSDOF 6
ENDMDL
MODEL 2
REMARK VINA RESULT:      -6.3      1.719      2.563
REMARK  6 active torsions:
REMARK  status: ('A' for Active; 'I' for Inactive)
REMARK    1  A    between atoms: O_1  and  C_2 
REMARK    2  A    between atoms: C_2  and  C_3 
REMARK    3  A    between atoms: C_2  and  C_14 
REMARK    4  A    between atoms: C_3  and  N_4 
REMARK       I    between atoms: N_4  and  C_5 
REMARK       I    between atoms: C_5  and  N_7 
REMARK    5  A    between atoms: N_7  and  C_8 
REMARK    6  A    between atoms: C_14  and  N_15 
ROOT
HETATM    1  N   UNL     1     -40.868 -49.028  10.534  1.00  0.00    -0.340 N 
HETATM    2  C   UNL     1     -41.966 -48.200  10.597  1.00  0.00     0.320 C 
HETATM    3  O   UNL     1     -42.227 -47.557  11.606  1.00  0.00    -0.247 OA
HETATM    4  N   UNL     1     -42.680 -48.174   9.424  1.00  0.00    -0.306 N 
HETATM    5  H   UNL     1     -40.557 -49.381   9.640  1.00  0.00     0.164 HD
HETATM    6  H   UNL     1     -42.479 -48.856   8.709  1.00  0.00     0.171 HD
ENDROOT
BRANCH   1   7
HETATM    7  C   UNL     1     -39.936 -49.092  11.659  1.00  0.00     0.157 C 
BRANCH   7   8
HETATM    8  C   UNL     1     -39.846 -50.511  12.258  1.00  0.00     0.164 C 
BRANCH   8   9
HETATM    9  O   UNL     1     -38.759 -51.188  11.609  1.00  0.00    -0.392 OA
HETATM   10  H   UNL     1     -38.057 -50.523  11.512  1.00  0.00     0.210 HD
ENDBRANCH   8   9
BRANCH   8  11
HETATM   11  C   UNL     1     -41.172 -51.296  12.073  1.00  0.00     0.305 C 
BRANCH  11  12
HETATM   12  N   UNL     1     -41.997 -51.467  13.292  1.00  0.00     0.090 N 
HETATM   13  C   UNL     1     -41.478 -52.523  14.174  1.00  0.00     0.272 C 
HETATM   14  C   UNL     1     -41.760 -53.949  13.685  1.00  0.00     0.030 C 
HETATM   15  C   UNL     1     -43.235 -54.161  13.350  1.00  0.00     0.003 C 
HETATM   16  C   UNL     1     -43.770 -53.040  12.466  1.00  0.00     0.030 C 
HETATM   17  C   UNL     1     -43.431 -51.668  13.051  1.00  0.00     0.272 C 
ENDBRANCH  11  12
ENDBRANCH   8  11
ENDBRANCH   7   8
ENDBRANCH   1   7
BRANCH   4  18
HETATM   18  C   UNL     1     -43.760 -47.335   9.218  1.00  0.00     0.070 A 
HETATM   19  C   UNL     1     -45.150 -47.591   9.224  1.00  0.00     0.138 A 
HETATM   20  N   UNL     1     -45.875 -46.493   8.987  1.00  0.00    -0.310 N 
HETATM   21  N   UNL     1     -44.950 -45.536   8.822  1.00  0.00    -0.310 N 
ATOM     22  HN  UNL     1     -46.890 -46.404   8.943  1.00  0.00     0.186 HD
HETATM   23  C   UNL     1     -43.666 -45.988   8.960  1.00  0.00     0.138 A 
HETATM   24  H   UNL     1     -45.271 -44.595   8.619  1.00  0.00     0.186 HD
ENDBRANCH   4  18
TORSDOF 6
ENDMDL
MODEL 3
REMARK VINA RESULT:      -6.1      2.943      6.767
REMARK  6 active torsions:
REMARK  status: ('A' for Active; 'I' for Inactive)
REMARK    1  A    between atoms: O_1  and  C_2 
REMARK    2  A    between atoms: C_2  and  C_3 
REMARK    3  A    between atoms: C_2  and  C_14 
REMARK    4  A    between atoms: C_3  and  N_4 
REMARK       I    between atoms: N_4  and  C_5 
REMARK       I    between atoms: C_5  and  N_7 
REMARK    5  A    between atoms: N_7  and  C_8 
REMARK    6  A    between atoms: C_14  and  N_15 
ROOT
HETATM    1  N   UNL     1     -42.087 -52.509  11.566  1.00  0.00    -0.340 N 
HETATM    2  C   UNL     1     -42.947 -52.804  12.601  1.00  0.00     0.320 C 
HETATM    3  O   UNL     1     -42.675 -52.520  13.761  1.00  0.00    -0.247 OA
HETATM    4  N   UNL     1     -44.105 -53.407  12.174  1.00  0.00    -0.306 N 
HETATM    5  H   UNL     1     -42.415 -52.560  10.612  1.00  0.00     0.164 HD
HETATM    6  H   UNL     1     -44.166 -53.742  11.225  1.00  0.00     0.171 HD
ENDROOT
BRANCH   1   7
HETATM    7  C   UNL     1     -40.854 -51.768  11.830  1.00  0.00     0.157 C 
BRANCH   7   8
HETATM    8  C   UNL     1     -41.020 -50.256  11.567  1.00  0.00     0.164 C 
BRANCH   8   9
HETATM    9  O   UNL     1     -40.396 -49.963  10.309  1.00  0.00    -0.392 OA
HETATM   10  H   UNL     1     -41.068 -50.154   9.632  1.00  0.00     0.210 HD
ENDBRANCH   8   9
BRANCH   8  11
HETATM   11  C   UNL     1     -40.394 -49.405  12.704  1.00  0.00     0.305 C 
BRANCH  11  12
HETATM   12  N   UNL     1     -39.283 -48.511  12.305  1.00  0.00     0.090 N 
HETATM   13  C   UNL     1     -37.969 -49.044  12.698  1.00  0.00     0.272 C 
HETATM   14  C   UNL     1     -37.652 -48.905  14.192  1.00  0.00     0.030 C 
HETATM   15  C   UNL     1     -37.861 -47.477  14.693  1.00  0.00     0.003 C 
HETATM   16  C   UNL     1     -39.210 -46.923  14.248  1.00  0.00     0.030 C 
HETATM   17  C   UNL     1     -39.414 -47.116  12.745  1.00  0.00     0.272 C 
ENDBRANCH  11  12
ENDBRANCH   8  11
ENDBRANCH   7   8
ENDBRANCH   1   7
BRANCH   4  18
HETATM   18  C   UNL     1     -45.158 -53.698  13.022  1.00  0.00     0.070 A 
HETATM   19  C   UNL     1     -46.241 -52.904  13.463  1.00  0.00     0.138 A 
HETATM   20  N   UNL     1     -47.063 -53.568  14.284  1.00  0.00    -0.310 N 
HETATM   21  N   UNL     1     -46.502 -54.783  14.373  1.00  0.00    -0.310 N 
ATOM     22  HN  UNL     1     -47.914 -53.231  14.734  1.00  0.00     0.186 HD
HETATM   23  C   UNL     1     -45.363 -54.914  13.627  1.00  0.00     0.138 A 
HETATM   24  H   UNL     1     -46.956 -55.473  14.962  1.00  0.00     0.186 HD
ENDBRANCH   4  18
TORSDOF 6
ENDMDL
MODEL 4
REMARK VINA RESULT:      -6.1      3.576      5.197
REMARK  6 active torsions:
REMARK  status: ('A' for Active; 'I' for Inactive)
REMARK    1  A    between atoms: O_1  and  C_2 
REMARK    2  A    between atoms: C_2  and  C_3 
REMARK    3  A    between atoms: C_2  and  C_14 
REMARK    4  A    between atoms: C_3  and  N_4 
REMARK       I    between atoms: N_4  and  C_5 
REMARK       I    between atoms: C_5  and  N_7 
REMARK    5  A    between atoms: N_7  and  C_8 
REMARK    6  A    between atoms: C_14  and  N_15 
ROOT
HETATM    1  N   UNL     1     -40.561 -49.616  10.427  1.00  0.00    -0.340 N 
HETATM    2  C   UNL     1     -41.602 -48.735  10.621  1.00  0.00     0.320 C 
HETATM    3  O   UNL     1     -42.026 -48.483  11.742  1.00  0.00    -0.247 OA
HETATM    4  N   UNL     1     -42.058 -48.185   9.449  1.00  0.00    -0.306 N 
HETATM    5  H   UNL     1     -40.095 -49.651   9.532  1.00  0.00     0.164 HD
HETATM    6  H   UNL     1     -41.754 -48.574   8.569  1.00  0.00     0.171 HD
ENDROOT
BRANCH   1   7
HETATM    7  C   UNL     1     -39.884 -50.211  11.578  1.00  0.00     0.157 C 
BRANCH   7   8
HETATM    8  C   UNL     1     -38.448 -49.671  11.748  1.00  0.00     0.164 C 
BRANCH   8   9
HETATM    9  O   UNL     1     -37.701 -50.051  10.583  1.00  0.00    -0.392 OA
HETATM   10  H   UNL     1     -37.647 -49.251  10.033  1.00  0.00     0.210 HD
ENDBRANCH   8   9
BRANCH   8  11
HETATM   11  C   UNL     1     -37.778 -50.220  13.035  1.00  0.00     0.305 C 
BRANCH  11  12
HETATM   12  N   UNL     1     -38.356 -49.751  14.315  1.00  0.00     0.090 N 
HETATM   13  C   UNL     1     -38.408 -48.283  14.401  1.00  0.00     0.272 C 
HETATM   14  C   UNL     1     -37.054 -47.618  14.676  1.00  0.00     0.030 C 
HETATM   15  C   UNL     1     -36.346 -48.233  15.881  1.00  0.00     0.003 C 
HETATM   16  C   UNL     1     -36.332 -49.756  15.799  1.00  0.00     0.030 C 
HETATM   17  C   UNL     1     -37.732 -50.305  15.523  1.00  0.00     0.272 C 
ENDBRANCH  11  12
ENDBRANCH   8  11
ENDBRANCH   7   8
ENDBRANCH   1   7
BRANCH   4  18
HETATM   18  C   UNL     1     -43.025 -47.196   9.407  1.00  0.00     0.070 A 
HETATM   19  C   UNL     1     -42.948 -45.811   9.676  1.00  0.00     0.138 A 
HETATM   20  N   UNL     1     -44.121 -45.190   9.510  1.00  0.00    -0.310 N 
HETATM   21  N   UNL     1     -44.949 -46.179   9.144  1.00  0.00    -0.310 N 
ATOM     22  HN  UNL     1     -44.335 -44.200   9.634  1.00  0.00     0.186 HD
HETATM   23  C   UNL     1     -44.338 -47.400   9.058  1.00  0.00     0.138 A 
HETATM   24  H   UNL     1     -45.921 -45.944   8.966  1.00  0.00     0.186 HD
ENDBRANCH   4  18
TORSDOF 6
ENDMDL
MODEL 5
REMARK VINA RESULT:      -6.0      2.582      2.924
REMARK  6 active torsions:
REMARK  status: ('A' for Active; 'I' for Inactive)
REMARK    1  A    between atoms: O_1  and  C_2 
REMARK    2  A    between atoms: C_2  and  C_3 
REMARK    3  A    between atoms: C_2  and  C_14 
REMARK    4  A    between atoms: C_3  and  N_4 
REMARK       I    between atoms: N_4  and  C_5 
REMARK       I    between atoms: C_5  and  N_7 
REMARK    5  A    between atoms: N_7  and  C_8 
REMARK    6  A    between atoms: C_14  and  N_15 
ROOT
HETATM    1  N   UNL     1     -40.914 -49.303  10.599  1.00  0.00    -0.340 N 
HETATM    2  C   UNL     1     -41.996 -48.455  10.677  1.00  0.00     0.320 C 
HETATM    3  O   UNL     1     -42.429 -48.067  11.755  1.00  0.00    -0.247 OA
HETATM    4  N   UNL     1     -42.484 -48.100   9.443  1.00  0.00    -0.306 N 
HETATM    5  H   UNL     1     -40.449 -49.442   9.712  1.00  0.00     0.164 HD
HETATM    6  H   UNL     1     -42.164 -48.595   8.625  1.00  0.00     0.171 HD
ENDROOT
BRANCH   1   7
HETATM    7  C   UNL     1     -40.203 -49.695  11.815  1.00  0.00     0.157 C 
BRANCH   7   8
HETATM    8  C   UNL     1     -40.145 -51.227  11.983  1.00  0.00     0.164 C 
BRANCH   8   9
HETATM    9  O   UNL     1     -41.122 -51.799  11.101  1.00  0.00    -0.392 OA
HETATM   10  H   UNL     1     -41.250 -51.145  10.393  1.00  0.00     0.210 HD
ENDBRANCH   8   9
BRANCH   8  11
HETATM   11  C   UNL     1     -40.412 -51.653  13.451  1.00  0.00     0.305 C 
BRANCH  11  12
HETATM   12  N   UNL     1     -39.808 -52.939  13.872  1.00  0.00     0.090 N 
HETATM   13  C   UNL     1     -40.570 -54.100  13.385  1.00  0.00     0.272 C 
HETATM   14  C   UNL     1     -41.871 -54.367  14.151  1.00  0.00     0.030 C 
HETATM   15  C   UNL     1     -41.647 -54.425  15.661  1.00  0.00     0.003 C 
HETATM   16  C   UNL     1     -40.825 -53.237  16.147  1.00  0.00     0.030 C 
HETATM   17  C   UNL     1     -39.555 -53.069  15.312  1.00  0.00     0.272 C 
ENDBRANCH  11  12
ENDBRANCH   8  11
ENDBRANCH   7   8
ENDBRANCH   1   7
BRANCH   4  18
HETATM   18  C   UNL     1     -43.499 -47.176   9.273  1.00  0.00     0.070 A 
HETATM   19  C   UNL     1     -43.486 -45.764   9.321  1.00  0.00     0.138 A 
HETATM   20  N   UNL     1     -44.691 -45.232   9.090  1.00  0.00    -0.310 N 
HETATM   21  N   UNL     1     -45.476 -46.303   8.902  1.00  0.00    -0.310 N 
ATOM     22  HN  UNL     1     -44.952 -44.246   9.063  1.00  0.00     0.186 HD
HETATM   23  C   UNL     1     -44.806 -47.492   8.992  1.00  0.00     0.138 A 
HETATM   24  H   UNL     1     -46.460 -46.143   8.714  1.00  0.00     0.186 HD
ENDBRANCH   4  18
TORSDOF 6
ENDMDL
MODEL 6
REMARK VINA RESULT:      -5.7      1.598      1.911
REMARK  6 active torsions:
REMARK  status: ('A' for Active; 'I' for Inactive)
REMARK    1  A    between atoms: O_1  and  C_2 
REMARK    2  A    between atoms: C_2  and  C_3 
REMARK    3  A    between atoms: C_2  and  C_14 
REMARK    4  A    between atoms: C_3  and  N_4 
REMARK       I    between atoms: N_4  and  C_5 
REMARK       I    between atoms: C_5  and  N_7 
REMARK    5  A    between atoms: N_7  and  C_8 
REMARK    6  A    between atoms: C_14  and  N_15 
ROOT
HETATM    1  N   UNL     1     -41.021 -50.443  13.315  1.00  0.00    -0.340 N 
HETATM    2  C   UNL     1     -40.761 -49.642  12.225  1.00  0.00     0.320 C 
HETATM    3  O   UNL     1     -40.243 -50.091  11.210  1.00  0.00    -0.247 OA
HETATM    4  N   UNL     1     -41.165 -48.343  12.413  1.00  0.00    -0.306 N 
HETATM    5  H   UNL     1     -41.628 -50.109  14.050  1.00  0.00     0.164 HD
HETATM    6  H   UNL     1     -41.432 -48.037  13.336  1.00  0.00     0.171 HD
ENDROOT
BRANCH   1   7
HETATM    7  C   UNL     1     -40.754 -51.879  13.247  1.00  0.00     0.157 C 
BRANCH   7   8
HETATM    8  C   UNL     1     -41.942 -52.661  12.649  1.00  0.00     0.164 C 
BRANCH   8   9
HETATM    9  O   UNL     1     -41.754 -52.717  11.227  1.00  0.00    -0.392 OA
HETATM   10  H   UNL     1     -40.880 -52.324  11.063  1.00  0.00     0.210 HD
ENDBRANCH   8   9
BRANCH   8  11
HETATM   11  C   UNL     1     -43.300 -51.998  12.999  1.00  0.00     0.305 C 
BRANCH  11  12
HETATM   12  N   UNL     1     -44.350 -52.906  13.513  1.00  0.00     0.090 N 
HETATM   13  C   UNL     1     -45.561 -52.891  12.677  1.00  0.00     0.272 C 
HETATM   14  C   UNL     1     -46.437 -51.645  12.856  1.00  0.00     0.030 C 
HETATM   15  C   UNL     1     -46.756 -51.375  14.325  1.00  0.00     0.003 C 
HETATM   16  C   UNL     1     -45.499 -51.430  15.187  1.00  0.00     0.030 C 
HETATM   17  C   UNL     1     -44.709 -52.712  14.923  1.00  0.00     0.272 C 
ENDBRANCH  11  12
ENDBRANCH   8  11
ENDBRANCH   7   8
ENDBRANCH   1   7
BRANCH   4  18
HETATM   18  C   UNL     1     -41.102 -47.384  11.417  1.00  0.00     0.070 A 
HETATM   19  C   UNL     1     -42.038 -47.013  10.426  1.00  0.00     0.138 A 
HETATM   20  N   UNL     1     -41.594 -46.019   9.648  1.00  0.00    -0.310 N 
HETATM   21  N   UNL     1     -40.373 -45.761  10.137  1.00  0.00    -0.310 N 
ATOM     22  HN  UNL     1     -42.072 -45.566   8.869  1.00  0.00     0.186 HD
HETATM   23  C   UNL     1     -40.034 -46.546  11.204  1.00  0.00     0.138 A 
HETATM   24  H   UNL     1     -39.827 -45.031   9.690  1.00  0.00     0.186 HD
ENDBRANCH   4  18
TORSDOF 6
ENDMDL
MODEL 7
REMARK VINA RESULT:      -5.7      2.976      4.207
REMARK  6 active torsions:
REMARK  status: ('A' for Active; 'I' for Inactive)
REMARK    1  A    between atoms: O_1  and  C_2 
REMARK    2  A    between atoms: C_2  and  C_3 
REMARK    3  A    between atoms: C_2  and  C_14 
REMARK    4  A    between atoms: C_3  and  N_4 
REMARK       I    between atoms: N_4  and  C_5 
REMARK       I    between atoms: C_5  and  N_7 
REMARK    5  A    between atoms: N_7  and  C_8 
REMARK    6  A    between atoms: C_14  and  N_15 
ROOT
HETATM    1  N   UNL     1     -41.334 -52.947  15.237  1.00  0.00    -0.340 N 
HETATM    2  C   UNL     1     -40.740 -52.659  14.028  1.00  0.00     0.320 C 
HETATM    3  O   UNL     1     -40.324 -53.544  13.292  1.00  0.00    -0.247 OA
HETATM    4  N   UNL     1     -40.704 -51.312  13.761  1.00  0.00    -0.306 N 
HETATM    5  H   UNL     1     -41.851 -52.229  15.725  1.00  0.00     0.164 HD
HETATM    6  H   UNL     1     -40.925 -50.657  14.495  1.00  0.00     0.171 HD
ENDROOT
BRANCH   1   7
HETATM    7  C   UNL     1     -41.553 -54.338  15.629  1.00  0.00     0.157 C 
BRANCH   7   8
HETATM    8  C   UNL     1     -43.045 -54.641  15.880  1.00  0.00     0.164 C 
BRANCH   8   9
HETATM    9  O   UNL     1     -43.380 -55.821  15.135  1.00  0.00    -0.392 OA
HETATM   10  H   UNL     1     -44.351 -55.836  15.090  1.00  0.00     0.210 HD
ENDBRANCH   8   9
BRANCH   8  11
HETATM   11  C   UNL     1     -43.950 -53.451  15.461  1.00  0.00     0.305 C 
BRANCH  11  12
HETATM   12  N   UNL     1     -44.835 -53.690  14.298  1.00  0.00     0.090 N 
HETATM   13  C   UNL     1     -44.615 -52.714  13.219  1.00  0.00     0.272 C 
HETATM   14  C   UNL     1     -45.211 -51.327  13.490  1.00  0.00     0.030 C 
HETATM   15  C   UNL     1     -46.680 -51.403  13.898  1.00  0.00     0.003 C 
HETATM   16  C   UNL     1     -46.901 -52.444  14.991  1.00  0.00     0.030 C 
HETATM   17  C   UNL     1     -46.266 -53.782  14.611  1.00  0.00     0.272 C 
ENDBRANCH  11  12
ENDBRANCH   8  11
ENDBRANCH   7   8
ENDBRANCH   1   7
BRANCH   4  18
HETATM   18  C   UNL     1     -40.250 -50.794  12.561  1.00  0.00     0.070 A 
HETATM   19  C   UNL     1     -38.952 -50.431  12.138  1.00  0.00     0.138 A 
HETATM   20  N   UNL     1     -38.931 -49.971  10.882  1.00  0.00    -0.310 N 
HETATM   21  N   UNL     1     -40.216 -50.033  10.505  1.00  0.00    -0.310 N 
ATOM     22  HN  UNL     1     -38.129 -49.650  10.341  1.00  0.00     0.186 HD
HETATM   23  C   UNL     1     -41.047 -50.529  11.472  1.00  0.00     0.138 A 
HETATM   24  H   UNL     1     -40.452 -49.721   9.568  1.00  0.00     0.186 HD
ENDBRANCH   4  18
TORSDOF 6
ENDMDL
MODEL 8
REMARK VINA RESULT:      -5.6      2.255      6.772
REMARK  6 active torsions:
REMARK  status: ('A' for Active; 'I' for Inactive)
REMARK    1  A    between atoms: O_1  and  C_2 
REMARK    2  A    between atoms: C_2  and  C_3 
REMARK    3  A    between atoms: C_2  and  C_14 
REMARK    4  A    between atoms: C_3  and  N_4 
REMARK       I    between atoms: N_4  and  C_5 
REMARK       I    between atoms: C_5  and  N_7 
REMARK    5  A    between atoms: N_7  and  C_8 
REMARK    6  A    between atoms: C_14  and  N_15 
ROOT
HETATM    1  N   UNL     1     -42.292 -51.769  11.859  1.00  0.00    -0.340 N 
HETATM    2  C   UNL     1     -43.143 -52.223  12.842  1.00  0.00     0.320 C 
HETATM    3  O   UNL     1     -42.987 -51.917  14.017  1.00  0.00    -0.247 OA
HETATM    4  N   UNL     1     -44.156 -53.007  12.346  1.00  0.00    -0.306 N 
HETATM    5  H   UNL     1     -42.554 -51.859  10.888  1.00  0.00     0.164 HD
HETATM    6  H   UNL     1     -44.108 -53.332  11.393  1.00  0.00     0.171 HD
ENDROOT
BRANCH   1   7
HETATM    7  C   UNL     1     -41.220 -50.833  12.197  1.00  0.00     0.157 C 
BRANCH   7   8
HETATM    8  C   UNL     1     -41.133 -49.666  11.192  1.00  0.00     0.164 C 
BRANCH   8   9
HETATM    9  O   UNL     1     -40.095 -49.979  10.252  1.00  0.00    -0.392 OA
HETATM   10  H   UNL     1     -39.842 -50.899  10.437  1.00  0.00     0.210 HD
ENDBRANCH   8   9
BRANCH   8  11
HETATM   11  C   UNL     1     -40.843 -48.317  11.903  1.00  0.00     0.305 C 
BRANCH  11  12
HETATM   12  N   UNL     1     -41.185 -47.096  11.138  1.00  0.00     0.090 N 
HETATM   13  C   UNL     1     -40.065 -46.145  11.074  1.00  0.00     0.272 C 
HETATM   14  C   UNL     1     -39.825 -45.363  12.372  1.00  0.00     0.030 C 
HETATM   15  C   UNL     1     -41.102 -44.705  12.890  1.00  0.00     0.003 C 
HETATM   16  C   UNL     1     -42.264 -45.691  12.916  1.00  0.00     0.030 C 
HETATM   17  C   UNL     1     -42.407 -46.409  11.574  1.00  0.00     0.272 C 
ENDBRANCH  11  12
ENDBRANCH   8  11
ENDBRANCH   7   8
ENDBRANCH   1   7
BRANCH   4  18
HETATM   18  C   UNL     1     -45.189 -53.488  13.131  1.00  0.00     0.070 A 
HETATM   19  C   UNL     1     -46.349 -52.853  13.630  1.00  0.00     0.138 A 
HETATM   20  N   UNL     1     -47.114 -53.678  14.353  1.00  0.00    -0.310 N 
HETATM   21  N   UNL     1     -46.442 -54.837  14.322  1.00  0.00    -0.310 N 
ATOM     22  HN  UNL     1     -48.000 -53.473  14.816  1.00  0.00     0.186 HD
HETATM   23  C   UNL     1     -45.285 -54.778  13.595  1.00  0.00     0.138 A 
HETATM   24  H   UNL     1     -46.835 -55.628  14.822  1.00  0.00     0.186 HD
ENDBRANCH   4  18
TORSDOF 6
ENDMDL
MODEL 9
REMARK VINA RESULT:      -5.6      1.841      6.018
REMARK  6 active torsions:
REMARK  status: ('A' for Active; 'I' for Inactive)
REMARK    1  A    between atoms: O_1  and  C_2 
REMARK    2  A    between atoms: C_2  and  C_3 
REMARK    3  A    between atoms: C_2  and  C_14 
REMARK    4  A    between atoms: C_3  and  N_4 
REMARK       I    between atoms: N_4  and  C_5 
REMARK       I    between atoms: C_5  and  N_7 
REMARK    5  A    between atoms: N_7  and  C_8 
REMARK    6  A    between atoms: C_14  and  N_15 
ROOT
HETATM    1  N   UNL     1     -41.289 -51.947  11.622  1.00  0.00    -0.340 N 
HETATM    2  C   UNL     1     -42.240 -52.422  12.498  1.00  0.00     0.320 C 
HETATM    3  O   UNL     1     -42.070 -52.385  13.710  1.00  0.00    -0.247 OA
HETATM    4  N   UNL     1     -43.361 -52.895  11.861  1.00  0.00    -0.306 N 
HETATM    5  H   UNL     1     -41.531 -51.796  10.653  1.00  0.00     0.164 HD
HETATM    6  H   UNL     1     -43.341 -53.030  10.862  1.00  0.00     0.171 HD
ENDROOT
BRANCH   1   7
HETATM    7  C   UNL     1     -40.078 -51.308  12.135  1.00  0.00     0.157 C 
BRANCH   7   8
HETATM    8  C   UNL     1     -40.281 -49.799  12.384  1.00  0.00     0.164 C 
BRANCH   8   9
HETATM    9  O   UNL     1     -40.670 -49.634  13.755  1.00  0.00    -0.392 OA
HETATM   10  H   UNL     1     -41.068 -50.481  14.019  1.00  0.00     0.210 HD
ENDBRANCH   8   9
BRANCH   8  11
HETATM   11  C   UNL     1     -41.349 -49.199  11.432  1.00  0.00     0.305 C 
BRANCH  11  12
HETATM   12  N   UNL     1     -42.112 -48.045  11.961  1.00  0.00     0.090 N 
HETATM   13  C   UNL     1     -43.435 -47.913  11.331  1.00  0.00     0.272 C 
HETATM   14  C   UNL     1     -43.403 -47.343   9.907  1.00  0.00     0.030 C 
HETATM   15  C   UNL     1     -42.601 -46.045   9.827  1.00  0.00     0.003 C 
HETATM   16  C   UNL     1     -41.248 -46.184  10.515  1.00  0.00     0.030 C 
HETATM   17  C   UNL     1     -41.404 -46.759  11.923  1.00  0.00     0.272 C 
ENDBRANCH  11  12
ENDBRANCH   8  11
ENDBRANCH   7   8
ENDBRANCH   1   7
BRANCH   4  18
HETATM   18  C   UNL     1     -44.489 -53.322  12.538  1.00  0.00     0.070 A 
HETATM   19  C   UNL     1     -44.745 -54.512  13.256  1.00  0.00     0.138 A 
HETATM   20  N   UNL     1     -45.975 -54.540  13.780  1.00  0.00    -0.310 N 
HETATM   21  N   UNL     1     -46.507 -53.373  13.393  1.00  0.00    -0.310 N 
ATOM     22  HN  UNL     1     -46.405 -55.275  14.342  1.00  0.00     0.186 HD
HETATM   23  C   UNL     1     -45.653 -52.601  12.653  1.00  0.00     0.138 A 
HETATM   24  H   UNL     1     -47.462 -53.169  13.673  1.00  0.00     0.186 HD
ENDBRANCH   4  18
TORSDOF 6
ENDMDL
