MODEL 1
REMARK VINA RESULT:      -6.6      0.000      0.000
REMARK  4 active torsions:
REMARK  status: ('A' for Active; 'I' for Inactive)
REMARK       I    between atoms: C_2  and  N_4 
REMARK    1  A    between atoms: N_7  and  C_8 
REMARK    2  A    between atoms: C_8  and  C_9 
REMARK    3  A    between atoms: C_9  and  N_10 
REMARK       I    between atoms: N_10  and  C_11 
REMARK       I    between atoms: C_11  and  N_13 
REMARK    4  A    between atoms: N_13  and  C_14 
ROOT
HETATM    1  N   UNL     1     -40.962 -49.361  10.447  1.00  0.00    -0.341 N 
HETATM    2  C   UNL     1     -42.017 -48.481  10.552  1.00  0.00     0.320 C 
HETATM    3  O   UNL     1     -42.480 -48.149  11.640  1.00  0.00    -0.247 OA
HETATM    4  N   UNL     1     -42.419 -48.006   9.326  1.00  0.00    -0.306 N 
HETATM    5  H   UNL     1     -40.839 -49.867   9.583  1.00  0.00     0.164 HD
HETATM    6  H   UNL     1     -41.799 -48.134   8.541  1.00  0.00     0.171 HD
ENDROOT
BRANCH   1   7
HETATM    7  C   UNL     1     -40.362 -49.906  11.655  1.00  0.00     0.154 C 
BRANCH   7   8
HETATM    8  C   UNL     1     -40.929 -51.304  11.976  1.00  0.00     0.292 C 
BRANCH   8   9
HETATM    9  N   UNL     1     -41.207 -51.533  13.407  1.00  0.00     0.093 N 
HETATM   10  C   UNL     1     -41.394 -52.964  13.734  1.00  0.00     0.292 C 
HETATM   11  C   UNL     1     -42.667 -53.600  13.147  1.00  0.00     0.156 C 
HETATM   12  N   UNL     1     -43.863 -52.835  13.511  1.00  0.00    -0.349 N 
HETATM   13  C   UNL     1     -45.118 -53.397  13.689  1.00  0.00     0.215 C 
HETATM   14  C   UNL     1     -43.764 -51.386  13.318  1.00  0.00     0.156 C 
HETATM   15  C   UNL     1     -45.207 -54.902  13.629  1.00  0.00     0.117 C 
HETATM   16  O   UNL     1     -46.127 -52.722  13.896  1.00  0.00    -0.274 OA
HETATM   17  C   UNL     1     -42.429 -50.804  13.833  1.00  0.00     0.292 C 
ENDBRANCH   8   9
ENDBRANCH   7   8
ENDBRANCH   1   7
BRANCH   4  18
HETATM   18  C   UNL     1     -43.455 -47.104   9.182  1.00  0.00     0.070 A 
HETATM   19  C   UNL     1     -44.828 -47.305   8.913  1.00  0.00     0.138 A 
HETATM   20  N   UNL     1     -45.514 -46.157   8.884  1.00  0.00    -0.310 N 
HETATM   21  N   UNL     1     -44.583 -45.230   9.151  1.00  0.00    -0.310 N 
ATOM     22  HN  UNL     1     -46.508 -46.020   8.701  1.00  0.00     0.186 HD
HETATM   23  C   UNL     1     -43.324 -45.741   9.293  1.00  0.00     0.138 A 
HETATM   24  H   UNL     1     -44.882 -44.263   9.226  1.00  0.00     0.186 HD
ENDBRANCH   4  18
TORSDOF 4
ENDMDL
MODEL 2
REMARK VINA RESULT:      -6.4      2.195      6.867
REMARK  4 active torsions:
REMARK  status: ('A' for Active; 'I' for Inactive)
REMARK       I    between atoms: C_2  and  N_4 
REMARK    1  A    between atoms: N_7  and  C_8 
REMARK    2  A    between atoms: C_8  and  C_9 
REMARK    3  A    between atoms: C_9  and  N_10 
REMARK       I    between atoms: N_10  and  C_11 
REMARK       I    between atoms: C_11  and  N_13 
REMARK    4  A    between atoms: N_13  and  C_14 
ROOT
HETATM    1  N   UNL     1     -41.786 -52.410  11.663  1.00  0.00    -0.341 N 
HETATM    2  C   UNL     1     -42.728 -52.704  12.625  1.00  0.00     0.320 C 
HETATM    3  O   UNL     1     -42.537 -52.463  13.815  1.00  0.00    -0.247 OA
HETATM    4  N   UNL     1     -43.878 -53.225  12.082  1.00  0.00    -0.306 N 
HETATM    5  H   UNL     1     -41.815 -52.916  10.790  1.00  0.00     0.164 HD
HETATM    6  H   UNL     1     -44.023 -53.123  11.089  1.00  0.00     0.171 HD
ENDROOT
BRANCH   1   7
HETATM    7  C   UNL     1     -40.534 -51.784  12.055  1.00  0.00     0.154 C 
BRANCH   7   8
HETATM    8  C   UNL     1     -40.461 -50.325  11.560  1.00  0.00     0.292 C 
BRANCH   8   9
HETATM    9  N   UNL     1     -41.052 -49.339  12.486  1.00  0.00     0.093 N 
HETATM   10  C   UNL     1     -42.440 -48.973  12.125  1.00  0.00     0.292 C 
HETATM   11  C   UNL     1     -42.578 -48.172  10.817  1.00  0.00     0.156 C 
HETATM   12  N   UNL     1     -41.723 -46.982  10.827  1.00  0.00    -0.349 N 
HETATM   13  C   UNL     1     -42.030 -45.802  10.165  1.00  0.00     0.215 C 
HETATM   14  C   UNL     1     -40.341 -47.204  11.259  1.00  0.00     0.156 C 
HETATM   15  C   UNL     1     -43.389 -45.718   9.515  1.00  0.00     0.117 C 
HETATM   16  O   UNL     1     -41.252 -44.850  10.104  1.00  0.00    -0.274 OA
HETATM   17  C   UNL     1     -40.245 -48.092  12.519  1.00  0.00     0.292 C 
ENDBRANCH   8   9
ENDBRANCH   7   8
ENDBRANCH   1   7
BRANCH   4  18
HETATM   18  C   UNL     1     -44.966 -53.588  12.853  1.00  0.00     0.070 A 
HETATM   19  C   UNL     1     -45.247 -54.781  13.554  1.00  0.00     0.138 A 
HETATM   20  N   UNL     1     -46.408 -54.721  14.216  1.00  0.00    -0.310 N 
HETATM   21  N   UNL     1     -46.855 -53.485  13.950  1.00  0.00    -0.310 N 
ATOM     22  HN  UNL     1     -46.849 -55.443  14.786  1.00  0.00     0.186 HD
HETATM   23  C   UNL     1     -46.049 -52.781  13.100  1.00  0.00     0.138 A 
HETATM   24  H   UNL     1     -47.721 -53.187  14.389  1.00  0.00     0.186 HD
ENDBRANCH   4  18
TORSDOF 4
ENDMDL
MODEL 3
REMARK VINA RESULT:      -6.1      2.312      3.296
REMARK  4 active torsions:
REMARK  status: ('A' for Active; 'I' for Inactive)
REMARK       I    between atoms: C_2  and  N_4 
REMARK    1  A    between atoms: N_7  and  C_8 
REMARK    2  A    between atoms: C_8  and  C_9 
REMARK    3  A    between atoms: C_9  and  N_10 
REMARK       I    between atoms: N_10  and  C_11 
REMARK       I    between atoms: C_11  and  N_13 
REMARK    4  A    between atoms: N_13  and  C_14 
ROOT
HETATM    1  N   UNL     1     -40.924 -49.282  10.601  1.00  0.00    -0.341 N 
HETATM    2  C   UNL     1     -42.030 -48.463  10.660  1.00  0.00     0.320 C 
HETATM    3  O   UNL     1     -42.560 -48.163  11.727  1.00  0.00    -0.247 OA
HETATM    4  N   UNL     1     -42.402 -48.005   9.418  1.00  0.00    -0.306 N 
HETATM    5  H   UNL     1     -40.734 -49.776   9.742  1.00  0.00     0.164 HD
HETATM    6  H   UNL     1     -41.740 -48.094   8.662  1.00  0.00     0.171 HD
ENDROOT
BRANCH   1   7
HETATM    7  C   UNL     1     -40.350 -49.799  11.834  1.00  0.00     0.154 C 
BRANCH   7   8
HETATM    8  C   UNL     1     -40.468 -51.336  11.901  1.00  0.00     0.292 C 
BRANCH   8   9
HETATM    9  N   UNL     1     -41.414 -51.829  12.920  1.00  0.00     0.093 N 
HETATM   10  C   UNL     1     -41.033 -51.437  14.295  1.00  0.00     0.292 C 
HETATM   11  C   UNL     1     -39.753 -52.107  14.826  1.00  0.00     0.156 C 
HETATM   12  N   UNL     1     -39.829 -53.567  14.715  1.00  0.00    -0.349 N 
HETATM   13  C   UNL     1     -39.204 -54.444  15.590  1.00  0.00     0.215 C 
HETATM   14  C   UNL     1     -40.287 -54.075  13.420  1.00  0.00     0.156 C 
HETATM   15  C   UNL     1     -38.523 -53.839  16.792  1.00  0.00     0.117 C 
HETATM   16  O   UNL     1     -39.198 -55.663  15.419  1.00  0.00    -0.274 OA
HETATM   17  C   UNL     1     -41.515 -53.310  12.879  1.00  0.00     0.292 C 
ENDBRANCH   8   9
ENDBRANCH   7   8
ENDBRANCH   1   7
BRANCH   4  18
HETATM   18  C   UNL     1     -43.480 -47.162   9.229  1.00  0.00     0.070 A 
HETATM   19  C   UNL     1     -44.840 -47.441   8.968  1.00  0.00     0.138 A 
HETATM   20  N   UNL     1     -45.580 -46.330   8.882  1.00  0.00    -0.310 N 
HETATM   21  N   UNL     1     -44.695 -45.348   9.107  1.00  0.00    -0.310 N 
ATOM     22  HN  UNL     1     -46.579 -46.249   8.691  1.00  0.00     0.186 HD
HETATM   23  C   UNL     1     -43.414 -45.791   9.275  1.00  0.00     0.138 A 
HETATM   24  H   UNL     1     -45.041 -44.393   9.135  1.00  0.00     0.186 HD
ENDBRANCH   4  18
TORSDOF 4
ENDMDL
MODEL 4
REMARK VINA RESULT:      -5.9      3.553      5.259
REMARK  4 active torsions:
REMARK  status: ('A' for Active; 'I' for Inactive)
REMARK       I    between atoms: C_2  and  N_4 
REMARK    1  A    between atoms: N_7  and  C_8 
REMARK    2  A    between atoms: C_8  and  C_9 
REMARK    3  A    between atoms: C_9  and  N_10 
REMARK       I    between atoms: N_10  and  C_11 
REMARK       I    between atoms: C_11  and  N_13 
REMARK    4  A    between atoms: N_13  and  C_14 
ROOT
HETATM    1  N   UNL     1     -40.933 -49.178  10.339  1.00  0.00    -0.341 N 
HETATM    2  C   UNL     1     -42.073 -48.413  10.465  1.00  0.00     0.320 C 
HETATM    3  O   UNL     1     -42.581 -48.179  11.558  1.00  0.00    -0.247 OA
HETATM    4  N   UNL     1     -42.505 -47.926   9.254  1.00  0.00    -0.306 N 
HETATM    5  H   UNL     1     -40.750 -49.629   9.456  1.00  0.00     0.164 HD
HETATM    6  H   UNL     1     -41.865 -47.955   8.475  1.00  0.00     0.171 HD
ENDROOT
BRANCH   1   7
HETATM    7  C   UNL     1     -40.297 -49.715  11.532  1.00  0.00     0.154 C 
BRANCH   7   8
HETATM    8  C   UNL     1     -39.264 -48.724  12.107  1.00  0.00     0.292 C 
BRANCH   8   9
HETATM    9  N   UNL     1     -39.654 -48.119  13.394  1.00  0.00     0.093 N 
HETATM   10  C   UNL     1     -38.605 -47.239  13.957  1.00  0.00     0.292 C 
HETATM   11  C   UNL     1     -37.331 -47.969  14.421  1.00  0.00     0.156 C 
HETATM   12  N   UNL     1     -37.646 -49.049  15.359  1.00  0.00    -0.349 N 
HETATM   13  C   UNL     1     -36.799 -49.462  16.378  1.00  0.00     0.215 C 
HETATM   14  C   UNL     1     -38.738 -49.937  14.952  1.00  0.00     0.156 C 
HETATM   15  C   UNL     1     -35.546 -48.651  16.595  1.00  0.00     0.117 C 
HETATM   16  O   UNL     1     -37.040 -50.437  17.090  1.00  0.00    -0.274 OA
HETATM   17  C   UNL     1     -39.959 -49.167  14.402  1.00  0.00     0.292 C 
ENDBRANCH   8   9
ENDBRANCH   7   8
ENDBRANCH   1   7
BRANCH   4  18
HETATM   18  C   UNL     1     -43.625 -47.126   9.132  1.00  0.00     0.070 A 
HETATM   19  C   UNL     1     -44.993 -47.460   9.012  1.00  0.00     0.138 A 
HETATM   20  N   UNL     1     -45.777 -46.378   8.950  1.00  0.00    -0.310 N 
HETATM   21  N   UNL     1     -44.911 -45.359   9.048  1.00  0.00    -0.310 N 
ATOM     22  HN  UNL     1     -46.791 -46.337   8.851  1.00  0.00     0.186 HD
HETATM   23  C   UNL     1     -43.604 -45.753   9.114  1.00  0.00     0.138 A 
HETATM   24  H   UNL     1     -45.286 -44.416   9.069  1.00  0.00     0.186 HD
ENDBRANCH   4  18
TORSDOF 4
ENDMDL
MODEL 5
REMARK VINA RESULT:      -5.9      2.808      7.072
REMARK  4 active torsions:
REMARK  status: ('A' for Active; 'I' for Inactive)
REMARK       I    between atoms: C_2  and  N_4 
REMARK    1  A    between atoms: N_7  and  C_8 
REMARK    2  A    between atoms: C_8  and  C_9 
REMARK    3  A    between atoms: C_9  and  N_10 
REMARK       I    between atoms: N_10  and  C_11 
REMARK       I    between atoms: C_11  and  N_13 
REMARK    4  A    between atoms: N_13  and  C_14 
ROOT
HETATM    1  N   UNL     1     -41.813 -52.104  11.579  1.00  0.00    -0.341 N 
HETATM    2  C   UNL     1     -42.728 -52.462  12.545  1.00  0.00     0.320 C 
HETATM    3  O   UNL     1     -42.551 -52.209  13.734  1.00  0.00    -0.247 OA
HETATM    4  N   UNL     1     -43.842 -53.061  12.005  1.00  0.00    -0.306 N 
HETATM    5  H   UNL     1     -41.809 -52.609  10.706  1.00  0.00     0.164 HD
HETATM    6  H   UNL     1     -43.997 -52.968  11.012  1.00  0.00     0.171 HD
ENDROOT
BRANCH   1   7
HETATM    7  C   UNL     1     -40.605 -51.393  11.968  1.00  0.00     0.154 C 
BRANCH   7   8
HETATM    8  C   UNL     1     -40.498 -50.036  11.241  1.00  0.00     0.292 C 
BRANCH   8   9
HETATM    9  N   UNL     1     -41.573 -49.082  11.575  1.00  0.00     0.093 N 
HETATM   10  C   UNL     1     -41.440 -47.794  10.858  1.00  0.00     0.292 C 
HETATM   11  C   UNL     1     -40.232 -46.939  11.284  1.00  0.00     0.156 C 
HETATM   12  N   UNL     1     -40.217 -46.720  12.732  1.00  0.00    -0.349 N 
HETATM   13  C   UNL     1     -39.701 -45.584  13.338  1.00  0.00     0.215 C 
HETATM   14  C   UNL     1     -40.433 -47.915  13.552  1.00  0.00     0.156 C 
HETATM   15  C   UNL     1     -39.255 -44.467  12.428  1.00  0.00     0.117 C 
HETATM   16  O   UNL     1     -39.607 -45.464  14.561  1.00  0.00    -0.274 OA
HETATM   17  C   UNL     1     -41.592 -48.793  13.032  1.00  0.00     0.292 C 
ENDBRANCH   8   9
ENDBRANCH   7   8
ENDBRANCH   1   7
BRANCH   4  18
HETATM   18  C   UNL     1     -44.900 -53.498  12.778  1.00  0.00     0.070 A 
HETATM   19  C   UNL     1     -45.096 -54.709  13.479  1.00  0.00     0.138 A 
HETATM   20  N   UNL     1     -46.256 -54.729  14.145  1.00  0.00    -0.310 N 
HETATM   21  N   UNL     1     -46.787 -53.526  13.883  1.00  0.00    -0.310 N 
ATOM     22  HN  UNL     1     -46.645 -55.480  14.715  1.00  0.00     0.186 HD
HETATM   23  C   UNL     1     -46.035 -52.767  13.032  1.00  0.00     0.138 A 
HETATM   24  H   UNL     1     -47.670 -53.288  14.325  1.00  0.00     0.186 HD
ENDBRANCH   4  18
TORSDOF 4
ENDMDL
MODEL 6
REMARK VINA RESULT:      -5.9      3.892      7.041
REMARK  4 active torsions:
REMARK  status: ('A' for Active; 'I' for Inactive)
REMARK       I    between atoms: C_2  and  N_4 
REMARK    1  A    between atoms: N_7  and  C_8 
REMARK    2  A    between atoms: C_8  and  C_9 
REMARK    3  A    between atoms: C_9  and  N_10 
REMARK       I    between atoms: N_10  and  C_11 
REMARK       I    between atoms: C_11  and  N_13 
REMARK    4  A    between atoms: N_13  and  C_14 
ROOT
HETATM    1  N   UNL     1     -41.967 -52.417  11.583  1.00  0.00    -0.341 N 
HETATM    2  C   UNL     1     -42.823 -52.811  12.589  1.00  0.00     0.320 C 
HETATM    3  O   UNL     1     -42.487 -52.800  13.770  1.00  0.00    -0.247 OA
HETATM    4  N   UNL     1     -44.067 -53.147  12.108  1.00  0.00    -0.306 N 
HETATM    5  H   UNL     1     -42.133 -52.756  10.648  1.00  0.00     0.164 HD
HETATM    6  H   UNL     1     -44.307 -52.859  11.171  1.00  0.00     0.171 HD
ENDROOT
BRANCH   1   7
HETATM    7  C   UNL     1     -40.629 -51.959  11.922  1.00  0.00     0.154 C 
BRANCH   7   8
HETATM    8  C   UNL     1     -40.569 -50.419  11.996  1.00  0.00     0.292 C 
BRANCH   8   9
HETATM    9  N   UNL     1     -39.276 -49.841  11.585  1.00  0.00     0.093 N 
HETATM   10  C   UNL     1     -38.116 -50.585  12.127  1.00  0.00     0.292 C 
HETATM   11  C   UNL     1     -37.940 -50.484  13.653  1.00  0.00     0.156 C 
HETATM   12  N   UNL     1     -37.901 -49.087  14.095  1.00  0.00    -0.349 N 
HETATM   13  C   UNL     1     -37.184 -48.642  15.196  1.00  0.00     0.215 C 
HETATM   14  C   UNL     1     -38.951 -48.225  13.547  1.00  0.00     0.156 C 
HETATM   15  C   UNL     1     -36.296 -49.649  15.885  1.00  0.00     0.117 C 
HETATM   16  O   UNL     1     -37.245 -47.483  15.608  1.00  0.00    -0.274 OA
HETATM   17  C   UNL     1     -39.160 -48.429  12.030  1.00  0.00     0.292 C 
ENDBRANCH   8   9
ENDBRANCH   7   8
ENDBRANCH   1   7
BRANCH   4  18
HETATM   18  C   UNL     1     -45.095 -53.564  12.931  1.00  0.00     0.070 A 
HETATM   19  C   UNL     1     -45.330 -54.806  13.562  1.00  0.00     0.138 A 
HETATM   20  N   UNL     1     -46.436 -54.793  14.314  1.00  0.00    -0.310 N 
HETATM   21  N   UNL     1     -46.893 -53.540  14.176  1.00  0.00    -0.310 N 
ATOM     22  HN  UNL     1     -46.836 -55.555  14.862  1.00  0.00     0.186 HD
HETATM   23  C   UNL     1     -46.150 -52.776  13.322  1.00  0.00     0.138 A 
HETATM   24  H   UNL     1     -47.720 -53.275  14.702  1.00  0.00     0.186 HD
ENDBRANCH   4  18
TORSDOF 4
ENDMDL
MODEL 7
REMARK VINA RESULT:      -5.9      3.516      5.238
REMARK  4 active torsions:
REMARK  status: ('A' for Active; 'I' for Inactive)
REMARK       I    between atoms: C_2  and  N_4 
REMARK    1  A    between atoms: N_7  and  C_8 
REMARK    2  A    between atoms: C_8  and  C_9 
REMARK    3  A    between atoms: C_9  and  N_10 
REMARK       I    between atoms: N_10  and  C_11 
REMARK       I    between atoms: C_11  and  N_13 
REMARK    4  A    between atoms: N_13  and  C_14 
ROOT
HETATM    1  N   UNL     1     -40.879 -49.206  10.388  1.00  0.00    -0.341 N 
HETATM    2  C   UNL     1     -42.020 -48.441  10.501  1.00  0.00     0.320 C 
HETATM    3  O   UNL     1     -42.552 -48.224  11.586  1.00  0.00    -0.247 OA
HETATM    4  N   UNL     1     -42.424 -47.934   9.288  1.00  0.00    -0.306 N 
HETATM    5  H   UNL     1     -40.677 -49.644   9.502  1.00  0.00     0.164 HD
HETATM    6  H   UNL     1     -41.767 -47.952   8.523  1.00  0.00     0.171 HD
ENDROOT
BRANCH   1   7
HETATM    7  C   UNL     1     -40.271 -49.764  11.586  1.00  0.00     0.154 C 
BRANCH   7   8
HETATM    8  C   UNL     1     -39.187 -48.823  12.150  1.00  0.00     0.292 C 
BRANCH   8   9
HETATM    9  N   UNL     1     -38.917 -49.002  13.590  1.00  0.00     0.093 N 
HETATM   10  C   UNL     1     -40.137 -48.894  14.421  1.00  0.00     0.292 C 
HETATM   11  C   UNL     1     -40.759 -47.487  14.475  1.00  0.00     0.156 C 
HETATM   12  N   UNL     1     -39.774 -46.483  14.885  1.00  0.00    -0.349 N 
HETATM   13  C   UNL     1     -40.089 -45.334  15.596  1.00  0.00     0.215 C 
HETATM   14  C   UNL     1     -38.484 -46.549  14.194  1.00  0.00     0.156 C 
HETATM   15  C   UNL     1     -41.512 -45.196  16.076  1.00  0.00     0.117 C 
HETATM   16  O   UNL     1     -39.262 -44.455  15.842  1.00  0.00    -0.274 OA
HETATM   17  C   UNL     1     -37.943 -47.991  14.076  1.00  0.00     0.292 C 
ENDBRANCH   8   9
ENDBRANCH   7   8
ENDBRANCH   1   7
BRANCH   4  18
HETATM   18  C   UNL     1     -43.539 -47.130   9.154  1.00  0.00     0.070 A 
HETATM   19  C   UNL     1     -44.899 -47.458   8.954  1.00  0.00     0.138 A 
HETATM   20  N   UNL     1     -45.683 -46.375   8.909  1.00  0.00    -0.310 N 
HETATM   21  N   UNL     1     -44.825 -45.361   9.098  1.00  0.00    -0.310 N 
ATOM     22  HN  UNL     1     -46.691 -46.330   8.765  1.00  0.00     0.186 HD
HETATM   23  C   UNL     1     -43.522 -45.757   9.204  1.00  0.00     0.138 A 
HETATM   24  H   UNL     1     -45.203 -44.420   9.147  1.00  0.00     0.186 HD
ENDBRANCH   4  18
TORSDOF 4
ENDMDL
MODEL 8
REMARK VINA RESULT:      -5.8      2.568      3.367
REMARK  4 active torsions:
REMARK  status: ('A' for Active; 'I' for Inactive)
REMARK       I    between atoms: C_2  and  N_4 
REMARK    1  A    between atoms: N_7  and  C_8 
REMARK    2  A    between atoms: C_8  and  C_9 
REMARK    3  A    between atoms: C_9  and  N_10 
REMARK       I    between atoms: N_10  and  C_11 
REMARK       I    between atoms: C_11  and  N_13 
REMARK    4  A    between atoms: N_13  and  C_14 
ROOT
HETATM    1  N   UNL     1     -40.373 -46.904  11.101  1.00  0.00    -0.341 N 
HETATM    2  C   UNL     1     -41.742 -46.828  10.960  1.00  0.00     0.320 C 
HETATM    3  O   UNL     1     -42.497 -46.849  11.928  1.00  0.00    -0.247 OA
HETATM    4  N   UNL     1     -42.119 -46.675   9.646  1.00  0.00    -0.306 N 
HETATM    5  H   UNL     1     -39.824 -47.229  10.319  1.00  0.00     0.164 HD
HETATM    6  H   UNL     1     -41.414 -46.400   8.979  1.00  0.00     0.171 HD
ENDROOT
BRANCH   1   7
HETATM    7  C   UNL     1     -39.796 -46.996  12.432  1.00  0.00     0.154 C 
BRANCH   7   8
HETATM    8  C   UNL     1     -39.757 -48.457  12.924  1.00  0.00     0.292 C 
BRANCH   8   9
HETATM    9  N   UNL     1     -39.689 -49.460  11.844  1.00  0.00     0.093 N 
HETATM   10  C   UNL     1     -40.888 -50.326  11.787  1.00  0.00     0.292 C 
HETATM   11  C   UNL     1     -41.050 -51.284  12.981  1.00  0.00     0.156 C 
HETATM   12  N   UNL     1     -39.846 -52.094  13.183  1.00  0.00    -0.349 N 
HETATM   13  C   UNL     1     -39.856 -53.382  13.699  1.00  0.00     0.215 C 
HETATM   14  C   UNL     1     -38.581 -51.356  13.165  1.00  0.00     0.156 C 
HETATM   15  C   UNL     1     -41.206 -54.011  13.937  1.00  0.00     0.117 C 
HETATM   16  O   UNL     1     -38.826 -54.006  13.954  1.00  0.00    -0.274 OA
HETATM   17  C   UNL     1     -38.501 -50.337  12.007  1.00  0.00     0.292 C 
ENDBRANCH   8   9
ENDBRANCH   7   8
ENDBRANCH   1   7
BRANCH   4  18
HETATM   18  C   UNL     1     -43.441 -46.568   9.260  1.00  0.00     0.070 A 
HETATM   19  C   UNL     1     -44.394 -47.559   8.937  1.00  0.00     0.138 A 
HETATM   20  N   UNL     1     -45.590 -47.037   8.641  1.00  0.00    -0.310 N 
HETATM   21  N   UNL     1     -45.402 -45.719   8.794  1.00  0.00    -0.310 N 
ATOM     22  HN  UNL     1     -46.442 -47.526   8.365  1.00  0.00     0.186 HD
HETATM   23  C   UNL     1     -44.118 -45.381   9.120  1.00  0.00     0.138 A 
HETATM   24  H   UNL     1     -46.200 -45.105   8.663  1.00  0.00     0.186 HD
ENDBRANCH   4  18
TORSDOF 4
ENDMDL
MODEL 9
REMARK VINA RESULT:      -5.8      2.921      6.591
REMARK  4 active torsions:
REMARK  status: ('A' for Active; 'I' for Inactive)
REMARK       I    between atoms: C_2  and  N_4 
REMARK    1  A    between atoms: N_7  and  C_8 
REMARK    2  A    between atoms: C_8  and  C_9 
REMARK    3  A    between atoms: C_9  and  N_10 
REMARK       I    between atoms: N_10  and  C_11 
REMARK       I    between atoms: C_11  and  N_13 
REMARK    4  A    between atoms: N_13  and  C_14 
ROOT
HETATM    1  N   UNL     1     -41.792 -52.257  11.553  1.00  0.00    -0.341 N 
HETATM    2  C   UNL     1     -42.729 -52.538  12.524  1.00  0.00     0.320 C 
HETATM    3  O   UNL     1     -42.566 -52.215  13.697  1.00  0.00    -0.247 OA
HETATM    4  N   UNL     1     -43.844 -53.151  12.004  1.00  0.00    -0.306 N 
HETATM    5  H   UNL     1     -41.783 -52.816  10.714  1.00  0.00     0.164 HD
HETATM    6  H   UNL     1     -43.982 -53.117  11.005  1.00  0.00     0.171 HD
ENDROOT
BRANCH   1   7
HETATM    7  C   UNL     1     -40.577 -51.544  11.917  1.00  0.00     0.154 C 
BRANCH   7   8
HETATM    8  C   UNL     1     -40.646 -50.067  11.478  1.00  0.00     0.292 C 
BRANCH   8   9
HETATM    9  N   UNL     1     -39.906 -49.138  12.353  1.00  0.00     0.093 N 
HETATM   10  C   UNL     1     -40.574 -48.923  13.657  1.00  0.00     0.292 C 
HETATM   11  C   UNL     1     -41.907 -48.157  13.581  1.00  0.00     0.156 C 
HETATM   12  N   UNL     1     -41.752 -46.883  12.872  1.00  0.00    -0.349 N 
HETATM   13  C   UNL     1     -42.505 -45.750  13.141  1.00  0.00     0.215 C 
HETATM   14  C   UNL     1     -41.021 -46.954  11.605  1.00  0.00     0.156 C 
HETATM   15  C   UNL     1     -43.439 -45.816  14.324  1.00  0.00     0.117 C 
HETATM   16  O   UNL     1     -42.427 -44.722  12.467  1.00  0.00    -0.274 OA
HETATM   17  C   UNL     1     -39.740 -47.813  11.702  1.00  0.00     0.292 C 
ENDBRANCH   8   9
ENDBRANCH   7   8
ENDBRANCH   1   7
BRANCH   4  18
HETATM   18  C   UNL     1     -44.922 -53.520  12.785  1.00  0.00     0.070 A 
HETATM   19  C   UNL     1     -45.170 -54.699  13.522  1.00  0.00     0.138 A 
HETATM   20  N   UNL     1     -46.333 -54.652  14.182  1.00  0.00    -0.310 N 
HETATM   21  N   UNL     1     -46.814 -53.437  13.880  1.00  0.00    -0.310 N 
ATOM     22  HN  UNL     1     -46.753 -55.368  14.774  1.00  0.00     0.186 HD
HETATM   23  C   UNL     1     -46.028 -52.736  13.009  1.00  0.00     0.138 A 
HETATM   24  H   UNL     1     -47.688 -53.150  14.310  1.00  0.00     0.186 HD
ENDBRANCH   4  18
TORSDOF 4
ENDMDL
