MODEL 1
REMARK VINA RESULT:      -6.4      0.000      0.000
REMARK  6 active torsions:
REMARK  status: ('A' for Active; 'I' for Inactive)
REMARK    1  A    between atoms: O_2  and  C_3 
REMARK    2  A    between atoms: C_3  and  C_4 
REMARK    3  A    between atoms: C_4  and  N_5 
REMARK    4  A    between atoms: C_8  and  C_13 
REMARK       I    between atoms: C_13  and  N_15 
REMARK    5  A    between atoms: N_15  and  C_16 
REMARK    6  A    between atoms: N_19  and  C_22 
ROOT
HETATM    1  C   UNL     1     -42.389 -49.075  12.389  1.00  0.00     0.269 C 
HETATM    2  O   UNL     1     -41.348 -49.002  13.029  1.00  0.00    -0.266 OA
HETATM    3  N   UNL     1     -43.246 -50.150  12.393  1.00  0.00    -0.351 N 
HETATM    4  H   UNL     1     -44.138 -50.014  11.924  1.00  0.00     0.163 HD
ENDROOT
BRANCH   1   5
HETATM    5  C   UNL     1     -42.815 -47.909  11.486  1.00  0.00     0.116 C 
HETATM    6  N   UNL     1     -43.659 -48.129  10.519  1.00  0.00    -0.290 N 
HETATM    7  N   UNL     1     -43.980 -47.045   9.713  1.00  0.00    -0.255 N 
ATOM      8  HN  UNL     1     -44.063 -49.052  10.362  1.00  0.00     0.187 HD
HETATM    9  C   UNL     1     -43.372 -45.796   9.807  1.00  0.00     0.262 C 
HETATM   10  C   UNL     1     -42.472 -45.600  10.962  1.00  0.00     0.078 C 
HETATM   11  O   UNL     1     -43.552 -44.864   9.030  1.00  0.00    -0.267 OA
HETATM   12  C   UNL     1     -42.202 -46.603  11.793  1.00  0.00     0.042 C 
BRANCH   7  13
HETATM   13  C   UNL     1     -44.991 -47.261   8.684  1.00  0.00     0.178 C 
BRANCH  13  14
HETATM   14  C   UNL     1     -46.407 -46.922   9.141  1.00  0.00     0.189 C 
BRANCH  14  15
HETATM   15  O   UNL     1     -47.309 -47.890   8.597  1.00  0.00    -0.394 OA
HETATM   16  C   UNL     1     -46.619 -48.997   8.032  1.00  0.00     0.201 C 
ENDBRANCH  14  15
ENDBRANCH  13  14
ENDBRANCH   7  13
ENDBRANCH   1   5
BRANCH   3  17
HETATM   17  C   UNL     1     -43.020 -51.310  13.249  1.00  0.00     0.088 C 
HETATM   18  C   UNL     1     -43.326 -52.617  12.510  1.00  0.00     0.055 C 
HETATM   19  C   UNL     1     -44.832 -52.878  12.405  1.00  0.00     0.275 C 
HETATM   20  N   UNL     1     -45.533 -52.838  13.700  1.00  0.00     0.092 N 
HETATM   21  C   UNL     1     -45.301 -51.520  14.319  1.00  0.00     0.275 C 
HETATM   22  C   UNL     1     -43.821 -51.213  14.552  1.00  0.00     0.055 C 
BRANCH  20  23
HETATM   23  C   UNL     1     -45.237 -53.989  14.591  1.00  0.00     0.215 C 
HETATM   24  C   UNL     1     -46.088 -53.967  15.873  1.00  0.00     0.042 C 
HETATM   25  C   UNL     1     -45.498 -55.338  13.897  1.00  0.00     0.042 C 
ENDBRANCH  20  23
ENDBRANCH   3  17
TORSDOF 6
ENDMDL
MODEL 2
REMARK VINA RESULT:      -6.3      1.529      1.816
REMARK  6 active torsions:
REMARK  status: ('A' for Active; 'I' for Inactive)
REMARK    1  A    between atoms: O_2  and  C_3 
REMARK    2  A    between atoms: C_3  and  C_4 
REMARK    3  A    between atoms: C_4  and  N_5 
REMARK    4  A    between atoms: C_8  and  C_13 
REMARK       I    between atoms: C_13  and  N_15 
REMARK    5  A    between atoms: N_15  and  C_16 
REMARK    6  A    between atoms: N_19  and  C_22 
ROOT
HETATM    1  C   UNL     1     -41.189 -50.347  11.871  1.00  0.00     0.269 C 
HETATM    2  O   UNL     1     -40.094 -50.886  11.970  1.00  0.00    -0.266 OA
HETATM    3  N   UNL     1     -42.393 -50.941  12.166  1.00  0.00    -0.351 N 
HETATM    4  H   UNL     1     -43.206 -50.330  12.170  1.00  0.00     0.163 HD
ENDROOT
BRANCH   1   5
HETATM    5  C   UNL     1     -41.286 -48.897  11.375  1.00  0.00     0.116 C 
HETATM    6  N   UNL     1     -42.280 -48.552  10.610  1.00  0.00    -0.290 N 
HETATM    7  N   UNL     1     -42.296 -47.237  10.162  1.00  0.00    -0.255 N 
ATOM      8  HN  UNL     1     -43.012 -49.215  10.351  1.00  0.00     0.187 HD
HETATM    9  C   UNL     1     -41.268 -46.326  10.385  1.00  0.00     0.262 C 
HETATM   10  C   UNL     1     -40.203 -46.764  11.309  1.00  0.00     0.078 C 
HETATM   11  O   UNL     1     -41.205 -45.201   9.897  1.00  0.00    -0.267 OA
HETATM   12  C   UNL     1     -40.201 -47.997  11.811  1.00  0.00     0.042 C 
BRANCH   7  13
HETATM   13  C   UNL     1     -43.453 -46.819   9.378  1.00  0.00     0.178 C 
BRANCH  13  14
HETATM   14  C   UNL     1     -43.669 -47.654   8.119  1.00  0.00     0.189 C 
BRANCH  14  15
HETATM   15  O   UNL     1     -45.025 -48.108   8.098  1.00  0.00    -0.394 OA
HETATM   16  C   UNL     1     -45.756 -47.646   9.226  1.00  0.00     0.201 C 
ENDBRANCH  14  15
ENDBRANCH  13  14
ENDBRANCH   7  13
ENDBRANCH   1   5
BRANCH   3  17
HETATM   17  C   UNL     1     -42.470 -52.292  12.713  1.00  0.00     0.088 C 
HETATM   18  C   UNL     1     -43.720 -53.025  12.216  1.00  0.00     0.055 C 
HETATM   19  C   UNL     1     -44.985 -52.562  12.947  1.00  0.00     0.275 C 
HETATM   20  N   UNL     1     -44.886 -52.643  14.415  1.00  0.00     0.092 N 
HETATM   21  C   UNL     1     -43.736 -51.830  14.852  1.00  0.00     0.275 C 
HETATM   22  C   UNL     1     -42.408 -52.284  14.245  1.00  0.00     0.055 C 
BRANCH  20  23
HETATM   23  C   UNL     1     -44.892 -54.027  14.952  1.00  0.00     0.215 C 
HETATM   24  C   UNL     1     -45.372 -54.083  16.413  1.00  0.00     0.042 C 
HETATM   25  C   UNL     1     -45.810 -54.958  14.139  1.00  0.00     0.042 C 
ENDBRANCH  20  23
ENDBRANCH   3  17
TORSDOF 6
ENDMDL
MODEL 3
REMARK VINA RESULT:      -6.1      3.402      7.386
REMARK  6 active torsions:
REMARK  status: ('A' for Active; 'I' for Inactive)
REMARK    1  A    between atoms: O_2  and  C_3 
REMARK    2  A    between atoms: C_3  and  C_4 
REMARK    3  A    between atoms: C_4  and  N_5 
REMARK    4  A    between atoms: C_8  and  C_13 
REMARK       I    between atoms: C_13  and  N_15 
REMARK    5  A    between atoms: N_15  and  C_16 
REMARK    6  A    between atoms: N_19  and  C_22 
ROOT
HETATM    1  C   UNL     1     -41.282 -51.640  12.145  1.00  0.00     0.269 C 
HETATM    2  O   UNL     1     -40.116 -52.003  12.066  1.00  0.00    -0.266 OA
HETATM    3  N   UNL     1     -41.750 -50.398  11.785  1.00  0.00    -0.351 N 
HETATM    4  H   UNL     1     -42.761 -50.286  11.773  1.00  0.00     0.163 HD
ENDROOT
BRANCH   1   5
HETATM    5  C   UNL     1     -42.348 -52.601  12.691  1.00  0.00     0.116 C 
HETATM    6  N   UNL     1     -43.605 -52.344  12.477  1.00  0.00    -0.290 N 
HETATM    7  N   UNL     1     -44.525 -53.229  13.024  1.00  0.00    -0.255 N 
ATOM      8  HN  UNL     1     -43.901 -51.532  11.934  1.00  0.00     0.187 HD
HETATM    9  C   UNL     1     -44.186 -54.282  13.869  1.00  0.00     0.262 C 
HETATM   10  C   UNL     1     -42.742 -54.553  14.018  1.00  0.00     0.078 C 
HETATM   11  O   UNL     1     -44.988 -54.998  14.460  1.00  0.00    -0.267 OA
HETATM   12  C   UNL     1     -41.838 -53.762  13.445  1.00  0.00     0.042 C 
BRANCH   7  13
HETATM   13  C   UNL     1     -45.932 -52.997  12.715  1.00  0.00     0.178 C 
BRANCH  13  14
HETATM   14  C   UNL     1     -46.374 -51.554  12.938  1.00  0.00     0.189 C 
BRANCH  14  15
HETATM   15  O   UNL     1     -45.967 -51.148  14.248  1.00  0.00    -0.394 OA
HETATM   16  C   UNL     1     -46.917 -51.521  15.237  1.00  0.00     0.201 C 
ENDBRANCH  14  15
ENDBRANCH  13  14
ENDBRANCH   7  13
ENDBRANCH   1   5
BRANCH   3  17
HETATM   17  C   UNL     1     -40.879 -49.392  11.185  1.00  0.00     0.088 C 
HETATM   18  C   UNL     1     -39.920 -48.796  12.221  1.00  0.00     0.055 C 
HETATM   19  C   UNL     1     -40.617 -47.778  13.129  1.00  0.00     0.275 C 
HETATM   20  N   UNL     1     -41.318 -46.709  12.395  1.00  0.00     0.092 N 
HETATM   21  C   UNL     1     -42.308 -47.330  11.495  1.00  0.00     0.275 C 
HETATM   22  C   UNL     1     -41.686 -48.294  10.484  1.00  0.00     0.055 C 
BRANCH  20  23
HETATM   23  C   UNL     1     -40.417 -45.735  11.729  1.00  0.00     0.215 C 
HETATM   24  C   UNL     1     -41.195 -44.604  11.033  1.00  0.00     0.042 C 
HETATM   25  C   UNL     1     -39.447 -45.070  12.724  1.00  0.00     0.042 C 
ENDBRANCH  20  23
ENDBRANCH   3  17
TORSDOF 6
ENDMDL
MODEL 4
REMARK VINA RESULT:      -5.6      1.740      3.299
REMARK  6 active torsions:
REMARK  status: ('A' for Active; 'I' for Inactive)
REMARK    1  A    between atoms: O_2  and  C_3 
REMARK    2  A    between atoms: C_3  and  C_4 
REMARK    3  A    between atoms: C_4  and  N_5 
REMARK    4  A    between atoms: C_8  and  C_13 
REMARK       I    between atoms: C_13  and  N_15 
REMARK    5  A    between atoms: N_15  and  C_16 
REMARK    6  A    between atoms: N_19  and  C_22 
ROOT
HETATM    1  C   UNL     1     -42.890 -48.548  12.993  1.00  0.00     0.269 C 
HETATM    2  O   UNL     1     -42.358 -48.217  14.045  1.00  0.00    -0.266 OA
HETATM    3  N   UNL     1     -43.417 -49.790  12.729  1.00  0.00    -0.351 N 
HETATM    4  H   UNL     1     -43.950 -49.877  11.867  1.00  0.00     0.163 HD
ENDROOT
BRANCH   1   5
HETATM    5  C   UNL     1     -42.996 -47.540  11.840  1.00  0.00     0.116 C 
HETATM    6  N   UNL     1     -42.435 -46.372  11.963  1.00  0.00    -0.290 N 
HETATM    7  N   UNL     1     -42.594 -45.489  10.903  1.00  0.00    -0.255 N 
ATOM      8  HN  UNL     1     -41.904 -46.119  12.797  1.00  0.00     0.187 HD
HETATM    9  C   UNL     1     -43.402 -45.735   9.797  1.00  0.00     0.262 C 
HETATM   10  C   UNL     1     -43.958 -47.100   9.693  1.00  0.00     0.078 C 
HETATM   11  O   UNL     1     -43.653 -44.923   8.912  1.00  0.00    -0.267 OA
HETATM   12  C   UNL     1     -43.761 -47.991  10.662  1.00  0.00     0.042 C 
BRANCH   7  13
HETATM   13  C   UNL     1     -41.893 -44.212  10.995  1.00  0.00     0.178 C 
BRANCH  13  14
HETATM   14  C   UNL     1     -40.506 -44.323  11.622  1.00  0.00     0.189 C 
BRANCH  14  15
HETATM   15  O   UNL     1     -39.751 -45.294  10.893  1.00  0.00    -0.394 OA
HETATM   16  C   UNL     1     -39.221 -44.758   9.688  1.00  0.00     0.201 C 
ENDBRANCH  14  15
ENDBRANCH  13  14
ENDBRANCH   7  13
ENDBRANCH   1   5
BRANCH   3  17
HETATM   17  C   UNL     1     -43.457 -50.839  13.742  1.00  0.00     0.088 C 
HETATM   18  C   UNL     1     -43.136 -52.210  13.139  1.00  0.00     0.055 C 
HETATM   19  C   UNL     1     -44.324 -52.790  12.366  1.00  0.00     0.275 C 
HETATM   20  N   UNL     1     -45.571 -52.848  13.149  1.00  0.00     0.092 N 
HETATM   21  C   UNL     1     -45.898 -51.487  13.612  1.00  0.00     0.275 C 
HETATM   22  C   UNL     1     -44.803 -50.862  14.477  1.00  0.00     0.055 C 
BRANCH  20  23
HETATM   23  C   UNL     1     -45.568 -53.872  14.224  1.00  0.00     0.215 C 
HETATM   24  C   UNL     1     -46.878 -53.871  15.032  1.00  0.00     0.042 C 
HETATM   25  C   UNL     1     -45.382 -55.296  13.667  1.00  0.00     0.042 C 
ENDBRANCH  20  23
ENDBRANCH   3  17
TORSDOF 6
ENDMDL
MODEL 5
REMARK VINA RESULT:      -5.6      2.513      4.045
REMARK  6 active torsions:
REMARK  status: ('A' for Active; 'I' for Inactive)
REMARK    1  A    between atoms: O_2  and  C_3 
REMARK    2  A    between atoms: C_3  and  C_4 
REMARK    3  A    between atoms: C_4  and  N_5 
REMARK    4  A    between atoms: C_8  and  C_13 
REMARK       I    between atoms: C_13  and  N_15 
REMARK    5  A    between atoms: N_15  and  C_16 
REMARK    6  A    between atoms: N_19  and  C_22 
ROOT
HETATM    1  C   UNL     1     -40.763 -49.602  11.375  1.00  0.00     0.269 C 
HETATM    2  O   UNL     1     -39.561 -49.838  11.362  1.00  0.00    -0.266 OA
HETATM    3  N   UNL     1     -41.738 -50.486  11.770  1.00  0.00    -0.351 N 
HETATM    4  H   UNL     1     -42.677 -50.107  11.861  1.00  0.00     0.163 HD
ENDROOT
BRANCH   1   5
HETATM    5  C   UNL     1     -41.277 -48.230  10.917  1.00  0.00     0.116 C 
HETATM    6  N   UNL     1     -40.450 -47.227  10.860  1.00  0.00    -0.290 N 
HETATM    7  N   UNL     1     -40.979 -46.003  10.473  1.00  0.00    -0.255 N 
ATOM      8  HN  UNL     1     -39.461 -47.336  11.089  1.00  0.00     0.187 HD
HETATM    9  C   UNL     1     -42.335 -45.770  10.265  1.00  0.00     0.262 C 
HETATM   10  C   UNL     1     -43.207 -46.963  10.286  1.00  0.00     0.078 C 
HETATM   11  O   UNL     1     -42.837 -44.673  10.043  1.00  0.00    -0.267 OA
HETATM   12  C   UNL     1     -42.713 -48.162  10.584  1.00  0.00     0.042 C 
BRANCH   7  13
HETATM   13  C   UNL     1     -40.042 -44.895  10.321  1.00  0.00     0.178 C 
BRANCH  13  14
HETATM   14  C   UNL     1     -39.704 -44.199  11.636  1.00  0.00     0.189 C 
BRANCH  14  15
HETATM   15  O   UNL     1     -40.030 -45.078  12.716  1.00  0.00    -0.394 OA
HETATM   16  C   UNL     1     -38.954 -45.208  13.636  1.00  0.00     0.201 C 
ENDBRANCH  14  15
ENDBRANCH  13  14
ENDBRANCH   7  13
ENDBRANCH   1   5
BRANCH   3  17
HETATM   17  C   UNL     1     -41.411 -51.807  12.297  1.00  0.00     0.088 C 
HETATM   18  C   UNL     1     -42.582 -52.780  12.130  1.00  0.00     0.055 C 
HETATM   19  C   UNL     1     -43.680 -52.540  13.171  1.00  0.00     0.275 C 
HETATM   20  N   UNL     1     -43.192 -52.549  14.562  1.00  0.00     0.092 N 
HETATM   21  C   UNL     1     -42.146 -51.519  14.699  1.00  0.00     0.275 C 
HETATM   22  C   UNL     1     -40.959 -51.734  13.760  1.00  0.00     0.055 C 
BRANCH  20  23
HETATM   23  C   UNL     1     -42.795 -53.890  15.060  1.00  0.00     0.215 C 
HETATM   24  C   UNL     1     -42.557 -53.900  16.580  1.00  0.00     0.042 C 
HETATM   25  C   UNL     1     -43.863 -54.958  14.763  1.00  0.00     0.042 C 
ENDBRANCH  20  23
ENDBRANCH   3  17
TORSDOF 6
ENDMDL
MODEL 6
REMARK VINA RESULT:      -5.5      3.246      8.055
REMARK  6 active torsions:
REMARK  status: ('A' for Active; 'I' for Inactive)
REMARK    1  A    between atoms: O_2  and  C_3 
REMARK    2  A    between atoms: C_3  and  C_4 
REMARK    3  A    between atoms: C_4  and  N_5 
REMARK    4  A    between atoms: C_8  and  C_13 
REMARK       I    between atoms: C_13  and  N_15 
REMARK    5  A    between atoms: N_15  and  C_16 
REMARK    6  A    between atoms: N_19  and  C_22 
ROOT
HETATM    1  C   UNL     1     -41.279 -48.078  10.584  1.00  0.00     0.269 C 
HETATM    2  O   UNL     1     -42.260 -48.158   9.855  1.00  0.00    -0.266 OA
HETATM    3  N   UNL     1     -40.597 -46.919  10.868  1.00  0.00    -0.351 N 
HETATM    4  H   UNL     1     -39.891 -46.982  11.597  1.00  0.00     0.163 HD
ENDROOT
BRANCH   1   5
HETATM    5  C   UNL     1     -40.719 -49.342  11.253  1.00  0.00     0.116 C 
HETATM    6  N   UNL     1     -41.487 -50.383  11.387  1.00  0.00    -0.290 N 
HETATM    7  N   UNL     1     -40.938 -51.484  12.031  1.00  0.00    -0.255 N 
ATOM      8  HN  UNL     1     -42.445 -50.391  11.036  1.00  0.00     0.187 HD
HETATM    9  C   UNL     1     -39.682 -51.490  12.632  1.00  0.00     0.262 C 
HETATM   10  C   UNL     1     -38.843 -50.299  12.388  1.00  0.00     0.078 C 
HETATM   11  O   UNL     1     -39.228 -52.407  13.309  1.00  0.00    -0.267 OA
HETATM   12  C   UNL     1     -39.320 -49.257  11.712  1.00  0.00     0.042 C 
BRANCH   7  13
HETATM   13  C   UNL     1     -41.761 -52.686  12.106  1.00  0.00     0.178 C 
BRANCH  13  14
HETATM   14  C   UNL     1     -43.131 -52.446  12.733  1.00  0.00     0.189 C 
BRANCH  14  15
HETATM   15  O   UNL     1     -43.034 -51.342  13.638  1.00  0.00    -0.394 OA
HETATM   16  C   UNL     1     -44.297 -50.730  13.865  1.00  0.00     0.201 C 
ENDBRANCH  14  15
ENDBRANCH  13  14
ENDBRANCH   7  13
ENDBRANCH   1   5
BRANCH   3  17
HETATM   17  C   UNL     1     -41.042 -45.622  10.367  1.00  0.00     0.088 C 
HETATM   18  C   UNL     1     -39.949 -44.560  10.521  1.00  0.00     0.055 C 
HETATM   19  C   UNL     1     -39.834 -44.061  11.965  1.00  0.00     0.275 C 
HETATM   20  N   UNL     1     -41.108 -43.581  12.530  1.00  0.00     0.092 N 
HETATM   21  C   UNL     1     -42.094 -44.675  12.461  1.00  0.00     0.275 C 
HETATM   22  C   UNL     1     -42.345 -45.175  11.038  1.00  0.00     0.055 C 
BRANCH  20  23
HETATM   23  C   UNL     1     -41.584 -42.296  11.957  1.00  0.00     0.215 C 
HETATM   24  C   UNL     1     -42.903 -41.827  12.597  1.00  0.00     0.042 C 
HETATM   25  C   UNL     1     -40.560 -41.163  12.148  1.00  0.00     0.042 C 
ENDBRANCH  20  23
ENDBRANCH   3  17
TORSDOF 6
ENDMDL
MODEL 7
REMARK VINA RESULT:      -5.1      4.010      8.563
REMARK  6 active torsions:
REMARK  status: ('A' for Active; 'I' for Inactive)
REMARK    1  A    between atoms: O_2  and  C_3 
REMARK    2  A    between atoms: C_3  and  C_4 
REMARK    3  A    between atoms: C_4  and  N_5 
REMARK    4  A    between atoms: C_8  and  C_13 
REMARK       I    between atoms: C_13  and  N_15 
REMARK    5  A    between atoms: N_15  and  C_16 
REMARK    6  A    between atoms: N_19  and  C_22 
ROOT
HETATM    1  C   UNL     1     -40.971 -52.125  12.632  1.00  0.00     0.269 C 
HETATM    2  O   UNL     1     -39.852 -52.589  12.451  1.00  0.00    -0.266 OA
HETATM    3  N   UNL     1     -41.337 -50.823  12.386  1.00  0.00    -0.351 N 
HETATM    4  H   UNL     1     -42.331 -50.617  12.450  1.00  0.00     0.163 HD
ENDROOT
BRANCH   1   5
HETATM    5  C   UNL     1     -42.089 -53.021  13.185  1.00  0.00     0.116 C 
HETATM    6  N   UNL     1     -41.844 -53.782  14.211  1.00  0.00    -0.290 N 
HETATM    7  N   UNL     1     -42.882 -54.596  14.645  1.00  0.00    -0.255 N 
ATOM      8  HN  UNL     1     -40.935 -53.780  14.674  1.00  0.00     0.187 HD
HETATM    9  C   UNL     1     -44.100 -54.726  13.984  1.00  0.00     0.262 C 
HETATM   10  C   UNL     1     -44.332 -53.790  12.865  1.00  0.00     0.078 C 
HETATM   11  O   UNL     1     -44.981 -55.528  14.279  1.00  0.00    -0.267 OA
HETATM   12  C   UNL     1     -43.379 -52.948  12.473  1.00  0.00     0.042 C 
BRANCH   7  13
HETATM   13  C   UNL     1     -42.645 -55.386  15.849  1.00  0.00     0.178 C 
BRANCH  13  14
HETATM   14  C   UNL     1     -41.190 -55.374  16.308  1.00  0.00     0.189 C 
BRANCH  14  15
HETATM   15  O   UNL     1     -40.971 -54.205  17.103  1.00  0.00    -0.394 OA
HETATM   16  C   UNL     1     -39.606 -53.807  17.096  1.00  0.00     0.201 C 
ENDBRANCH  14  15
ENDBRANCH  13  14
ENDBRANCH   7  13
ENDBRANCH   1   5
BRANCH   3  17
HETATM   17  C   UNL     1     -40.411 -49.862  11.796  1.00  0.00     0.088 C 
HETATM   18  C   UNL     1     -39.614 -49.121  12.874  1.00  0.00     0.055 C 
HETATM   19  C   UNL     1     -40.447 -48.032  13.556  1.00  0.00     0.275 C 
HETATM   20  N   UNL     1     -41.060 -47.077  12.616  1.00  0.00     0.092 N 
HETATM   21  C   UNL     1     -41.906 -47.828  11.670  1.00  0.00     0.275 C 
HETATM   22  C   UNL     1     -41.134 -48.878  10.870  1.00  0.00     0.055 C 
BRANCH  20  23
HETATM   23  C   UNL     1     -40.095 -46.153  11.968  1.00  0.00     0.215 C 
HETATM   24  C   UNL     1     -40.782 -45.184  10.990  1.00  0.00     0.042 C 
HETATM   25  C   UNL     1     -39.337 -45.294  12.997  1.00  0.00     0.042 C 
ENDBRANCH  20  23
ENDBRANCH   3  17
TORSDOF 6
ENDMDL
MODEL 8
REMARK VINA RESULT:      -5.1      3.565      8.131
REMARK  6 active torsions:
REMARK  status: ('A' for Active; 'I' for Inactive)
REMARK    1  A    between atoms: O_2  and  C_3 
REMARK    2  A    between atoms: C_3  and  C_4 
REMARK    3  A    between atoms: C_4  and  N_5 
REMARK    4  A    between atoms: C_8  and  C_13 
REMARK       I    between atoms: C_13  and  N_15 
REMARK    5  A    between atoms: N_15  and  C_16 
REMARK    6  A    between atoms: N_19  and  C_22 
ROOT
HETATM    1  C   UNL     1     -42.662 -50.000  12.637  1.00  0.00     0.269 C 
HETATM    2  O   UNL     1     -43.847 -50.035  12.942  1.00  0.00    -0.266 OA
HETATM    3  N   UNL     1     -42.047 -48.967  11.971  1.00  0.00    -0.351 N 
HETATM    4  H   UNL     1     -41.033 -49.013  11.910  1.00  0.00     0.163 HD
ENDROOT
BRANCH   1   5
HETATM    5  C   UNL     1     -41.745 -51.180  12.993  1.00  0.00     0.116 C 
HETATM    6  N   UNL     1     -40.555 -50.940  13.462  1.00  0.00    -0.290 N 
HETATM    7  N   UNL     1     -39.758 -52.045  13.732  1.00  0.00    -0.255 N 
ATOM      8  HN  UNL     1     -40.224 -49.989  13.623  1.00  0.00     0.187 HD
HETATM    9  C   UNL     1     -40.111 -53.355  13.423  1.00  0.00     0.262 C 
HETATM   10  C   UNL     1     -41.495 -53.559  12.952  1.00  0.00     0.078 C 
HETATM   11  O   UNL     1     -39.375 -54.330  13.540  1.00  0.00    -0.267 OA
HETATM   12  C   UNL     1     -42.306 -52.523  12.752  1.00  0.00     0.042 C 
BRANCH   7  13
HETATM   13  C   UNL     1     -38.457 -51.789  14.341  1.00  0.00     0.178 C 
BRANCH  13  14
HETATM   14  C   UNL     1     -37.555 -50.895  13.495  1.00  0.00     0.189 C 
BRANCH  14  15
HETATM   15  O   UNL     1     -37.851 -51.122  12.114  1.00  0.00    -0.394 OA
HETATM   16  C   UNL     1     -37.607 -49.966  11.324  1.00  0.00     0.201 C 
ENDBRANCH  14  15
ENDBRANCH  13  14
ENDBRANCH   7  13
ENDBRANCH   1   5
BRANCH   3  17
HETATM   17  C   UNL     1     -42.762 -47.743  11.621  1.00  0.00     0.088 C 
HETATM   18  C   UNL     1     -42.033 -46.966  10.522  1.00  0.00     0.055 C 
HETATM   19  C   UNL     1     -40.819 -46.205  11.065  1.00  0.00     0.275 C 
HETATM   20  N   UNL     1     -41.132 -45.323  12.203  1.00  0.00     0.092 N 
HETATM   21  C   UNL     1     -41.728 -46.138  13.278  1.00  0.00     0.275 C 
HETATM   22  C   UNL     1     -43.005 -46.862  12.852  1.00  0.00     0.055 C 
BRANCH  20  23
HETATM   23  C   UNL     1     -41.923 -44.119  11.843  1.00  0.00     0.215 C 
HETATM   24  C   UNL     1     -42.567 -43.456  13.073  1.00  0.00     0.042 C 
HETATM   25  C   UNL     1     -41.061 -43.047  11.151  1.00  0.00     0.042 C 
ENDBRANCH  20  23
ENDBRANCH   3  17
TORSDOF 6
ENDMDL
MODEL 9
REMARK VINA RESULT:      -5.0      5.404      8.689
REMARK  6 active torsions:
REMARK  status: ('A' for Active; 'I' for Inactive)
REMARK    1  A    between atoms: O_2  and  C_3 
REMARK    2  A    between atoms: C_3  and  C_4 
REMARK    3  A    between atoms: C_4  and  N_5 
REMARK    4  A    between atoms: C_8  and  C_13 
REMARK       I    between atoms: C_13  and  N_15 
REMARK    5  A    between atoms: N_15  and  C_16 
REMARK    6  A    between atoms: N_19  and  C_22 
ROOT
HETATM    1  C   UNL     1     -41.472 -53.369  13.522  1.00  0.00     0.269 C 
HETATM    2  O   UNL     1     -40.841 -54.194  12.874  1.00  0.00    -0.266 OA
HETATM    3  N   UNL     1     -40.997 -52.139  13.911  1.00  0.00    -0.351 N 
HETATM    4  H   UNL     1     -41.678 -51.505  14.322  1.00  0.00     0.163 HD
ENDROOT
BRANCH   1   5
HETATM    5  C   UNL     1     -42.907 -53.682  13.970  1.00  0.00     0.116 C 
HETATM    6  N   UNL     1     -43.213 -53.590  15.231  1.00  0.00    -0.290 N 
HETATM    7  N   UNL     1     -44.516 -53.920  15.582  1.00  0.00    -0.255 N 
ATOM      8  HN  UNL     1     -42.530 -53.291  15.927  1.00  0.00     0.187 HD
HETATM    9  C   UNL     1     -45.452 -54.445  14.697  1.00  0.00     0.262 C 
HETATM   10  C   UNL     1     -45.058 -54.464  13.274  1.00  0.00     0.078 C 
HETATM   11  O   UNL     1     -46.565 -54.856  15.010  1.00  0.00    -0.267 OA
HETATM   12  C   UNL     1     -43.839 -54.085  12.900  1.00  0.00     0.042 C 
BRANCH   7  13
HETATM   13  C   UNL     1     -44.892 -53.734  16.980  1.00  0.00     0.178 C 
BRANCH  13  14
HETATM   14  C   UNL     1     -44.001 -54.499  17.956  1.00  0.00     0.189 C 
BRANCH  14  15
HETATM   15  O   UNL     1     -43.371 -55.574  17.254  1.00  0.00    -0.394 OA
HETATM   16  C   UNL     1     -42.187 -56.011  17.908  1.00  0.00     0.201 C 
ENDBRANCH  14  15
ENDBRANCH  13  14
ENDBRANCH   7  13
ENDBRANCH   1   5
BRANCH   3  17
HETATM   17  C   UNL     1     -39.678 -51.661  13.509  1.00  0.00     0.088 C 
HETATM   18  C   UNL     1     -38.623 -51.972  14.575  1.00  0.00     0.055 C 
HETATM   19  C   UNL     1     -38.706 -51.009  15.763  1.00  0.00     0.275 C 
HETATM   20  N   UNL     1     -38.652 -49.587  15.379  1.00  0.00     0.092 N 
HETATM   21  C   UNL     1     -39.756 -49.312  14.440  1.00  0.00     0.275 C 
HETATM   22  C   UNL     1     -39.699 -50.166  13.173  1.00  0.00     0.055 C 
BRANCH  20  23
HETATM   23  C   UNL     1     -37.321 -49.133  14.903  1.00  0.00     0.215 C 
HETATM   24  C   UNL     1     -37.298 -47.628  14.584  1.00  0.00     0.042 C 
HETATM   25  C   UNL     1     -36.216 -49.392  15.943  1.00  0.00     0.042 C 
ENDBRANCH  20  23
ENDBRANCH   3  17
TORSDOF 6
ENDMDL
