MODEL 1
REMARK VINA RESULT:      -6.3      0.000      0.000
REMARK  5 active torsions:
REMARK  status: ('A' for Active; 'I' for Inactive)
REMARK    1  A    between atoms: C_2  and  C_3 
REMARK    2  A    between atoms: C_2  and  C_15 
REMARK    3  A    between atoms: C_3  and  N_4 
REMARK       I    between atoms: N_4  and  C_5 
REMARK       I    between atoms: C_5  and  N_7 
REMARK    4  A    between atoms: N_7  and  C_8 
REMARK    5  A    between atoms: C_8  and  C_10 
ROOT
HETATM    1  N   UNL     1     -42.035 -50.772  11.788  1.00  0.00    -0.342 N 
HETATM    2  C   UNL     1     -42.750 -50.950  12.944  1.00  0.00     0.316 C 
HETATM    3  O   UNL     1     -42.345 -50.632  14.055  1.00  0.00    -0.247 OA
HETATM    4  N   UNL     1     -43.974 -51.529  12.709  1.00  0.00    -0.338 N 
HETATM    5  H   UNL     1     -42.219 -51.451  11.055  1.00  0.00     0.164 HD
HETATM    6  H   UNL     1     -44.335 -51.391  11.775  1.00  0.00     0.164 HD
ENDROOT
BRANCH   1   7
HETATM    7  C   UNL     1     -40.654 -50.321  11.886  1.00  0.00     0.135 C 
BRANCH   7   8
HETATM    8  C   UNL     1     -40.442 -48.825  11.610  1.00  0.00     0.057 C 
HETATM    9  C   UNL     1     -40.126 -48.037  12.882  1.00  0.00     0.018 C 
BRANCH   8  10
HETATM   10  C   UNL     1     -41.631 -48.224  10.904  1.00  0.00     0.056 A 
HETATM   11  N   UNL     1     -41.852 -48.312   9.607  1.00  0.00    -0.357 N 
HETATM   12  C   UNL     1     -43.059 -47.705   9.289  1.00  0.00     0.012 A 
ATOM     13  HN  UNL     1     -41.227 -48.759   8.936  1.00  0.00     0.166 HD
HETATM   14  C   UNL     1     -43.525 -47.721   7.878  1.00  0.00     0.068 C 
HETATM   15  C   UNL     1     -43.726 -47.144  10.360  1.00  0.00     0.076 A 
HETATM   16  S   UNL     1     -42.833 -47.377  11.799  1.00  0.00    -0.086 SA
ENDBRANCH   8  10
ENDBRANCH   7   8
ENDBRANCH   1   7
BRANCH   4  17
HETATM   17  C   UNL     1     -44.936 -51.685  13.797  1.00  0.00     0.088 C 
HETATM   18  C   UNL     1     -46.332 -51.259  13.332  1.00  0.00     0.032 C 
BRANCH  17  19
HETATM   19  C   UNL     1     -44.940 -53.122  14.339  1.00  0.00     0.034 C 
HETATM   20  C   UNL     1     -44.715 -54.186  13.275  1.00  0.00     0.035 C 
HETATM   21  C   UNL     1     -45.481 -55.395  13.777  1.00  0.00     0.168 C 
HETATM   22  O   UNL     1     -46.259 -54.979  14.904  1.00  0.00    -0.391 OA
HETATM   23  C   UNL     1     -46.278 -53.547  14.918  1.00  0.00     0.174 C 
ENDBRANCH  17  19
ENDBRANCH   4  17
TORSDOF 5
ENDMDL
MODEL 2
REMARK VINA RESULT:      -6.1      4.698      6.326
REMARK  5 active torsions:
REMARK  status: ('A' for Active; 'I' for Inactive)
REMARK    1  A    between atoms: C_2  and  C_3 
REMARK    2  A    between atoms: C_2  and  C_15 
REMARK    3  A    between atoms: C_3  and  N_4 
REMARK       I    between atoms: N_4  and  C_5 
REMARK       I    between atoms: C_5  and  N_7 
REMARK    4  A    between atoms: N_7  and  C_8 
REMARK    5  A    between atoms: C_8  and  C_10 
ROOT
HETATM    1  N   UNL     1     -40.551 -49.416  10.483  1.00  0.00    -0.342 N 
HETATM    2  C   UNL     1     -41.549 -48.545  10.834  1.00  0.00     0.316 C 
HETATM    3  O   UNL     1     -41.796 -48.216  11.988  1.00  0.00    -0.247 OA
HETATM    4  N   UNL     1     -42.241 -48.084   9.739  1.00  0.00    -0.338 N 
HETATM    5  H   UNL     1     -40.726 -49.960   9.642  1.00  0.00     0.164 HD
HETATM    6  H   UNL     1     -41.725 -48.115   8.870  1.00  0.00     0.164 HD
ENDROOT
BRANCH   1   7
HETATM    7  C   UNL     1     -39.834 -50.116  11.539  1.00  0.00     0.135 C 
BRANCH   7   8
HETATM    8  C   UNL     1     -38.427 -49.576  11.833  1.00  0.00     0.057 C 
HETATM    9  C   UNL     1     -37.390 -50.692  11.963  1.00  0.00     0.018 C 
BRANCH   8  10
HETATM   10  C   UNL     1     -38.420 -48.709  13.066  1.00  0.00     0.056 A 
HETATM   11  N   UNL     1     -38.988 -47.521  13.147  1.00  0.00    -0.357 N 
HETATM   12  C   UNL     1     -38.851 -47.016  14.432  1.00  0.00     0.012 A 
ATOM     13  HN  UNL     1     -39.459 -47.045  12.378  1.00  0.00     0.166 HD
HETATM   14  C   UNL     1     -39.455 -45.698  14.758  1.00  0.00     0.068 C 
HETATM   15  C   UNL     1     -38.155 -47.830  15.304  1.00  0.00     0.076 A 
HETATM   16  S   UNL     1     -37.659 -49.259  14.508  1.00  0.00    -0.086 SA
ENDBRANCH   8  10
ENDBRANCH   7   8
ENDBRANCH   1   7
BRANCH   4  17
HETATM   17  C   UNL     1     -43.259 -47.048   9.894  1.00  0.00     0.088 C 
HETATM   18  C   UNL     1     -42.615 -45.661   9.826  1.00  0.00     0.032 C 
BRANCH  17  19
HETATM   19  C   UNL     1     -44.374 -47.200   8.848  1.00  0.00     0.034 C 
HETATM   20  C   UNL     1     -45.657 -47.810   9.393  1.00  0.00     0.035 C 
HETATM   21  C   UNL     1     -46.256 -48.555   8.215  1.00  0.00     0.168 C 
HETATM   22  O   UNL     1     -45.283 -48.560   7.164  1.00  0.00    -0.391 OA
HETATM   23  C   UNL     1     -44.027 -48.167   7.729  1.00  0.00     0.174 C 
ENDBRANCH  17  19
ENDBRANCH   4  17
TORSDOF 5
ENDMDL
MODEL 3
REMARK VINA RESULT:      -6.1      1.139      1.782
REMARK  5 active torsions:
REMARK  status: ('A' for Active; 'I' for Inactive)
REMARK    1  A    between atoms: C_2  and  C_3 
REMARK    2  A    between atoms: C_2  and  C_15 
REMARK    3  A    between atoms: C_3  and  N_4 
REMARK       I    between atoms: N_4  and  C_5 
REMARK       I    between atoms: C_5  and  N_7 
REMARK    4  A    between atoms: N_7  and  C_8 
REMARK    5  A    between atoms: C_8  and  C_10 
ROOT
HETATM    1  N   UNL     1     -41.841 -50.646  12.002  1.00  0.00    -0.342 N 
HETATM    2  C   UNL     1     -41.984 -52.006  12.104  1.00  0.00     0.316 C 
HETATM    3  O   UNL     1     -41.087 -52.808  11.872  1.00  0.00    -0.247 OA
HETATM    4  N   UNL     1     -43.252 -52.364  12.496  1.00  0.00    -0.338 N 
HETATM    5  H   UNL     1     -42.685 -50.139  11.752  1.00  0.00     0.164 HD
HETATM    6  H   UNL     1     -43.753 -51.650  13.008  1.00  0.00     0.164 HD
ENDROOT
BRANCH   1   7
HETATM    7  C   UNL     1     -40.607 -50.116  11.442  1.00  0.00     0.135 C 
BRANCH   7   8
HETATM    8  C   UNL     1     -40.489 -48.585  11.471  1.00  0.00     0.057 C 
HETATM    9  C   UNL     1     -40.485 -48.028  12.895  1.00  0.00     0.018 C 
BRANCH   8  10
HETATM   10  C   UNL     1     -41.580 -47.936  10.658  1.00  0.00     0.056 A 
HETATM   11  N   UNL     1     -41.953 -48.333   9.457  1.00  0.00    -0.357 N 
HETATM   12  C   UNL     1     -43.019 -47.563   9.013  1.00  0.00     0.012 A 
ATOM     13  HN  UNL     1     -41.522 -49.094   8.932  1.00  0.00     0.166 HD
HETATM   14  C   UNL     1     -43.626 -47.865   7.691  1.00  0.00     0.068 C 
HETATM   15  C   UNL     1     -43.423 -46.572   9.886  1.00  0.00     0.076 A 
HETATM   16  S   UNL     1     -42.456 -46.598  11.296  1.00  0.00    -0.086 SA
ENDBRANCH   8  10
ENDBRANCH   7   8
ENDBRANCH   1   7
BRANCH   4  17
HETATM   17  C   UNL     1     -43.567 -53.761  12.785  1.00  0.00     0.088 C 
HETATM   18  C   UNL     1     -42.700 -54.268  13.941  1.00  0.00     0.032 C 
BRANCH  17  19
HETATM   19  C   UNL     1     -45.062 -53.947  13.082  1.00  0.00     0.034 C 
HETATM   20  C   UNL     1     -45.723 -52.733  13.718  1.00  0.00     0.035 C 
HETATM   21  C   UNL     1     -46.825 -53.310  14.586  1.00  0.00     0.168 C 
HETATM   22  O   UNL     1     -46.653 -54.731  14.621  1.00  0.00    -0.391 OA
HETATM   23  C   UNL     1     -45.345 -55.024  14.114  1.00  0.00     0.174 C 
ENDBRANCH  17  19
ENDBRANCH   4  17
TORSDOF 5
ENDMDL
MODEL 4
REMARK VINA RESULT:      -5.8      2.239      2.855
REMARK  5 active torsions:
REMARK  status: ('A' for Active; 'I' for Inactive)
REMARK    1  A    between atoms: C_2  and  C_3 
REMARK    2  A    between atoms: C_2  and  C_15 
REMARK    3  A    between atoms: C_3  and  N_4 
REMARK       I    between atoms: N_4  and  C_5 
REMARK       I    between atoms: C_5  and  N_7 
REMARK    4  A    between atoms: N_7  and  C_8 
REMARK    5  A    between atoms: C_8  and  C_10 
ROOT
HETATM    1  N   UNL     1     -40.185 -51.209  13.771  1.00  0.00    -0.342 N 
HETATM    2  C   UNL     1     -40.503 -52.525  13.554  1.00  0.00     0.316 C 
HETATM    3  O   UNL     1     -39.724 -53.349  13.088  1.00  0.00    -0.247 OA
HETATM    4  N   UNL     1     -41.796 -52.811  13.919  1.00  0.00    -0.338 N 
HETATM    5  H   UNL     1     -40.961 -50.558  13.696  1.00  0.00     0.164 HD
HETATM    6  H   UNL     1     -42.187 -52.188  14.612  1.00  0.00     0.164 HD
ENDROOT
BRANCH   1   7
HETATM    7  C   UNL     1     -38.906 -50.713  13.285  1.00  0.00     0.135 C 
BRANCH   7   8
HETATM    8  C   UNL     1     -38.888 -50.314  11.803  1.00  0.00     0.057 C 
HETATM    9  C   UNL     1     -37.482 -49.975  11.307  1.00  0.00     0.018 C 
BRANCH   8  10
HETATM   10  C   UNL     1     -39.828 -49.167  11.532  1.00  0.00     0.056 A 
HETATM   11  N   UNL     1     -40.788 -49.185  10.627  1.00  0.00    -0.357 N 
HETATM   12  C   UNL     1     -41.507 -47.999  10.674  1.00  0.00     0.012 A 
ATOM     13  HN  UNL     1     -40.974 -49.958   9.988  1.00  0.00     0.166 HD
HETATM   14  C   UNL     1     -42.665 -47.821   9.761  1.00  0.00     0.068 C 
HETATM   15  C   UNL     1     -41.060 -47.086  11.608  1.00  0.00     0.076 A 
HETATM   16  S   UNL     1     -39.713 -47.716  12.452  1.00  0.00    -0.086 SA
ENDBRANCH   8  10
ENDBRANCH   7   8
ENDBRANCH   1   7
BRANCH   4  17
HETATM   17  C   UNL     1     -42.285 -54.187  13.884  1.00  0.00     0.088 C 
HETATM   18  C   UNL     1     -42.155 -54.829  15.268  1.00  0.00     0.032 C 
BRANCH  17  19
HETATM   19  C   UNL     1     -43.730 -54.255  13.368  1.00  0.00     0.034 C 
HETATM   20  C   UNL     1     -44.103 -53.125  12.420  1.00  0.00     0.035 C 
HETATM   21  C   UNL     1     -45.588 -52.910  12.649  1.00  0.00     0.168 C 
HETATM   22  O   UNL     1     -45.969 -53.687  13.789  1.00  0.00    -0.391 OA
HETATM   23  C   UNL     1     -44.771 -54.092  14.462  1.00  0.00     0.174 C 
ENDBRANCH  17  19
ENDBRANCH   4  17
TORSDOF 5
ENDMDL
MODEL 5
REMARK VINA RESULT:      -5.8      3.678      6.719
REMARK  5 active torsions:
REMARK  status: ('A' for Active; 'I' for Inactive)
REMARK    1  A    between atoms: C_2  and  C_3 
REMARK    2  A    between atoms: C_2  and  C_15 
REMARK    3  A    between atoms: C_3  and  N_4 
REMARK       I    between atoms: N_4  and  C_5 
REMARK       I    between atoms: C_5  and  N_7 
REMARK    4  A    between atoms: N_7  and  C_8 
REMARK    5  A    between atoms: C_8  and  C_10 
ROOT
HETATM    1  N   UNL     1     -41.364 -51.696  11.644  1.00  0.00    -0.342 N 
HETATM    2  C   UNL     1     -40.098 -51.623  12.165  1.00  0.00     0.316 C 
HETATM    3  O   UNL     1     -39.602 -52.482  12.884  1.00  0.00    -0.247 OA
HETATM    4  N   UNL     1     -39.450 -50.471  11.786  1.00  0.00    -0.338 N 
HETATM    5  H   UNL     1     -41.822 -50.803  11.491  1.00  0.00     0.164 HD
HETATM    6  H   UNL     1     -39.790 -50.057  10.928  1.00  0.00     0.164 HD
ENDROOT
BRANCH   1   7
HETATM    7  C   UNL     1     -42.235 -52.776  12.084  1.00  0.00     0.135 C 
BRANCH   7   8
HETATM    8  C   UNL     1     -42.854 -52.581  13.476  1.00  0.00     0.057 C 
HETATM    9  C   UNL     1     -42.733 -53.831  14.348  1.00  0.00     0.018 C 
BRANCH   8  10
HETATM   10  C   UNL     1     -44.295 -52.148  13.379  1.00  0.00     0.056 A 
HETATM   11  N   UNL     1     -45.007 -52.164  12.268  1.00  0.00    -0.357 N 
HETATM   12  C   UNL     1     -46.308 -51.762  12.532  1.00  0.00     0.012 A 
ATOM     13  HN  UNL     1     -44.651 -52.432  11.350  1.00  0.00     0.166 HD
HETATM   14  C   UNL     1     -47.297 -51.743  11.423  1.00  0.00     0.068 C 
HETATM   15  C   UNL     1     -46.555 -51.425  13.848  1.00  0.00     0.076 A 
HETATM   16  S   UNL     1     -45.136 -51.613  14.782  1.00  0.00    -0.086 SA
ENDBRANCH   8  10
ENDBRANCH   7   8
ENDBRANCH   1   7
BRANCH   4  17
HETATM   17  C   UNL     1     -38.046 -50.267  12.133  1.00  0.00     0.088 C 
HETATM   18  C   UNL     1     -37.224 -50.001  10.870  1.00  0.00     0.032 C 
BRANCH  17  19
HETATM   19  C   UNL     1     -37.882 -49.134  13.157  1.00  0.00     0.034 C 
HETATM   20  C   UNL     1     -37.655 -49.614  14.583  1.00  0.00     0.035 C 
HETATM   21  C   UNL     1     -38.272 -48.534  15.452  1.00  0.00     0.168 C 
HETATM   22  O   UNL     1     -38.987 -47.640  14.593  1.00  0.00    -0.391 OA
HETATM   23  C   UNL     1     -39.127 -48.278  13.318  1.00  0.00     0.174 C 
ENDBRANCH  17  19
ENDBRANCH   4  17
TORSDOF 5
ENDMDL
MODEL 6
REMARK VINA RESULT:      -5.6      2.550      4.086
REMARK  5 active torsions:
REMARK  status: ('A' for Active; 'I' for Inactive)
REMARK    1  A    between atoms: C_2  and  C_3 
REMARK    2  A    between atoms: C_2  and  C_15 
REMARK    3  A    between atoms: C_3  and  N_4 
REMARK       I    between atoms: N_4  and  C_5 
REMARK       I    between atoms: C_5  and  N_7 
REMARK    4  A    between atoms: N_7  and  C_8 
REMARK    5  A    between atoms: C_8  and  C_10 
ROOT
HETATM    1  N   UNL     1     -43.020 -49.895  12.149  1.00  0.00    -0.342 N 
HETATM    2  C   UNL     1     -43.056 -50.880  13.101  1.00  0.00     0.316 C 
HETATM    3  O   UNL     1     -43.030 -50.667  14.308  1.00  0.00    -0.247 OA
HETATM    4  N   UNL     1     -43.123 -52.134  12.544  1.00  0.00    -0.338 N 
HETATM    5  H   UNL     1     -42.584 -50.158  11.270  1.00  0.00     0.164 HD
HETATM    6  H   UNL     1     -43.514 -52.162  11.612  1.00  0.00     0.164 HD
ENDROOT
BRANCH   1   7
HETATM    7  C   UNL     1     -42.785 -48.523  12.575  1.00  0.00     0.135 C 
BRANCH   7   8
HETATM    8  C   UNL     1     -41.675 -47.789  11.809  1.00  0.00     0.057 C 
HETATM    9  C   UNL     1     -41.906 -47.796  10.298  1.00  0.00     0.018 C 
BRANCH   8  10
HETATM   10  C   UNL     1     -40.317 -48.359  12.133  1.00  0.00     0.056 A 
HETATM   11  N   UNL     1     -39.539 -48.975  11.263  1.00  0.00    -0.357 N 
HETATM   12  C   UNL     1     -38.338 -49.324  11.865  1.00  0.00     0.012 A 
ATOM     13  HN  UNL     1     -39.784 -49.167  10.292  1.00  0.00     0.166 HD
HETATM   14  C   UNL     1     -37.292 -49.997  11.053  1.00  0.00     0.068 C 
HETATM   15  C   UNL     1     -38.236 -48.981  13.199  1.00  0.00     0.076 A 
HETATM   16  S   UNL     1     -39.668 -48.205  13.720  1.00  0.00    -0.086 SA
ENDBRANCH   8  10
ENDBRANCH   7   8
ENDBRANCH   1   7
BRANCH   4  17
HETATM   17  C   UNL     1     -43.299 -53.310  13.394  1.00  0.00     0.088 C 
HETATM   18  C   UNL     1     -44.453 -54.170  12.872  1.00  0.00     0.032 C 
BRANCH  17  19
HETATM   19  C   UNL     1     -41.999 -54.121  13.500  1.00  0.00     0.034 C 
HETATM   20  C   UNL     1     -41.403 -54.156  14.900  1.00  0.00     0.035 C 
HETATM   21  C   UNL     1     -39.907 -54.270  14.674  1.00  0.00     0.168 C 
HETATM   22  O   UNL     1     -39.663 -54.082  13.276  1.00  0.00    -0.391 OA
HETATM   23  C   UNL     1     -40.852 -53.537  12.694  1.00  0.00     0.174 C 
ENDBRANCH  17  19
ENDBRANCH   4  17
TORSDOF 5
ENDMDL
MODEL 7
REMARK VINA RESULT:      -5.5      2.605      3.109
REMARK  5 active torsions:
REMARK  status: ('A' for Active; 'I' for Inactive)
REMARK    1  A    between atoms: C_2  and  C_3 
REMARK    2  A    between atoms: C_2  and  C_15 
REMARK    3  A    between atoms: C_3  and  N_4 
REMARK       I    between atoms: N_4  and  C_5 
REMARK       I    between atoms: C_5  and  N_7 
REMARK    4  A    between atoms: N_7  and  C_8 
REMARK    5  A    between atoms: C_8  and  C_10 
ROOT
HETATM    1  N   UNL     1     -41.856 -50.017  11.565  1.00  0.00    -0.342 N 
HETATM    2  C   UNL     1     -42.443 -50.651  12.629  1.00  0.00     0.316 C 
HETATM    3  O   UNL     1     -42.565 -50.150  13.741  1.00  0.00    -0.247 OA
HETATM    4  N   UNL     1     -42.877 -51.913  12.303  1.00  0.00    -0.338 N 
HETATM    5  H   UNL     1     -41.396 -50.629  10.896  1.00  0.00     0.164 HD
HETATM    6  H   UNL     1     -43.066 -52.054  11.320  1.00  0.00     0.164 HD
ENDROOT
BRANCH   1   7
HETATM    7  C   UNL     1     -41.201 -48.738  11.791  1.00  0.00     0.135 C 
BRANCH   7   8
HETATM    8  C   UNL     1     -42.083 -47.506  11.541  1.00  0.00     0.057 C 
HETATM    9  C   UNL     1     -43.126 -47.748  10.450  1.00  0.00     0.018 C 
BRANCH   8  10
HETATM   10  C   UNL     1     -41.250 -46.294  11.208  1.00  0.00     0.056 A 
HETATM   11  N   UNL     1     -40.314 -46.263  10.278  1.00  0.00    -0.357 N 
HETATM   12  C   UNL     1     -39.780 -44.986  10.185  1.00  0.00     0.012 A 
ATOM     13  HN  UNL     1     -40.026 -47.061   9.712  1.00  0.00     0.166 HD
HETATM   14  C   UNL     1     -38.731 -44.715   9.168  1.00  0.00     0.068 C 
HETATM   15  C   UNL     1     -40.312 -44.069  11.069  1.00  0.00     0.076 A 
HETATM   16  S   UNL     1     -41.506 -44.810  12.042  1.00  0.00    -0.086 SA
ENDBRANCH   8  10
ENDBRANCH   7   8
ENDBRANCH   1   7
BRANCH   4  17
HETATM   17  C   UNL     1     -43.643 -52.701  13.266  1.00  0.00     0.088 C 
HETATM   18  C   UNL     1     -44.986 -53.114  12.659  1.00  0.00     0.032 C 
BRANCH  17  19
HETATM   19  C   UNL     1     -42.847 -53.922  13.749  1.00  0.00     0.034 C 
HETATM   20  C   UNL     1     -43.637 -54.862  14.647  1.00  0.00     0.035 C 
HETATM   21  C   UNL     1     -42.599 -55.466  15.574  1.00  0.00     0.168 C 
HETATM   22  O   UNL     1     -41.371 -54.759  15.372  1.00  0.00    -0.391 OA
HETATM   23  C   UNL     1     -41.670 -53.564  14.640  1.00  0.00     0.174 C 
ENDBRANCH  17  19
ENDBRANCH   4  17
TORSDOF 5
ENDMDL
MODEL 8
REMARK VINA RESULT:      -5.2      3.044      4.073
REMARK  5 active torsions:
REMARK  status: ('A' for Active; 'I' for Inactive)
REMARK    1  A    between atoms: C_2  and  C_3 
REMARK    2  A    between atoms: C_2  and  C_15 
REMARK    3  A    between atoms: C_3  and  N_4 
REMARK       I    between atoms: N_4  and  C_5 
REMARK       I    between atoms: C_5  and  N_7 
REMARK    4  A    between atoms: N_7  and  C_8 
REMARK    5  A    between atoms: C_8  and  C_10 
ROOT
HETATM    1  N   UNL     1     -42.973 -49.805  12.040  1.00  0.00    -0.342 N 
HETATM    2  C   UNL     1     -43.041 -50.778  13.004  1.00  0.00     0.316 C 
HETATM    3  O   UNL     1     -43.166 -50.549  14.201  1.00  0.00    -0.247 OA
HETATM    4  N   UNL     1     -42.949 -52.041  12.469  1.00  0.00    -0.338 N 
HETATM    5  H   UNL     1     -42.423 -50.044  11.220  1.00  0.00     0.164 HD
HETATM    6  H   UNL     1     -43.229 -52.111  11.500  1.00  0.00     0.164 HD
ENDROOT
BRANCH   1   7
HETATM    7  C   UNL     1     -42.893 -48.414  12.461  1.00  0.00     0.135 C 
BRANCH   7   8
HETATM    8  C   UNL     1     -43.060 -47.387  11.332  1.00  0.00     0.057 C 
HETATM    9  C   UNL     1     -42.441 -47.860  10.016  1.00  0.00     0.018 C 
BRANCH   8  10
HETATM   10  C   UNL     1     -42.493 -46.046  11.723  1.00  0.00     0.056 A 
HETATM   11  N   UNL     1     -43.058 -45.217  12.580  1.00  0.00    -0.357 N 
HETATM   12  C   UNL     1     -42.254 -44.102  12.763  1.00  0.00     0.012 A 
ATOM     13  HN  UNL     1     -43.955 -45.374  13.040  1.00  0.00     0.166 HD
HETATM   14  C   UNL     1     -42.683 -43.051  13.722  1.00  0.00     0.068 C 
HETATM   15  C   UNL     1     -41.092 -44.096  12.017  1.00  0.00     0.076 A 
HETATM   16  S   UNL     1     -40.994 -45.512  11.065  1.00  0.00    -0.086 SA
ENDBRANCH   8  10
ENDBRANCH   7   8
ENDBRANCH   1   7
BRANCH   4  17
HETATM   17  C   UNL     1     -43.128 -53.216  13.319  1.00  0.00     0.088 C 
HETATM   18  C   UNL     1     -44.314 -54.048  12.825  1.00  0.00     0.032 C 
BRANCH  17  19
HETATM   19  C   UNL     1     -41.844 -54.056  13.389  1.00  0.00     0.034 C 
HETATM   20  C   UNL     1     -41.380 -54.360  14.806  1.00  0.00     0.035 C 
HETATM   21  C   UNL     1     -39.869 -54.457  14.699  1.00  0.00     0.168 C 
HETATM   22  O   UNL     1     -39.497 -54.017  13.388  1.00  0.00    -0.391 OA
HETATM   23  C   UNL     1     -40.628 -53.353  12.813  1.00  0.00     0.174 C 
ENDBRANCH  17  19
ENDBRANCH   4  17
TORSDOF 5
ENDMDL
MODEL 9
REMARK VINA RESULT:      -5.2      2.163      2.750
REMARK  5 active torsions:
REMARK  status: ('A' for Active; 'I' for Inactive)
REMARK    1  A    between atoms: C_2  and  C_3 
REMARK    2  A    between atoms: C_2  and  C_15 
REMARK    3  A    between atoms: C_3  and  N_4 
REMARK       I    between atoms: N_4  and  C_5 
REMARK       I    between atoms: C_5  and  N_7 
REMARK    4  A    between atoms: N_7  and  C_8 
REMARK    5  A    between atoms: C_8  and  C_10 
ROOT
HETATM    1  N   UNL     1     -41.996 -50.847  13.313  1.00  0.00    -0.342 N 
HETATM    2  C   UNL     1     -42.332 -52.172  13.204  1.00  0.00     0.316 C 
HETATM    3  O   UNL     1     -42.721 -52.695  12.166  1.00  0.00    -0.247 OA
HETATM    4  N   UNL     1     -42.183 -52.842  14.394  1.00  0.00    -0.338 N 
HETATM    5  H   UNL     1     -42.151 -50.435  14.229  1.00  0.00     0.164 HD
HETATM    6  H   UNL     1     -41.522 -52.424  15.035  1.00  0.00     0.164 HD
ENDROOT
BRANCH   1   7
HETATM    7  C   UNL     1     -42.254 -49.968  12.183  1.00  0.00     0.135 C 
BRANCH   7   8
HETATM    8  C   UNL     1     -41.000 -49.482  11.441  1.00  0.00     0.057 C 
HETATM    9  C   UNL     1     -39.724 -49.688  12.257  1.00  0.00     0.018 C 
BRANCH   8  10
HETATM   10  C   UNL     1     -41.132 -48.037  11.031  1.00  0.00     0.056 A 
HETATM   11  N   UNL     1     -40.136 -47.172  11.013  1.00  0.00    -0.357 N 
HETATM   12  C   UNL     1     -40.579 -45.948  10.532  1.00  0.00     0.012 A 
ATOM     13  HN  UNL     1     -39.181 -47.373  11.311  1.00  0.00     0.166 HD
HETATM   14  C   UNL     1     -39.607 -44.833  10.391  1.00  0.00     0.068 C 
HETATM   15  C   UNL     1     -41.921 -45.903  10.211  1.00  0.00     0.076 A 
HETATM   16  S   UNL     1     -42.652 -47.418  10.513  1.00  0.00    -0.086 SA
ENDBRANCH   8  10
ENDBRANCH   7   8
ENDBRANCH   1   7
BRANCH   4  17
HETATM   17  C   UNL     1     -42.368 -54.290  14.452  1.00  0.00     0.088 C 
HETATM   18  C   UNL     1     -41.247 -54.933  15.273  1.00  0.00     0.032 C 
BRANCH  17  19
HETATM   19  C   UNL     1     -43.752 -54.654  15.011  1.00  0.00     0.034 C 
HETATM   20  C   UNL     1     -44.809 -54.893  13.943  1.00  0.00     0.035 C 
HETATM   21  C   UNL     1     -46.112 -54.469  14.595  1.00  0.00     0.168 C 
HETATM   22  O   UNL     1     -45.790 -53.831  15.835  1.00  0.00    -0.391 OA
HETATM   23  C   UNL     1     -44.387 -53.542  15.827  1.00  0.00     0.174 C 
ENDBRANCH  17  19
ENDBRANCH   4  17
TORSDOF 5
ENDMDL
