MODEL 1
REMARK VINA RESULT:      -5.8      0.000      0.000
REMARK  3 active torsions:
REMARK  status: ('A' for Active; 'I' for Inactive)
REMARK    1  A    between atoms: N_7  and  C_8 
REMARK    2  A    between atoms: C_8  and  C_9 
REMARK       I    between atoms: C_9  and  N_11 
REMARK    3  A    between atoms: N_11  and  C_12 
ROOT
HETATM    1  C   UNL     1     -41.001 -49.316  10.986  1.00  0.00     0.235 C 
ENDROOT
BRANCH   1   2
HETATM    2  N   UNL     1     -41.540 -47.976  10.769  1.00  0.00    -0.301 N 
HETATM    3  C   UNL     1     -42.832 -47.821  10.323  1.00  0.00     0.102 C 
HETATM    4  C   UNL     1     -43.350 -46.617  10.087  1.00  0.00     0.092 C 
HETATM    5  C   UNL     1     -42.507 -45.417  10.263  1.00  0.00     0.252 C 
HETATM    6  N   UNL     1     -41.210 -45.647  10.681  1.00  0.00    -0.271 N 
HETATM    7  O   UNL     1     -42.994 -44.315  10.023  1.00  0.00    -0.268 OA
HETATM    8  C   UNL     1     -40.296 -44.527  10.769  1.00  0.00     0.164 C 
HETATM    9  C   UNL     1     -40.711 -46.895  11.042  1.00  0.00     0.331 C 
HETATM   10  O   UNL     1     -39.602 -47.047  11.560  1.00  0.00    -0.246 OA
ENDBRANCH   1   2
BRANCH   1  11
HETATM   11  C   UNL     1     -41.527 -49.929  12.279  1.00  0.00     0.236 C 
HETATM   12  O   UNL     1     -41.089 -49.574  13.373  1.00  0.00    -0.272 OA
HETATM   13  N   UNL     1     -42.489 -50.918  12.127  1.00  0.00    -0.355 N 
HETATM   14  H   UNL     1     -42.548 -51.378  11.221  1.00  0.00     0.162 HD
BRANCH  13  15
HETATM   15  C   UNL     1     -43.043 -51.582  13.304  1.00  0.00     0.084 C 
HETATM   16  C   UNL     1     -43.071 -53.107  13.126  1.00  0.00     0.025 C 
HETATM   17  C   UNL     1     -44.323 -53.622  12.424  1.00  0.00     0.002 C 
HETATM   18  C   UNL     1     -45.583 -53.116  13.119  1.00  0.00     0.000 C 
HETATM   19  C   UNL     1     -45.621 -51.594  13.085  1.00  0.00     0.002 C 
HETATM   20  C   UNL     1     -44.389 -50.981  13.742  1.00  0.00     0.025 C 
ENDBRANCH  13  15
ENDBRANCH   1  11
TORSDOF 3
ENDMDL
MODEL 2
REMARK VINA RESULT:      -5.5      5.653      7.795
REMARK  3 active torsions:
REMARK  status: ('A' for Active; 'I' for Inactive)
REMARK    1  A    between atoms: N_7  and  C_8 
REMARK    2  A    between atoms: C_8  and  C_9 
REMARK       I    between atoms: C_9  and  N_11 
REMARK    3  A    between atoms: N_11  and  C_12 
ROOT
HETATM    1  C   UNL     1     -45.382 -54.644  14.368  1.00  0.00     0.235 C 
ENDROOT
BRANCH   1   2
HETATM    2  N   UNL     1     -45.982 -53.581  15.170  1.00  0.00    -0.301 N 
HETATM    3  C   UNL     1     -46.571 -52.504  14.549  1.00  0.00     0.102 C 
HETATM    4  C   UNL     1     -47.104 -51.502  15.245  1.00  0.00     0.092 C 
HETATM    5  C   UNL     1     -47.021 -51.517  16.720  1.00  0.00     0.252 C 
HETATM    6  N   UNL     1     -46.387 -52.611  17.276  1.00  0.00    -0.271 N 
HETATM    7  O   UNL     1     -47.500 -50.576  17.346  1.00  0.00    -0.268 OA
HETATM    8  C   UNL     1     -46.173 -52.640  18.709  1.00  0.00     0.164 C 
HETATM    9  C   UNL     1     -45.941 -53.713  16.552  1.00  0.00     0.331 C 
HETATM   10  O   UNL     1     -45.522 -54.741  17.090  1.00  0.00    -0.246 OA
ENDBRANCH   1   2
BRANCH   1  11
HETATM   11  C   UNL     1     -44.322 -54.099  13.418  1.00  0.00     0.236 C 
HETATM   12  O   UNL     1     -44.505 -54.092  12.201  1.00  0.00    -0.272 OA
HETATM   13  N   UNL     1     -43.150 -53.656  14.016  1.00  0.00    -0.355 N 
HETATM   14  H   UNL     1     -42.945 -53.997  14.953  1.00  0.00     0.162 HD
BRANCH  13  15
HETATM   15  C   UNL     1     -42.064 -53.134  13.191  1.00  0.00     0.084 C 
HETATM   16  C   UNL     1     -40.998 -54.206  12.922  1.00  0.00     0.025 C 
HETATM   17  C   UNL     1     -39.933 -54.301  14.010  1.00  0.00     0.002 C 
HETATM   18  C   UNL     1     -39.302 -52.938  14.274  1.00  0.00     0.000 C 
HETATM   19  C   UNL     1     -40.365 -51.954  14.746  1.00  0.00     0.002 C 
HETATM   20  C   UNL     1     -41.495 -51.812  13.732  1.00  0.00     0.025 C 
ENDBRANCH  13  15
ENDBRANCH   1  11
TORSDOF 3
ENDMDL
MODEL 3
REMARK VINA RESULT:      -5.5      1.447      1.955
REMARK  3 active torsions:
REMARK  status: ('A' for Active; 'I' for Inactive)
REMARK    1  A    between atoms: N_7  and  C_8 
REMARK    2  A    between atoms: C_8  and  C_9 
REMARK       I    between atoms: C_9  and  N_11 
REMARK    3  A    between atoms: N_11  and  C_12 
ROOT
HETATM    1  C   UNL     1     -41.845 -49.283  13.272  1.00  0.00     0.235 C 
ENDROOT
BRANCH   1   2
HETATM    2  N   UNL     1     -42.017 -48.248  12.255  1.00  0.00    -0.301 N 
HETATM    3  C   UNL     1     -43.210 -48.144  11.578  1.00  0.00     0.102 C 
HETATM    4  C   UNL     1     -43.396 -47.232  10.626  1.00  0.00     0.092 C 
HETATM    5  C   UNL     1     -42.282 -46.338  10.250  1.00  0.00     0.252 C 
HETATM    6  N   UNL     1     -41.102 -46.519  10.946  1.00  0.00    -0.271 N 
HETATM    7  O   UNL     1     -42.463 -45.516   9.356  1.00  0.00    -0.268 OA
HETATM    8  C   UNL     1     -39.937 -45.753  10.555  1.00  0.00     0.164 C 
HETATM    9  C   UNL     1     -40.950 -47.389  12.022  1.00  0.00     0.331 C 
HETATM   10  O   UNL     1     -39.936 -47.415  12.722  1.00  0.00    -0.246 OA
ENDBRANCH   1   2
BRANCH   1  11
HETATM   11  C   UNL     1     -41.856 -50.679  12.657  1.00  0.00     0.236 C 
HETATM   12  O   UNL     1     -41.070 -50.983  11.760  1.00  0.00    -0.272 OA
HETATM   13  N   UNL     1     -42.819 -51.545  13.153  1.00  0.00    -0.355 N 
HETATM   14  H   UNL     1     -43.620 -51.133  13.629  1.00  0.00     0.162 HD
BRANCH  13  15
HETATM   15  C   UNL     1     -42.926 -52.900  12.617  1.00  0.00     0.084 C 
HETATM   16  C   UNL     1     -44.392 -53.308  12.411  1.00  0.00     0.025 C 
HETATM   17  C   UNL     1     -45.046 -53.904  13.654  1.00  0.00     0.002 C 
HETATM   18  C   UNL     1     -44.216 -55.057  14.205  1.00  0.00     0.000 C 
HETATM   19  C   UNL     1     -42.830 -54.562  14.598  1.00  0.00     0.002 C 
HETATM   20  C   UNL     1     -42.103 -53.920  13.421  1.00  0.00     0.025 C 
ENDBRANCH  13  15
ENDBRANCH   1  11
TORSDOF 3
ENDMDL
MODEL 4
REMARK VINA RESULT:      -5.5      5.390      7.308
REMARK  3 active torsions:
REMARK  status: ('A' for Active; 'I' for Inactive)
REMARK    1  A    between atoms: N_7  and  C_8 
REMARK    2  A    between atoms: C_8  and  C_9 
REMARK       I    between atoms: C_9  and  N_11 
REMARK    3  A    between atoms: N_11  and  C_12 
ROOT
HETATM    1  C   UNL     1     -44.009 -53.816  12.595  1.00  0.00     0.235 C 
ENDROOT
BRANCH   1   2
HETATM    2  N   UNL     1     -44.971 -53.235  13.529  1.00  0.00    -0.301 N 
HETATM    3  C   UNL     1     -45.707 -52.134  13.157  1.00  0.00     0.102 C 
HETATM    4  C   UNL     1     -46.573 -51.559  13.989  1.00  0.00     0.092 C 
HETATM    5  C   UNL     1     -46.717 -52.082  15.363  1.00  0.00     0.252 C 
HETATM    6  N   UNL     1     -45.923 -53.167  15.680  1.00  0.00    -0.271 N 
HETATM    7  O   UNL     1     -47.505 -51.528  16.124  1.00  0.00    -0.268 OA
HETATM    8  C   UNL     1     -45.932 -53.664  17.041  1.00  0.00     0.164 C 
HETATM    9  C   UNL     1     -45.111 -53.840  14.771  1.00  0.00     0.331 C 
HETATM   10  O   UNL     1     -44.538 -54.898  15.042  1.00  0.00    -0.246 OA
ENDBRANCH   1   2
BRANCH   1  11
HETATM   11  C   UNL     1     -42.626 -53.195  12.756  1.00  0.00     0.236 C 
HETATM   12  O   UNL     1     -42.302 -52.195  12.116  1.00  0.00    -0.272 OA
HETATM   13  N   UNL     1     -41.772 -53.849  13.633  1.00  0.00    -0.355 N 
HETATM   14  H   UNL     1     -41.983 -54.821  13.854  1.00  0.00     0.162 HD
BRANCH  13  15
HETATM   15  C   UNL     1     -40.418 -53.346  13.842  1.00  0.00     0.084 C 
HETATM   16  C   UNL     1     -39.397 -54.491  13.911  1.00  0.00     0.025 C 
HETATM   17  C   UNL     1     -39.235 -55.089  15.304  1.00  0.00     0.002 C 
HETATM   18  C   UNL     1     -38.927 -54.003  16.329  1.00  0.00     0.000 C 
HETATM   19  C   UNL     1     -40.070 -52.997  16.383  1.00  0.00     0.002 C 
HETATM   20  C   UNL     1     -40.329 -52.362  15.021  1.00  0.00     0.025 C 
ENDBRANCH  13  15
ENDBRANCH   1  11
TORSDOF 3
ENDMDL
MODEL 5
REMARK VINA RESULT:      -5.4      3.516      5.121
REMARK  3 active torsions:
REMARK  status: ('A' for Active; 'I' for Inactive)
REMARK    1  A    between atoms: N_7  and  C_8 
REMARK    2  A    between atoms: C_8  and  C_9 
REMARK       I    between atoms: C_9  and  N_11 
REMARK    3  A    between atoms: N_11  and  C_12 
ROOT
HETATM    1  C   UNL     1     -40.838 -54.238  13.346  1.00  0.00     0.235 C 
ENDROOT
BRANCH   1   2
HETATM    2  N   UNL     1     -40.163 -52.943  13.320  1.00  0.00    -0.301 N 
HETATM    3  C   UNL     1     -39.156 -52.677  14.218  1.00  0.00     0.102 C 
HETATM    4  C   UNL     1     -38.535 -51.499  14.244  1.00  0.00     0.092 C 
HETATM    5  C   UNL     1     -38.966 -50.431  13.319  1.00  0.00     0.252 C 
HETATM    6  N   UNL     1     -40.006 -50.754  12.467  1.00  0.00    -0.271 N 
HETATM    7  O   UNL     1     -38.397 -49.344  13.369  1.00  0.00    -0.268 OA
HETATM    8  C   UNL     1     -40.552 -49.723  11.610  1.00  0.00     0.164 C 
HETATM    9  C   UNL     1     -40.567 -52.023  12.360  1.00  0.00     0.331 C 
HETATM   10  O   UNL     1     -41.383 -52.322  11.484  1.00  0.00    -0.246 OA
ENDBRANCH   1   2
BRANCH   1  11
HETATM   11  C   UNL     1     -42.053 -54.218  14.268  1.00  0.00     0.236 C 
HETATM   12  O   UNL     1     -42.010 -54.734  15.384  1.00  0.00    -0.272 OA
HETATM   13  N   UNL     1     -43.191 -53.618  13.748  1.00  0.00    -0.355 N 
HETATM   14  H   UNL     1     -43.250 -53.525  12.736  1.00  0.00     0.162 HD
BRANCH  13  15
HETATM   15  C   UNL     1     -44.414 -53.565  14.544  1.00  0.00     0.084 C 
HETATM   16  C   UNL     1     -45.658 -53.812  13.678  1.00  0.00     0.025 C 
HETATM   17  C   UNL     1     -46.207 -52.553  13.015  1.00  0.00     0.002 C 
HETATM   18  C   UNL     1     -46.452 -51.458  14.046  1.00  0.00     0.000 C 
HETATM   19  C   UNL     1     -45.145 -51.090  14.737  1.00  0.00     0.002 C 
HETATM   20  C   UNL     1     -44.501 -52.297  15.410  1.00  0.00     0.025 C 
ENDBRANCH  13  15
ENDBRANCH   1  11
TORSDOF 3
ENDMDL
MODEL 6
REMARK VINA RESULT:      -5.4      5.066      6.422
REMARK  3 active torsions:
REMARK  status: ('A' for Active; 'I' for Inactive)
REMARK    1  A    between atoms: N_7  and  C_8 
REMARK    2  A    between atoms: C_8  and  C_9 
REMARK       I    between atoms: C_9  and  N_11 
REMARK    3  A    between atoms: N_11  and  C_12 
ROOT
HETATM    1  C   UNL     1     -42.053 -54.231  16.492  1.00  0.00     0.235 C 
ENDROOT
BRANCH   1   2
HETATM    2  N   UNL     1     -41.054 -53.644  15.602  1.00  0.00    -0.301 N 
HETATM    3  C   UNL     1     -40.235 -54.461  14.858  1.00  0.00     0.102 C 
HETATM    4  C   UNL     1     -39.294 -53.964  14.057  1.00  0.00     0.092 C 
HETATM    5  C   UNL     1     -39.089 -52.503  13.997  1.00  0.00     0.252 C 
HETATM    6  N   UNL     1     -39.923 -51.744  14.796  1.00  0.00    -0.271 N 
HETATM    7  O   UNL     1     -38.204 -52.062  13.269  1.00  0.00    -0.268 OA
HETATM    8  C   UNL     1     -39.707 -50.314  14.870  1.00  0.00     0.164 C 
HETATM    9  C   UNL     1     -40.983 -52.258  15.536  1.00  0.00     0.331 C 
HETATM   10  O   UNL     1     -41.806 -51.542  16.112  1.00  0.00    -0.246 OA
ENDBRANCH   1   2
BRANCH   1  11
HETATM   11  C   UNL     1     -43.331 -54.588  15.740  1.00  0.00     0.236 C 
HETATM   12  O   UNL     1     -43.534 -55.734  15.343  1.00  0.00    -0.272 OA
HETATM   13  N   UNL     1     -44.209 -53.536  15.517  1.00  0.00    -0.355 N 
HETATM   14  H   UNL     1     -43.832 -52.592  15.571  1.00  0.00     0.162 HD
BRANCH  13  15
HETATM   15  C   UNL     1     -45.453 -53.769  14.788  1.00  0.00     0.084 C 
HETATM   16  C   UNL     1     -45.232 -53.725  13.270  1.00  0.00     0.025 C 
HETATM   17  C   UNL     1     -45.315 -52.322  12.676  1.00  0.00     0.002 C 
HETATM   18  C   UNL     1     -46.621 -51.642  13.071  1.00  0.00     0.000 C 
HETATM   19  C   UNL     1     -46.704 -51.513  14.586  1.00  0.00     0.002 C 
HETATM   20  C   UNL     1     -46.600 -52.869  15.276  1.00  0.00     0.025 C 
ENDBRANCH  13  15
ENDBRANCH   1  11
TORSDOF 3
ENDMDL
MODEL 7
REMARK VINA RESULT:      -5.4      3.209      7.179
REMARK  3 active torsions:
REMARK  status: ('A' for Active; 'I' for Inactive)
REMARK    1  A    between atoms: N_7  and  C_8 
REMARK    2  A    between atoms: C_8  and  C_9 
REMARK       I    between atoms: C_9  and  N_11 
REMARK    3  A    between atoms: N_11  and  C_12 
ROOT
HETATM    1  C   UNL     1     -41.217 -53.209  11.817  1.00  0.00     0.235 C 
ENDROOT
BRANCH   1   2
HETATM    2  N   UNL     1     -41.901 -53.703  13.009  1.00  0.00    -0.301 N 
HETATM    3  C   UNL     1     -41.168 -54.164  14.078  1.00  0.00     0.102 C 
HETATM    4  C   UNL     1     -41.754 -54.647  15.171  1.00  0.00     0.092 C 
HETATM    5  C   UNL     1     -43.227 -54.738  15.225  1.00  0.00     0.252 C 
HETATM    6  N   UNL     1     -43.900 -54.290  14.104  1.00  0.00    -0.271 N 
HETATM    7  O   UNL     1     -43.752 -55.204  16.233  1.00  0.00    -0.268 OA
HETATM    8  C   UNL     1     -45.338 -54.449  14.043  1.00  0.00     0.164 C 
HETATM    9  C   UNL     1     -43.290 -53.673  13.016  1.00  0.00     0.331 C 
HETATM   10  O   UNL     1     -43.928 -53.142  12.104  1.00  0.00    -0.246 OA
ENDBRANCH   1   2
BRANCH   1  11
HETATM   11  C   UNL     1     -40.679 -51.798  12.024  1.00  0.00     0.236 C 
HETATM   12  O   UNL     1     -39.548 -51.610  12.472  1.00  0.00    -0.272 OA
HETATM   13  N   UNL     1     -41.554 -50.769  11.708  1.00  0.00    -0.355 N 
HETATM   14  H   UNL     1     -42.547 -50.993  11.671  1.00  0.00     0.162 HD
BRANCH  13  15
HETATM   15  C   UNL     1     -41.142 -49.380  11.891  1.00  0.00     0.084 C 
HETATM   16  C   UNL     1     -41.532 -48.856  13.280  1.00  0.00     0.025 C 
HETATM   17  C   UNL     1     -42.948 -48.293  13.351  1.00  0.00     0.002 C 
HETATM   18  C   UNL     1     -43.168 -47.238  12.273  1.00  0.00     0.000 C 
HETATM   19  C   UNL     1     -42.979 -47.854  10.893  1.00  0.00     0.002 C 
HETATM   20  C   UNL     1     -41.594 -48.473  10.734  1.00  0.00     0.025 C 
ENDBRANCH  13  15
ENDBRANCH   1  11
TORSDOF 3
ENDMDL
MODEL 8
REMARK VINA RESULT:      -5.3      4.753      7.562
REMARK  3 active torsions:
REMARK  status: ('A' for Active; 'I' for Inactive)
REMARK    1  A    between atoms: N_7  and  C_8 
REMARK    2  A    between atoms: C_8  and  C_9 
REMARK       I    between atoms: C_9  and  N_11 
REMARK    3  A    between atoms: N_11  and  C_12 
ROOT
HETATM    1  C   UNL     1     -41.016 -54.157  14.901  1.00  0.00     0.235 C 
ENDROOT
BRANCH   1   2
HETATM    2  N   UNL     1     -42.225 -53.923  14.115  1.00  0.00    -0.301 N 
HETATM    3  C   UNL     1     -42.222 -52.975  13.118  1.00  0.00     0.102 C 
HETATM    4  C   UNL     1     -43.311 -52.714  12.399  1.00  0.00     0.092 C 
HETATM    5  C   UNL     1     -44.571 -53.421  12.705  1.00  0.00     0.252 C 
HETATM    6  N   UNL     1     -44.512 -54.335  13.741  1.00  0.00    -0.271 N 
HETATM    7  O   UNL     1     -45.572 -53.155  12.046  1.00  0.00    -0.268 OA
HETATM    8  C   UNL     1     -45.734 -54.985  14.167  1.00  0.00     0.164 C 
HETATM    9  C   UNL     1     -43.344 -54.693  14.407  1.00  0.00     0.331 C 
HETATM   10  O   UNL     1     -43.294 -55.623  15.216  1.00  0.00    -0.246 OA
ENDBRANCH   1   2
BRANCH   1  11
HETATM   11  C   UNL     1     -39.790 -53.539  14.239  1.00  0.00     0.236 C 
HETATM   12  O   UNL     1     -39.037 -54.217  13.540  1.00  0.00    -0.272 OA
HETATM   13  N   UNL     1     -39.576 -52.195  14.508  1.00  0.00    -0.355 N 
HETATM   14  H   UNL     1     -40.027 -51.805  15.333  1.00  0.00     0.162 HD
BRANCH  13  15
HETATM   15  C   UNL     1     -38.417 -51.513  13.938  1.00  0.00     0.084 C 
HETATM   16  C   UNL     1     -37.761 -50.571  14.959  1.00  0.00     0.025 C 
HETATM   17  C   UNL     1     -38.380 -49.178  14.997  1.00  0.00     0.002 C 
HETATM   18  C   UNL     1     -38.413 -48.559  13.605  1.00  0.00     0.000 C 
HETATM   19  C   UNL     1     -39.255 -49.418  12.671  1.00  0.00     0.002 C 
HETATM   20  C   UNL     1     -38.728 -50.847  12.588  1.00  0.00     0.025 C 
ENDBRANCH  13  15
ENDBRANCH   1  11
TORSDOF 3
ENDMDL
MODEL 9
REMARK VINA RESULT:      -5.3      6.337      8.688
REMARK  3 active torsions:
REMARK  status: ('A' for Active; 'I' for Inactive)
REMARK    1  A    between atoms: N_7  and  C_8 
REMARK    2  A    between atoms: C_8  and  C_9 
REMARK       I    between atoms: C_9  and  N_11 
REMARK    3  A    between atoms: N_11  and  C_12 
ROOT
HETATM    1  C   UNL     1     -43.206 -53.637  17.744  1.00  0.00     0.235 C 
ENDROOT
BRANCH   1   2
HETATM    2  N   UNL     1     -42.178 -54.639  17.477  1.00  0.00    -0.301 N 
HETATM    3  C   UNL     1     -42.085 -55.755  18.276  1.00  0.00     0.102 C 
HETATM    4  C   UNL     1     -41.145 -56.677  18.082  1.00  0.00     0.092 C 
HETATM    5  C   UNL     1     -40.143 -56.480  17.015  1.00  0.00     0.252 C 
HETATM    6  N   UNL     1     -40.274 -55.321  16.273  1.00  0.00    -0.271 N 
HETATM    7  O   UNL     1     -39.270 -57.329  16.861  1.00  0.00    -0.268 OA
HETATM    8  C   UNL     1     -39.264 -55.009  15.283  1.00  0.00     0.164 C 
HETATM    9  C   UNL     1     -41.329 -54.423  16.399  1.00  0.00     0.331 C 
HETATM   10  O   UNL     1     -41.505 -53.483  15.619  1.00  0.00    -0.246 OA
ENDBRANCH   1   2
BRANCH   1  11
HETATM   11  C   UNL     1     -44.504 -53.958  17.010  1.00  0.00     0.236 C 
HETATM   12  O   UNL     1     -45.347 -54.703  17.509  1.00  0.00    -0.272 OA
HETATM   13  N   UNL     1     -44.641 -53.385  15.753  1.00  0.00    -0.355 N 
HETATM   14  H   UNL     1     -43.791 -53.074  15.286  1.00  0.00     0.162 HD
BRANCH  13  15
HETATM   15  C   UNL     1     -45.838 -53.647  14.960  1.00  0.00     0.084 C 
HETATM   16  C   UNL     1     -45.482 -54.079  13.530  1.00  0.00     0.025 C 
HETATM   17  C   UNL     1     -45.275 -52.914  12.568  1.00  0.00     0.002 C 
HETATM   18  C   UNL     1     -46.475 -51.974  12.586  1.00  0.00     0.000 C 
HETATM   19  C   UNL     1     -46.667 -51.398  13.983  1.00  0.00     0.002 C 
HETATM   20  C   UNL     1     -46.854 -52.494  15.027  1.00  0.00     0.025 C 
ENDBRANCH  13  15
ENDBRANCH   1  11
TORSDOF 3
ENDMDL
