MODEL 1
REMARK VINA RESULT:      -5.7      0.000      0.000
REMARK  1 active torsions:
REMARK  status: ('A' for Active; 'I' for Inactive)
REMARK       I    between atoms: N_8  and  C_9 
REMARK       I    between atoms: C_9  and  N_11 
REMARK    1  A    between atoms: N_11  and  C_12 
ROOT
HETATM    1  C   UNL     1     -46.344 -47.626   8.746  1.00  0.00     0.078 C 
HETATM    2  C   UNL     1     -45.043 -47.461   9.432  1.00  0.00     0.066 A 
HETATM    3  N   UNL     1     -44.659 -48.187  10.460  1.00  0.00    -0.296 N 
ATOM      4  HN  UNL     1     -45.242 -48.891  10.913  1.00  0.00     0.187 HD
HETATM    5  N   UNL     1     -43.383 -47.883  10.849  1.00  0.00    -0.279 N 
ATOM      6  HN  UNL     1     -42.901 -48.337  11.625  1.00  0.00     0.189 HD
HETATM    7  C   UNL     1     -42.848 -46.937  10.106  1.00  0.00     0.169 A 
HETATM    8  N   UNL     1     -41.574 -46.453  10.174  1.00  0.00    -0.288 N 
HETATM    9  C   UNL     1     -40.578 -47.035  10.913  1.00  0.00     0.322 C 
HETATM   10  O   UNL     1     -39.474 -46.508  10.975  1.00  0.00    -0.247 OA
HETATM   11  N   UNL     1     -40.877 -48.236  11.490  1.00  0.00    -0.332 N 
HETATM   12  S   UNL     1     -43.878 -46.297   8.914  1.00  0.00    -0.038 SA
HETATM   13  H   UNL     1     -41.316 -45.651   9.620  1.00  0.00     0.172 HD
HETATM   14  H   UNL     1     -41.869 -48.449  11.570  1.00  0.00     0.165 HD
ENDROOT
BRANCH  11  15
HETATM   15  C   UNL     1     -39.973 -49.074  12.268  1.00  0.00     0.054 C 
HETATM   16  C   UNL     1     -39.843 -48.554  13.707  1.00  0.00     0.041 C 
HETATM   17  C   UNL     1     -38.591 -49.105  11.611  1.00  0.00     0.059 C 
HETATM   18  C   UNL     1     -38.065 -50.503  11.875  1.00  0.00     0.170 C 
HETATM   19  O   UNL     1     -39.137 -51.291  12.400  1.00  0.00    -0.389 OA
HETATM   20  C   UNL     1     -40.355 -50.552  12.230  1.00  0.00     0.198 C 
ENDBRANCH  11  15
TORSDOF 1
ENDMDL
MODEL 2
REMARK VINA RESULT:      -5.7      3.010      4.184
REMARK  1 active torsions:
REMARK  status: ('A' for Active; 'I' for Inactive)
REMARK       I    between atoms: N_8  and  C_9 
REMARK       I    between atoms: C_9  and  N_11 
REMARK    1  A    between atoms: N_11  and  C_12 
ROOT
HETATM    1  C   UNL     1     -46.364 -48.634   8.188  1.00  0.00     0.078 C 
HETATM    2  C   UNL     1     -45.276 -47.812   8.763  1.00  0.00     0.066 A 
HETATM    3  N   UNL     1     -45.397 -47.101   9.864  1.00  0.00    -0.296 N 
ATOM      4  HN  UNL     1     -46.265 -47.006  10.391  1.00  0.00     0.187 HD
HETATM    5  N   UNL     1     -44.218 -46.503  10.215  1.00  0.00    -0.279 N 
ATOM      6  HN  UNL     1     -44.103 -45.912  11.039  1.00  0.00     0.189 HD
HETATM    7  C   UNL     1     -43.248 -46.777   9.368  1.00  0.00     0.169 A 
HETATM    8  N   UNL     1     -41.938 -46.407   9.462  1.00  0.00    -0.288 N 
HETATM    9  C   UNL     1     -41.385 -45.847  10.583  1.00  0.00     0.322 C 
HETATM   10  O   UNL     1     -40.215 -45.483  10.573  1.00  0.00    -0.247 OA
HETATM   11  N   UNL     1     -42.182 -45.799  11.690  1.00  0.00    -0.332 N 
HETATM   12  S   UNL     1     -43.710 -47.736   8.041  1.00  0.00    -0.038 SA
HETATM   13  H   UNL     1     -41.313 -46.589   8.692  1.00  0.00     0.172 HD
HETATM   14  H   UNL     1     -43.181 -45.903  11.517  1.00  0.00     0.165 HD
ENDROOT
BRANCH  11  15
HETATM   15  C   UNL     1     -41.806 -45.309  13.011  1.00  0.00     0.054 C 
HETATM   16  C   UNL     1     -40.703 -46.183  13.627  1.00  0.00     0.041 C 
HETATM   17  C   UNL     1     -43.025 -45.302  13.935  1.00  0.00     0.059 C 
HETATM   18  C   UNL     1     -42.826 -44.097  14.835  1.00  0.00     0.170 C 
HETATM   19  O   UNL     1     -41.739 -43.327  14.315  1.00  0.00    -0.389 OA
HETATM   20  C   UNL     1     -41.424 -43.830  13.009  1.00  0.00     0.198 C 
ENDBRANCH  11  15
TORSDOF 1
ENDMDL
MODEL 3
REMARK VINA RESULT:      -5.7      3.585      4.812
REMARK  1 active torsions:
REMARK  status: ('A' for Active; 'I' for Inactive)
REMARK       I    between atoms: N_8  and  C_9 
REMARK       I    between atoms: C_9  and  N_11 
REMARK    1  A    between atoms: N_11  and  C_12 
ROOT
HETATM    1  C   UNL     1     -46.038 -47.961   8.512  1.00  0.00     0.078 C 
HETATM    2  C   UNL     1     -44.874 -47.143   8.919  1.00  0.00     0.066 A 
HETATM    3  N   UNL     1     -44.970 -45.954   9.472  1.00  0.00    -0.296 N 
ATOM      4  HN  UNL     1     -45.851 -45.462   9.621  1.00  0.00     0.187 HD
HETATM    5  N   UNL     1     -43.745 -45.456   9.824  1.00  0.00    -0.279 N 
ATOM      6  HN  UNL     1     -43.607 -44.548  10.269  1.00  0.00     0.189 HD
HETATM    7  C   UNL     1     -42.766 -46.281   9.521  1.00  0.00     0.169 A 
HETATM    8  N   UNL     1     -41.439 -46.129   9.800  1.00  0.00    -0.288 N 
HETATM    9  C   UNL     1     -40.944 -45.162  10.635  1.00  0.00     0.322 C 
HETATM   10  O   UNL     1     -39.735 -45.047  10.789  1.00  0.00    -0.247 OA
HETATM   11  N   UNL     1     -41.867 -44.417  11.310  1.00  0.00    -0.332 N 
HETATM   12  S   UNL     1     -43.253 -47.705   8.727  1.00  0.00    -0.038 SA
HETATM   13  H   UNL     1     -40.772 -46.782   9.420  1.00  0.00     0.172 HD
HETATM   14  H   UNL     1     -42.812 -44.437  10.929  1.00  0.00     0.165 HD
ENDROOT
BRANCH  11  15
HETATM   15  C   UNL     1     -41.592 -43.376  12.293  1.00  0.00     0.054 C 
HETATM   16  C   UNL     1     -42.894 -42.733  12.792  1.00  0.00     0.041 C 
HETATM   17  C   UNL     1     -40.695 -42.299  11.679  1.00  0.00     0.059 C 
HETATM   18  C   UNL     1     -39.812 -41.830  12.820  1.00  0.00     0.170 C 
HETATM   19  O   UNL     1     -39.991 -42.726  13.920  1.00  0.00    -0.389 OA
HETATM   20  C   UNL     1     -40.721 -43.867  13.448  1.00  0.00     0.198 C 
ENDBRANCH  11  15
TORSDOF 1
ENDMDL
MODEL 4
REMARK VINA RESULT:      -5.5      2.925      5.487
REMARK  1 active torsions:
REMARK  status: ('A' for Active; 'I' for Inactive)
REMARK       I    between atoms: N_8  and  C_9 
REMARK       I    between atoms: C_9  and  N_11 
REMARK    1  A    between atoms: N_11  and  C_12 
ROOT
HETATM    1  C   UNL     1     -41.263 -54.046  12.950  1.00  0.00     0.078 C 
HETATM    2  C   UNL     1     -41.071 -52.653  12.488  1.00  0.00     0.066 A 
HETATM    3  N   UNL     1     -41.935 -52.002  11.740  1.00  0.00    -0.296 N 
ATOM      4  HN  UNL     1     -42.789 -52.414  11.362  1.00  0.00     0.187 HD
HETATM    5  N   UNL     1     -41.550 -50.707  11.527  1.00  0.00    -0.279 N 
ATOM      6  HN  UNL     1     -42.086 -50.037  10.975  1.00  0.00     0.189 HD
HETATM    7  C   UNL     1     -40.408 -50.423  12.118  1.00  0.00     0.169 A 
HETATM    8  N   UNL     1     -39.782 -49.212  12.170  1.00  0.00    -0.288 N 
HETATM    9  C   UNL     1     -40.366 -48.037  11.775  1.00  0.00     0.322 C 
HETATM   10  O   UNL     1     -39.720 -46.996  11.793  1.00  0.00    -0.247 OA
HETATM   11  N   UNL     1     -41.689 -48.101  11.444  1.00  0.00    -0.332 N 
HETATM   12  S   UNL     1     -39.680 -51.730  12.927  1.00  0.00    -0.038 SA
HETATM   13  H   UNL     1     -38.856 -49.146  12.563  1.00  0.00     0.172 HD
HETATM   14  H   UNL     1     -42.045 -49.033  11.239  1.00  0.00     0.165 HD
ENDROOT
BRANCH  11  15
HETATM   15  C   UNL     1     -42.541 -46.985  11.054  1.00  0.00     0.054 C 
HETATM   16  C   UNL     1     -42.988 -46.178  12.282  1.00  0.00     0.041 C 
HETATM   17  C   UNL     1     -43.773 -47.502  10.308  1.00  0.00     0.059 C 
HETATM   18  C   UNL     1     -44.077 -46.436   9.271  1.00  0.00     0.170 C 
HETATM   19  O   UNL     1     -42.979 -45.521   9.238  1.00  0.00    -0.389 OA
HETATM   20  C   UNL     1     -41.901 -46.094   9.991  1.00  0.00     0.198 C 
ENDBRANCH  11  15
TORSDOF 1
ENDMDL
MODEL 5
REMARK VINA RESULT:      -5.5      6.241      8.104
REMARK  1 active torsions:
REMARK  status: ('A' for Active; 'I' for Inactive)
REMARK       I    between atoms: N_8  and  C_9 
REMARK       I    between atoms: C_9  and  N_11 
REMARK    1  A    between atoms: N_11  and  C_12 
ROOT
HETATM    1  C   UNL     1     -38.673 -51.948  13.754  1.00  0.00     0.078 C 
HETATM    2  C   UNL     1     -40.086 -52.361  13.597  1.00  0.00     0.066 A 
HETATM    3  N   UNL     1     -40.834 -52.807  14.582  1.00  0.00    -0.296 N 
ATOM      4  HN  UNL     1     -40.496 -52.962  15.532  1.00  0.00     0.187 HD
HETATM    5  N   UNL     1     -42.121 -53.040  14.178  1.00  0.00    -0.279 N 
ATOM      6  HN  UNL     1     -42.857 -53.386  14.795  1.00  0.00     0.189 HD
HETATM    7  C   UNL     1     -42.300 -52.767  12.904  1.00  0.00     0.169 A 
HETATM    8  N   UNL     1     -43.471 -52.815  12.204  1.00  0.00    -0.288 N 
HETATM    9  C   UNL     1     -44.700 -52.967  12.789  1.00  0.00     0.322 C 
HETATM   10  O   UNL     1     -45.702 -53.064  12.091  1.00  0.00    -0.247 OA
HETATM   11  N   UNL     1     -44.729 -52.929  14.153  1.00  0.00    -0.332 N 
HETATM   12  S   UNL     1     -40.901 -52.263  12.078  1.00  0.00    -0.038 SA
HETATM   13  H   UNL     1     -43.459 -52.686  11.204  1.00  0.00     0.172 HD
HETATM   14  H   UNL     1     -43.835 -53.085  14.615  1.00  0.00     0.165 HD
ENDROOT
BRANCH  11  15
HETATM   15  C   UNL     1     -45.913 -53.008  14.999  1.00  0.00     0.054 C 
HETATM   16  C   UNL     1     -46.699 -54.299  14.726  1.00  0.00     0.041 C 
HETATM   17  C   UNL     1     -46.817 -51.799  14.748  1.00  0.00     0.059 C 
HETATM   18  C   UNL     1     -47.439 -51.490  16.097  1.00  0.00     0.170 C 
HETATM   19  O   UNL     1     -46.765 -52.269  17.088  1.00  0.00    -0.389 OA
HETATM   20  C   UNL     1     -45.595 -52.839  16.483  1.00  0.00     0.198 C 
ENDBRANCH  11  15
TORSDOF 1
ENDMDL
MODEL 6
REMARK VINA RESULT:      -5.4      4.102      5.662
REMARK  1 active torsions:
REMARK  status: ('A' for Active; 'I' for Inactive)
REMARK       I    between atoms: N_8  and  C_9 
REMARK       I    between atoms: C_9  and  N_11 
REMARK    1  A    between atoms: N_11  and  C_12 
ROOT
HETATM    1  C   UNL     1     -45.307 -55.064  13.788  1.00  0.00     0.078 C 
HETATM    2  C   UNL     1     -44.381 -54.062  13.214  1.00  0.00     0.066 A 
HETATM    3  N   UNL     1     -44.773 -52.984  12.570  1.00  0.00    -0.296 N 
ATOM      4  HN  UNL     1     -45.747 -52.767  12.358  1.00  0.00     0.187 HD
HETATM    5  N   UNL     1     -43.717 -52.190  12.217  1.00  0.00    -0.279 N 
ATOM      6  HN  UNL     1     -43.812 -51.307  11.714  1.00  0.00     0.189 HD
HETATM    7  C   UNL     1     -42.564 -52.695  12.602  1.00  0.00     0.169 A 
HETATM    8  N   UNL     1     -41.329 -52.126  12.478  1.00  0.00    -0.288 N 
HETATM    9  C   UNL     1     -41.126 -50.824  12.104  1.00  0.00     0.322 C 
HETATM   10  O   UNL     1     -39.986 -50.401  11.954  1.00  0.00    -0.247 OA
HETATM   11  N   UNL     1     -42.242 -50.047  11.990  1.00  0.00    -0.332 N 
HETATM   12  S   UNL     1     -42.668 -54.209  13.369  1.00  0.00    -0.038 SA
HETATM   13  H   UNL     1     -40.508 -52.662  12.715  1.00  0.00     0.172 HD
HETATM   14  H   UNL     1     -43.122 -50.553  11.903  1.00  0.00     0.165 HD
ENDROOT
BRANCH  11  15
HETATM   15  C   UNL     1     -42.282 -48.626  11.667  1.00  0.00     0.054 C 
HETATM   16  C   UNL     1     -41.734 -47.783  12.828  1.00  0.00     0.041 C 
HETATM   17  C   UNL     1     -43.719 -48.198  11.361  1.00  0.00     0.059 C 
HETATM   18  C   UNL     1     -43.589 -47.134  10.288  1.00  0.00     0.170 C 
HETATM   19  O   UNL     1     -42.236 -47.131   9.825  1.00  0.00    -0.389 OA
HETATM   20  C   UNL     1     -41.585 -48.298  10.348  1.00  0.00     0.198 C 
ENDBRANCH  11  15
TORSDOF 1
ENDMDL
MODEL 7
REMARK VINA RESULT:      -5.4      4.798      6.481
REMARK  1 active torsions:
REMARK  status: ('A' for Active; 'I' for Inactive)
REMARK       I    between atoms: N_8  and  C_9 
REMARK       I    between atoms: C_9  and  N_11 
REMARK    1  A    between atoms: N_11  and  C_12 
ROOT
HETATM    1  C   UNL     1     -38.383 -49.807  11.276  1.00  0.00     0.078 C 
HETATM    2  C   UNL     1     -39.776 -49.944  11.757  1.00  0.00     0.066 A 
HETATM    3  N   UNL     1     -40.676 -50.717  11.189  1.00  0.00    -0.296 N 
ATOM      4  HN  UNL     1     -40.515 -51.251  10.335  1.00  0.00     0.187 HD
HETATM    5  N   UNL     1     -41.855 -50.719  11.883  1.00  0.00    -0.279 N 
ATOM      6  HN  UNL     1     -42.677 -51.259  11.607  1.00  0.00     0.189 HD
HETATM    7  C   UNL     1     -41.809 -49.946  12.946  1.00  0.00     0.169 A 
HETATM    8  N   UNL     1     -42.779 -49.779  13.891  1.00  0.00    -0.288 N 
HETATM    9  C   UNL     1     -43.897 -50.566  13.980  1.00  0.00     0.322 C 
HETATM   10  O   UNL     1     -44.756 -50.318  14.817  1.00  0.00    -0.247 OA
HETATM   11  N   UNL     1     -43.942 -51.647  13.148  1.00  0.00    -0.332 N 
HETATM   12  S   UNL     1     -40.345 -49.104  13.154  1.00  0.00    -0.038 SA
HETATM   13  H   UNL     1     -42.665 -49.075  14.603  1.00  0.00     0.172 HD
HETATM   14  H   UNL     1     -43.307 -51.615  12.352  1.00  0.00     0.165 HD
ENDROOT
BRANCH  11  15
HETATM   15  C   UNL     1     -44.989 -52.660  13.096  1.00  0.00     0.054 C 
HETATM   16  C   UNL     1     -46.234 -52.127  12.372  1.00  0.00     0.041 C 
HETATM   17  C   UNL     1     -45.371 -53.092  14.514  1.00  0.00     0.059 C 
HETATM   18  C   UNL     1     -45.709 -54.566  14.395  1.00  0.00     0.170 C 
HETATM   19  O   UNL     1     -45.310 -55.012  13.096  1.00  0.00    -0.389 OA
HETATM   20  C   UNL     1     -44.507 -53.982  12.501  1.00  0.00     0.198 C 
ENDBRANCH  11  15
TORSDOF 1
ENDMDL
MODEL 8
REMARK VINA RESULT:      -5.4      4.123      4.959
REMARK  1 active torsions:
REMARK  status: ('A' for Active; 'I' for Inactive)
REMARK       I    between atoms: N_8  and  C_9 
REMARK       I    between atoms: C_9  and  N_11 
REMARK    1  A    between atoms: N_11  and  C_12 
ROOT
HETATM    1  C   UNL     1     -46.763 -51.597  13.142  1.00  0.00     0.078 C 
HETATM    2  C   UNL     1     -45.311 -51.790  12.930  1.00  0.00     0.066 A 
HETATM    3  N   UNL     1     -44.449 -50.803  12.813  1.00  0.00    -0.296 N 
ATOM      4  HN  UNL     1     -44.707 -49.816  12.802  1.00  0.00     0.187 HD
HETATM    5  N   UNL     1     -43.164 -51.261  12.707  1.00  0.00    -0.279 N 
ATOM      6  HN  UNL     1     -42.350 -50.653  12.611  1.00  0.00     0.189 HD
HETATM    7  C   UNL     1     -43.099 -52.574  12.743  1.00  0.00     0.169 A 
HETATM    8  N   UNL     1     -41.974 -53.347  12.737  1.00  0.00    -0.288 N 
HETATM    9  C   UNL     1     -40.708 -52.848  12.898  1.00  0.00     0.322 C 
HETATM   10  O   UNL     1     -39.741 -53.596  12.820  1.00  0.00    -0.247 OA
HETATM   11  N   UNL     1     -40.617 -51.523  13.214  1.00  0.00    -0.332 N 
HETATM   12  S   UNL     1     -44.603 -53.362  12.846  1.00  0.00    -0.038 SA
HETATM   13  H   UNL     1     -42.058 -54.349  12.659  1.00  0.00     0.172 HD
HETATM   14  H   UNL     1     -41.447 -50.967  13.017  1.00  0.00     0.165 HD
ENDROOT
BRANCH  11  15
HETATM   15  C   UNL     1     -39.395 -50.779  13.492  1.00  0.00     0.054 C 
HETATM   16  C   UNL     1     -38.664 -51.359  14.713  1.00  0.00     0.041 C 
HETATM   17  C   UNL     1     -39.724 -49.307  13.747  1.00  0.00     0.059 C 
HETATM   18  C   UNL     1     -38.545 -48.539  13.179  1.00  0.00     0.170 C 
HETATM   19  O   UNL     1     -37.737 -49.452  12.431  1.00  0.00    -0.389 OA
HETATM   20  C   UNL     1     -38.475 -50.673  12.277  1.00  0.00     0.198 C 
ENDBRANCH  11  15
TORSDOF 1
ENDMDL
MODEL 9
REMARK VINA RESULT:      -5.4      2.215      3.219
REMARK  1 active torsions:
REMARK  status: ('A' for Active; 'I' for Inactive)
REMARK       I    between atoms: N_8  and  C_9 
REMARK       I    between atoms: C_9  and  N_11 
REMARK    1  A    between atoms: N_11  and  C_12 
ROOT
HETATM    1  C   UNL     1     -45.333 -46.218   8.845  1.00  0.00     0.078 C 
HETATM    2  C   UNL     1     -44.324 -46.985   9.609  1.00  0.00     0.066 A 
HETATM    3  N   UNL     1     -44.613 -47.761  10.631  1.00  0.00    -0.296 N 
ATOM      4  HN  UNL     1     -45.548 -47.864  11.027  1.00  0.00     0.187 HD
HETATM    5  N   UNL     1     -43.506 -48.415  11.101  1.00  0.00    -0.279 N 
ATOM      6  HN  UNL     1     -43.521 -49.065  11.887  1.00  0.00     0.189 HD
HETATM    7  C   UNL     1     -42.421 -48.108  10.423  1.00  0.00     0.169 A 
HETATM    8  N   UNL     1     -41.171 -48.634  10.580  1.00  0.00    -0.288 N 
HETATM    9  C   UNL     1     -40.900 -49.731  11.353  1.00  0.00     0.322 C 
HETATM   10  O   UNL     1     -39.744 -50.110  11.495  1.00  0.00    -0.247 OA
HETATM   11  N   UNL     1     -41.980 -50.388  11.870  1.00  0.00    -0.332 N 
HETATM   12  S   UNL     1     -42.648 -46.951   9.198  1.00  0.00    -0.038 SA
HETATM   13  H   UNL     1     -40.397 -48.238  10.070  1.00  0.00     0.172 HD
HETATM   14  H   UNL     1     -42.849 -49.858  11.886  1.00  0.00     0.165 HD
ENDROOT
BRANCH  11  15
HETATM   15  C   UNL     1     -41.953 -51.607  12.668  1.00  0.00     0.054 C 
HETATM   16  C   UNL     1     -41.218 -52.734  11.927  1.00  0.00     0.041 C 
HETATM   17  C   UNL     1     -43.381 -52.055  12.988  1.00  0.00     0.059 C 
HETATM   18  C   UNL     1     -43.298 -52.666  14.374  1.00  0.00     0.170 C 
HETATM   19  O   UNL     1     -42.009 -52.365  14.917  1.00  0.00    -0.389 OA
HETATM   20  C   UNL     1     -41.389 -51.387  14.070  1.00  0.00     0.198 C 
ENDBRANCH  11  15
TORSDOF 1
ENDMDL
