MODEL 1
REMARK VINA RESULT:      -5.8      0.000      0.000
REMARK  6 active torsions:
REMARK  status: ('A' for Active; 'I' for Inactive)
REMARK    1  A    between atoms: N_6  and  C_7 
REMARK    2  A    between atoms: C_7  and  C_8 
REMARK    3  A    between atoms: C_8  and  C_9 
REMARK    4  A    between atoms: C_9  and  N_10 
REMARK       I    between atoms: N_10  and  C_11 
REMARK    5  A    between atoms: C_11  and  C_13 
REMARK    6  A    between atoms: C_13  and  N_14 
ROOT
HETATM    1  N   UNL     1     -42.482 -48.630  10.843  1.00  0.00    -0.360 N 
HETATM    2  C   UNL     1     -41.996 -47.397  10.464  1.00  0.00     0.237 C 
HETATM    3  O   UNL     1     -40.846 -47.024  10.680  1.00  0.00    -0.272 OA
HETATM    4  H   UNL     1     -43.475 -48.821  10.763  1.00  0.00     0.162 HD
ENDROOT
BRANCH   1   5
HETATM    5  C   UNL     1     -41.681 -49.550  11.626  1.00  0.00     0.124 C 
BRANCH   5   6
HETATM    6  C   UNL     1     -42.138 -49.660  13.082  1.00  0.00     0.050 C 
BRANCH   6   7
HETATM    7  C   UNL     1     -42.119 -51.109  13.593  1.00  0.00     0.274 C 
BRANCH   7   8
HETATM    8  N   UNL     1     -43.447 -51.749  13.633  1.00  0.00     0.088 N 
HETATM    9  C   UNL     1     -43.566 -52.857  12.672  1.00  0.00     0.272 C 
HETATM   10  C   UNL     1     -44.947 -53.515  12.716  1.00  0.00     0.031 C 
HETATM   11  C   UNL     1     -46.062 -52.496  12.520  1.00  0.00     0.007 C 
HETATM   12  C   UNL     1     -45.915 -51.313  13.482  1.00  0.00     0.010 C 
HETATM   13  C   UNL     1     -46.272 -51.703  14.920  1.00  0.00     0.011 C 
HETATM   14  C   UNL     1     -44.492 -50.735  13.389  1.00  0.00     0.276 C 
ENDBRANCH   7   8
ENDBRANCH   6   7
ENDBRANCH   5   6
ENDBRANCH   1   5
BRANCH   2  15
HETATM   15  C   UNL     1     -42.998 -46.504   9.778  1.00  0.00     0.249 C 
BRANCH  15  16
HETATM   16  N   UNL     1     -43.841 -47.279   8.908  1.00  0.00    -0.264 N 
HETATM   17  C   UNL     1     -45.172 -47.525   9.003  1.00  0.00     0.213 A 
HETATM   18  N   UNL     1     -45.527 -48.264   7.977  1.00  0.00    -0.281 N 
HETATM   19  N   UNL     1     -44.379 -48.476   7.249  1.00  0.00    -0.008 NA
ATOM     20  HN  UNL     1     -46.462 -48.611   7.763  1.00  0.00     0.184 HD
HETATM   21  N   UNL     1     -43.341 -47.875   7.815  1.00  0.00    -0.005 NA
ENDBRANCH  15  16
ENDBRANCH   2  15
TORSDOF 6
ENDMDL
MODEL 2
REMARK VINA RESULT:      -5.7      4.540      5.579
REMARK  6 active torsions:
REMARK  status: ('A' for Active; 'I' for Inactive)
REMARK    1  A    between atoms: N_6  and  C_7 
REMARK    2  A    between atoms: C_7  and  C_8 
REMARK    3  A    between atoms: C_8  and  C_9 
REMARK    4  A    between atoms: C_9  and  N_10 
REMARK       I    between atoms: N_10  and  C_11 
REMARK    5  A    between atoms: C_11  and  C_13 
REMARK    6  A    between atoms: C_13  and  N_14 
ROOT
HETATM    1  N   UNL     1     -40.799 -52.940  13.911  1.00  0.00    -0.360 N 
HETATM    2  C   UNL     1     -41.038 -52.035  12.899  1.00  0.00     0.237 C 
HETATM    3  O   UNL     1     -41.766 -52.266  11.938  1.00  0.00    -0.272 OA
HETATM    4  H   UNL     1     -40.081 -52.741  14.599  1.00  0.00     0.162 HD
ENDROOT
BRANCH   1   5
HETATM    5  C   UNL     1     -41.324 -54.290  13.858  1.00  0.00     0.124 C 
BRANCH   5   6
HETATM    6  C   UNL     1     -42.426 -54.549  14.887  1.00  0.00     0.050 C 
BRANCH   6   7
HETATM    7  C   UNL     1     -43.819 -54.636  14.243  1.00  0.00     0.274 C 
BRANCH   7   8
HETATM    8  N   UNL     1     -44.522 -53.343  14.156  1.00  0.00     0.088 N 
HETATM    9  C   UNL     1     -44.220 -52.461  15.295  1.00  0.00     0.272 C 
HETATM   10  C   UNL     1     -44.954 -51.122  15.201  1.00  0.00     0.031 C 
HETATM   11  C   UNL     1     -46.456 -51.314  15.039  1.00  0.00     0.007 C 
HETATM   12  C   UNL     1     -46.777 -52.272  13.888  1.00  0.00     0.010 C 
HETATM   13  C   UNL     1     -46.526 -51.624  12.523  1.00  0.00     0.011 C 
HETATM   14  C   UNL     1     -45.976 -53.576  14.051  1.00  0.00     0.276 C 
ENDBRANCH   7   8
ENDBRANCH   6   7
ENDBRANCH   5   6
ENDBRANCH   1   5
BRANCH   2  15
HETATM   15  C   UNL     1     -40.308 -50.723  13.036  1.00  0.00     0.249 C 
BRANCH  15  16
HETATM   16  N   UNL     1     -38.998 -50.821  12.452  1.00  0.00    -0.264 N 
HETATM   17  C   UNL     1     -38.437 -50.061  11.477  1.00  0.00     0.213 A 
HETATM   18  N   UNL     1     -37.214 -50.494  11.273  1.00  0.00    -0.281 N 
HETATM   19  N   UNL     1     -37.035 -51.544  12.141  1.00  0.00    -0.008 NA
ATOM     20  HN  UNL     1     -36.535 -50.126  10.606  1.00  0.00     0.184 HD
HETATM   21  N   UNL     1     -38.125 -51.751  12.867  1.00  0.00    -0.005 NA
ENDBRANCH  15  16
ENDBRANCH   2  15
TORSDOF 6
ENDMDL
MODEL 3
REMARK VINA RESULT:      -5.6      4.680      5.845
REMARK  6 active torsions:
REMARK  status: ('A' for Active; 'I' for Inactive)
REMARK    1  A    between atoms: N_6  and  C_7 
REMARK    2  A    between atoms: C_7  and  C_8 
REMARK    3  A    between atoms: C_8  and  C_9 
REMARK    4  A    between atoms: C_9  and  N_10 
REMARK       I    between atoms: N_10  and  C_11 
REMARK    5  A    between atoms: C_11  and  C_13 
REMARK    6  A    between atoms: C_13  and  N_14 
ROOT
HETATM    1  N   UNL     1     -40.656 -53.099  14.725  1.00  0.00    -0.360 N 
HETATM    2  C   UNL     1     -39.401 -53.048  14.156  1.00  0.00     0.237 C 
HETATM    3  O   UNL     1     -38.868 -54.005  13.602  1.00  0.00    -0.272 OA
HETATM    4  H   UNL     1     -40.980 -52.321  15.289  1.00  0.00     0.162 HD
ENDROOT
BRANCH   1   5
HETATM    5  C   UNL     1     -41.405 -54.338  14.794  1.00  0.00     0.124 C 
BRANCH   5   6
HETATM    6  C   UNL     1     -42.751 -54.190  15.508  1.00  0.00     0.050 C 
BRANCH   6   7
HETATM    7  C   UNL     1     -43.915 -54.761  14.684  1.00  0.00     0.274 C 
BRANCH   7   8
HETATM    8  N   UNL     1     -44.940 -53.764  14.322  1.00  0.00     0.088 N 
HETATM    9  C   UNL     1     -45.020 -53.542  12.870  1.00  0.00     0.272 C 
HETATM   10  C   UNL     1     -46.083 -52.505  12.501  1.00  0.00     0.031 C 
HETATM   11  C   UNL     1     -45.872 -51.193  13.246  1.00  0.00     0.007 C 
HETATM   12  C   UNL     1     -45.736 -51.422  14.754  1.00  0.00     0.010 C 
HETATM   13  C   UNL     1     -47.077 -51.785  15.397  1.00  0.00     0.011 C 
HETATM   14  C   UNL     1     -44.668 -52.496  15.028  1.00  0.00     0.276 C 
ENDBRANCH   7   8
ENDBRANCH   6   7
ENDBRANCH   5   6
ENDBRANCH   1   5
BRANCH   2  15
HETATM   15  C   UNL     1     -38.698 -51.721  14.288  1.00  0.00     0.249 C 
BRANCH  15  16
HETATM   16  N   UNL     1     -38.336 -51.221  12.989  1.00  0.00    -0.264 N 
HETATM   17  C   UNL     1     -39.072 -50.482  12.122  1.00  0.00     0.213 A 
HETATM   18  N   UNL     1     -38.333 -50.231  11.065  1.00  0.00    -0.281 N 
HETATM   19  N   UNL     1     -37.122 -50.841  11.299  1.00  0.00    -0.008 NA
ATOM     20  HN  UNL     1     -38.601 -49.695  10.240  1.00  0.00     0.184 HD
HETATM   21  N   UNL     1     -37.117 -51.450  12.477  1.00  0.00    -0.005 NA
ENDBRANCH  15  16
ENDBRANCH   2  15
TORSDOF 6
ENDMDL
MODEL 4
REMARK VINA RESULT:      -5.5      1.295      2.131
REMARK  6 active torsions:
REMARK  status: ('A' for Active; 'I' for Inactive)
REMARK    1  A    between atoms: N_6  and  C_7 
REMARK    2  A    between atoms: C_7  and  C_8 
REMARK    3  A    between atoms: C_8  and  C_9 
REMARK    4  A    between atoms: C_9  and  N_10 
REMARK       I    between atoms: N_10  and  C_11 
REMARK    5  A    between atoms: C_11  and  C_13 
REMARK    6  A    between atoms: C_13  and  N_14 
ROOT
HETATM    1  N   UNL     1     -42.721 -48.703  11.130  1.00  0.00    -0.360 N 
HETATM    2  C   UNL     1     -41.947 -47.665  10.659  1.00  0.00     0.237 C 
HETATM    3  O   UNL     1     -40.748 -47.548  10.897  1.00  0.00    -0.272 OA
HETATM    4  H   UNL     1     -43.728 -48.666  11.016  1.00  0.00     0.162 HD
ENDROOT
BRANCH   1   5
HETATM    5  C   UNL     1     -42.182 -49.696  12.038  1.00  0.00     0.124 C 
BRANCH   5   6
HETATM    6  C   UNL     1     -42.961 -49.798  13.351  1.00  0.00     0.050 C 
BRANCH   6   7
HETATM    7  C   UNL     1     -44.250 -50.620  13.204  1.00  0.00     0.274 C 
BRANCH   7   8
HETATM    8  N   UNL     1     -44.174 -51.968  13.798  1.00  0.00     0.088 N 
HETATM    9  C   UNL     1     -43.102 -52.080  14.800  1.00  0.00     0.272 C 
HETATM   10  C   UNL     1     -43.025 -53.481  15.411  1.00  0.00     0.031 C 
HETATM   11  C   UNL     1     -42.889 -54.555  14.340  1.00  0.00     0.007 C 
HETATM   12  C   UNL     1     -43.971 -54.413  13.265  1.00  0.00     0.010 C 
HETATM   13  C   UNL     1     -45.347 -54.842  13.783  1.00  0.00     0.011 C 
HETATM   14  C   UNL     1     -43.993 -52.970  12.730  1.00  0.00     0.276 C 
ENDBRANCH   7   8
ENDBRANCH   6   7
ENDBRANCH   5   6
ENDBRANCH   1   5
BRANCH   2  15
HETATM   15  C   UNL     1     -42.689 -46.641   9.838  1.00  0.00     0.249 C 
BRANCH  15  16
HETATM   16  N   UNL     1     -43.695 -47.283   9.036  1.00  0.00    -0.264 N 
HETATM   17  C   UNL     1     -43.586 -47.818   7.793  1.00  0.00     0.213 A 
HETATM   18  N   UNL     1     -44.753 -48.318   7.458  1.00  0.00    -0.281 N 
HETATM   19  N   UNL     1     -45.589 -48.072   8.522  1.00  0.00    -0.008 NA
ATOM     20  HN  UNL     1     -44.991 -48.792   6.587  1.00  0.00     0.184 HD
HETATM   21  N   UNL     1     -44.947 -47.437   9.493  1.00  0.00    -0.005 NA
ENDBRANCH  15  16
ENDBRANCH   2  15
TORSDOF 6
ENDMDL
MODEL 5
REMARK VINA RESULT:      -5.3      2.433      3.232
REMARK  6 active torsions:
REMARK  status: ('A' for Active; 'I' for Inactive)
REMARK    1  A    between atoms: N_6  and  C_7 
REMARK    2  A    between atoms: C_7  and  C_8 
REMARK    3  A    between atoms: C_8  and  C_9 
REMARK    4  A    between atoms: C_9  and  N_10 
REMARK       I    between atoms: N_10  and  C_11 
REMARK    5  A    between atoms: C_11  and  C_13 
REMARK    6  A    between atoms: C_13  and  N_14 
ROOT
HETATM    1  N   UNL     1     -41.001 -47.479  10.479  1.00  0.00    -0.360 N 
HETATM    2  C   UNL     1     -42.197 -46.846  10.745  1.00  0.00     0.237 C 
HETATM    3  O   UNL     1     -42.750 -46.871  11.841  1.00  0.00    -0.272 OA
HETATM    4  H   UNL     1     -40.670 -47.539   9.522  1.00  0.00     0.162 HD
ENDROOT
BRANCH   1   5
HETATM    5  C   UNL     1     -40.352 -48.315  11.470  1.00  0.00     0.124 C 
BRANCH   5   6
HETATM    6  C   UNL     1     -40.691 -49.799  11.321  1.00  0.00     0.050 C 
BRANCH   6   7
HETATM    7  C   UNL     1     -41.771 -50.255  12.314  1.00  0.00     0.274 C 
BRANCH   7   8
HETATM    8  N   UNL     1     -41.403 -51.449  13.096  1.00  0.00     0.088 N 
HETATM    9  C   UNL     1     -40.106 -51.299  13.774  1.00  0.00     0.272 C 
HETATM   10  C   UNL     1     -39.727 -52.543  14.582  1.00  0.00     0.031 C 
HETATM   11  C   UNL     1     -39.754 -53.801  13.723  1.00  0.00     0.007 C 
HETATM   12  C   UNL     1     -41.083 -53.937  12.972  1.00  0.00     0.010 C 
HETATM   13  C   UNL     1     -42.228 -54.329  13.911  1.00  0.00     0.011 C 
HETATM   14  C   UNL     1     -41.394 -52.634  12.214  1.00  0.00     0.276 C 
ENDBRANCH   7   8
ENDBRANCH   6   7
ENDBRANCH   5   6
ENDBRANCH   1   5
BRANCH   2  15
HETATM   15  C   UNL     1     -42.811 -46.130   9.569  1.00  0.00     0.249 C 
BRANCH  15  16
HETATM   16  N   UNL     1     -43.755 -46.988   8.904  1.00  0.00    -0.264 N 
HETATM   17  C   UNL     1     -43.583 -47.751   7.795  1.00  0.00     0.213 A 
HETATM   18  N   UNL     1     -44.707 -48.388   7.558  1.00  0.00    -0.281 N 
HETATM   19  N   UNL     1     -45.580 -47.993   8.544  1.00  0.00    -0.008 NA
ATOM     20  HN  UNL     1     -44.894 -49.042   6.797  1.00  0.00     0.184 HD
HETATM   21  N   UNL     1     -45.003 -47.134   9.373  1.00  0.00    -0.005 NA
ENDBRANCH  15  16
ENDBRANCH   2  15
TORSDOF 6
ENDMDL
MODEL 6
REMARK VINA RESULT:      -5.3      4.476      7.021
REMARK  6 active torsions:
REMARK  status: ('A' for Active; 'I' for Inactive)
REMARK    1  A    between atoms: N_6  and  C_7 
REMARK    2  A    between atoms: C_7  and  C_8 
REMARK    3  A    between atoms: C_8  and  C_9 
REMARK    4  A    between atoms: C_9  and  N_10 
REMARK       I    between atoms: N_10  and  C_11 
REMARK    5  A    between atoms: C_11  and  C_13 
REMARK    6  A    between atoms: C_13  and  N_14 
ROOT
HETATM    1  N   UNL     1     -43.209 -53.987  13.556  1.00  0.00    -0.360 N 
HETATM    2  C   UNL     1     -44.041 -54.848  14.237  1.00  0.00     0.237 C 
HETATM    3  O   UNL     1     -43.659 -55.600  15.130  1.00  0.00    -0.272 OA
HETATM    4  H   UNL     1     -43.557 -53.499  12.738  1.00  0.00     0.162 HD
ENDROOT
BRANCH   1   5
HETATM    5  C   UNL     1     -41.777 -53.980  13.784  1.00  0.00     0.124 C 
BRANCH   5   6
HETATM    6  C   UNL     1     -40.992 -53.283  12.671  1.00  0.00     0.050 C 
BRANCH   6   7
HETATM    7  C   UNL     1     -41.442 -51.829  12.460  1.00  0.00     0.274 C 
BRANCH   7   8
HETATM    8  N   UNL     1     -40.375 -50.834  12.671  1.00  0.00     0.088 N 
HETATM    9  C   UNL     1     -40.186 -49.956  11.506  1.00  0.00     0.272 C 
HETATM   10  C   UNL     1     -39.075 -48.927  11.729  1.00  0.00     0.031 C 
HETATM   11  C   UNL     1     -37.766 -49.593  12.132  1.00  0.00     0.007 C 
HETATM   12  C   UNL     1     -37.964 -50.549  13.313  1.00  0.00     0.010 C 
HETATM   13  C   UNL     1     -38.197 -49.792  14.624  1.00  0.00     0.011 C 
HETATM   14  C   UNL     1     -39.114 -51.525  13.011  1.00  0.00     0.276 C 
ENDBRANCH   7   8
ENDBRANCH   6   7
ENDBRANCH   5   6
ENDBRANCH   1   5
BRANCH   2  15
HETATM   15  C   UNL     1     -45.480 -54.830  13.786  1.00  0.00     0.249 C 
BRANCH  15  16
HETATM   16  N   UNL     1     -45.921 -53.476  13.591  1.00  0.00    -0.264 N 
HETATM   17  C   UNL     1     -46.416 -52.598  14.500  1.00  0.00     0.213 A 
HETATM   18  N   UNL     1     -46.669 -51.466  13.882  1.00  0.00    -0.281 N 
HETATM   19  N   UNL     1     -46.324 -51.670  12.566  1.00  0.00    -0.008 NA
ATOM     20  HN  UNL     1     -47.044 -50.612  14.293  1.00  0.00     0.184 HD
HETATM   21  N   UNL     1     -45.866 -52.900  12.380  1.00  0.00    -0.005 NA
ENDBRANCH  15  16
ENDBRANCH   2  15
TORSDOF 6
ENDMDL
MODEL 7
REMARK VINA RESULT:      -4.8      4.022      6.650
REMARK  6 active torsions:
REMARK  status: ('A' for Active; 'I' for Inactive)
REMARK    1  A    between atoms: N_6  and  C_7 
REMARK    2  A    between atoms: C_7  and  C_8 
REMARK    3  A    between atoms: C_8  and  C_9 
REMARK    4  A    between atoms: C_9  and  N_10 
REMARK       I    between atoms: N_10  and  C_11 
REMARK    5  A    between atoms: C_11  and  C_13 
REMARK    6  A    between atoms: C_13  and  N_14 
ROOT
HETATM    1  N   UNL     1     -38.553 -50.214  13.592  1.00  0.00    -0.360 N 
HETATM    2  C   UNL     1     -38.117 -51.502  13.361  1.00  0.00     0.237 C 
HETATM    3  O   UNL     1     -37.207 -51.782  12.586  1.00  0.00    -0.272 OA
HETATM    4  H   UNL     1     -39.398 -50.063  14.132  1.00  0.00     0.162 HD
ENDROOT
BRANCH   1   5
HETATM    5  C   UNL     1     -38.021 -49.091  12.846  1.00  0.00     0.124 C 
BRANCH   5   6
HETATM    6  C   UNL     1     -39.084 -48.348  12.034  1.00  0.00     0.050 C 
BRANCH   6   7
HETATM    7  C   UNL     1     -40.469 -48.402  12.697  1.00  0.00     0.274 C 
BRANCH   7   8
HETATM    8  N   UNL     1     -41.492 -47.585  12.017  1.00  0.00     0.088 N 
HETATM    9  C   UNL     1     -42.595 -48.397  11.481  1.00  0.00     0.272 C 
HETATM   10  C   UNL     1     -43.651 -47.545  10.775  1.00  0.00     0.031 C 
HETATM   11  C   UNL     1     -43.035 -46.671   9.690  1.00  0.00     0.007 C 
HETATM   12  C   UNL     1     -41.852 -45.860  10.228  1.00  0.00     0.010 C 
HETATM   13  C   UNL     1     -42.313 -44.722  11.143  1.00  0.00     0.011 C 
HETATM   14  C   UNL     1     -40.859 -46.793  10.944  1.00  0.00     0.276 C 
ENDBRANCH   7   8
ENDBRANCH   6   7
ENDBRANCH   5   6
ENDBRANCH   1   5
BRANCH   2  15
HETATM   15  C   UNL     1     -38.866 -52.570  14.115  1.00  0.00     0.249 C 
BRANCH  15  16
HETATM   16  N   UNL     1     -40.061 -52.935  13.403  1.00  0.00    -0.264 N 
HETATM   17  C   UNL     1     -40.581 -54.169  13.180  1.00  0.00     0.213 A 
HETATM   18  N   UNL     1     -41.697 -54.027  12.502  1.00  0.00    -0.281 N 
HETATM   19  N   UNL     1     -41.850 -52.675  12.305  1.00  0.00    -0.008 NA
ATOM     20  HN  UNL     1     -42.322 -54.769  12.187  1.00  0.00     0.184 HD
HETATM   21  N   UNL     1     -40.850 -51.999  12.854  1.00  0.00    -0.005 NA
ENDBRANCH  15  16
ENDBRANCH   2  15
TORSDOF 6
ENDMDL
MODEL 8
REMARK VINA RESULT:      -4.7      3.855      5.011
REMARK  6 active torsions:
REMARK  status: ('A' for Active; 'I' for Inactive)
REMARK    1  A    between atoms: N_6  and  C_7 
REMARK    2  A    between atoms: C_7  and  C_8 
REMARK    3  A    between atoms: C_8  and  C_9 
REMARK    4  A    between atoms: C_9  and  N_10 
REMARK       I    between atoms: N_10  and  C_11 
REMARK    5  A    between atoms: C_11  and  C_13 
REMARK    6  A    between atoms: C_13  and  N_14 
ROOT
HETATM    1  N   UNL     1     -40.714 -49.286  13.655  1.00  0.00    -0.360 N 
HETATM    2  C   UNL     1     -39.724 -48.389  13.317  1.00  0.00     0.237 C 
HETATM    3  O   UNL     1     -39.935 -47.336  12.722  1.00  0.00    -0.272 OA
HETATM    4  H   UNL     1     -40.459 -50.198  14.017  1.00  0.00     0.162 HD
ENDROOT
BRANCH   1   5
HETATM    5  C   UNL     1     -42.088 -49.089  13.236  1.00  0.00     0.124 C 
BRANCH   5   6
HETATM    6  C   UNL     1     -42.791 -50.390  12.845  1.00  0.00     0.050 C 
BRANCH   6   7
HETATM    7  C   UNL     1     -42.348 -51.578  13.713  1.00  0.00     0.274 C 
BRANCH   7   8
HETATM    8  N   UNL     1     -43.437 -52.511  14.056  1.00  0.00     0.088 N 
HETATM    9  C   UNL     1     -42.950 -53.874  14.315  1.00  0.00     0.272 C 
HETATM   10  C   UNL     1     -44.085 -54.838  14.668  1.00  0.00     0.031 C 
HETATM   11  C   UNL     1     -45.174 -54.838  13.603  1.00  0.00     0.007 C 
HETATM   12  C   UNL     1     -45.651 -53.416  13.290  1.00  0.00     0.010 C 
HETATM   13  C   UNL     1     -46.502 -52.840  14.426  1.00  0.00     0.011 C 
HETATM   14  C   UNL     1     -44.444 -52.515  12.976  1.00  0.00     0.276 C 
ENDBRANCH   7   8
ENDBRANCH   6   7
ENDBRANCH   5   6
ENDBRANCH   1   5
BRANCH   2  15
HETATM   15  C   UNL     1     -38.329 -48.807  13.707  1.00  0.00     0.249 C 
BRANCH  15  16
HETATM   16  N   UNL     1     -37.825 -49.781  12.776  1.00  0.00    -0.264 N 
HETATM   17  C   UNL     1     -37.745 -49.710  11.423  1.00  0.00     0.213 A 
HETATM   18  N   UNL     1     -37.196 -50.821  10.987  1.00  0.00    -0.281 N 
HETATM   19  N   UNL     1     -36.946 -51.583  12.103  1.00  0.00    -0.008 NA
ATOM     20  HN  UNL     1     -36.997 -51.068  10.017  1.00  0.00     0.184 HD
HETATM   21  N   UNL     1     -37.329 -50.952  13.205  1.00  0.00    -0.005 NA
ENDBRANCH  15  16
ENDBRANCH   2  15
TORSDOF 6
ENDMDL
MODEL 9
REMARK VINA RESULT:      -4.7      1.511      1.979
REMARK  6 active torsions:
REMARK  status: ('A' for Active; 'I' for Inactive)
REMARK    1  A    between atoms: N_6  and  C_7 
REMARK    2  A    between atoms: C_7  and  C_8 
REMARK    3  A    between atoms: C_8  and  C_9 
REMARK    4  A    between atoms: C_9  and  N_10 
REMARK       I    between atoms: N_10  and  C_11 
REMARK    5  A    between atoms: C_11  and  C_13 
REMARK    6  A    between atoms: C_13  and  N_14 
ROOT
HETATM    1  N   UNL     1     -41.476 -48.816  12.510  1.00  0.00    -0.360 N 
HETATM    2  C   UNL     1     -42.063 -47.685  11.984  1.00  0.00     0.237 C 
HETATM    3  O   UNL     1     -42.967 -47.067  12.540  1.00  0.00    -0.272 OA
HETATM    4  H   UNL     1     -40.837 -49.358  11.939  1.00  0.00     0.162 HD
ENDROOT
BRANCH   1   5
HETATM    5  C   UNL     1     -41.963 -49.422  13.733  1.00  0.00     0.124 C 
BRANCH   5   6
HETATM    6  C   UNL     1     -41.903 -50.950  13.714  1.00  0.00     0.050 C 
BRANCH   6   7
HETATM    7  C   UNL     1     -43.101 -51.574  12.983  1.00  0.00     0.274 C 
BRANCH   7   8
HETATM    8  N   UNL     1     -44.183 -52.024  13.877  1.00  0.00     0.088 N 
HETATM    9  C   UNL     1     -44.379 -53.482  13.835  1.00  0.00     0.272 C 
HETATM   10  C   UNL     1     -45.505 -53.942  14.763  1.00  0.00     0.031 C 
HETATM   11  C   UNL     1     -46.806 -53.205  14.477  1.00  0.00     0.007 C 
HETATM   12  C   UNL     1     -46.600 -51.687  14.468  1.00  0.00     0.010 C 
HETATM   13  C   UNL     1     -46.382 -51.136  15.881  1.00  0.00     0.011 C 
HETATM   14  C   UNL     1     -45.435 -51.321  13.532  1.00  0.00     0.276 C 
ENDBRANCH   7   8
ENDBRANCH   6   7
ENDBRANCH   5   6
ENDBRANCH   1   5
BRANCH   2  15
HETATM   15  C   UNL     1     -41.533 -47.261  10.638  1.00  0.00     0.249 C 
BRANCH  15  16
HETATM   16  N   UNL     1     -42.603 -46.760   9.818  1.00  0.00    -0.264 N 
HETATM   17  C   UNL     1     -43.589 -47.446   9.186  1.00  0.00     0.213 A 
HETATM   18  N   UNL     1     -44.360 -46.579   8.570  1.00  0.00    -0.281 N 
HETATM   19  N   UNL     1     -43.821 -45.341   8.831  1.00  0.00    -0.008 NA
ATOM     20  HN  UNL     1     -45.188 -46.783   8.011  1.00  0.00     0.184 HD
HETATM   21  N   UNL     1     -42.743 -45.445   9.596  1.00  0.00    -0.005 NA
ENDBRANCH  15  16
ENDBRANCH   2  15
TORSDOF 6
ENDMDL
