MODEL 1
REMARK VINA RESULT:      -5.8      0.000      0.000
REMARK  2 active torsions:
REMARK  status: ('A' for Active; 'I' for Inactive)
REMARK       I    between atoms: N_3  and  C_4 
REMARK    1  A    between atoms: C_4  and  C_6 
REMARK    2  A    between atoms: C_8  and  C_12 
ROOT
HETATM    1  C   UNL     2     -43.989 -47.581   9.383  1.00  0.00     0.117 A 
HETATM    2  C   UNL     2     -43.596 -47.183  10.637  1.00  0.00     0.063 A 
HETATM    3  C   UNL     2     -42.256 -47.508  10.711  1.00  0.00     0.034 A 
HETATM    4  N   UNL     2     -41.904 -48.107   9.552  1.00  0.00    -0.304 N 
HETATM    5  N   UNL     2     -42.952 -48.155   8.745  1.00  0.00    -0.295 N 
ATOM      6  HN  UNL     2     -42.972 -48.556   7.807  1.00  0.00     0.187 HD
HETATM    7  H   UNL     2     -40.960 -48.469   9.289  1.00  0.00     0.186 HD
ENDROOT
BRANCH   3   8
HETATM    8  C   UNL     2     -41.317 -47.166  11.860  1.00  0.00     0.065 C 
HETATM    9  C   UNL     2     -41.652 -45.776  12.452  1.00  0.00     0.014 C 
HETATM   10  C   UNL     2     -41.454 -44.688  11.386  1.00  0.00     0.031 C 
HETATM   11  C   UNL     2     -40.016 -44.739  10.859  1.00  0.00     0.269 C 
HETATM   12  N   UNL     2     -39.685 -46.081  10.350  1.00  0.00     0.084 N 
HETATM   13  C   UNL     2     -39.845 -47.109  11.394  1.00  0.00     0.280 C 
HETATM   14  H   UNL     2     -38.689 -46.078  10.031  1.00  0.00     0.315 HD
ENDBRANCH   3   8
BRANCH   1  15
HETATM   15  C   UNL     2     -45.329 -47.370   8.805  1.00  0.00     0.267 C 
HETATM   16  N   UNL     2     -45.903 -46.144   8.801  1.00  0.00    -0.365 N 
HETATM   17  H   UNL     2     -46.846 -46.014   8.408  1.00  0.00     0.159 HD
HETATM   18  H   UNL     2     -45.407 -45.324   9.184  1.00  0.00     0.159 HD
HETATM   19  O   UNL     2     -45.945 -48.323   8.350  1.00  0.00    -0.266 OA
ENDBRANCH   1  15
TORSDOF 2
ENDMDL
MODEL 2
REMARK VINA RESULT:      -5.7      2.172      2.553
REMARK  2 active torsions:
REMARK  status: ('A' for Active; 'I' for Inactive)
REMARK       I    between atoms: N_3  and  C_4 
REMARK    1  A    between atoms: C_4  and  C_6 
REMARK    2  A    between atoms: C_8  and  C_12 
ROOT
HETATM    1  C   UNL     2     -43.400 -46.982   9.605  1.00  0.00     0.117 A 
HETATM    2  C   UNL     2     -43.298 -47.370  10.919  1.00  0.00     0.063 A 
HETATM    3  C   UNL     2     -42.351 -48.374  10.922  1.00  0.00     0.034 A 
HETATM    4  N   UNL     2     -41.953 -48.581   9.648  1.00  0.00    -0.304 N 
HETATM    5  N   UNL     2     -42.589 -47.741   8.846  1.00  0.00    -0.295 N 
ATOM      6  HN  UNL     2     -42.482 -47.680   7.833  1.00  0.00     0.187 HD
HETATM    7  H   UNL     2     -41.244 -49.271   9.311  1.00  0.00     0.186 HD
ENDROOT
BRANCH   3   8
HETATM    8  C   UNL     2     -41.786 -49.063  12.158  1.00  0.00     0.065 C 
HETATM    9  C   UNL     2     -40.891 -48.095  12.968  1.00  0.00     0.014 C 
HETATM   10  C   UNL     2     -39.687 -47.657  12.121  1.00  0.00     0.031 C 
HETATM   11  C   UNL     2     -38.903 -48.892  11.663  1.00  0.00     0.269 C 
HETATM   12  N   UNL     2     -39.775 -49.835  10.941  1.00  0.00     0.084 N 
HETATM   13  C   UNL     2     -40.905 -50.275  11.780  1.00  0.00     0.280 C 
HETATM   14  H   UNL     2     -39.207 -50.673  10.676  1.00  0.00     0.315 HD
ENDBRANCH   3   8
BRANCH   1  15
HETATM   15  C   UNL     2     -44.236 -45.874   9.108  1.00  0.00     0.267 C 
HETATM   16  N   UNL     2     -45.543 -46.065   8.811  1.00  0.00    -0.365 N 
HETATM   17  H   UNL     2     -46.112 -45.285   8.450  1.00  0.00     0.159 HD
HETATM   18  H   UNL     2     -45.990 -46.985   8.945  1.00  0.00     0.159 HD
HETATM   19  O   UNL     2     -43.735 -44.773   8.932  1.00  0.00    -0.266 OA
ENDBRANCH   1  15
TORSDOF 2
ENDMDL
MODEL 3
REMARK VINA RESULT:      -5.6      7.160      8.453
REMARK  2 active torsions:
REMARK  status: ('A' for Active; 'I' for Inactive)
REMARK       I    between atoms: N_3  and  C_4 
REMARK    1  A    between atoms: C_4  and  C_6 
REMARK    2  A    between atoms: C_8  and  C_12 
ROOT
HETATM    1  C   UNL     2     -41.802 -52.580  12.430  1.00  0.00     0.117 A 
HETATM    2  C   UNL     2     -42.034 -53.257  13.603  1.00  0.00     0.063 A 
HETATM    3  C   UNL     2     -43.234 -53.911  13.406  1.00  0.00     0.034 A 
HETATM    4  N   UNL     2     -43.693 -53.587  12.178  1.00  0.00    -0.304 N 
HETATM    5  N   UNL     2     -42.829 -52.779  11.583  1.00  0.00    -0.295 N 
ATOM      6  HN  UNL     2     -42.925 -52.378  10.650  1.00  0.00     0.187 HD
HETATM    7  H   UNL     2     -44.574 -53.918  11.725  1.00  0.00     0.186 HD
ENDROOT
BRANCH   3   8
HETATM    8  C   UNL     2     -43.880 -54.898  14.370  1.00  0.00     0.065 C 
HETATM    9  C   UNL     2     -45.369 -55.122  14.015  1.00  0.00     0.014 C 
HETATM   10  C   UNL     2     -46.147 -53.804  14.149  1.00  0.00     0.031 C 
HETATM   11  C   UNL     2     -45.988 -53.256  15.572  1.00  0.00     0.269 C 
HETATM   12  N   UNL     2     -44.566 -53.100  15.924  1.00  0.00     0.084 N 
HETATM   13  C   UNL     2     -43.841 -54.379  15.825  1.00  0.00     0.280 C 
HETATM   14  H   UNL     2     -44.506 -52.755  16.910  1.00  0.00     0.315 HD
ENDBRANCH   3   8
BRANCH   1  15
HETATM   15  C   UNL     2     -40.593 -51.793  12.127  1.00  0.00     0.267 C 
HETATM   16  N   UNL     2     -40.612 -50.816  11.190  1.00  0.00    -0.365 N 
HETATM   17  H   UNL     2     -39.756 -50.284  10.979  1.00  0.00     0.159 HD
HETATM   18  H   UNL     2     -41.479 -50.585  10.682  1.00  0.00     0.159 HD
HETATM   19  O   UNL     2     -39.548 -52.047  12.709  1.00  0.00    -0.266 OA
ENDBRANCH   1  15
TORSDOF 2
ENDMDL
MODEL 4
REMARK VINA RESULT:      -5.5      3.598      4.890
REMARK  2 active torsions:
REMARK  status: ('A' for Active; 'I' for Inactive)
REMARK       I    between atoms: N_3  and  C_4 
REMARK    1  A    between atoms: C_4  and  C_6 
REMARK    2  A    between atoms: C_8  and  C_12 
ROOT
HETATM    1  C   UNL     2     -41.008 -48.752  10.869  1.00  0.00     0.117 A 
HETATM    2  C   UNL     2     -40.173 -48.391  11.899  1.00  0.00     0.063 A 
HETATM    3  C   UNL     2     -39.154 -49.322  11.875  1.00  0.00     0.034 A 
HETATM    4  N   UNL     2     -39.417 -50.209  10.890  1.00  0.00    -0.304 N 
HETATM    5  N   UNL     2     -40.541 -49.868  10.279  1.00  0.00    -0.295 N 
ATOM      6  HN  UNL     2     -40.976 -50.363   9.500  1.00  0.00     0.187 HD
HETATM    7  H   UNL     2     -38.839 -51.033  10.611  1.00  0.00     0.186 HD
ENDROOT
BRANCH   3   8
HETATM    8  C   UNL     2     -37.905 -49.299  12.746  1.00  0.00     0.065 C 
HETATM    9  C   UNL     2     -37.379 -50.733  12.996  1.00  0.00     0.014 C 
HETATM   10  C   UNL     2     -38.430 -51.554  13.758  1.00  0.00     0.031 C 
HETATM   11  C   UNL     2     -38.778 -50.849  15.074  1.00  0.00     0.269 C 
HETATM   12  N   UNL     2     -39.223 -49.466  14.833  1.00  0.00     0.084 N 
HETATM   13  C   UNL     2     -38.190 -48.681  14.132  1.00  0.00     0.280 C 
HETATM   14  H   UNL     2     -39.418 -49.015  15.757  1.00  0.00     0.315 HD
ENDBRANCH   3   8
BRANCH   1  15
HETATM   15  C   UNL     2     -42.206 -48.006  10.445  1.00  0.00     0.267 C 
HETATM   16  N   UNL     2     -42.644 -48.057   9.165  1.00  0.00    -0.365 N 
HETATM   17  H   UNL     2     -43.475 -47.519   8.878  1.00  0.00     0.159 HD
HETATM   18  H   UNL     2     -42.161 -48.636   8.461  1.00  0.00     0.159 HD
HETATM   19  O   UNL     2     -42.797 -47.306  11.254  1.00  0.00    -0.266 OA
ENDBRANCH   1  15
TORSDOF 2
ENDMDL
MODEL 5
REMARK VINA RESULT:      -5.5      2.876      4.057
REMARK  2 active torsions:
REMARK  status: ('A' for Active; 'I' for Inactive)
REMARK       I    between atoms: N_3  and  C_4 
REMARK    1  A    between atoms: C_4  and  C_6 
REMARK    2  A    between atoms: C_8  and  C_12 
ROOT
HETATM    1  C   UNL     2     -43.015 -47.591   9.767  1.00  0.00     0.117 A 
HETATM    2  C   UNL     2     -43.255 -47.869  11.090  1.00  0.00     0.063 A 
HETATM    3  C   UNL     2     -42.203 -48.673  11.483  1.00  0.00     0.034 A 
HETATM    4  N   UNL     2     -41.409 -48.880  10.410  1.00  0.00    -0.304 N 
HETATM    5  N   UNL     2     -41.898 -48.228   9.367  1.00  0.00    -0.295 N 
ATOM      6  HN  UNL     2     -41.501 -48.210   8.428  1.00  0.00     0.187 HD
HETATM    7  H   UNL     2     -40.529 -49.442  10.374  1.00  0.00     0.186 HD
ENDROOT
BRANCH   3   8
HETATM    8  C   UNL     2     -41.936 -49.163  12.900  1.00  0.00     0.065 C 
HETATM    9  C   UNL     2     -40.907 -50.319  12.900  1.00  0.00     0.014 C 
HETATM   10  C   UNL     2     -41.463 -51.518  12.118  1.00  0.00     0.031 C 
HETATM   11  C   UNL     2     -42.797 -51.958  12.732  1.00  0.00     0.269 C 
HETATM   12  N   UNL     2     -43.752 -50.838  12.781  1.00  0.00     0.084 N 
HETATM   13  C   UNL     2     -43.219 -49.708  13.564  1.00  0.00     0.280 C 
HETATM   14  H   UNL     2     -44.633 -51.175  13.234  1.00  0.00     0.315 HD
ENDBRANCH   3   8
BRANCH   1  15
HETATM   15  C   UNL     2     -43.829 -46.696   8.925  1.00  0.00     0.267 C 
HETATM   16  N   UNL     2     -45.084 -47.038   8.552  1.00  0.00    -0.365 N 
HETATM   17  H   UNL     2     -45.637 -46.409   7.952  1.00  0.00     0.159 HD
HETATM   18  H   UNL     2     -45.508 -47.924   8.866  1.00  0.00     0.159 HD
HETATM   19  O   UNL     2     -43.352 -45.641   8.531  1.00  0.00    -0.266 OA
ENDBRANCH   1  15
TORSDOF 2
ENDMDL
MODEL 6
REMARK VINA RESULT:      -5.4      1.757      2.393
REMARK  2 active torsions:
REMARK  status: ('A' for Active; 'I' for Inactive)
REMARK       I    between atoms: N_3  and  C_4 
REMARK    1  A    between atoms: C_4  and  C_6 
REMARK    2  A    between atoms: C_8  and  C_12 
ROOT
HETATM    1  C   UNL     2     -42.989 -47.363   9.132  1.00  0.00     0.117 A 
HETATM    2  C   UNL     2     -42.856 -46.106   9.670  1.00  0.00     0.063 A 
HETATM    3  C   UNL     2     -41.697 -46.159  10.419  1.00  0.00     0.034 A 
HETATM    4  N   UNL     2     -41.205 -47.414  10.343  1.00  0.00    -0.304 N 
HETATM    5  N   UNL     2     -41.985 -48.148   9.566  1.00  0.00    -0.295 N 
ATOM      6  HN  UNL     2     -41.851 -49.133   9.336  1.00  0.00     0.187 HD
HETATM    7  H   UNL     2     -40.337 -47.781  10.795  1.00  0.00     0.186 HD
ENDROOT
BRANCH   3   8
HETATM    8  C   UNL     2     -41.040 -44.982  11.129  1.00  0.00     0.065 C 
HETATM    9  C   UNL     2     -40.115 -45.472  12.268  1.00  0.00     0.014 C 
HETATM   10  C   UNL     2     -40.936 -46.221  13.328  1.00  0.00     0.031 C 
HETATM   11  C   UNL     2     -42.044 -45.305  13.862  1.00  0.00     0.269 C 
HETATM   12  N   UNL     2     -42.886 -44.797  12.765  1.00  0.00     0.084 N 
HETATM   13  C   UNL     2     -42.089 -44.051  11.775  1.00  0.00     0.280 C 
HETATM   14  H   UNL     2     -43.605 -44.155  13.171  1.00  0.00     0.315 HD
ENDBRANCH   3   8
BRANCH   1  15
HETATM   15  C   UNL     2     -44.042 -47.777   8.187  1.00  0.00     0.267 C 
HETATM   16  N   UNL     2     -45.351 -47.578   8.470  1.00  0.00    -0.365 N 
HETATM   17  H   UNL     2     -46.077 -47.885   7.807  1.00  0.00     0.159 HD
HETATM   18  H   UNL     2     -45.641 -47.114   9.345  1.00  0.00     0.159 HD
HETATM   19  O   UNL     2     -43.731 -48.335   7.145  1.00  0.00    -0.266 OA
ENDBRANCH   1  15
TORSDOF 2
ENDMDL
MODEL 7
REMARK VINA RESULT:      -5.4      3.408      5.119
REMARK  2 active torsions:
REMARK  status: ('A' for Active; 'I' for Inactive)
REMARK       I    between atoms: N_3  and  C_4 
REMARK    1  A    between atoms: C_4  and  C_6 
REMARK    2  A    between atoms: C_8  and  C_12 
ROOT
HETATM    1  C   UNL     2     -39.512 -49.848  11.408  1.00  0.00     0.117 A 
HETATM    2  C   UNL     2     -39.879 -48.568  11.746  1.00  0.00     0.063 A 
HETATM    3  C   UNL     2     -41.255 -48.550  11.629  1.00  0.00     0.034 A 
HETATM    4  N   UNL     2     -41.657 -49.766  11.201  1.00  0.00    -0.304 N 
HETATM    5  N   UNL     2     -40.603 -50.556  11.064  1.00  0.00    -0.295 N 
ATOM      6  HN  UNL     2     -40.616 -51.527  10.753  1.00  0.00     0.187 HD
HETATM    7  H   UNL     2     -42.637 -50.079  11.016  1.00  0.00     0.186 HD
ENDROOT
BRANCH   3   8
HETATM    8  C   UNL     2     -42.166 -47.389  12.006  1.00  0.00     0.065 C 
HETATM    9  C   UNL     2     -43.577 -47.574  11.398  1.00  0.00     0.014 C 
HETATM   10  C   UNL     2     -43.491 -47.584   9.864  1.00  0.00     0.031 C 
HETATM   11  C   UNL     2     -42.838 -46.285   9.377  1.00  0.00     0.269 C 
HETATM   12  N   UNL     2     -41.521 -46.087  10.004  1.00  0.00     0.084 N 
HETATM   13  C   UNL     2     -41.624 -46.044  11.474  1.00  0.00     0.280 C 
HETATM   14  H   UNL     2     -41.128 -45.178   9.668  1.00  0.00     0.315 HD
ENDBRANCH   3   8
BRANCH   1  15
HETATM   15  C   UNL     2     -38.137 -50.379  11.459  1.00  0.00     0.267 C 
HETATM   16  N   UNL     2     -37.235 -50.076  10.496  1.00  0.00    -0.365 N 
HETATM   17  H   UNL     2     -36.283 -50.466  10.537  1.00  0.00     0.159 HD
HETATM   18  H   UNL     2     -37.482 -49.449   9.715  1.00  0.00     0.159 HD
HETATM   19  O   UNL     2     -37.815 -51.130  12.369  1.00  0.00    -0.266 OA
ENDBRANCH   1  15
TORSDOF 2
ENDMDL
MODEL 8
REMARK VINA RESULT:      -5.3      4.456      5.296
REMARK  2 active torsions:
REMARK  status: ('A' for Active; 'I' for Inactive)
REMARK       I    between atoms: N_3  and  C_4 
REMARK    1  A    between atoms: C_4  and  C_6 
REMARK    2  A    between atoms: C_8  and  C_12 
ROOT
HETATM    1  C   UNL     2     -42.633 -52.661  12.528  1.00  0.00     0.117 A 
HETATM    2  C   UNL     2     -42.446 -51.459  13.165  1.00  0.00     0.063 A 
HETATM    3  C   UNL     2     -41.492 -50.801  12.415  1.00  0.00     0.034 A 
HETATM    4  N   UNL     2     -41.117 -51.615  11.404  1.00  0.00    -0.304 N 
HETATM    5  N   UNL     2     -41.805 -52.745  11.470  1.00  0.00    -0.295 N 
ATOM      6  HN  UNL     2     -41.722 -53.537  10.833  1.00  0.00     0.187 HD
HETATM    7  H   UNL     2     -40.415 -51.414  10.657  1.00  0.00     0.186 HD
ENDROOT
BRANCH   3   8
HETATM    8  C   UNL     2     -41.014 -49.371  12.634  1.00  0.00     0.065 C 
HETATM    9  C   UNL     2     -42.203 -48.436  12.958  1.00  0.00     0.014 C 
HETATM   10  C   UNL     2     -43.180 -48.395  11.774  1.00  0.00     0.031 C 
HETATM   11  C   UNL     2     -42.439 -47.940  10.511  1.00  0.00     0.269 C 
HETATM   12  N   UNL     2     -41.275 -48.801  10.241  1.00  0.00     0.084 N 
HETATM   13  C   UNL     2     -40.329 -48.802  11.372  1.00  0.00     0.280 C 
HETATM   14  H   UNL     2     -40.784 -48.436   9.392  1.00  0.00     0.315 HD
ENDBRANCH   3   8
BRANCH   1  15
HETATM   15  C   UNL     2     -43.621 -53.684  12.914  1.00  0.00     0.267 C 
HETATM   16  N   UNL     2     -43.444 -54.443  14.021  1.00  0.00    -0.365 N 
HETATM   17  H   UNL     2     -44.136 -55.164  14.272  1.00  0.00     0.159 HD
HETATM   18  H   UNL     2     -42.624 -54.309  14.631  1.00  0.00     0.159 HD
HETATM   19  O   UNL     2     -44.602 -53.871  12.209  1.00  0.00    -0.266 OA
ENDBRANCH   1  15
TORSDOF 2
ENDMDL
MODEL 9
REMARK VINA RESULT:      -5.1      5.762      6.308
REMARK  2 active torsions:
REMARK  status: ('A' for Active; 'I' for Inactive)
REMARK       I    between atoms: N_3  and  C_4 
REMARK    1  A    between atoms: C_4  and  C_6 
REMARK    2  A    between atoms: C_8  and  C_12 
ROOT
HETATM    1  C   UNL     2     -44.235 -53.568  13.169  1.00  0.00     0.117 A 
HETATM    2  C   UNL     2     -43.387 -52.805  13.934  1.00  0.00     0.063 A 
HETATM    3  C   UNL     2     -42.530 -52.209  13.032  1.00  0.00     0.034 A 
HETATM    4  N   UNL     2     -42.851 -52.648  11.795  1.00  0.00    -0.304 N 
HETATM    5  N   UNL     2     -43.882 -53.473  11.873  1.00  0.00    -0.295 N 
ATOM      6  HN  UNL     2     -44.330 -53.952  11.092  1.00  0.00     0.187 HD
HETATM    7  H   UNL     2     -42.394 -52.384  10.892  1.00  0.00     0.186 HD
ENDROOT
BRANCH   3   8
HETATM    8  C   UNL     2     -41.468 -51.168  13.363  1.00  0.00     0.065 C 
HETATM    9  C   UNL     2     -42.005 -50.139  14.387  1.00  0.00     0.014 C 
HETATM   10  C   UNL     2     -43.197 -49.376  13.790  1.00  0.00     0.031 C 
HETATM   11  C   UNL     2     -42.770 -48.695  12.484  1.00  0.00     0.269 C 
HETATM   12  N   UNL     2     -42.208 -49.673  11.537  1.00  0.00     0.084 N 
HETATM   13  C   UNL     2     -41.043 -50.372  12.110  1.00  0.00     0.280 C 
HETATM   14  H   UNL     2     -41.903 -49.161  10.676  1.00  0.00     0.315 HD
ENDBRANCH   3   8
BRANCH   1  15
HETATM   15  C   UNL     2     -45.384 -54.337  13.681  1.00  0.00     0.267 C 
HETATM   16  N   UNL     2     -46.604 -53.766  13.812  1.00  0.00    -0.365 N 
HETATM   17  H   UNL     2     -47.395 -54.311  14.185  1.00  0.00     0.159 HD
HETATM   18  H   UNL     2     -46.764 -52.785  13.536  1.00  0.00     0.159 HD
HETATM   19  O   UNL     2     -45.225 -55.500  14.022  1.00  0.00    -0.266 OA
ENDBRANCH   1  15
TORSDOF 2
ENDMDL
