MODEL 1
REMARK VINA RESULT:      -5.5      0.000      0.000
REMARK  6 active torsions:
REMARK  status: ('A' for Active; 'I' for Inactive)
REMARK    1  A    between atoms: C_2  and  C_3 
REMARK    2  A    between atoms: C_3  and  N_5 
REMARK       I    between atoms: N_5  and  C_6 
REMARK    3  A    between atoms: C_6  and  C_8 
REMARK    4  A    between atoms: C_8  and  N_9 
REMARK    5  A    between atoms: C_12  and  C_15 
REMARK    6  A    between atoms: C_15  and  O_17 
ROOT
HETATM    1  N   UNL     1     -41.559 -48.793  10.953  1.00  0.00    -0.294 N 
HETATM    2  C   UNL     1     -42.259 -48.046  11.856  1.00  0.00     0.112 A 
HETATM    3  C   UNL     1     -43.118 -47.266  11.123  1.00  0.00     0.048 A 
HETATM    4  C   UNL     1     -42.860 -47.603   9.775  1.00  0.00     0.055 A 
HETATM    5  N   UNL     1     -41.913 -48.553   9.671  1.00  0.00    -0.300 N 
ATOM      6  HN  UNL     1     -41.547 -48.988   8.824  1.00  0.00     0.187 HD
ENDROOT
BRANCH   1   7
HETATM    7  C   UNL     1     -40.599 -49.834  11.253  1.00  0.00     0.250 C 
BRANCH   7   8
HETATM    8  C   UNL     1     -41.106 -50.756  12.332  1.00  0.00     0.237 C 
HETATM    9  N   UNL     1     -41.988 -51.727  11.896  1.00  0.00    -0.355 N 
HETATM   10  H   UNL     1     -41.994 -51.946  10.904  1.00  0.00     0.162 HD
HETATM   11  O   UNL     1     -40.779 -50.619  13.510  1.00  0.00    -0.272 OA
BRANCH   9  12
HETATM   12  C   UNL     1     -42.556 -52.709  12.811  1.00  0.00     0.080 C 
HETATM   13  C   UNL     1     -41.621 -53.911  12.944  1.00  0.00     0.032 C 
BRANCH  12  14
HETATM   14  C   UNL     1     -43.947 -53.164  12.341  1.00  0.00     0.020 C 
HETATM   15  C   UNL     1     -44.509 -54.311  13.171  1.00  0.00     0.007 C 
ENDBRANCH  12  14
ENDBRANCH   9  12
ENDBRANCH   7   8
ENDBRANCH   1   7
BRANCH   4  16
HETATM   16  C   UNL     1     -43.524 -47.048   8.545  1.00  0.00     0.165 C 
HETATM   17  C   UNL     1     -44.870 -46.413   8.866  1.00  0.00     0.046 C 
BRANCH  16  18
HETATM   18  O   UNL     1     -42.706 -46.055   7.915  1.00  0.00    -0.390 OA
HETATM   19  H   UNL     1     -42.032 -45.842   8.592  1.00  0.00     0.210 HD
ENDBRANCH  16  18
ENDBRANCH   4  16
TORSDOF 6
ENDMDL
MODEL 2
REMARK VINA RESULT:      -5.5      1.904      5.934
REMARK  6 active torsions:
REMARK  status: ('A' for Active; 'I' for Inactive)
REMARK    1  A    between atoms: C_2  and  C_3 
REMARK    2  A    between atoms: C_3  and  N_5 
REMARK       I    between atoms: N_5  and  C_6 
REMARK    3  A    between atoms: C_6  and  C_8 
REMARK    4  A    between atoms: C_8  and  N_9 
REMARK    5  A    between atoms: C_12  and  C_15 
REMARK    6  A    between atoms: C_15  and  O_17 
ROOT
HETATM    1  N   UNL     1     -40.386 -49.212  11.833  1.00  0.00    -0.294 N 
HETATM    2  C   UNL     1     -39.210 -49.488  12.469  1.00  0.00     0.112 A 
HETATM    3  C   UNL     1     -39.238 -50.830  12.760  1.00  0.00     0.048 A 
HETATM    4  C   UNL     1     -40.483 -51.285  12.268  1.00  0.00     0.055 A 
HETATM    5  N   UNL     1     -41.181 -50.294  11.686  1.00  0.00    -0.300 N 
ATOM      6  HN  UNL     1     -42.096 -50.347  11.238  1.00  0.00     0.187 HD
ENDROOT
BRANCH   1   7
HETATM    7  C   UNL     1     -40.775 -47.945  11.250  1.00  0.00     0.250 C 
BRANCH   7   8
HETATM    8  C   UNL     1     -42.201 -47.978  10.763  1.00  0.00     0.237 C 
HETATM    9  N   UNL     1     -42.362 -47.676   9.424  1.00  0.00    -0.355 N 
HETATM   10  H   UNL     1     -41.547 -47.756   8.822  1.00  0.00     0.162 HD
HETATM   11  O   UNL     1     -43.140 -48.222  11.519  1.00  0.00    -0.272 OA
BRANCH   9  12
HETATM   12  C   UNL     1     -43.676 -47.682   8.793  1.00  0.00     0.080 C 
HETATM   13  C   UNL     1     -43.565 -48.153   7.343  1.00  0.00     0.032 C 
BRANCH  12  14
HETATM   14  C   UNL     1     -44.325 -46.289   8.854  1.00  0.00     0.020 C 
HETATM   15  C   UNL     1     -45.846 -46.344   8.892  1.00  0.00     0.007 C 
ENDBRANCH  12  14
ENDBRANCH   9  12
ENDBRANCH   7   8
ENDBRANCH   1   7
BRANCH   4  16
HETATM   16  C   UNL     1     -41.036 -52.683  12.319  1.00  0.00     0.165 C 
HETATM   17  C   UNL     1     -42.558 -52.688  12.365  1.00  0.00     0.046 C 
BRANCH  16  18
HETATM   18  O   UNL     1     -40.625 -53.447  11.178  1.00  0.00    -0.390 OA
HETATM   19  H   UNL     1     -41.329 -53.281  10.519  1.00  0.00     0.210 HD
ENDBRANCH  16  18
ENDBRANCH   4  16
TORSDOF 6
ENDMDL
MODEL 3
REMARK VINA RESULT:      -5.5      3.726      6.151
REMARK  6 active torsions:
REMARK  status: ('A' for Active; 'I' for Inactive)
REMARK    1  A    between atoms: C_2  and  C_3 
REMARK    2  A    between atoms: C_3  and  N_5 
REMARK       I    between atoms: N_5  and  C_6 
REMARK    3  A    between atoms: C_6  and  C_8 
REMARK    4  A    between atoms: C_8  and  N_9 
REMARK    5  A    between atoms: C_12  and  C_15 
REMARK    6  A    between atoms: C_15  and  O_17 
ROOT
HETATM    1  N   UNL     1     -39.865 -47.510  11.736  1.00  0.00    -0.294 N 
HETATM    2  C   UNL     1     -39.407 -47.147  12.969  1.00  0.00     0.112 A 
HETATM    3  C   UNL     1     -38.585 -48.164  13.386  1.00  0.00     0.048 A 
HETATM    4  C   UNL     1     -38.613 -49.112  12.338  1.00  0.00     0.055 A 
HETATM    5  N   UNL     1     -39.388 -48.702  11.317  1.00  0.00    -0.300 N 
ATOM      6  HN  UNL     1     -39.573 -49.180  10.435  1.00  0.00     0.187 HD
ENDROOT
BRANCH   1   7
HETATM    7  C   UNL     1     -40.692 -46.713  10.854  1.00  0.00     0.250 C 
BRANCH   7   8
HETATM    8  C   UNL     1     -41.937 -47.458  10.446  1.00  0.00     0.237 C 
HETATM    9  N   UNL     1     -42.626 -46.895   9.387  1.00  0.00    -0.355 N 
HETATM   10  H   UNL     1     -42.123 -46.247   8.789  1.00  0.00     0.162 HD
HETATM   11  O   UNL     1     -42.316 -48.465  11.040  1.00  0.00    -0.272 OA
BRANCH   9  12
HETATM   12  C   UNL     1     -43.841 -47.503   8.859  1.00  0.00     0.080 C 
HETATM   13  C   UNL     1     -43.599 -48.026   7.443  1.00  0.00     0.032 C 
BRANCH  12  14
HETATM   14  C   UNL     1     -45.008 -46.502   8.865  1.00  0.00     0.020 C 
HETATM   15  C   UNL     1     -46.360 -47.168   9.086  1.00  0.00     0.007 C 
ENDBRANCH  12  14
ENDBRANCH   9  12
ENDBRANCH   7   8
ENDBRANCH   1   7
BRANCH   4  16
HETATM   16  C   UNL     1     -37.885 -50.425  12.266  1.00  0.00     0.165 C 
HETATM   17  C   UNL     1     -37.256 -50.798  13.601  1.00  0.00     0.046 C 
BRANCH  16  18
HETATM   18  O   UNL     1     -38.765 -51.488  11.880  1.00  0.00    -0.390 OA
HETATM   19  H   UNL     1     -38.165 -52.168  11.511  1.00  0.00     0.210 HD
ENDBRANCH  16  18
ENDBRANCH   4  16
TORSDOF 6
ENDMDL
MODEL 4
REMARK VINA RESULT:      -5.4      4.843      7.099
REMARK  6 active torsions:
REMARK  status: ('A' for Active; 'I' for Inactive)
REMARK    1  A    between atoms: C_2  and  C_3 
REMARK    2  A    between atoms: C_3  and  N_5 
REMARK       I    between atoms: N_5  and  C_6 
REMARK    3  A    between atoms: C_6  and  C_8 
REMARK    4  A    between atoms: C_8  and  N_9 
REMARK    5  A    between atoms: C_12  and  C_15 
REMARK    6  A    between atoms: C_15  and  O_17 
ROOT
HETATM    1  N   UNL     1     -41.914 -53.198  13.412  1.00  0.00    -0.294 N 
HETATM    2  C   UNL     1     -42.183 -52.943  14.726  1.00  0.00     0.112 A 
HETATM    3  C   UNL     1     -41.129 -53.457  15.439  1.00  0.00     0.048 A 
HETATM    4  C   UNL     1     -40.268 -54.018  14.468  1.00  0.00     0.055 A 
HETATM    5  N   UNL     1     -40.743 -53.845  13.222  1.00  0.00    -0.300 N 
ATOM      6  HN  UNL     1     -40.320 -54.134  12.340  1.00  0.00     0.187 HD
ENDROOT
BRANCH   1   7
HETATM    7  C   UNL     1     -42.692 -52.762  12.272  1.00  0.00     0.250 C 
BRANCH   7   8
HETATM    8  C   UNL     1     -44.153 -53.091  12.445  1.00  0.00     0.237 C 
HETATM    9  N   UNL     1     -44.970 -51.996  12.656  1.00  0.00    -0.355 N 
HETATM   10  H   UNL     1     -44.615 -51.084  12.386  1.00  0.00     0.162 HD
HETATM   11  O   UNL     1     -44.564 -54.250  12.431  1.00  0.00    -0.272 OA
BRANCH   9  12
HETATM   12  C   UNL     1     -46.411 -52.141  12.823  1.00  0.00     0.080 C 
HETATM   13  C   UNL     1     -47.142 -51.635  11.580  1.00  0.00     0.032 C 
BRANCH  12  14
HETATM   14  C   UNL     1     -46.901 -51.391  14.073  1.00  0.00     0.020 C 
HETATM   15  C   UNL     1     -47.032 -52.293  15.294  1.00  0.00     0.007 C 
ENDBRANCH  12  14
ENDBRANCH   9  12
ENDBRANCH   7   8
ENDBRANCH   1   7
BRANCH   4  16
HETATM   16  C   UNL     1     -38.956 -54.715  14.696  1.00  0.00     0.165 C 
HETATM   17  C   UNL     1     -38.960 -55.523  15.987  1.00  0.00     0.046 C 
BRANCH  16  18
HETATM   18  O   UNL     1     -38.645 -55.607  13.618  1.00  0.00    -0.390 OA
HETATM   19  H   UNL     1     -37.689 -55.464  13.463  1.00  0.00     0.210 HD
ENDBRANCH  16  18
ENDBRANCH   4  16
TORSDOF 6
ENDMDL
MODEL 5
REMARK VINA RESULT:      -5.4      2.260      6.003
REMARK  6 active torsions:
REMARK  status: ('A' for Active; 'I' for Inactive)
REMARK    1  A    between atoms: C_2  and  C_3 
REMARK    2  A    between atoms: C_3  and  N_5 
REMARK       I    between atoms: N_5  and  C_6 
REMARK    3  A    between atoms: C_6  and  C_8 
REMARK    4  A    between atoms: C_8  and  N_9 
REMARK    5  A    between atoms: C_12  and  C_15 
REMARK    6  A    between atoms: C_15  and  O_17 
ROOT
HETATM    1  N   UNL     1     -42.548 -52.354  12.525  1.00  0.00    -0.294 N 
HETATM    2  C   UNL     1     -42.510 -53.642  12.974  1.00  0.00     0.112 A 
HETATM    3  C   UNL     1     -43.815 -54.015  13.176  1.00  0.00     0.048 A 
HETATM    4  C   UNL     1     -44.579 -52.877  12.830  1.00  0.00     0.055 A 
HETATM    5  N   UNL     1     -43.801 -51.861  12.415  1.00  0.00    -0.300 N 
ATOM      6  HN  UNL     1     -44.089 -50.937  12.094  1.00  0.00     0.187 HD
ENDROOT
BRANCH   1   7
HETATM    7  C   UNL     1     -41.419 -51.559  12.086  1.00  0.00     0.250 C 
BRANCH   7   8
HETATM    8  C   UNL     1     -41.705 -50.084  12.206  1.00  0.00     0.237 C 
HETATM    9  N   UNL     1     -41.690 -49.393  11.009  1.00  0.00    -0.355 N 
HETATM   10  H   UNL     1     -41.795 -49.931  10.153  1.00  0.00     0.162 HD
HETATM   11  O   UNL     1     -41.899 -49.547  13.295  1.00  0.00    -0.272 OA
BRANCH   9  12
HETATM   12  C   UNL     1     -41.965 -47.963  10.950  1.00  0.00     0.080 C 
HETATM   13  C   UNL     1     -42.692 -47.617   9.651  1.00  0.00     0.032 C 
BRANCH  12  14
HETATM   14  C   UNL     1     -40.668 -47.145  11.070  1.00  0.00     0.020 C 
HETATM   15  C   UNL     1     -40.812 -45.723  10.544  1.00  0.00     0.007 C 
ENDBRANCH  12  14
ENDBRANCH   9  12
ENDBRANCH   7   8
ENDBRANCH   1   7
BRANCH   4  16
HETATM   16  C   UNL     1     -46.075 -52.730  12.862  1.00  0.00     0.165 C 
HETATM   17  C   UNL     1     -46.511 -51.564  13.740  1.00  0.00     0.046 C 
BRANCH  16  18
HETATM   18  O   UNL     1     -46.607 -52.516  11.548  1.00  0.00    -0.390 OA
HETATM   19  H   UNL     1     -47.562 -52.369  11.703  1.00  0.00     0.210 HD
ENDBRANCH  16  18
ENDBRANCH   4  16
TORSDOF 6
ENDMDL
MODEL 6
REMARK VINA RESULT:      -5.3      3.694      4.841
REMARK  6 active torsions:
REMARK  status: ('A' for Active; 'I' for Inactive)
REMARK    1  A    between atoms: C_2  and  C_3 
REMARK    2  A    between atoms: C_3  and  N_5 
REMARK       I    between atoms: N_5  and  C_6 
REMARK    3  A    between atoms: C_6  and  C_8 
REMARK    4  A    between atoms: C_8  and  N_9 
REMARK    5  A    between atoms: C_12  and  C_15 
REMARK    6  A    between atoms: C_15  and  O_17 
ROOT
HETATM    1  N   UNL     1     -40.370 -53.017  13.066  1.00  0.00    -0.294 N 
HETATM    2  C   UNL     1     -39.465 -52.667  14.025  1.00  0.00     0.112 A 
HETATM    3  C   UNL     1     -38.981 -51.435  13.664  1.00  0.00     0.048 A 
HETATM    4  C   UNL     1     -39.647 -51.118  12.458  1.00  0.00     0.055 A 
HETATM    5  N   UNL     1     -40.512 -52.084  12.099  1.00  0.00    -0.300 N 
ATOM      6  HN  UNL     1     -41.130 -52.107  11.287  1.00  0.00     0.187 HD
ENDROOT
BRANCH   1   7
HETATM    7  C   UNL     1     -41.213 -54.194  13.062  1.00  0.00     0.250 C 
BRANCH   7   8
HETATM    8  C   UNL     1     -42.494 -53.955  13.820  1.00  0.00     0.237 C 
HETATM    9  N   UNL     1     -43.620 -53.836  13.028  1.00  0.00    -0.355 N 
HETATM   10  H   UNL     1     -43.572 -54.204  12.082  1.00  0.00     0.162 HD
HETATM   11  O   UNL     1     -42.513 -53.843  15.044  1.00  0.00    -0.272 OA
BRANCH   9  12
HETATM   12  C   UNL     1     -44.941 -53.621  13.606  1.00  0.00     0.080 C 
HETATM   13  C   UNL     1     -45.639 -54.960  13.842  1.00  0.00     0.032 C 
BRANCH  12  14
HETATM   14  C   UNL     1     -45.801 -52.722  12.703  1.00  0.00     0.020 C 
HETATM   15  C   UNL     1     -46.512 -51.615  13.471  1.00  0.00     0.007 C 
ENDBRANCH  12  14
ENDBRANCH   9  12
ENDBRANCH   7   8
ENDBRANCH   1   7
BRANCH   4  16
HETATM   16  C   UNL     1     -39.498 -49.877  11.623  1.00  0.00     0.165 C 
HETATM   17  C   UNL     1     -38.035 -49.529  11.383  1.00  0.00     0.046 C 
BRANCH  16  18
HETATM   18  O   UNL     1     -40.132 -50.027  10.347  1.00  0.00    -0.390 OA
HETATM   19  H   UNL     1     -39.827 -49.247   9.840  1.00  0.00     0.210 HD
ENDBRANCH  16  18
ENDBRANCH   4  16
TORSDOF 6
ENDMDL
MODEL 7
REMARK VINA RESULT:      -5.3      2.077      3.188
REMARK  6 active torsions:
REMARK  status: ('A' for Active; 'I' for Inactive)
REMARK    1  A    between atoms: C_2  and  C_3 
REMARK    2  A    between atoms: C_3  and  N_5 
REMARK       I    between atoms: N_5  and  C_6 
REMARK    3  A    between atoms: C_6  and  C_8 
REMARK    4  A    between atoms: C_8  and  N_9 
REMARK    5  A    between atoms: C_12  and  C_15 
REMARK    6  A    between atoms: C_15  and  O_17 
ROOT
HETATM    1  N   UNL     1     -40.746 -51.389  11.991  1.00  0.00    -0.294 N 
HETATM    2  C   UNL     1     -39.494 -50.870  12.151  1.00  0.00     0.112 A 
HETATM    3  C   UNL     1     -39.568 -49.559  11.752  1.00  0.00     0.048 A 
HETATM    4  C   UNL     1     -40.912 -49.374  11.353  1.00  0.00     0.055 A 
HETATM    5  N   UNL     1     -41.639 -50.494  11.514  1.00  0.00    -0.300 N 
ATOM      6  HN  UNL     1     -42.630 -50.635  11.322  1.00  0.00     0.187 HD
ENDROOT
BRANCH   1   7
HETATM    7  C   UNL     1     -41.185 -52.716  12.367  1.00  0.00     0.250 C 
BRANCH   7   8
HETATM    8  C   UNL     1     -42.445 -52.666  13.192  1.00  0.00     0.237 C 
HETATM    9  N   UNL     1     -43.501 -53.397  12.679  1.00  0.00    -0.355 N 
HETATM   10  H   UNL     1     -43.286 -54.123  12.002  1.00  0.00     0.162 HD
HETATM   11  O   UNL     1     -42.524 -51.994  14.219  1.00  0.00    -0.272 OA
BRANCH   9  12
HETATM   12  C   UNL     1     -44.785 -53.467  13.366  1.00  0.00     0.080 C 
HETATM   13  C   UNL     1     -45.214 -54.924  13.540  1.00  0.00     0.032 C 
BRANCH  12  14
HETATM   14  C   UNL     1     -45.864 -52.680  12.603  1.00  0.00     0.020 C 
HETATM   15  C   UNL     1     -46.469 -51.550  13.426  1.00  0.00     0.007 C 
ENDBRANCH  12  14
ENDBRANCH   9  12
ENDBRANCH   7   8
ENDBRANCH   1   7
BRANCH   4  16
HETATM   16  C   UNL     1     -41.550 -48.118  10.828  1.00  0.00     0.165 C 
HETATM   17  C   UNL     1     -40.639 -46.909  10.991  1.00  0.00     0.046 C 
BRANCH  16  18
HETATM   18  O   UNL     1     -41.877 -48.241   9.438  1.00  0.00    -0.390 OA
HETATM   19  H   UNL     1     -42.852 -48.319   9.432  1.00  0.00     0.210 HD
ENDBRANCH  16  18
ENDBRANCH   4  16
TORSDOF 6
ENDMDL
MODEL 8
REMARK VINA RESULT:      -5.3      3.770      5.941
REMARK  6 active torsions:
REMARK  status: ('A' for Active; 'I' for Inactive)
REMARK    1  A    between atoms: C_2  and  C_3 
REMARK    2  A    between atoms: C_3  and  N_5 
REMARK       I    between atoms: N_5  and  C_6 
REMARK    3  A    between atoms: C_6  and  C_8 
REMARK    4  A    between atoms: C_8  and  N_9 
REMARK    5  A    between atoms: C_12  and  C_15 
REMARK    6  A    between atoms: C_15  and  O_17 
ROOT
HETATM    1  N   UNL     1     -42.457 -52.999  12.572  1.00  0.00    -0.294 N 
HETATM    2  C   UNL     1     -42.532 -53.813  13.665  1.00  0.00     0.112 A 
HETATM    3  C   UNL     1     -43.860 -53.874  14.007  1.00  0.00     0.048 A 
HETATM    4  C   UNL     1     -44.519 -53.052  13.063  1.00  0.00     0.055 A 
HETATM    5  N   UNL     1     -43.658 -52.528  12.173  1.00  0.00    -0.300 N 
ATOM      6  HN  UNL     1     -43.864 -51.916  11.382  1.00  0.00     0.187 HD
ENDROOT
BRANCH   1   7
HETATM    7  C   UNL     1     -41.271 -52.706  11.794  1.00  0.00     0.250 C 
BRANCH   7   8
HETATM    8  C   UNL     1     -40.799 -51.293  12.022  1.00  0.00     0.237 C 
HETATM    9  N   UNL     1     -39.426 -51.143  12.072  1.00  0.00    -0.355 N 
HETATM   10  H   UNL     1     -38.857 -51.881  11.668  1.00  0.00     0.162 HD
HETATM   11  O   UNL     1     -41.588 -50.363  12.183  1.00  0.00    -0.272 OA
BRANCH   9  12
HETATM   12  C   UNL     1     -38.808 -49.838  12.267  1.00  0.00     0.080 C 
HETATM   13  C   UNL     1     -37.557 -49.709  11.398  1.00  0.00     0.032 C 
BRANCH  12  14
HETATM   14  C   UNL     1     -38.456 -49.608  13.746  1.00  0.00     0.020 C 
HETATM   15  C   UNL     1     -37.674 -48.321  13.978  1.00  0.00     0.007 C 
ENDBRANCH  12  14
ENDBRANCH   9  12
ENDBRANCH   7   8
ENDBRANCH   1   7
BRANCH   4  16
HETATM   16  C   UNL     1     -45.990 -52.760  12.968  1.00  0.00     0.165 C 
HETATM   17  C   UNL     1     -46.364 -51.486  13.712  1.00  0.00     0.046 C 
BRANCH  16  18
HETATM   18  O   UNL     1     -46.406 -52.613  11.604  1.00  0.00    -0.390 OA
HETATM   19  H   UNL     1     -46.960 -51.807  11.613  1.00  0.00     0.210 HD
ENDBRANCH  16  18
ENDBRANCH   4  16
TORSDOF 6
ENDMDL
MODEL 9
REMARK VINA RESULT:      -5.0      2.020      2.337
REMARK  6 active torsions:
REMARK  status: ('A' for Active; 'I' for Inactive)
REMARK    1  A    between atoms: C_2  and  C_3 
REMARK    2  A    between atoms: C_3  and  N_5 
REMARK       I    between atoms: N_5  and  C_6 
REMARK    3  A    between atoms: C_6  and  C_8 
REMARK    4  A    between atoms: C_8  and  N_9 
REMARK    5  A    between atoms: C_12  and  C_15 
REMARK    6  A    between atoms: C_15  and  O_17 
ROOT
HETATM    1  N   UNL     1     -41.338 -48.871  11.025  1.00  0.00    -0.294 N 
HETATM    2  C   UNL     1     -42.203 -48.374  11.956  1.00  0.00     0.112 A 
HETATM    3  C   UNL     1     -43.149 -47.664  11.260  1.00  0.00     0.048 A 
HETATM    4  C   UNL     1     -42.768 -47.780   9.903  1.00  0.00     0.055 A 
HETATM    5  N   UNL     1     -41.664 -48.534   9.758  1.00  0.00    -0.300 N 
ATOM      6  HN  UNL     1     -41.185 -48.791   8.895  1.00  0.00     0.187 HD
ENDROOT
BRANCH   1   7
HETATM    7  C   UNL     1     -40.226 -49.765  11.272  1.00  0.00     0.250 C 
BRANCH   7   8
HETATM    8  C   UNL     1     -40.650 -50.960  12.086  1.00  0.00     0.237 C 
HETATM    9  N   UNL     1     -40.030 -51.071  13.317  1.00  0.00    -0.355 N 
HETATM   10  H   UNL     1     -39.597 -50.237  13.703  1.00  0.00     0.162 HD
HETATM   11  O   UNL     1     -41.459 -51.782  11.660  1.00  0.00    -0.272 OA
BRANCH   9  12
HETATM   12  C   UNL     1     -40.342 -52.160  14.233  1.00  0.00     0.080 C 
HETATM   13  C   UNL     1     -40.801 -51.603  15.581  1.00  0.00     0.032 C 
BRANCH  12  14
HETATM   14  C   UNL     1     -39.131 -53.088  14.424  1.00  0.00     0.020 C 
HETATM   15  C   UNL     1     -39.390 -54.510  13.944  1.00  0.00     0.007 C 
ENDBRANCH  12  14
ENDBRANCH   9  12
ENDBRANCH   7   8
ENDBRANCH   1   7
BRANCH   4  16
HETATM   16  C   UNL     1     -43.456 -47.194   8.701  1.00  0.00     0.165 C 
HETATM   17  C   UNL     1     -44.912 -46.854   8.992  1.00  0.00     0.046 C 
BRANCH  16  18
HETATM   18  O   UNL     1     -42.803 -45.998   8.258  1.00  0.00    -0.390 OA
HETATM   19  H   UNL     1     -43.214 -45.292   8.798  1.00  0.00     0.210 HD
ENDBRANCH  16  18
ENDBRANCH   4  16
TORSDOF 6
ENDMDL
