MODEL 1
REMARK VINA RESULT:      -6.4      0.000      0.000
REMARK  5 active torsions:
REMARK  status: ('A' for Active; 'I' for Inactive)
REMARK    1  A    between atoms: O_2  and  C_3 
REMARK    2  A    between atoms: C_9  and  N_10 
REMARK       I    between atoms: N_10  and  C_11 
REMARK       I    between atoms: C_11  and  N_13 
REMARK    3  A    between atoms: N_13  and  C_14 
REMARK    4  A    between atoms: C_14  and  C_15 
REMARK    5  A    between atoms: C_15  and  C_16 
REMARK       I    between atoms: C_16  and  N_18 
ROOT
HETATM    1  N   UNL     1     -41.156 -48.768  10.534  1.00  0.00    -0.305 N 
HETATM    2  C   UNL     1     -41.148 -49.671  11.573  1.00  0.00     0.320 C 
HETATM    3  O   UNL     1     -41.225 -49.398  12.766  1.00  0.00    -0.247 OA
HETATM    4  N   UNL     1     -41.018 -50.972  11.152  1.00  0.00    -0.342 N 
HETATM    5  H   UNL     1     -40.735 -49.061   9.662  1.00  0.00     0.171 HD
HETATM    6  H   UNL     1     -41.370 -51.204  10.229  1.00  0.00     0.164 HD
ENDROOT
BRANCH   1   7
HETATM    7  C   UNL     1     -41.375 -47.372  10.683  1.00  0.00     0.087 A 
HETATM    8  C   UNL     1     -42.658 -46.820  10.566  1.00  0.00     0.169 A 
HETATM    9  N   UNL     1     -42.927 -45.494  10.686  1.00  0.00    -0.345 N 
HETATM   10  C   UNL     1     -41.882 -44.674  10.912  1.00  0.00     0.090 A 
ATOM     11  HN  UNL     1     -43.878 -45.136  10.608  1.00  0.00     0.167 HD
HETATM   12  C   UNL     1     -40.581 -45.114  11.043  1.00  0.00     0.019 A 
HETATM   13  C   UNL     1     -40.332 -46.479  10.944  1.00  0.00     0.035 A 
BRANCH   8  14
HETATM   14  O   UNL     1     -43.713 -47.676  10.290  1.00  0.00    -0.339 OA
HETATM   15  C   UNL     1     -44.215 -47.483   8.964  1.00  0.00     0.211 C 
ENDBRANCH   8  14
ENDBRANCH   1   7
BRANCH   4  16
HETATM   16  C   UNL     1     -41.036 -52.060  12.122  1.00  0.00     0.133 C 
BRANCH  16  17
HETATM   17  C   UNL     1     -42.419 -52.686  12.311  1.00  0.00     0.122 C 
BRANCH  17  18
HETATM   18  C   UNL     1     -43.073 -52.229  13.600  1.00  0.00     0.221 C 
HETATM   19  O   UNL     1     -42.410 -51.927  14.594  1.00  0.00    -0.273 OA
HETATM   20  N   UNL     1     -44.447 -52.152  13.600  1.00  0.00    -0.352 N 
HETATM   21  C   UNL     1     -45.167 -51.653  14.756  1.00  0.00     0.126 C 
HETATM   22  C   UNL     1     -45.375 -52.629  12.589  1.00  0.00     0.126 C 
HETATM   23  C   UNL     1     -46.598 -51.424  14.276  1.00  0.00     0.021 C 
HETATM   24  C   UNL     1     -46.571 -51.713  12.775  1.00  0.00     0.021 C 
ENDBRANCH  17  18
ENDBRANCH  16  17
ENDBRANCH   4  16
TORSDOF 5
ENDMDL
MODEL 2
REMARK VINA RESULT:      -6.3      2.063      3.207
REMARK  5 active torsions:
REMARK  status: ('A' for Active; 'I' for Inactive)
REMARK    1  A    between atoms: O_2  and  C_3 
REMARK    2  A    between atoms: C_9  and  N_10 
REMARK       I    between atoms: N_10  and  C_11 
REMARK       I    between atoms: C_11  and  N_13 
REMARK    3  A    between atoms: N_13  and  C_14 
REMARK    4  A    between atoms: C_14  and  C_15 
REMARK    5  A    between atoms: C_15  and  C_16 
REMARK       I    between atoms: C_16  and  N_18 
ROOT
HETATM    1  N   UNL     1     -40.962 -50.899  11.185  1.00  0.00    -0.305 N 
HETATM    2  C   UNL     1     -41.569 -51.559  12.229  1.00  0.00     0.320 C 
HETATM    3  O   UNL     1     -41.900 -51.063  13.300  1.00  0.00    -0.247 OA
HETATM    4  N   UNL     1     -41.765 -52.895  11.976  1.00  0.00    -0.342 N 
HETATM    5  H   UNL     1     -40.426 -51.455  10.532  1.00  0.00     0.171 HD
HETATM    6  H   UNL     1     -41.884 -53.177  11.009  1.00  0.00     0.164 HD
ENDROOT
BRANCH   1   7
HETATM    7  C   UNL     1     -40.731 -49.496  11.145  1.00  0.00     0.087 A 
HETATM    8  C   UNL     1     -39.530 -48.944  11.609  1.00  0.00     0.169 A 
HETATM    9  N   UNL     1     -39.257 -47.613  11.607  1.00  0.00    -0.345 N 
HETATM   10  C   UNL     1     -40.219 -46.790  11.145  1.00  0.00     0.090 A 
ATOM     11  HN  UNL     1     -38.364 -47.253  11.941  1.00  0.00     0.167 HD
HETATM   12  C   UNL     1     -41.435 -47.231  10.665  1.00  0.00     0.019 A 
HETATM   13  C   UNL     1     -41.682 -48.600  10.652  1.00  0.00     0.035 A 
BRANCH   8  14
HETATM   14  O   UNL     1     -38.570 -49.804  12.121  1.00  0.00    -0.339 OA
HETATM   15  C   UNL     1     -37.447 -49.924  11.245  1.00  0.00     0.211 C 
ENDBRANCH   8  14
ENDBRANCH   1   7
BRANCH   4  16
HETATM   16  C   UNL     1     -42.437 -53.734  12.961  1.00  0.00     0.133 C 
BRANCH  16  17
HETATM   17  C   UNL     1     -43.884 -54.066  12.594  1.00  0.00     0.122 C 
BRANCH  17  18
HETATM   18  C   UNL     1     -44.727 -54.342  13.824  1.00  0.00     0.221 C 
HETATM   19  O   UNL     1     -44.552 -55.342  14.522  1.00  0.00    -0.273 OA
HETATM   20  N   UNL     1     -45.690 -53.407  14.133  1.00  0.00    -0.352 N 
HETATM   21  C   UNL     1     -46.498 -53.536  15.331  1.00  0.00     0.126 C 
HETATM   22  C   UNL     1     -46.138 -52.279  13.334  1.00  0.00     0.126 C 
HETATM   23  C   UNL     1     -47.202 -52.191  15.491  1.00  0.00     0.021 C 
HETATM   24  C   UNL     1     -46.633 -51.302  14.385  1.00  0.00     0.021 C 
ENDBRANCH  17  18
ENDBRANCH  16  17
ENDBRANCH   4  16
TORSDOF 5
ENDMDL
MODEL 3
REMARK VINA RESULT:      -6.3      2.716      4.239
REMARK  5 active torsions:
REMARK  status: ('A' for Active; 'I' for Inactive)
REMARK    1  A    between atoms: O_2  and  C_3 
REMARK    2  A    between atoms: C_9  and  N_10 
REMARK       I    between atoms: N_10  and  C_11 
REMARK       I    between atoms: C_11  and  N_13 
REMARK    3  A    between atoms: N_13  and  C_14 
REMARK    4  A    between atoms: C_14  and  C_15 
REMARK    5  A    between atoms: C_15  and  C_16 
REMARK       I    between atoms: C_16  and  N_18 
ROOT
HETATM    1  N   UNL     1     -40.475 -51.766  13.739  1.00  0.00    -0.305 N 
HETATM    2  C   UNL     1     -40.854 -53.086  13.643  1.00  0.00     0.320 C 
HETATM    3  O   UNL     1     -40.459 -53.890  12.806  1.00  0.00    -0.247 OA
HETATM    4  N   UNL     1     -41.777 -53.449  14.593  1.00  0.00    -0.342 N 
HETATM    5  H   UNL     1     -41.109 -51.134  14.210  1.00  0.00     0.171 HD
HETATM    6  H   UNL     1     -41.766 -52.947  15.474  1.00  0.00     0.164 HD
ENDROOT
BRANCH   1   7
HETATM    7  C   UNL     1     -39.465 -51.159  12.945  1.00  0.00     0.087 A 
HETATM    8  C   UNL     1     -39.791 -50.355  11.844  1.00  0.00     0.169 A 
HETATM    9  N   UNL     1     -38.872 -49.759  11.041  1.00  0.00    -0.345 N 
HETATM   10  C   UNL     1     -37.573 -49.981  11.326  1.00  0.00     0.090 A 
ATOM     11  HN  UNL     1     -39.151 -49.171  10.257  1.00  0.00     0.167 HD
HETATM   12  C   UNL     1     -37.145 -50.754  12.386  1.00  0.00     0.019 A 
HETATM   13  C   UNL     1     -38.104 -51.332  13.210  1.00  0.00     0.035 A 
BRANCH   8  14
HETATM   14  O   UNL     1     -41.132 -50.176  11.540  1.00  0.00    -0.339 OA
HETATM   15  C   UNL     1     -41.406 -48.833  11.134  1.00  0.00     0.211 C 
ENDBRANCH   8  14
ENDBRANCH   1   7
BRANCH   4  16
HETATM   16  C   UNL     1     -42.254 -54.825  14.661  1.00  0.00     0.133 C 
BRANCH  16  17
HETATM   17  C   UNL     1     -43.779 -54.942  14.660  1.00  0.00     0.122 C 
BRANCH  17  18
HETATM   18  C   UNL     1     -44.415 -54.019  13.639  1.00  0.00     0.221 C 
HETATM   19  O   UNL     1     -44.253 -54.178  12.428  1.00  0.00    -0.273 OA
HETATM   20  N   UNL     1     -45.198 -53.000  14.133  1.00  0.00    -0.352 N 
HETATM   21  C   UNL     1     -45.914 -52.108  13.241  1.00  0.00     0.126 C 
HETATM   22  C   UNL     1     -45.351 -52.571  15.513  1.00  0.00     0.126 C 
HETATM   23  C   UNL     1     -46.890 -51.342  14.130  1.00  0.00     0.021 C 
HETATM   24  C   UNL     1     -46.740 -51.959  15.520  1.00  0.00     0.021 C 
ENDBRANCH  17  18
ENDBRANCH  16  17
ENDBRANCH   4  16
TORSDOF 5
ENDMDL
MODEL 4
REMARK VINA RESULT:      -6.3      2.388      3.413
REMARK  5 active torsions:
REMARK  status: ('A' for Active; 'I' for Inactive)
REMARK    1  A    between atoms: O_2  and  C_3 
REMARK    2  A    between atoms: C_9  and  N_10 
REMARK       I    between atoms: N_10  and  C_11 
REMARK       I    between atoms: C_11  and  N_13 
REMARK    3  A    between atoms: N_13  and  C_14 
REMARK    4  A    between atoms: C_14  and  C_15 
REMARK    5  A    between atoms: C_15  and  C_16 
REMARK       I    between atoms: C_16  and  N_18 
ROOT
HETATM    1  N   UNL     1     -41.968 -48.222   9.521  1.00  0.00    -0.305 N 
HETATM    2  C   UNL     1     -41.645 -48.833  10.712  1.00  0.00     0.320 C 
HETATM    3  O   UNL     1     -42.175 -48.620  11.797  1.00  0.00    -0.247 OA
HETATM    4  N   UNL     1     -40.612 -49.729  10.592  1.00  0.00    -0.342 N 
HETATM    5  H   UNL     1     -41.257 -48.202   8.802  1.00  0.00     0.171 HD
HETATM    6  H   UNL     1     -40.488 -50.184   9.694  1.00  0.00     0.164 HD
ENDROOT
BRANCH   1   7
HETATM    7  C   UNL     1     -43.059 -47.328   9.344  1.00  0.00     0.087 A 
HETATM    8  C   UNL     1     -42.909 -45.950   9.550  1.00  0.00     0.169 A 
HETATM    9  N   UNL     1     -43.916 -45.048   9.409  1.00  0.00    -0.345 N 
HETATM   10  C   UNL     1     -45.127 -45.530   9.068  1.00  0.00     0.090 A 
ATOM     11  HN  UNL     1     -43.761 -44.051   9.554  1.00  0.00     0.167 HD
HETATM   12  C   UNL     1     -45.381 -46.868   8.842  1.00  0.00     0.019 A 
HETATM   13  C   UNL     1     -44.329 -47.769   8.966  1.00  0.00     0.035 A 
BRANCH   8  14
HETATM   14  O   UNL     1     -41.666 -45.479   9.944  1.00  0.00    -0.339 OA
HETATM   15  C   UNL     1     -41.701 -44.939  11.268  1.00  0.00     0.211 C 
ENDBRANCH   8  14
ENDBRANCH   1   7
BRANCH   4  16
HETATM   16  C   UNL     1     -40.171 -50.497  11.751  1.00  0.00     0.133 C 
BRANCH  16  17
HETATM   17  C   UNL     1     -40.964 -51.787  11.964  1.00  0.00     0.122 C 
BRANCH  17  18
HETATM   18  C   UNL     1     -40.362 -52.643  13.061  1.00  0.00     0.221 C 
HETATM   19  O   UNL     1     -39.185 -52.525  13.407  1.00  0.00    -0.273 OA
HETATM   20  N   UNL     1     -41.202 -53.550  13.667  1.00  0.00    -0.352 N 
HETATM   21  C   UNL     1     -40.748 -54.363  14.780  1.00  0.00     0.126 C 
HETATM   22  C   UNL     1     -42.547 -53.934  13.271  1.00  0.00     0.126 C 
HETATM   23  C   UNL     1     -42.010 -54.988  15.367  1.00  0.00     0.021 C 
HETATM   24  C   UNL     1     -43.169 -54.370  14.585  1.00  0.00     0.021 C 
ENDBRANCH  17  18
ENDBRANCH  16  17
ENDBRANCH   4  16
TORSDOF 5
ENDMDL
MODEL 5
REMARK VINA RESULT:      -6.2      3.262      7.478
REMARK  5 active torsions:
REMARK  status: ('A' for Active; 'I' for Inactive)
REMARK    1  A    between atoms: O_2  and  C_3 
REMARK    2  A    between atoms: C_9  and  N_10 
REMARK       I    between atoms: N_10  and  C_11 
REMARK       I    between atoms: C_11  and  N_13 
REMARK    3  A    between atoms: N_13  and  C_14 
REMARK    4  A    between atoms: C_14  and  C_15 
REMARK    5  A    between atoms: C_15  and  C_16 
REMARK       I    between atoms: C_16  and  N_18 
ROOT
HETATM    1  N   UNL     1     -41.974 -52.666  11.806  1.00  0.00    -0.305 N 
HETATM    2  C   UNL     1     -41.511 -51.397  12.071  1.00  0.00     0.320 C 
HETATM    3  O   UNL     1     -41.868 -50.681  13.000  1.00  0.00    -0.247 OA
HETATM    4  N   UNL     1     -40.588 -50.960  11.154  1.00  0.00    -0.342 N 
HETATM    5  H   UNL     1     -41.891 -53.001  10.855  1.00  0.00     0.171 HD
HETATM    6  H   UNL     1     -40.021 -51.661  10.688  1.00  0.00     0.164 HD
ENDROOT
BRANCH   1   7
HETATM    7  C   UNL     1     -42.859 -53.394  12.647  1.00  0.00     0.087 A 
HETATM    8  C   UNL     1     -42.379 -54.168  13.712  1.00  0.00     0.169 A 
HETATM    9  N   UNL     1     -43.174 -54.893  14.541  1.00  0.00    -0.345 N 
HETATM   10  C   UNL     1     -44.499 -54.868  14.297  1.00  0.00     0.090 A 
ATOM     11  HN  UNL     1     -42.785 -55.433  15.314  1.00  0.00     0.167 HD
HETATM   12  C   UNL     1     -45.074 -54.139  13.277  1.00  0.00     0.019 A 
HETATM   13  C   UNL     1     -44.243 -53.383  12.457  1.00  0.00     0.035 A 
BRANCH   8  14
HETATM   14  O   UNL     1     -41.008 -54.216  13.918  1.00  0.00    -0.339 OA
HETATM   15  C   UNL     1     -40.628 -53.503  15.098  1.00  0.00     0.211 C 
ENDBRANCH   8  14
ENDBRANCH   1   7
BRANCH   4  16
HETATM   16  C   UNL     1     -39.963 -49.652  11.312  1.00  0.00     0.133 C 
BRANCH  16  17
HETATM   17  C   UNL     1     -38.447 -49.719  11.498  1.00  0.00     0.122 C 
BRANCH  17  18
HETATM   18  C   UNL     1     -38.067 -50.433  12.781  1.00  0.00     0.221 C 
HETATM   19  O   UNL     1     -38.034 -51.663  12.855  1.00  0.00    -0.273 OA
HETATM   20  N   UNL     1     -37.745 -49.637  13.857  1.00  0.00    -0.352 N 
HETATM   21  C   UNL     1     -37.294 -50.218  15.107  1.00  0.00     0.126 C 
HETATM   22  C   UNL     1     -37.899 -48.198  13.989  1.00  0.00     0.126 C 
HETATM   23  C   UNL     1     -36.745 -49.050  15.922  1.00  0.00     0.021 C 
HETATM   24  C   UNL     1     -36.818 -47.839  14.993  1.00  0.00     0.021 C 
ENDBRANCH  17  18
ENDBRANCH  16  17
ENDBRANCH   4  16
TORSDOF 5
ENDMDL
MODEL 6
REMARK VINA RESULT:      -6.1      3.089      7.171
REMARK  5 active torsions:
REMARK  status: ('A' for Active; 'I' for Inactive)
REMARK    1  A    between atoms: O_2  and  C_3 
REMARK    2  A    between atoms: C_9  and  N_10 
REMARK       I    between atoms: N_10  and  C_11 
REMARK       I    between atoms: C_11  and  N_13 
REMARK    3  A    between atoms: N_13  and  C_14 
REMARK    4  A    between atoms: C_14  and  C_15 
REMARK    5  A    between atoms: C_15  and  C_16 
REMARK       I    between atoms: C_16  and  N_18 
ROOT
HETATM    1  N   UNL     1     -42.870 -52.600  12.047  1.00  0.00    -0.305 N 
HETATM    2  C   UNL     1     -42.371 -51.373  12.421  1.00  0.00     0.320 C 
HETATM    3  O   UNL     1     -42.587 -50.801  13.484  1.00  0.00    -0.247 OA
HETATM    4  N   UNL     1     -41.588 -50.795  11.453  1.00  0.00    -0.342 N 
HETATM    5  H   UNL     1     -42.926 -52.796  11.056  1.00  0.00     0.171 HD
HETATM    6  H   UNL     1     -41.097 -51.412  10.816  1.00  0.00     0.164 HD
ENDROOT
BRANCH   1   7
HETATM    7  C   UNL     1     -43.627 -53.454  12.894  1.00  0.00     0.087 A 
HETATM    8  C   UNL     1     -45.025 -53.501  12.818  1.00  0.00     0.169 A 
HETATM    9  N   UNL     1     -45.802 -54.287  13.608  1.00  0.00    -0.345 N 
HETATM   10  C   UNL     1     -45.173 -55.046  14.527  1.00  0.00     0.090 A 
ATOM     11  HN  UNL     1     -46.817 -54.302  13.510  1.00  0.00     0.167 HD
HETATM   12  C   UNL     1     -43.802 -55.074  14.684  1.00  0.00     0.019 A 
HETATM   13  C   UNL     1     -43.025 -54.281  13.846  1.00  0.00     0.035 A 
BRANCH   8  14
HETATM   14  O   UNL     1     -45.657 -52.680  11.896  1.00  0.00    -0.339 OA
HETATM   15  C   UNL     1     -46.470 -51.694  12.539  1.00  0.00     0.211 C 
ENDBRANCH   8  14
ENDBRANCH   1   7
BRANCH   4  16
HETATM   16  C   UNL     1     -40.944 -49.511  11.704  1.00  0.00     0.133 C 
BRANCH  16  17
HETATM   17  C   UNL     1     -39.420 -49.560  11.586  1.00  0.00     0.122 C 
BRANCH  17  18
HETATM   18  C   UNL     1     -38.791 -50.335  12.729  1.00  0.00     0.221 C 
HETATM   19  O   UNL     1     -38.774 -51.567  12.747  1.00  0.00    -0.273 OA
HETATM   20  N   UNL     1     -38.224 -49.591  13.739  1.00  0.00    -0.352 N 
HETATM   21  C   UNL     1     -37.529 -50.232  14.839  1.00  0.00     0.126 C 
HETATM   22  C   UNL     1     -38.308 -48.156  13.956  1.00  0.00     0.126 C 
HETATM   23  C   UNL     1     -36.788 -49.109  15.560  1.00  0.00     0.021 C 
HETATM   24  C   UNL     1     -37.027 -47.859  14.715  1.00  0.00     0.021 C 
ENDBRANCH  17  18
ENDBRANCH  16  17
ENDBRANCH   4  16
TORSDOF 5
ENDMDL
MODEL 7
REMARK VINA RESULT:      -5.9      1.809      7.183
REMARK  5 active torsions:
REMARK  status: ('A' for Active; 'I' for Inactive)
REMARK    1  A    between atoms: O_2  and  C_3 
REMARK    2  A    between atoms: C_9  and  N_10 
REMARK       I    between atoms: N_10  and  C_11 
REMARK       I    between atoms: C_11  and  N_13 
REMARK    3  A    between atoms: N_13  and  C_14 
REMARK    4  A    between atoms: C_14  and  C_15 
REMARK    5  A    between atoms: C_15  and  C_16 
REMARK       I    between atoms: C_16  and  N_18 
ROOT
HETATM    1  N   UNL     1     -43.580 -52.355  12.189  1.00  0.00    -0.305 N 
HETATM    2  C   UNL     1     -42.733 -51.419  12.737  1.00  0.00     0.320 C 
HETATM    3  O   UNL     1     -42.698 -51.080  13.915  1.00  0.00    -0.247 OA
HETATM    4  N   UNL     1     -41.900 -50.843  11.809  1.00  0.00    -0.342 N 
HETATM    5  H   UNL     1     -43.767 -52.289  11.197  1.00  0.00     0.171 HD
HETATM    6  H   UNL     1     -41.651 -51.394  10.995  1.00  0.00     0.164 HD
ENDROOT
BRANCH   1   7
HETATM    7  C   UNL     1     -44.474 -53.168  12.938  1.00  0.00     0.087 A 
HETATM    8  C   UNL     1     -45.803 -52.778  13.156  1.00  0.00     0.169 A 
HETATM    9  N   UNL     1     -46.699 -53.505  13.873  1.00  0.00    -0.345 N 
HETATM   10  C   UNL     1     -46.260 -54.659  14.414  1.00  0.00     0.090 A 
ATOM     11  HN  UNL     1     -47.661 -53.192  13.996  1.00  0.00     0.167 HD
HETATM   12  C   UNL     1     -44.973 -55.134  14.259  1.00  0.00     0.019 A 
HETATM   13  C   UNL     1     -44.081 -54.385  13.499  1.00  0.00     0.035 A 
BRANCH   8  14
HETATM   14  O   UNL     1     -46.222 -51.566  12.629  1.00  0.00    -0.339 OA
HETATM   15  C   UNL     1     -47.122 -51.751  11.532  1.00  0.00     0.211 C 
ENDBRANCH   8  14
ENDBRANCH   1   7
BRANCH   4  16
HETATM   16  C   UNL     1     -40.908 -49.860  12.229  1.00  0.00     0.133 C 
BRANCH  16  17
HETATM   17  C   UNL     1     -40.522 -48.874  11.125  1.00  0.00     0.122 C 
BRANCH  17  18
HETATM   18  C   UNL     1     -41.611 -47.847  10.881  1.00  0.00     0.221 C 
HETATM   19  O   UNL     1     -42.783 -48.176  10.687  1.00  0.00    -0.273 OA
HETATM   20  N   UNL     1     -41.228 -46.525  10.905  1.00  0.00    -0.352 N 
HETATM   21  C   UNL     1     -42.204 -45.462  10.761  1.00  0.00     0.126 C 
HETATM   22  C   UNL     1     -39.882 -45.979  10.947  1.00  0.00     0.126 C 
HETATM   23  C   UNL     1     -41.469 -44.181  11.148  1.00  0.00     0.021 C 
HETATM   24  C   UNL     1     -40.088 -44.635  11.621  1.00  0.00     0.021 C 
ENDBRANCH  17  18
ENDBRANCH  16  17
ENDBRANCH   4  16
TORSDOF 5
ENDMDL
MODEL 8
REMARK VINA RESULT:      -5.7      2.319      4.150
REMARK  5 active torsions:
REMARK  status: ('A' for Active; 'I' for Inactive)
REMARK    1  A    between atoms: O_2  and  C_3 
REMARK    2  A    between atoms: C_9  and  N_10 
REMARK       I    between atoms: N_10  and  C_11 
REMARK       I    between atoms: C_11  and  N_13 
REMARK    3  A    between atoms: N_13  and  C_14 
REMARK    4  A    between atoms: C_14  and  C_15 
REMARK    5  A    between atoms: C_15  and  C_16 
REMARK       I    between atoms: C_16  and  N_18 
ROOT
HETATM    1  N   UNL     1     -42.080 -51.121  11.936  1.00  0.00    -0.305 N 
HETATM    2  C   UNL     1     -43.011 -50.902  12.926  1.00  0.00     0.320 C 
HETATM    3  O   UNL     1     -42.816 -50.304  13.978  1.00  0.00    -0.247 OA
HETATM    4  N   UNL     1     -44.235 -51.455  12.642  1.00  0.00    -0.342 N 
HETATM    5  H   UNL     1     -42.239 -51.903  11.314  1.00  0.00     0.171 HD
HETATM    6  H   UNL     1     -44.491 -51.554  11.666  1.00  0.00     0.164 HD
ENDROOT
BRANCH   1   7
HETATM    7  C   UNL     1     -40.767 -50.577  11.930  1.00  0.00     0.087 A 
HETATM    8  C   UNL     1     -40.489 -49.354  11.306  1.00  0.00     0.169 A 
HETATM    9  N   UNL     1     -39.253 -48.791  11.257  1.00  0.00    -0.345 N 
HETATM   10  C   UNL     1     -38.245 -49.473  11.834  1.00  0.00     0.090 A 
ATOM     11  HN  UNL     1     -39.096 -47.891  10.804  1.00  0.00     0.167 HD
HETATM   12  C   UNL     1     -38.411 -50.684  12.475  1.00  0.00     0.019 A 
HETATM   13  C   UNL     1     -39.689 -51.229  12.536  1.00  0.00     0.035 A 
BRANCH   8  14
HETATM   14  O   UNL     1     -41.532 -48.689  10.679  1.00  0.00    -0.339 OA
HETATM   15  C   UNL     1     -41.349 -47.270  10.713  1.00  0.00     0.211 C 
ENDBRANCH   8  14
ENDBRANCH   1   7
BRANCH   4  16
HETATM   16  C   UNL     1     -45.349 -51.279  13.567  1.00  0.00     0.133 C 
BRANCH  16  17
HETATM   17  C   UNL     1     -46.049 -52.588  13.934  1.00  0.00     0.122 C 
BRANCH  17  18
HETATM   18  C   UNL     1     -45.132 -53.784  13.767  1.00  0.00     0.221 C 
HETATM   19  O   UNL     1     -45.034 -54.384  12.695  1.00  0.00    -0.273 OA
HETATM   20  N   UNL     1     -44.398 -54.157  14.871  1.00  0.00    -0.352 N 
HETATM   21  C   UNL     1     -43.434 -55.237  14.796  1.00  0.00     0.126 C 
HETATM   22  C   UNL     1     -44.520 -53.676  16.236  1.00  0.00     0.126 C 
HETATM   23  C   UNL     1     -42.620 -55.144  16.084  1.00  0.00     0.021 C 
HETATM   24  C   UNL     1     -43.122 -53.885  16.789  1.00  0.00     0.021 C 
ENDBRANCH  17  18
ENDBRANCH  16  17
ENDBRANCH   4  16
TORSDOF 5
ENDMDL
MODEL 9
REMARK VINA RESULT:      -5.7      2.466      7.456
REMARK  5 active torsions:
REMARK  status: ('A' for Active; 'I' for Inactive)
REMARK    1  A    between atoms: O_2  and  C_3 
REMARK    2  A    between atoms: C_9  and  N_10 
REMARK       I    between atoms: N_10  and  C_11 
REMARK       I    between atoms: C_11  and  N_13 
REMARK    3  A    between atoms: N_13  and  C_14 
REMARK    4  A    between atoms: C_14  and  C_15 
REMARK    5  A    between atoms: C_15  and  C_16 
REMARK       I    between atoms: C_16  and  N_18 
ROOT
HETATM    1  N   UNL     1     -41.050 -51.027  11.280  1.00  0.00    -0.305 N 
HETATM    2  C   UNL     1     -41.444 -49.727  11.506  1.00  0.00     0.320 C 
HETATM    3  O   UNL     1     -42.095 -49.328  12.465  1.00  0.00    -0.247 OA
HETATM    4  N   UNL     1     -41.051 -48.868  10.510  1.00  0.00    -0.342 N 
HETATM    5  H   UNL     1     -40.849 -51.292  10.325  1.00  0.00     0.171 HD
HETATM    6  H   UNL     1     -40.210 -49.101   9.993  1.00  0.00     0.164 HD
ENDROOT
BRANCH   1   7
HETATM    7  C   UNL     1     -41.240 -52.097  12.196  1.00  0.00     0.087 A 
HETATM    8  C   UNL     1     -40.194 -52.552  13.010  1.00  0.00     0.169 A 
HETATM    9  N   UNL     1     -40.312 -53.576  13.895  1.00  0.00    -0.345 N 
HETATM   10  C   UNL     1     -41.510 -54.191  13.965  1.00  0.00     0.090 A 
ATOM     11  HN  UNL     1     -39.530 -53.868  14.479  1.00  0.00     0.167 HD
HETATM   12  C   UNL     1     -42.604 -53.821  13.210  1.00  0.00     0.019 A 
HETATM   13  C   UNL     1     -42.467 -52.752  12.330  1.00  0.00     0.035 A 
BRANCH   8  14
HETATM   14  O   UNL     1     -38.958 -51.936  12.890  1.00  0.00    -0.339 OA
HETATM   15  C   UNL     1     -38.627 -51.185  14.062  1.00  0.00     0.211 C 
ENDBRANCH   8  14
ENDBRANCH   1   7
BRANCH   4  16
HETATM   16  C   UNL     1     -41.349 -47.444  10.613  1.00  0.00     0.133 C 
BRANCH  16  17
HETATM   17  C   UNL     1     -40.167 -46.608  11.107  1.00  0.00     0.122 C 
BRANCH  17  18
HETATM   18  C   UNL     1     -40.312 -45.148  10.726  1.00  0.00     0.221 C 
HETATM   19  O   UNL     1     -39.845 -44.700   9.677  1.00  0.00    -0.273 OA
HETATM   20  N   UNL     1     -41.007 -44.347  11.605  1.00  0.00    -0.352 N 
HETATM   21  C   UNL     1     -41.270 -42.954  11.298  1.00  0.00     0.126 C 
HETATM   22  C   UNL     1     -41.465 -44.670  12.945  1.00  0.00     0.126 C 
HETATM   23  C   UNL     1     -42.304 -42.501  12.325  1.00  0.00     0.021 C 
HETATM   24  C   UNL     1     -42.667 -43.758  13.115  1.00  0.00     0.021 C 
ENDBRANCH  17  18
ENDBRANCH  16  17
ENDBRANCH   4  16
TORSDOF 5
ENDMDL
