MODEL 1
REMARK VINA RESULT:      -6.0      0.000      0.000
REMARK  6 active torsions:
REMARK  status: ('A' for Active; 'I' for Inactive)
REMARK    1  A    between atoms: C_2  and  C_3 
REMARK    2  A    between atoms: C_6  and  C_7 
REMARK    3  A    between atoms: C_7  and  C_8 
REMARK       I    between atoms: C_8  and  N_10 
REMARK    4  A    between atoms: N_10  and  C_11 
REMARK    5  A    between atoms: C_14  and  C_16 
REMARK    6  A    between atoms: C_16  and  O_18 
ROOT
HETATM    1  C   UNL     1     -42.662 -49.572  12.356  1.00  0.00     0.223 C 
HETATM    2  O   UNL     1     -43.449 -49.109  13.178  1.00  0.00    -0.273 OA
HETATM    3  N   UNL     1     -42.483 -50.930  12.158  1.00  0.00    -0.356 N 
HETATM    4  H   UNL     1     -41.576 -51.178  11.759  1.00  0.00     0.162 HD
ENDROOT
BRANCH   1   5
HETATM    5  C   UNL     1     -41.900 -48.683  11.395  1.00  0.00     0.160 C 
BRANCH   5   6
HETATM    6  C   UNL     1     -42.792 -47.841  10.550  1.00  0.00     0.025 A 
HETATM    7  N   UNL     1     -44.134 -48.183  10.435  1.00  0.00    -0.356 N 
HETATM    8  C   UNL     1     -44.757 -47.306   9.673  1.00  0.00     0.050 A 
ATOM      9  HN  UNL     1     -44.572 -48.992  10.875  1.00  0.00     0.166 HD
HETATM   10  S   UNL     1     -43.786 -46.014   9.086  1.00  0.00    -0.087 SA
HETATM   11  C   UNL     1     -42.429 -46.691   9.876  1.00  0.00     0.077 A 
BRANCH   8  12
HETATM   12  C   UNL     1     -46.202 -47.392   9.294  1.00  0.00     0.060 C 
HETATM   13  C   UNL     1     -46.470 -48.630   8.453  1.00  0.00     0.012 C 
ENDBRANCH   8  12
ENDBRANCH   5   6
ENDBRANCH   1   5
BRANCH   3  14
HETATM   14  C   UNL     1     -43.169 -51.905  12.982  1.00  0.00     0.085 C 
HETATM   15  C   UNL     1     -42.325 -52.386  14.166  1.00  0.00     0.026 C 
HETATM   16  C   UNL     1     -42.597 -53.888  14.318  1.00  0.00     0.017 C 
HETATM   17  C   UNL     1     -43.685 -54.236  13.299  1.00  0.00     0.085 C 
HETATM   18  C   UNL     1     -43.490 -53.190  12.212  1.00  0.00     0.040 C 
BRANCH  17  19
HETATM   19  C   UNL     1     -45.086 -54.177  13.888  1.00  0.00     0.143 C 
HETATM   20  O   UNL     1     -45.366 -54.436  15.047  1.00  0.00    -0.650 OA
BRANCH  19  21
HETATM   21  O   UNL     1     -46.030 -53.837  12.980  1.00  0.00    -0.776 OA
HETATM   22  H   UNL     1     -45.675 -53.569  12.111  1.00  0.00     0.167 HD
ENDBRANCH  19  21
ENDBRANCH  17  19
ENDBRANCH   3  14
TORSDOF 6
ENDMDL
MODEL 2
REMARK VINA RESULT:      -5.7      0.974      1.186
REMARK  6 active torsions:
REMARK  status: ('A' for Active; 'I' for Inactive)
REMARK    1  A    between atoms: C_2  and  C_3 
REMARK    2  A    between atoms: C_6  and  C_7 
REMARK    3  A    between atoms: C_7  and  C_8 
REMARK       I    between atoms: C_8  and  N_10 
REMARK    4  A    between atoms: N_10  and  C_11 
REMARK    5  A    between atoms: C_14  and  C_16 
REMARK    6  A    between atoms: C_16  and  O_18 
ROOT
HETATM    1  C   UNL     1     -42.390 -50.313  12.525  1.00  0.00     0.223 C 
HETATM    2  O   UNL     1     -43.359 -49.712  12.982  1.00  0.00    -0.273 OA
HETATM    3  N   UNL     1     -42.239 -51.687  12.611  1.00  0.00    -0.356 N 
HETATM    4  H   UNL     1     -41.271 -52.005  12.554  1.00  0.00     0.162 HD
ENDROOT
BRANCH   1   5
HETATM    5  C   UNL     1     -41.323 -49.606  11.715  1.00  0.00     0.160 C 
BRANCH   5   6
HETATM    6  C   UNL     1     -41.817 -48.361  11.064  1.00  0.00     0.025 A 
HETATM    7  N   UNL     1     -42.960 -48.418  10.275  1.00  0.00    -0.356 N 
HETATM    8  C   UNL     1     -43.249 -47.217   9.815  1.00  0.00     0.050 A 
ATOM      9  HN  UNL     1     -43.496 -49.264  10.081  1.00  0.00     0.166 HD
HETATM   10  S   UNL     1     -42.198 -45.956  10.327  1.00  0.00    -0.087 SA
HETATM   11  C   UNL     1     -41.270 -47.099  11.196  1.00  0.00     0.077 A 
BRANCH   8  12
HETATM   12  C   UNL     1     -44.387 -46.918   8.890  1.00  0.00     0.060 C 
HETATM   13  C   UNL     1     -45.682 -47.520   9.411  1.00  0.00     0.012 C 
ENDBRANCH   8  12
ENDBRANCH   5   6
ENDBRANCH   1   5
BRANCH   3  14
HETATM   14  C   UNL     1     -43.197 -52.502  13.330  1.00  0.00     0.085 C 
HETATM   15  C   UNL     1     -42.570 -53.274  14.495  1.00  0.00     0.026 C 
HETATM   16  C   UNL     1     -43.232 -54.657  14.512  1.00  0.00     0.017 C 
HETATM   17  C   UNL     1     -44.320 -54.631  13.435  1.00  0.00     0.085 C 
HETATM   18  C   UNL     1     -43.803 -53.598  12.445  1.00  0.00     0.040 C 
BRANCH  17  19
HETATM   19  C   UNL     1     -45.685 -54.247  13.984  1.00  0.00     0.143 C 
HETATM   20  O   UNL     1     -46.095 -54.534  15.097  1.00  0.00    -0.650 OA
BRANCH  19  21
HETATM   21  O   UNL     1     -46.444 -53.569  13.091  1.00  0.00    -0.776 OA
HETATM   22  H   UNL     1     -47.262 -54.030  12.825  1.00  0.00     0.167 HD
ENDBRANCH  19  21
ENDBRANCH  17  19
ENDBRANCH   3  14
TORSDOF 6
ENDMDL
MODEL 3
REMARK VINA RESULT:      -5.5      3.745      6.775
REMARK  6 active torsions:
REMARK  status: ('A' for Active; 'I' for Inactive)
REMARK    1  A    between atoms: C_2  and  C_3 
REMARK    2  A    between atoms: C_6  and  C_7 
REMARK    3  A    between atoms: C_7  and  C_8 
REMARK       I    between atoms: C_8  and  N_10 
REMARK    4  A    between atoms: N_10  and  C_11 
REMARK    5  A    between atoms: C_14  and  C_16 
REMARK    6  A    between atoms: C_16  and  O_18 
ROOT
HETATM    1  C   UNL     1     -41.357 -50.948  12.136  1.00  0.00     0.223 C 
HETATM    2  O   UNL     1     -41.462 -50.333  13.195  1.00  0.00    -0.273 OA
HETATM    3  N   UNL     1     -40.860 -50.381  10.975  1.00  0.00    -0.356 N 
HETATM    4  H   UNL     1     -41.173 -50.840  10.119  1.00  0.00     0.162 HD
ENDROOT
BRANCH   1   5
HETATM    5  C   UNL     1     -41.655 -52.430  12.043  1.00  0.00     0.160 C 
BRANCH   5   6
HETATM    6  C   UNL     1     -43.005 -52.785  12.562  1.00  0.00     0.025 A 
HETATM    7  N   UNL     1     -44.013 -51.829  12.534  1.00  0.00    -0.356 N 
HETATM    8  C   UNL     1     -45.131 -52.342  13.008  1.00  0.00     0.050 A 
ATOM      9  HN  UNL     1     -43.904 -50.873  12.196  1.00  0.00     0.166 HD
HETATM   10  S   UNL     1     -45.048 -53.994  13.476  1.00  0.00    -0.087 SA
HETATM   11  C   UNL     1     -43.392 -54.019  13.049  1.00  0.00     0.077 A 
BRANCH   8  12
HETATM   12  C   UNL     1     -46.408 -51.578  13.171  1.00  0.00     0.060 C 
HETATM   13  C   UNL     1     -46.775 -51.441  14.639  1.00  0.00     0.012 C 
ENDBRANCH   8  12
ENDBRANCH   5   6
ENDBRANCH   1   5
BRANCH   3  14
HETATM   14  C   UNL     1     -40.502 -48.977  10.920  1.00  0.00     0.085 C 
HETATM   15  C   UNL     1     -39.449 -48.588  11.963  1.00  0.00     0.026 C 
HETATM   16  C   UNL     1     -39.843 -47.202  12.487  1.00  0.00     0.017 C 
HETATM   17  C   UNL     1     -41.050 -46.751  11.659  1.00  0.00     0.085 C 
HETATM   18  C   UNL     1     -41.691 -48.064  11.238  1.00  0.00     0.040 C 
BRANCH  17  19
HETATM   19  C   UNL     1     -40.657 -45.908  10.456  1.00  0.00     0.143 C 
HETATM   20  O   UNL     1     -39.568 -45.381  10.299  1.00  0.00    -0.650 OA
BRANCH  19  21
HETATM   21  O   UNL     1     -41.663 -45.758   9.563  1.00  0.00    -0.776 OA
HETATM   22  H   UNL     1     -42.467 -45.343   9.927  1.00  0.00     0.167 HD
ENDBRANCH  19  21
ENDBRANCH  17  19
ENDBRANCH   3  14
TORSDOF 6
ENDMDL
MODEL 4
REMARK VINA RESULT:      -5.4      1.728      2.277
REMARK  6 active torsions:
REMARK  status: ('A' for Active; 'I' for Inactive)
REMARK    1  A    between atoms: C_2  and  C_3 
REMARK    2  A    between atoms: C_6  and  C_7 
REMARK    3  A    between atoms: C_7  and  C_8 
REMARK       I    between atoms: C_8  and  N_10 
REMARK    4  A    between atoms: N_10  and  C_11 
REMARK    5  A    between atoms: C_14  and  C_16 
REMARK    6  A    between atoms: C_16  and  O_18 
ROOT
HETATM    1  C   UNL     1     -41.677 -51.049  12.092  1.00  0.00     0.223 C 
HETATM    2  O   UNL     1     -41.367 -52.186  11.744  1.00  0.00    -0.273 OA
HETATM    3  N   UNL     1     -42.828 -50.760  12.805  1.00  0.00    -0.356 N 
HETATM    4  H   UNL     1     -43.157 -49.800  12.696  1.00  0.00     0.162 HD
ENDROOT
BRANCH   1   5
HETATM    5  C   UNL     1     -40.753 -49.869  11.870  1.00  0.00     0.160 C 
BRANCH   5   6
HETATM    6  C   UNL     1     -41.467 -48.657  11.378  1.00  0.00     0.025 A 
HETATM    7  N   UNL     1     -42.120 -48.710  10.152  1.00  0.00    -0.356 N 
HETATM    8  C   UNL     1     -42.709 -47.556   9.908  1.00  0.00     0.050 A 
ATOM      9  HN  UNL     1     -42.140 -49.520   9.533  1.00  0.00     0.166 HD
HETATM   10  S   UNL     1     -42.547 -46.367  11.139  1.00  0.00    -0.087 SA
HETATM   11  C   UNL     1     -41.592 -47.456  12.048  1.00  0.00     0.077 A 
BRANCH   8  12
HETATM   12  C   UNL     1     -43.462 -47.241   8.654  1.00  0.00     0.060 C 
HETATM   13  C   UNL     1     -44.950 -47.492   8.836  1.00  0.00     0.012 C 
ENDBRANCH   8  12
ENDBRANCH   5   6
ENDBRANCH   1   5
BRANCH   3  14
HETATM   14  C   UNL     1     -43.794 -51.794  13.119  1.00  0.00     0.085 C 
HETATM   15  C   UNL     1     -45.238 -51.282  13.120  1.00  0.00     0.026 C 
HETATM   16  C   UNL     1     -45.950 -51.979  14.285  1.00  0.00     0.017 C 
HETATM   17  C   UNL     1     -44.947 -52.976  14.872  1.00  0.00     0.085 C 
HETATM   18  C   UNL     1     -43.601 -52.355  14.532  1.00  0.00     0.040 C 
BRANCH  17  19
HETATM   19  C   UNL     1     -45.087 -54.370  14.281  1.00  0.00     0.143 C 
HETATM   20  O   UNL     1     -44.403 -55.332  14.592  1.00  0.00    -0.650 OA
BRANCH  19  21
HETATM   21  O   UNL     1     -46.040 -54.446  13.323  1.00  0.00    -0.776 OA
HETATM   22  H   UNL     1     -46.661 -55.191  13.431  1.00  0.00     0.167 HD
ENDBRANCH  19  21
ENDBRANCH  17  19
ENDBRANCH   3  14
TORSDOF 6
ENDMDL
MODEL 5
REMARK VINA RESULT:      -5.2      3.464      6.871
REMARK  6 active torsions:
REMARK  status: ('A' for Active; 'I' for Inactive)
REMARK    1  A    between atoms: C_2  and  C_3 
REMARK    2  A    between atoms: C_6  and  C_7 
REMARK    3  A    between atoms: C_7  and  C_8 
REMARK       I    between atoms: C_8  and  N_10 
REMARK    4  A    between atoms: N_10  and  C_11 
REMARK    5  A    between atoms: C_14  and  C_16 
REMARK    6  A    between atoms: C_16  and  O_18 
ROOT
HETATM    1  C   UNL     1     -41.497 -49.801  11.763  1.00  0.00     0.223 C 
HETATM    2  O   UNL     1     -42.095 -49.230  12.673  1.00  0.00    -0.273 OA
HETATM    3  N   UNL     1     -41.222 -49.204  10.544  1.00  0.00    -0.356 N 
HETATM    4  H   UNL     1     -41.085 -49.864   9.778  1.00  0.00     0.162 HD
ENDROOT
BRANCH   1   5
HETATM    5  C   UNL     1     -40.900 -51.181  11.944  1.00  0.00     0.160 C 
BRANCH   5   6
HETATM    6  C   UNL     1     -41.863 -52.160  12.521  1.00  0.00     0.025 A 
HETATM    7  N   UNL     1     -43.224 -51.973  12.309  1.00  0.00    -0.356 N 
HETATM    8  C   UNL     1     -43.903 -52.953  12.872  1.00  0.00     0.050 A 
ATOM      9  HN  UNL     1     -43.635 -51.195  11.795  1.00  0.00     0.166 HD
HETATM   10  S   UNL     1     -42.957 -54.161  13.647  1.00  0.00    -0.087 SA
HETATM   11  C   UNL     1     -41.539 -53.298  13.235  1.00  0.00     0.077 A 
BRANCH   8  12
HETATM   12  C   UNL     1     -45.397 -53.046  12.884  1.00  0.00     0.060 C 
HETATM   13  C   UNL     1     -46.026 -51.664  12.952  1.00  0.00     0.012 C 
ENDBRANCH   8  12
ENDBRANCH   5   6
ENDBRANCH   1   5
BRANCH   3  14
HETATM   14  C   UNL     1     -41.703 -47.872  10.236  1.00  0.00     0.085 C 
HETATM   15  C   UNL     1     -41.043 -46.786  11.092  1.00  0.00     0.026 C 
HETATM   16  C   UNL     1     -42.140 -45.770  11.434  1.00  0.00     0.017 C 
HETATM   17  C   UNL     1     -43.394 -46.214  10.675  1.00  0.00     0.085 C 
HETATM   18  C   UNL     1     -43.199 -47.715  10.530  1.00  0.00     0.040 C 
BRANCH  17  19
HETATM   19  C   UNL     1     -43.535 -45.534   9.322  1.00  0.00     0.143 C 
HETATM   20  O   UNL     1     -43.246 -46.043   8.252  1.00  0.00    -0.650 OA
BRANCH  19  21
HETATM   21  O   UNL     1     -43.988 -44.262   9.413  1.00  0.00    -0.776 OA
HETATM   22  H   UNL     1     -44.938 -44.157   9.215  1.00  0.00     0.167 HD
ENDBRANCH  19  21
ENDBRANCH  17  19
ENDBRANCH   3  14
TORSDOF 6
ENDMDL
MODEL 6
REMARK VINA RESULT:      -4.9      4.568      6.979
REMARK  6 active torsions:
REMARK  status: ('A' for Active; 'I' for Inactive)
REMARK    1  A    between atoms: C_2  and  C_3 
REMARK    2  A    between atoms: C_6  and  C_7 
REMARK    3  A    between atoms: C_7  and  C_8 
REMARK       I    between atoms: C_8  and  N_10 
REMARK    4  A    between atoms: N_10  and  C_11 
REMARK    5  A    between atoms: C_14  and  C_16 
REMARK    6  A    between atoms: C_16  and  O_18 
ROOT
HETATM    1  C   UNL     1     -41.446 -52.693  13.711  1.00  0.00     0.223 C 
HETATM    2  O   UNL     1     -41.428 -52.287  14.871  1.00  0.00    -0.273 OA
HETATM    3  N   UNL     1     -40.630 -52.183  12.715  1.00  0.00    -0.356 N 
HETATM    4  H   UNL     1     -40.992 -52.314  11.770  1.00  0.00     0.162 HD
ENDROOT
BRANCH   1   5
HETATM    5  C   UNL     1     -42.288 -53.882  13.296  1.00  0.00     0.160 C 
BRANCH   5   6
HETATM    6  C   UNL     1     -43.702 -53.780  13.753  1.00  0.00     0.025 A 
HETATM    7  N   UNL     1     -44.346 -52.550  13.689  1.00  0.00    -0.356 N 
HETATM    8  C   UNL     1     -45.589 -52.672  14.109  1.00  0.00     0.050 A 
ATOM      9  HN  UNL     1     -43.920 -51.682  13.364  1.00  0.00     0.166 HD
HETATM   10  S   UNL     1     -46.064 -54.260  14.566  1.00  0.00    -0.087 SA
HETATM   11  C   UNL     1     -44.487 -54.820  14.212  1.00  0.00     0.077 A 
BRANCH   8  12
HETATM   12  C   UNL     1     -46.558 -51.537  14.222  1.00  0.00     0.060 C 
HETATM   13  C   UNL     1     -47.194 -51.501  15.602  1.00  0.00     0.012 C 
ENDBRANCH   8  12
ENDBRANCH   5   6
ENDBRANCH   1   5
BRANCH   3  14
HETATM   14  C   UNL     1     -39.746 -51.063  12.971  1.00  0.00     0.085 C 
HETATM   15  C   UNL     1     -39.525 -50.183  11.737  1.00  0.00     0.026 C 
HETATM   16  C   UNL     1     -38.049 -49.766  11.755  1.00  0.00     0.017 C 
HETATM   17  C   UNL     1     -37.460 -50.309  13.060  1.00  0.00     0.085 C 
HETATM   18  C   UNL     1     -38.334 -51.518  13.358  1.00  0.00     0.040 C 
BRANCH  17  19
HETATM   19  C   UNL     1     -37.501 -49.295  14.192  1.00  0.00     0.143 C 
HETATM   20  O   UNL     1     -37.660 -48.094  14.047  1.00  0.00    -0.650 OA
BRANCH  19  21
HETATM   21  O   UNL     1     -37.302 -49.852  15.409  1.00  0.00    -0.776 OA
HETATM   22  H   UNL     1     -36.367 -50.036  15.621  1.00  0.00     0.167 HD
ENDBRANCH  19  21
ENDBRANCH  17  19
ENDBRANCH   3  14
TORSDOF 6
ENDMDL
MODEL 7
REMARK VINA RESULT:      -4.7      4.113      5.168
REMARK  6 active torsions:
REMARK  status: ('A' for Active; 'I' for Inactive)
REMARK    1  A    between atoms: C_2  and  C_3 
REMARK    2  A    between atoms: C_6  and  C_7 
REMARK    3  A    between atoms: C_7  and  C_8 
REMARK       I    between atoms: C_8  and  N_10 
REMARK    4  A    between atoms: N_10  and  C_11 
REMARK    5  A    between atoms: C_14  and  C_16 
REMARK    6  A    between atoms: C_16  and  O_18 
ROOT
HETATM    1  C   UNL     1     -42.297 -50.234  15.109  1.00  0.00     0.223 C 
HETATM    2  O   UNL     1     -41.711 -51.314  15.059  1.00  0.00    -0.273 OA
HETATM    3  N   UNL     1     -43.669 -50.108  14.972  1.00  0.00    -0.356 N 
HETATM    4  H   UNL     1     -43.974 -49.188  14.653  1.00  0.00     0.162 HD
ENDROOT
BRANCH   1   5
HETATM    5  C   UNL     1     -41.571 -48.949  15.448  1.00  0.00     0.160 C 
BRANCH   5   6
HETATM    6  C   UNL     1     -40.235 -48.847  14.798  1.00  0.00     0.025 A 
HETATM    7  N   UNL     1     -40.098 -49.239  13.471  1.00  0.00    -0.356 N 
HETATM    8  C   UNL     1     -38.856 -49.048  13.073  1.00  0.00     0.050 A 
ATOM      9  HN  UNL     1     -40.847 -49.618  12.892  1.00  0.00     0.166 HD
HETATM   10  S   UNL     1     -37.801 -48.360  14.243  1.00  0.00    -0.087 SA
HETATM   11  C   UNL     1     -39.083 -48.348  15.375  1.00  0.00     0.077 A 
BRANCH   8  12
HETATM   12  C   UNL     1     -38.340 -49.408  11.715  1.00  0.00     0.060 C 
HETATM   13  C   UNL     1     -37.363 -50.570  11.796  1.00  0.00     0.012 C 
ENDBRANCH   8  12
ENDBRANCH   5   6
ENDBRANCH   1   5
BRANCH   3  14
HETATM   14  C   UNL     1     -44.502 -51.257  14.676  1.00  0.00     0.085 C 
HETATM   15  C   UNL     1     -45.183 -51.164  13.307  1.00  0.00     0.026 C 
HETATM   16  C   UNL     1     -46.598 -51.729  13.481  1.00  0.00     0.017 C 
HETATM   17  C   UNL     1     -46.681 -52.253  14.917  1.00  0.00     0.085 C 
HETATM   18  C   UNL     1     -45.669 -51.394  15.659  1.00  0.00     0.040 C 
BRANCH  17  19
HETATM   19  C   UNL     1     -46.347 -53.733  15.025  1.00  0.00     0.143 C 
HETATM   20  O   UNL     1     -46.011 -54.299  16.052  1.00  0.00    -0.650 OA
BRANCH  19  21
HETATM   21  O   UNL     1     -46.421 -54.381  13.839  1.00  0.00    -0.776 OA
HETATM   22  H   UNL     1     -47.211 -54.161  13.308  1.00  0.00     0.167 HD
ENDBRANCH  19  21
ENDBRANCH  17  19
ENDBRANCH   3  14
TORSDOF 6
ENDMDL
MODEL 8
REMARK VINA RESULT:      -4.6      4.380      5.618
REMARK  6 active torsions:
REMARK  status: ('A' for Active; 'I' for Inactive)
REMARK    1  A    between atoms: C_2  and  C_3 
REMARK    2  A    between atoms: C_6  and  C_7 
REMARK    3  A    between atoms: C_7  and  C_8 
REMARK       I    between atoms: C_8  and  N_10 
REMARK    4  A    between atoms: N_10  and  C_11 
REMARK    5  A    between atoms: C_14  and  C_16 
REMARK    6  A    between atoms: C_16  and  O_18 
ROOT
HETATM    1  C   UNL     1     -41.052 -52.359  14.594  1.00  0.00     0.223 C 
HETATM    2  O   UNL     1     -41.552 -51.451  15.254  1.00  0.00    -0.273 OA
HETATM    3  N   UNL     1     -41.799 -53.329  13.948  1.00  0.00    -0.356 N 
HETATM    4  H   UNL     1     -41.295 -54.200  13.777  1.00  0.00     0.162 HD
ENDROOT
BRANCH   1   5
HETATM    5  C   UNL     1     -39.561 -52.425  14.332  1.00  0.00     0.160 C 
BRANCH   5   6
HETATM    6  C   UNL     1     -39.024 -51.179  13.717  1.00  0.00     0.025 A 
HETATM    7  N   UNL     1     -38.467 -50.206  14.539  1.00  0.00    -0.356 N 
HETATM    8  C   UNL     1     -38.027 -49.201  13.809  1.00  0.00     0.050 A 
ATOM      9  HN  UNL     1     -38.407 -50.262  15.556  1.00  0.00     0.166 HD
HETATM   10  S   UNL     1     -38.220 -49.379  12.110  1.00  0.00    -0.087 SA
HETATM   11  C   UNL     1     -38.978 -50.890  12.367  1.00  0.00     0.077 A 
BRANCH   8  12
HETATM   12  C   UNL     1     -37.412 -47.956  14.369  1.00  0.00     0.060 C 
HETATM   13  C   UNL     1     -36.640 -48.258  15.643  1.00  0.00     0.012 C 
ENDBRANCH   8  12
ENDBRANCH   5   6
ENDBRANCH   1   5
BRANCH   3  14
HETATM   14  C   UNL     1     -43.242 -53.376  14.081  1.00  0.00     0.085 C 
HETATM   15  C   UNL     1     -43.749 -54.723  14.605  1.00  0.00     0.026 C 
HETATM   16  C   UNL     1     -45.041 -55.033  13.838  1.00  0.00     0.017 C 
HETATM   17  C   UNL     1     -45.332 -53.809  12.966  1.00  0.00     0.085 C 
HETATM   18  C   UNL     1     -43.952 -53.213  12.733  1.00  0.00     0.040 C 
BRANCH  17  19
HETATM   19  C   UNL     1     -46.266 -52.815  13.638  1.00  0.00     0.143 C 
HETATM   20  O   UNL     1     -46.196 -51.603  13.520  1.00  0.00    -0.650 OA
BRANCH  19  21
HETATM   21  O   UNL     1     -47.188 -53.408  14.433  1.00  0.00    -0.776 OA
HETATM   22  H   UNL     1     -48.082 -53.021  14.370  1.00  0.00     0.167 HD
ENDBRANCH  19  21
ENDBRANCH  17  19
ENDBRANCH   3  14
TORSDOF 6
ENDMDL
MODEL 9
REMARK VINA RESULT:      -4.6      2.928      3.606
REMARK  6 active torsions:
REMARK  status: ('A' for Active; 'I' for Inactive)
REMARK    1  A    between atoms: C_2  and  C_3 
REMARK    2  A    between atoms: C_6  and  C_7 
REMARK    3  A    between atoms: C_7  and  C_8 
REMARK       I    between atoms: C_8  and  N_10 
REMARK    4  A    between atoms: N_10  and  C_11 
REMARK    5  A    between atoms: C_14  and  C_16 
REMARK    6  A    between atoms: C_16  and  O_18 
ROOT
HETATM    1  C   UNL     1     -41.787 -51.990  12.714  1.00  0.00     0.223 C 
HETATM    2  O   UNL     1     -41.202 -52.376  13.724  1.00  0.00    -0.273 OA
HETATM    3  N   UNL     1     -43.155 -52.109  12.536  1.00  0.00    -0.356 N 
HETATM    4  H   UNL     1     -43.450 -52.118  11.559  1.00  0.00     0.162 HD
ENDROOT
BRANCH   1   5
HETATM    5  C   UNL     1     -41.066 -51.237  11.615  1.00  0.00     0.160 C 
BRANCH   5   6
HETATM    6  C   UNL     1     -41.008 -49.769  11.858  1.00  0.00     0.025 A 
HETATM    7  N   UNL     1     -41.151 -48.899  10.783  1.00  0.00    -0.356 N 
HETATM    8  C   UNL     1     -41.099 -47.651  11.206  1.00  0.00     0.050 A 
ATOM      9  HN  UNL     1     -41.278 -49.184   9.813  1.00  0.00     0.166 HD
HETATM   10  S   UNL     1     -40.915 -47.451  12.904  1.00  0.00    -0.087 SA
HETATM   11  C   UNL     1     -40.865 -49.151  13.086  1.00  0.00     0.077 A 
BRANCH   8  12
HETATM   12  C   UNL     1     -41.169 -46.454  10.311  1.00  0.00     0.060 C 
HETATM   13  C   UNL     1     -40.021 -45.498  10.593  1.00  0.00     0.012 C 
ENDBRANCH   8  12
ENDBRANCH   5   6
ENDBRANCH   1   5
BRANCH   3  14
HETATM   14  C   UNL     1     -43.982 -52.780  13.518  1.00  0.00     0.085 C 
HETATM   15  C   UNL     1     -43.969 -54.305  13.369  1.00  0.00     0.026 C 
HETATM   16  C   UNL     1     -45.400 -54.785  13.643  1.00  0.00     0.017 C 
HETATM   17  C   UNL     1     -46.199 -53.548  14.065  1.00  0.00     0.085 C 
HETATM   18  C   UNL     1     -45.462 -52.408  13.378  1.00  0.00     0.040 C 
BRANCH  17  19
HETATM   19  C   UNL     1     -46.240 -53.360  15.574  1.00  0.00     0.143 C 
HETATM   20  O   UNL     1     -46.479 -52.306  16.139  1.00  0.00    -0.650 OA
BRANCH  19  21
HETATM   21  O   UNL     1     -45.944 -54.491  16.257  1.00  0.00    -0.776 OA
HETATM   22  H   UNL     1     -45.368 -55.114  15.775  1.00  0.00     0.167 HD
ENDBRANCH  19  21
ENDBRANCH  17  19
ENDBRANCH   3  14
TORSDOF 6
ENDMDL
