MODEL 1
REMARK VINA RESULT:      -4.7      0.000      0.000
REMARK  1 active torsions:
REMARK  status: ('A' for Active; 'I' for Inactive)
REMARK    1  A    between atoms: C_4  and  C_7 
ROOT
HETATM    1  C   UNL     1     -46.978 -51.905  15.278  1.00  0.00     0.299 C 
HETATM    2  C   UNL     1     -46.491 -51.691  13.831  1.00  0.00     0.300 C 
HETATM    3  N   UNL     1     -46.543 -52.921  13.029  1.00  0.00     0.096 N 
HETATM    4  C   UNL     1     -45.787 -54.021  13.674  1.00  0.00     0.282 C 
HETATM    5  C   UNL     1     -46.262 -54.202  15.156  1.00  0.00     0.309 C 
HETATM    6  N   UNL     1     -46.259 -52.977  15.986  1.00  0.00     0.087 N 
HETATM    7  H   UNL     1     -46.178 -52.739  12.099  1.00  0.00     0.316 HD
HETATM    8  H   UNL     1     -45.300 -52.663  16.124  1.00  0.00     0.316 HD
ENDROOT
BRANCH   4   9
HETATM    9  C   UNL     1     -44.286 -53.884  13.442  1.00  0.00    -0.008 A 
HETATM   10  C   UNL     1     -43.382 -54.450  14.357  1.00  0.00     0.012 A 
HETATM   11  C   UNL     1     -42.009 -54.368  14.140  1.00  0.00     0.018 A 
HETATM   12  C   UNL     1     -41.567 -53.703  13.012  1.00  0.00     0.087 A 
HETATM   13  N   UNL     1     -42.391 -53.116  12.123  1.00  0.00    -0.375 N 
HETATM   14  C   UNL     1     -43.722 -53.212  12.362  1.00  0.00     0.096 A 
ATOM     15  HN  UNL     1     -42.030 -52.623  11.306  1.00  0.00     0.164 HD
ENDBRANCH   4   9
TORSDOF 1
ENDMDL
MODEL 2
REMARK VINA RESULT:      -4.4     22.868     24.962
REMARK  1 active torsions:
REMARK  status: ('A' for Active; 'I' for Inactive)
REMARK    1  A    between atoms: C_4  and  C_7 
ROOT
HETATM    1  C   UNL     1     -26.294 -52.844  -4.590  1.00  0.00     0.299 C 
HETATM    2  C   UNL     1     -27.236 -53.672  -3.693  1.00  0.00     0.300 C 
HETATM    3  N   UNL     1     -27.646 -54.936  -4.318  1.00  0.00     0.096 N 
HETATM    4  C   UNL     1     -28.264 -54.708  -5.646  1.00  0.00     0.282 C 
HETATM    5  C   UNL     1     -27.317 -53.832  -6.535  1.00  0.00     0.309 C 
HETATM    6  N   UNL     1     -26.852 -52.566  -5.925  1.00  0.00     0.087 N 
HETATM    7  H   UNL     1     -28.293 -55.426  -3.707  1.00  0.00     0.316 HD
HETATM    8  H   UNL     1     -27.643 -51.939  -5.802  1.00  0.00     0.316 HD
ENDROOT
BRANCH   4   9
HETATM    9  C   UNL     1     -29.713 -54.251  -5.523  1.00  0.00    -0.008 A 
HETATM   10  C   UNL     1     -30.572 -54.886  -4.609  1.00  0.00     0.012 A 
HETATM   11  C   UNL     1     -31.888 -54.456  -4.456  1.00  0.00     0.018 A 
HETATM   12  C   UNL     1     -32.323 -53.403  -5.238  1.00  0.00     0.087 A 
HETATM   13  N   UNL     1     -31.549 -52.783  -6.150  1.00  0.00    -0.375 N 
HETATM   14  C   UNL     1     -30.274 -53.225  -6.276  1.00  0.00     0.096 A 
ATOM     15  HN  UNL     1     -31.907 -52.015  -6.719  1.00  0.00     0.164 HD
ENDBRANCH   4   9
TORSDOF 1
ENDMDL
MODEL 3
REMARK VINA RESULT:      -4.3      1.388      4.571
REMARK  1 active torsions:
REMARK  status: ('A' for Active; 'I' for Inactive)
REMARK    1  A    between atoms: C_4  and  C_7 
ROOT
HETATM    1  C   UNL     1     -40.874 -52.873  14.154  1.00  0.00     0.299 C 
HETATM    2  C   UNL     1     -41.827 -54.067  13.950  1.00  0.00     0.300 C 
HETATM    3  N   UNL     1     -42.500 -54.037  12.645  1.00  0.00     0.096 N 
HETATM    4  C   UNL     1     -43.219 -52.758  12.436  1.00  0.00     0.282 C 
HETATM    5  C   UNL     1     -42.252 -51.551  12.685  1.00  0.00     0.309 C 
HETATM    6  N   UNL     1     -41.526 -51.565  13.975  1.00  0.00     0.087 N 
HETATM    7  H   UNL     1     -43.144 -54.820  12.573  1.00  0.00     0.316 HD
HETATM    8  H   UNL     1     -42.189 -51.447  14.738  1.00  0.00     0.316 HD
ENDROOT
BRANCH   4   9
HETATM    9  C   UNL     1     -44.555 -52.735  13.171  1.00  0.00    -0.008 A 
HETATM   10  C   UNL     1     -45.090 -51.513  13.612  1.00  0.00     0.012 A 
HETATM   11  C   UNL     1     -46.327 -51.470  14.251  1.00  0.00     0.018 A 
HETATM   12  C   UNL     1     -46.998 -52.662  14.450  1.00  0.00     0.087 A 
HETATM   13  N   UNL     1     -46.513 -53.862  14.075  1.00  0.00    -0.375 N 
HETATM   14  C   UNL     1     -45.307 -53.870  13.457  1.00  0.00     0.096 A 
ATOM     15  HN  UNL     1     -47.031 -54.724  14.249  1.00  0.00     0.164 HD
ENDBRANCH   4   9
TORSDOF 1
ENDMDL
MODEL 4
REMARK VINA RESULT:      -4.3      1.350      4.600
REMARK  1 active torsions:
REMARK  status: ('A' for Active; 'I' for Inactive)
REMARK    1  A    between atoms: C_4  and  C_7 
ROOT
HETATM    1  C   UNL     1     -41.973 -53.771  13.354  1.00  0.00     0.299 C 
HETATM    2  C   UNL     1     -42.487 -54.147  14.758  1.00  0.00     0.300 C 
HETATM    3  N   UNL     1     -43.642 -55.053  14.714  1.00  0.00     0.096 N 
HETATM    4  C   UNL     1     -44.740 -54.492  13.893  1.00  0.00     0.282 C 
HETATM    5  C   UNL     1     -44.198 -54.075  12.483  1.00  0.00     0.309 C 
HETATM    6  N   UNL     1     -43.012 -53.191  12.486  1.00  0.00     0.087 N 
HETATM    7  H   UNL     1     -43.966 -55.241  15.658  1.00  0.00     0.316 HD
HETATM    8  H   UNL     1     -43.265 -52.286  12.874  1.00  0.00     0.316 HD
ENDROOT
BRANCH   4   9
HETATM    9  C   UNL     1     -45.539 -53.445  14.661  1.00  0.00    -0.008 A 
HETATM   10  C   UNL     1     -46.053 -52.323  13.988  1.00  0.00     0.012 A 
HETATM   11  C   UNL     1     -46.818 -51.377  14.667  1.00  0.00     0.018 A 
HETATM   12  C   UNL     1     -47.040 -51.569  16.018  1.00  0.00     0.087 A 
HETATM   13  N   UNL     1     -46.543 -52.609  16.715  1.00  0.00    -0.375 N 
HETATM   14  C   UNL     1     -45.802 -53.511  16.026  1.00  0.00     0.096 A 
ATOM     15  HN  UNL     1     -46.717 -52.713  17.715  1.00  0.00     0.164 HD
ENDBRANCH   4   9
TORSDOF 1
ENDMDL
MODEL 5
REMARK VINA RESULT:      -4.2      1.667      2.222
REMARK  1 active torsions:
REMARK  status: ('A' for Active; 'I' for Inactive)
REMARK    1  A    between atoms: C_4  and  C_7 
ROOT
HETATM    1  C   UNL     1     -46.226 -52.535  14.158  1.00  0.00     0.299 C 
HETATM    2  C   UNL     1     -44.991 -51.941  13.453  1.00  0.00     0.300 C 
HETATM    3  N   UNL     1     -44.487 -52.802  12.375  1.00  0.00     0.096 N 
HETATM    4  C   UNL     1     -44.196 -54.170  12.865  1.00  0.00     0.282 C 
HETATM    5  C   UNL     1     -45.444 -54.748  13.616  1.00  0.00     0.309 C 
HETATM    6  N   UNL     1     -46.004 -53.892  14.686  1.00  0.00     0.087 N 
HETATM    7  H   UNL     1     -43.654 -52.388  11.967  1.00  0.00     0.316 HD
HETATM    8  H   UNL     1     -45.333 -53.818  15.447  1.00  0.00     0.316 HD
ENDROOT
BRANCH   4   9
HETATM    9  C   UNL     1     -42.860 -54.234  13.597  1.00  0.00    -0.008 A 
HETATM   10  C   UNL     1     -41.703 -53.721  12.987  1.00  0.00     0.012 A 
HETATM   11  C   UNL     1     -40.481 -53.736  13.657  1.00  0.00     0.018 A 
HETATM   12  C   UNL     1     -40.442 -54.284  14.925  1.00  0.00     0.087 A 
HETATM   13  N   UNL     1     -41.515 -54.818  15.540  1.00  0.00    -0.375 N 
HETATM   14  C   UNL     1     -42.689 -54.789  14.862  1.00  0.00     0.096 A 
ATOM     15  HN  UNL     1     -41.448 -55.224  16.473  1.00  0.00     0.164 HD
ENDBRANCH   4   9
TORSDOF 1
ENDMDL
MODEL 6
REMARK VINA RESULT:      -4.1      2.162      4.462
REMARK  1 active torsions:
REMARK  status: ('A' for Active; 'I' for Inactive)
REMARK    1  A    between atoms: C_4  and  C_7 
ROOT
HETATM    1  C   UNL     1     -41.284 -50.198  12.967  1.00  0.00     0.299 C 
HETATM    2  C   UNL     1     -41.380 -51.010  14.275  1.00  0.00     0.300 C 
HETATM    3  N   UNL     1     -40.721 -52.318  14.177  1.00  0.00     0.096 N 
HETATM    4  C   UNL     1     -41.247 -53.106  13.037  1.00  0.00     0.282 C 
HETATM    5  C   UNL     1     -41.183 -52.257  11.722  1.00  0.00     0.309 C 
HETATM    6  N   UNL     1     -41.805 -50.916  11.792  1.00  0.00     0.087 N 
HETATM    7  H   UNL     1     -40.843 -52.830  15.046  1.00  0.00     0.316 HD
HETATM    8  H   UNL     1     -42.810 -51.015  11.914  1.00  0.00     0.316 HD
ENDROOT
BRANCH   4   9
HETATM    9  C   UNL     1     -42.584 -53.759  13.373  1.00  0.00    -0.008 A 
HETATM   10  C   UNL     1     -42.685 -54.617  14.481  1.00  0.00     0.012 A 
HETATM   11  C   UNL     1     -43.907 -55.191  14.824  1.00  0.00     0.018 A 
HETATM   12  C   UNL     1     -45.005 -54.904  14.037  1.00  0.00     0.087 A 
HETATM   13  N   UNL     1     -44.953 -54.114  12.946  1.00  0.00    -0.375 N 
HETATM   14  C   UNL     1     -43.750 -53.572  12.637  1.00  0.00     0.096 A 
ATOM     15  HN  UNL     1     -45.782 -53.932  12.380  1.00  0.00     0.164 HD
ENDBRANCH   4   9
TORSDOF 1
ENDMDL
MODEL 7
REMARK VINA RESULT:      -4.1      5.923      7.197
REMARK  1 active torsions:
REMARK  status: ('A' for Active; 'I' for Inactive)
REMARK    1  A    between atoms: C_4  and  C_7 
ROOT
HETATM    1  C   UNL     1     -41.402 -45.067  12.221  1.00  0.00     0.299 C 
HETATM    2  C   UNL     1     -40.230 -46.006  11.870  1.00  0.00     0.300 C 
HETATM    3  N   UNL     1     -40.383 -46.632  10.550  1.00  0.00     0.096 N 
HETATM    4  C   UNL     1     -41.674 -47.351  10.438  1.00  0.00     0.282 C 
HETATM    5  C   UNL     1     -42.854 -46.400  10.836  1.00  0.00     0.309 C 
HETATM    6  N   UNL     1     -42.719 -45.721  12.144  1.00  0.00     0.087 N 
HETATM    7  H   UNL     1     -39.609 -47.268  10.381  1.00  0.00     0.316 HD
HETATM    8  H   UNL     1     -42.762 -46.411  12.890  1.00  0.00     0.316 HD
ENDROOT
BRANCH   4   9
HETATM    9  C   UNL     1     -41.623 -48.712  11.124  1.00  0.00    -0.008 A 
HETATM   10  C   UNL     1     -42.573 -49.036  12.108  1.00  0.00     0.012 A 
HETATM   11  C   UNL     1     -42.564 -50.289  12.717  1.00  0.00     0.018 A 
HETATM   12  C   UNL     1     -41.589 -51.190  12.336  1.00  0.00     0.087 A 
HETATM   13  N   UNL     1     -40.638 -50.917  11.422  1.00  0.00    -0.375 N 
HETATM   14  C   UNL     1     -40.672 -49.689  10.848  1.00  0.00     0.096 A 
ATOM     15  HN  UNL     1     -39.925 -51.603  11.172  1.00  0.00     0.164 HD
ENDBRANCH   4   9
TORSDOF 1
ENDMDL
MODEL 8
REMARK VINA RESULT:      -4.1      7.565      8.775
REMARK  1 active torsions:
REMARK  status: ('A' for Active; 'I' for Inactive)
REMARK    1  A    between atoms: C_4  and  C_7 
ROOT
HETATM    1  C   UNL     1     -44.472 -47.402   9.009  1.00  0.00     0.299 C 
HETATM    2  C   UNL     1     -43.762 -46.039   8.886  1.00  0.00     0.300 C 
HETATM    3  N   UNL     1     -42.332 -46.115   9.212  1.00  0.00     0.096 N 
HETATM    4  C   UNL     1     -42.113 -46.694  10.559  1.00  0.00     0.282 C 
HETATM    5  C   UNL     1     -42.873 -48.059  10.686  1.00  0.00     0.309 C 
HETATM    6  N   UNL     1     -44.309 -48.031  10.331  1.00  0.00     0.087 N 
HETATM    7  H   UNL     1     -41.918 -45.190   9.153  1.00  0.00     0.316 HD
HETATM    8  H   UNL     1     -44.814 -47.461  11.006  1.00  0.00     0.316 HD
ENDROOT
BRANCH   4   9
HETATM    9  C   UNL     1     -42.351 -45.667  11.659  1.00  0.00    -0.008 A 
HETATM   10  C   UNL     1     -42.767 -46.089  12.933  1.00  0.00     0.012 A 
HETATM   11  C   UNL     1     -42.952 -45.167  13.961  1.00  0.00     0.018 A 
HETATM   12  C   UNL     1     -42.730 -43.831  13.684  1.00  0.00     0.087 A 
HETATM   13  N   UNL     1     -42.363 -43.373  12.472  1.00  0.00    -0.375 N 
HETATM   14  C   UNL     1     -42.192 -44.294  11.493  1.00  0.00     0.096 A 
ATOM     15  HN  UNL     1     -42.219 -42.377  12.300  1.00  0.00     0.164 HD
ENDBRANCH   4   9
TORSDOF 1
ENDMDL
MODEL 9
REMARK VINA RESULT:      -3.9      3.437      5.093
REMARK  1 active torsions:
REMARK  status: ('A' for Active; 'I' for Inactive)
REMARK    1  A    between atoms: C_4  and  C_7 
ROOT
HETATM    1  C   UNL     1     -42.755 -52.796  14.344  1.00  0.00     0.299 C 
HETATM    2  C   UNL     1     -42.998 -51.627  13.369  1.00  0.00     0.300 C 
HETATM    3  N   UNL     1     -42.557 -51.930  12.001  1.00  0.00     0.096 N 
HETATM    4  C   UNL     1     -41.133 -52.343  11.971  1.00  0.00     0.282 C 
HETATM    5  C   UNL     1     -40.889 -53.503  12.995  1.00  0.00     0.309 C 
HETATM    6  N   UNL     1     -41.354 -53.250  14.376  1.00  0.00     0.087 N 
HETATM    7  H   UNL     1     -42.702 -51.119  11.407  1.00  0.00     0.316 HD
HETATM    8  H   UNL     1     -40.800 -52.503  14.789  1.00  0.00     0.316 HD
ENDROOT
BRANCH   4   9
HETATM    9  C   UNL     1     -40.197 -51.143  12.051  1.00  0.00    -0.008 A 
HETATM   10  C   UNL     1     -39.082 -51.181  12.906  1.00  0.00     0.012 A 
HETATM   11  C   UNL     1     -38.194 -50.109  12.963  1.00  0.00     0.018 A 
HETATM   12  C   UNL     1     -38.453 -49.008  12.169  1.00  0.00     0.087 A 
HETATM   13  N   UNL     1     -39.525 -48.908  11.359  1.00  0.00    -0.375 N 
HETATM   14  C   UNL     1     -40.370 -49.968  11.326  1.00  0.00     0.096 A 
ATOM     15  HN  UNL     1     -39.692 -48.075  10.795  1.00  0.00     0.164 HD
ENDBRANCH   4   9
TORSDOF 1
ENDMDL
