MODEL 1
REMARK VINA RESULT:      -5.6      0.000      0.000
REMARK  5 active torsions:
REMARK  status: ('A' for Active; 'I' for Inactive)
REMARK       I    between atoms: N_1  and  C_2 
REMARK    1  A    between atoms: C_2  and  C_4 
REMARK    2  A    between atoms: C_6  and  C_7 
REMARK    3  A    between atoms: C_7  and  C_8 
REMARK    4  A    between atoms: C_8  and  O_9 
REMARK    5  A    between atoms: C_10  and  C_14 
ROOT
HETATM    1  C   UNL     1     -42.017 -51.510  12.535  1.00  0.00     0.100 A 
HETATM    2  C   UNL     1     -43.306 -51.268  12.844  1.00  0.00     0.032 A 
HETATM    3  C   UNL     1     -44.187 -52.292  13.402  1.00  0.00    -0.023 A 
HETATM    4  C   UNL     1     -43.694 -53.534  13.613  1.00  0.00     0.126 A 
HETATM    5  N   UNL     1     -42.372 -53.794  13.277  1.00  0.00    -0.318 N 
HETATM    6  C   UNL     1     -41.488 -52.882  12.762  1.00  0.00     0.261 A 
HETATM    7  O   UNL     1     -40.326 -53.195  12.517  1.00  0.00    -0.267 OA
HETATM    8  H   UNL     1     -41.993 -54.724  13.446  1.00  0.00     0.169 HD
ENDROOT
BRANCH   1   9
HETATM    9  C   UNL     1     -41.194 -50.387  12.005  1.00  0.00     0.254 C 
HETATM   10  N   UNL     1     -40.629 -50.572  10.785  1.00  0.00    -0.366 N 
HETATM   11  H   UNL     1     -40.055 -49.839  10.393  1.00  0.00     0.159 HD
HETATM   12  H   UNL     1     -40.763 -51.430  10.251  1.00  0.00     0.159 HD
HETATM   13  O   UNL     1     -41.018 -49.344  12.626  1.00  0.00    -0.268 OA
ENDBRANCH   1   9
BRANCH   3  14
HETATM   14  C   UNL     1     -45.594 -51.858  13.776  1.00  0.00     0.067 C 
BRANCH  14  15
HETATM   15  C   UNL     1     -46.543 -51.604  12.600  1.00  0.00     0.168 C 
BRANCH  15  16
HETATM   16  O   UNL     1     -46.448 -52.641  11.633  1.00  0.00    -0.401 OA
HETATM   17  H   UNL     1     -47.349 -52.962  11.455  1.00  0.00     0.209 HD
ENDBRANCH  15  16
ENDBRANCH  14  15
ENDBRANCH   3  14
BRANCH   4  18
HETATM   18  C   UNL     1     -44.470 -54.682  14.235  1.00  0.00     0.433 C 
HETATM   19  F   UNL     1     -43.642 -55.712  14.562  1.00  0.00    -0.165 F 
HETATM   20  F   UNL     1     -45.096 -54.312  15.380  1.00  0.00    -0.165 F 
HETATM   21  F   UNL     1     -45.407 -55.184  13.397  1.00  0.00    -0.165 F 
ENDBRANCH   4  18
TORSDOF 5
ENDMDL
MODEL 2
REMARK VINA RESULT:      -5.6      5.907      7.560
REMARK  5 active torsions:
REMARK  status: ('A' for Active; 'I' for Inactive)
REMARK       I    between atoms: N_1  and  C_2 
REMARK    1  A    between atoms: C_2  and  C_4 
REMARK    2  A    between atoms: C_6  and  C_7 
REMARK    3  A    between atoms: C_7  and  C_8 
REMARK    4  A    between atoms: C_8  and  O_9 
REMARK    5  A    between atoms: C_10  and  C_14 
ROOT
HETATM    1  C   UNL     1     -44.047 -47.183   9.787  1.00  0.00     0.100 A 
HETATM    2  C   UNL     1     -43.611 -48.002  10.764  1.00  0.00     0.032 A 
HETATM    3  C   UNL     1     -42.255 -47.930  11.305  1.00  0.00    -0.023 A 
HETATM    4  C   UNL     1     -41.399 -47.011  10.801  1.00  0.00     0.126 A 
HETATM    5  N   UNL     1     -41.836 -46.179   9.779  1.00  0.00    -0.318 N 
HETATM    6  C   UNL     1     -43.094 -46.183   9.235  1.00  0.00     0.261 A 
HETATM    7  O   UNL     1     -43.402 -45.391   8.347  1.00  0.00    -0.267 OA
HETATM    8  H   UNL     1     -41.199 -45.478   9.407  1.00  0.00     0.169 HD
ENDROOT
BRANCH   1   9
HETATM    9  C   UNL     1     -45.459 -47.315   9.332  1.00  0.00     0.254 C 
HETATM   10  N   UNL     1     -46.047 -46.192   8.844  1.00  0.00    -0.366 N 
HETATM   11  H   UNL     1     -47.008 -46.235   8.535  1.00  0.00     0.159 HD
HETATM   12  H   UNL     1     -45.550 -45.305   8.783  1.00  0.00     0.159 HD
HETATM   13  O   UNL     1     -46.080 -48.371   9.394  1.00  0.00    -0.268 OA
ENDBRANCH   1   9
BRANCH   3  14
HETATM   14  C   UNL     1     -41.925 -48.862  12.459  1.00  0.00     0.067 C 
BRANCH  14  15
HETATM   15  C   UNL     1     -41.828 -50.348  12.102  1.00  0.00     0.168 C 
BRANCH  15  16
HETATM   16  O   UNL     1     -40.857 -50.569  11.088  1.00  0.00    -0.401 OA
HETATM   17  H   UNL     1     -39.993 -50.670  11.524  1.00  0.00     0.209 HD
ENDBRANCH  15  16
ENDBRANCH  14  15
ENDBRANCH   3  14
BRANCH   4  18
HETATM   18  C   UNL     1     -39.981 -46.782  11.298  1.00  0.00     0.433 C 
HETATM   19  F   UNL     1     -39.317 -45.908  10.493  1.00  0.00    -0.165 F 
HETATM   20  F   UNL     1     -39.958 -46.252  12.546  1.00  0.00    -0.165 F 
HETATM   21  F   UNL     1     -39.254 -47.923  11.321  1.00  0.00    -0.165 F 
ENDBRANCH   4  18
TORSDOF 5
ENDMDL
MODEL 3
REMARK VINA RESULT:      -5.3      2.852      4.830
REMARK  5 active torsions:
REMARK  status: ('A' for Active; 'I' for Inactive)
REMARK       I    between atoms: N_1  and  C_2 
REMARK    1  A    between atoms: C_2  and  C_4 
REMARK    2  A    between atoms: C_6  and  C_7 
REMARK    3  A    between atoms: C_7  and  C_8 
REMARK    4  A    between atoms: C_8  and  O_9 
REMARK    5  A    between atoms: C_10  and  C_14 
ROOT
HETATM    1  C   UNL     1     -44.321 -53.468  13.436  1.00  0.00     0.100 A 
HETATM    2  C   UNL     1     -43.337 -52.907  12.705  1.00  0.00     0.032 A 
HETATM    3  C   UNL     1     -41.921 -53.138  12.983  1.00  0.00    -0.023 A 
HETATM    4  C   UNL     1     -41.581 -53.940  14.019  1.00  0.00     0.126 A 
HETATM    5  N   UNL     1     -42.591 -54.504  14.787  1.00  0.00    -0.318 N 
HETATM    6  C   UNL     1     -43.935 -54.341  14.577  1.00  0.00     0.261 A 
HETATM    7  O   UNL     1     -44.761 -54.900  15.295  1.00  0.00    -0.267 OA
HETATM    8  H   UNL     1     -42.339 -55.118  15.559  1.00  0.00     0.169 HD
ENDROOT
BRANCH   1   9
HETATM    9  C   UNL     1     -45.733 -53.197  13.046  1.00  0.00     0.254 C 
HETATM   10  N   UNL     1     -46.669 -53.336  14.019  1.00  0.00    -0.366 N 
HETATM   11  H   UNL     1     -47.640 -53.172  13.795  1.00  0.00     0.159 HD
HETATM   12  H   UNL     1     -46.423 -53.603  14.972  1.00  0.00     0.159 HD
HETATM   13  O   UNL     1     -46.056 -52.873  11.907  1.00  0.00    -0.268 OA
ENDBRANCH   1   9
BRANCH   3  14
HETATM   14  C   UNL     1     -40.922 -52.504  12.030  1.00  0.00     0.067 C 
BRANCH  14  15
HETATM   15  C   UNL     1     -40.957 -50.975  11.954  1.00  0.00     0.168 C 
BRANCH  15  16
HETATM   16  O   UNL     1     -40.602 -50.518  10.656  1.00  0.00    -0.401 OA
HETATM   17  H   UNL     1     -39.717 -50.868  10.452  1.00  0.00     0.209 HD
ENDBRANCH  15  16
ENDBRANCH  14  15
ENDBRANCH   3  14
BRANCH   4  18
HETATM   18  C   UNL     1     -40.158 -54.315  14.394  1.00  0.00     0.433 C 
HETATM   19  F   UNL     1     -40.142 -55.199  15.430  1.00  0.00    -0.165 F 
HETATM   20  F   UNL     1     -39.500 -54.911  13.368  1.00  0.00    -0.165 F 
HETATM   21  F   UNL     1     -39.429 -53.243  14.784  1.00  0.00    -0.165 F 
ENDBRANCH   4  18
TORSDOF 5
ENDMDL
MODEL 4
REMARK VINA RESULT:      -5.3      3.226      5.548
REMARK  5 active torsions:
REMARK  status: ('A' for Active; 'I' for Inactive)
REMARK       I    between atoms: N_1  and  C_2 
REMARK    1  A    between atoms: C_2  and  C_4 
REMARK    2  A    between atoms: C_6  and  C_7 
REMARK    3  A    between atoms: C_7  and  C_8 
REMARK    4  A    between atoms: C_8  and  O_9 
REMARK    5  A    between atoms: C_10  and  C_14 
ROOT
HETATM    1  C   UNL     1     -44.978 -53.665  13.617  1.00  0.00     0.100 A 
HETATM    2  C   UNL     1     -43.655 -53.793  13.839  1.00  0.00     0.032 A 
HETATM    3  C   UNL     1     -42.698 -52.735  13.524  1.00  0.00    -0.023 A 
HETATM    4  C   UNL     1     -43.153 -51.582  12.982  1.00  0.00     0.126 A 
HETATM    5  N   UNL     1     -44.513 -51.453  12.732  1.00  0.00    -0.318 N 
HETATM    6  C   UNL     1     -45.466 -52.397  13.012  1.00  0.00     0.261 A 
HETATM    7  O   UNL     1     -46.654 -52.186  12.779  1.00  0.00    -0.267 OA
HETATM    8  H   UNL     1     -44.861 -50.582  12.336  1.00  0.00     0.169 HD
ENDROOT
BRANCH   1   9
HETATM    9  C   UNL     1     -45.873 -54.790  14.008  1.00  0.00     0.254 C 
HETATM   10  N   UNL     1     -47.035 -54.455  14.625  1.00  0.00    -0.366 N 
HETATM   11  H   UNL     1     -47.666 -55.188  14.916  1.00  0.00     0.159 HD
HETATM   12  H   UNL     1     -47.291 -53.486  14.806  1.00  0.00     0.159 HD
HETATM   13  O   UNL     1     -45.589 -55.965  13.800  1.00  0.00    -0.268 OA
ENDBRANCH   1   9
BRANCH   3  14
HETATM   14  C   UNL     1     -41.247 -52.986  13.900  1.00  0.00     0.067 C 
BRANCH  14  15
HETATM   15  C   UNL     1     -40.508 -54.014  13.036  1.00  0.00     0.168 C 
BRANCH  15  16
HETATM   16  O   UNL     1     -40.558 -53.657  11.661  1.00  0.00    -0.401 OA
HETATM   17  H   UNL     1     -40.583 -52.685  11.609  1.00  0.00     0.209 HD
ENDBRANCH  15  16
ENDBRANCH  14  15
ENDBRANCH   3  14
BRANCH   4  18
HETATM   18  C   UNL     1     -42.289 -50.376  12.653  1.00  0.00     0.433 C 
HETATM   19  F   UNL     1     -41.589 -49.965  13.745  1.00  0.00    -0.165 F 
HETATM   20  F   UNL     1     -41.375 -50.653  11.689  1.00  0.00    -0.165 F 
HETATM   21  F   UNL     1     -43.021 -49.318  12.235  1.00  0.00    -0.165 F 
ENDBRANCH   4  18
TORSDOF 5
ENDMDL
MODEL 5
REMARK VINA RESULT:      -5.3      2.277      3.229
REMARK  5 active torsions:
REMARK  status: ('A' for Active; 'I' for Inactive)
REMARK       I    between atoms: N_1  and  C_2 
REMARK    1  A    between atoms: C_2  and  C_4 
REMARK    2  A    between atoms: C_6  and  C_7 
REMARK    3  A    between atoms: C_7  and  C_8 
REMARK    4  A    between atoms: C_8  and  O_9 
REMARK    5  A    between atoms: C_10  and  C_14 
ROOT
HETATM    1  C   UNL     1     -42.177 -51.586  12.488  1.00  0.00     0.100 A 
HETATM    2  C   UNL     1     -42.778 -52.778  12.672  1.00  0.00     0.032 A 
HETATM    3  C   UNL     1     -44.191 -52.902  13.023  1.00  0.00    -0.023 A 
HETATM    4  C   UNL     1     -44.926 -51.777  13.178  1.00  0.00     0.126 A 
HETATM    5  N   UNL     1     -44.307 -50.545  13.011  1.00  0.00    -0.318 N 
HETATM    6  C   UNL     1     -42.993 -50.356  12.669  1.00  0.00     0.261 A 
HETATM    7  O   UNL     1     -42.535 -49.226  12.518  1.00  0.00    -0.267 OA
HETATM    8  H   UNL     1     -44.860 -49.697  13.113  1.00  0.00     0.169 HD
ENDROOT
BRANCH   1   9
HETATM    9  C   UNL     1     -40.740 -51.571  12.095  1.00  0.00     0.254 C 
HETATM   10  N   UNL     1     -40.389 -50.705  11.110  1.00  0.00    -0.366 N 
HETATM   11  H   UNL     1     -39.426 -50.671  10.807  1.00  0.00     0.159 HD
HETATM   12  H   UNL     1     -41.067 -50.089  10.665  1.00  0.00     0.159 HD
HETATM   13  O   UNL     1     -39.904 -52.301  12.616  1.00  0.00    -0.268 OA
ENDBRANCH   1   9
BRANCH   3  14
HETATM   14  C   UNL     1     -44.754 -54.310  13.122  1.00  0.00     0.067 C 
BRANCH  14  15
HETATM   15  C   UNL     1     -44.304 -55.118  14.343  1.00  0.00     0.168 C 
BRANCH  15  16
HETATM   16  O   UNL     1     -44.874 -54.600  15.538  1.00  0.00    -0.401 OA
HETATM   17  H   UNL     1     -44.148 -54.258  16.087  1.00  0.00     0.209 HD
ENDBRANCH  15  16
ENDBRANCH  14  15
ENDBRANCH   3  14
BRANCH   4  18
HETATM   18  C   UNL     1     -46.413 -51.748  13.488  1.00  0.00     0.433 C 
HETATM   19  F   UNL     1     -46.866 -52.985  13.830  1.00  0.00    -0.165 F 
HETATM   20  F   UNL     1     -46.700 -50.930  14.532  1.00  0.00    -0.165 F 
HETATM   21  F   UNL     1     -47.151 -51.340  12.430  1.00  0.00    -0.165 F 
ENDBRANCH   4  18
TORSDOF 5
ENDMDL
MODEL 6
REMARK VINA RESULT:      -5.2      2.353      3.885
REMARK  5 active torsions:
REMARK  status: ('A' for Active; 'I' for Inactive)
REMARK       I    between atoms: N_1  and  C_2 
REMARK    1  A    between atoms: C_2  and  C_4 
REMARK    2  A    between atoms: C_6  and  C_7 
REMARK    3  A    between atoms: C_7  and  C_8 
REMARK    4  A    between atoms: C_8  and  O_9 
REMARK    5  A    between atoms: C_10  and  C_14 
ROOT
HETATM    1  C   UNL     1     -40.422 -50.480  12.153  1.00  0.00     0.100 A 
HETATM    2  C   UNL     1     -40.256 -51.765  12.523  1.00  0.00     0.032 A 
HETATM    3  C   UNL     1     -41.380 -52.657  12.799  1.00  0.00    -0.023 A 
HETATM    4  C   UNL     1     -42.639 -52.175  12.686  1.00  0.00     0.126 A 
HETATM    5  N   UNL     1     -42.816 -50.846  12.326  1.00  0.00    -0.318 N 
HETATM    6  C   UNL     1     -41.811 -49.959  12.041  1.00  0.00     0.261 A 
HETATM    7  O   UNL     1     -42.062 -48.804  11.705  1.00  0.00    -0.267 OA
HETATM    8  H   UNL     1     -43.762 -50.483  12.227  1.00  0.00     0.169 HD
ENDROOT
BRANCH   1   9
HETATM    9  C   UNL     1     -39.210 -49.666  11.860  1.00  0.00     0.254 C 
HETATM   10  N   UNL     1     -38.495 -50.016  10.760  1.00  0.00    -0.366 N 
HETATM   11  H   UNL     1     -37.660 -49.496  10.531  1.00  0.00     0.159 HD
HETATM   12  H   UNL     1     -38.773 -50.790  10.158  1.00  0.00     0.159 HD
HETATM   13  O   UNL     1     -38.854 -48.729  12.567  1.00  0.00    -0.268 OA
ENDBRANCH   1   9
BRANCH   3  14
HETATM   14  C   UNL     1     -41.045 -54.102  13.129  1.00  0.00     0.067 C 
BRANCH  14  15
HETATM   15  C   UNL     1     -39.839 -54.308  14.051  1.00  0.00     0.168 C 
BRANCH  15  16
HETATM   16  O   UNL     1     -38.746 -54.879  13.343  1.00  0.00    -0.401 OA
HETATM   17  H   UNL     1     -38.076 -55.142  13.998  1.00  0.00     0.209 HD
ENDBRANCH  15  16
ENDBRANCH  14  15
ENDBRANCH   3  14
BRANCH   4  18
HETATM   18  C   UNL     1     -43.903 -52.994  12.886  1.00  0.00     0.433 C 
HETATM   19  F   UNL     1     -43.982 -53.467  14.161  1.00  0.00    -0.165 F 
HETATM   20  F   UNL     1     -45.024 -52.260  12.676  1.00  0.00    -0.165 F 
HETATM   21  F   UNL     1     -43.955 -54.070  12.067  1.00  0.00    -0.165 F 
ENDBRANCH   4  18
TORSDOF 5
ENDMDL
MODEL 7
REMARK VINA RESULT:      -5.1      3.234      5.108
REMARK  5 active torsions:
REMARK  status: ('A' for Active; 'I' for Inactive)
REMARK       I    between atoms: N_1  and  C_2 
REMARK    1  A    between atoms: C_2  and  C_4 
REMARK    2  A    between atoms: C_6  and  C_7 
REMARK    3  A    between atoms: C_7  and  C_8 
REMARK    4  A    between atoms: C_8  and  O_9 
REMARK    5  A    between atoms: C_10  and  C_14 
ROOT
HETATM    1  C   UNL     1     -43.457 -54.617  15.594  1.00  0.00     0.100 A 
HETATM    2  C   UNL     1     -42.963 -54.221  14.405  1.00  0.00     0.032 A 
HETATM    3  C   UNL     1     -43.670 -53.290  13.529  1.00  0.00    -0.023 A 
HETATM    4  C   UNL     1     -44.873 -52.810  13.921  1.00  0.00     0.126 A 
HETATM    5  N   UNL     1     -45.398 -53.232  15.136  1.00  0.00    -0.318 N 
HETATM    6  C   UNL     1     -44.784 -54.091  16.011  1.00  0.00     0.261 A 
HETATM    7  O   UNL     1     -45.313 -54.390  17.079  1.00  0.00    -0.267 OA
HETATM    8  H   UNL     1     -46.296 -52.863  15.440  1.00  0.00     0.169 HD
ENDROOT
BRANCH   1   9
HETATM    9  C   UNL     1     -42.638 -55.541  16.428  1.00  0.00     0.254 C 
HETATM   10  N   UNL     1     -42.034 -55.002  17.517  1.00  0.00    -0.366 N 
HETATM   11  H   UNL     1     -41.461 -55.591  18.104  1.00  0.00     0.159 HD
HETATM   12  H   UNL     1     -42.138 -54.017  17.761  1.00  0.00     0.159 HD
HETATM   13  O   UNL     1     -42.498 -56.729  16.157  1.00  0.00    -0.268 OA
ENDBRANCH   1   9
BRANCH   3  14
HETATM   14  C   UNL     1     -42.958 -52.869  12.254  1.00  0.00     0.067 C 
BRANCH  14  15
HETATM   15  C   UNL     1     -41.460 -52.584  12.397  1.00  0.00     0.168 C 
BRANCH  15  16
HETATM   16  O   UNL     1     -40.701 -53.360  11.480  1.00  0.00    -0.401 OA
HETATM   17  H   UNL     1     -39.894 -53.652  11.937  1.00  0.00     0.209 HD
ENDBRANCH  15  16
ENDBRANCH  14  15
ENDBRANCH   3  14
BRANCH   4  18
HETATM   18  C   UNL     1     -45.699 -51.798  13.145  1.00  0.00     0.433 C 
HETATM   19  F   UNL     1     -46.138 -52.324  11.969  1.00  0.00    -0.165 F 
HETATM   20  F   UNL     1     -46.803 -51.408  13.831  1.00  0.00    -0.165 F 
HETATM   21  F   UNL     1     -44.992 -50.686  12.836  1.00  0.00    -0.165 F 
ENDBRANCH   4  18
TORSDOF 5
ENDMDL
MODEL 8
REMARK VINA RESULT:      -5.1      4.118      6.189
REMARK  5 active torsions:
REMARK  status: ('A' for Active; 'I' for Inactive)
REMARK       I    between atoms: N_1  and  C_2 
REMARK    1  A    between atoms: C_2  and  C_4 
REMARK    2  A    between atoms: C_6  and  C_7 
REMARK    3  A    between atoms: C_7  and  C_8 
REMARK    4  A    between atoms: C_8  and  O_9 
REMARK    5  A    between atoms: C_10  and  C_14 
ROOT
HETATM    1  C   UNL     1     -40.871 -52.207  12.638  1.00  0.00     0.100 A 
HETATM    2  C   UNL     1     -39.890 -51.319  12.384  1.00  0.00     0.032 A 
HETATM    3  C   UNL     1     -40.161 -49.957  11.928  1.00  0.00    -0.023 A 
HETATM    4  C   UNL     1     -41.445 -49.572  11.745  1.00  0.00     0.126 A 
HETATM    5  N   UNL     1     -42.459 -50.491  11.985  1.00  0.00    -0.318 N 
HETATM    6  C   UNL     1     -42.278 -51.776  12.424  1.00  0.00     0.261 A 
HETATM    7  O   UNL     1     -43.238 -52.514  12.634  1.00  0.00    -0.267 OA
HETATM    8  H   UNL     1     -43.427 -50.201  11.861  1.00  0.00     0.169 HD
ENDROOT
BRANCH   1   9
HETATM    9  C   UNL     1     -40.489 -53.559  13.134  1.00  0.00     0.254 C 
HETATM   10  N   UNL     1     -40.833 -54.613  12.351  1.00  0.00    -0.366 N 
HETATM   11  H   UNL     1     -40.602 -55.548  12.655  1.00  0.00     0.159 HD
HETATM   12  H   UNL     1     -41.321 -54.491  11.464  1.00  0.00     0.159 HD
HETATM   13  O   UNL     1     -39.901 -53.733  14.196  1.00  0.00    -0.268 OA
ENDBRANCH   1   9
BRANCH   3  14
HETATM   14  C   UNL     1     -38.962 -49.038  11.757  1.00  0.00     0.067 C 
BRANCH  14  15
HETATM   15  C   UNL     1     -37.614 -49.739  11.560  1.00  0.00     0.168 C 
BRANCH  15  16
HETATM   16  O   UNL     1     -37.380 -50.021  10.187  1.00  0.00    -0.401 OA
HETATM   17  H   UNL     1     -37.574 -49.212   9.682  1.00  0.00     0.209 HD
ENDBRANCH  15  16
ENDBRANCH  14  15
ENDBRANCH   3  14
BRANCH   4  18
HETATM   18  C   UNL     1     -41.883 -48.178  11.329  1.00  0.00     0.433 C 
HETATM   19  F   UNL     1     -43.240 -48.088  11.272  1.00  0.00    -0.165 F 
HETATM   20  F   UNL     1     -41.468 -47.231  12.207  1.00  0.00    -0.165 F 
HETATM   21  F   UNL     1     -41.417 -47.837  10.105  1.00  0.00    -0.165 F 
ENDBRANCH   4  18
TORSDOF 5
ENDMDL
MODEL 9
REMARK VINA RESULT:      -5.0      4.273      5.814
REMARK  5 active torsions:
REMARK  status: ('A' for Active; 'I' for Inactive)
REMARK       I    between atoms: N_1  and  C_2 
REMARK    1  A    between atoms: C_2  and  C_4 
REMARK    2  A    between atoms: C_6  and  C_7 
REMARK    3  A    between atoms: C_7  and  C_8 
REMARK    4  A    between atoms: C_8  and  O_9 
REMARK    5  A    between atoms: C_10  and  C_14 
ROOT
HETATM    1  C   UNL     1     -41.818 -51.883  12.649  1.00  0.00     0.100 A 
HETATM    2  C   UNL     1     -41.680 -50.634  12.162  1.00  0.00     0.032 A 
HETATM    3  C   UNL     1     -40.377 -49.992  12.000  1.00  0.00    -0.023 A 
HETATM    4  C   UNL     1     -39.264 -50.673  12.359  1.00  0.00     0.126 A 
HETATM    5  N   UNL     1     -39.403 -51.952  12.881  1.00  0.00    -0.318 N 
HETATM    6  C   UNL     1     -40.589 -52.618  13.048  1.00  0.00     0.261 A 
HETATM    7  O   UNL     1     -40.615 -53.762  13.496  1.00  0.00    -0.267 OA
HETATM    8  H   UNL     1     -38.567 -52.473  13.140  1.00  0.00     0.169 HD
ENDROOT
BRANCH   1   9
HETATM    9  C   UNL     1     -43.189 -52.458  12.739  1.00  0.00     0.254 C 
HETATM   10  N   UNL     1     -43.374 -53.678  12.173  1.00  0.00    -0.366 N 
HETATM   11  H   UNL     1     -44.291 -54.100  12.203  1.00  0.00     0.159 HD
HETATM   12  H   UNL     1     -42.616 -54.183  11.715  1.00  0.00     0.159 HD
HETATM   13  O   UNL     1     -44.119 -51.873  13.285  1.00  0.00    -0.268 OA
ENDBRANCH   1   9
BRANCH   3  14
HETATM   14  C   UNL     1     -40.365 -48.611  11.366  1.00  0.00     0.067 C 
BRANCH  14  15
HETATM   15  C   UNL     1     -41.713 -48.117  10.832  1.00  0.00     0.168 C 
BRANCH  15  16
HETATM   16  O   UNL     1     -41.834 -48.364   9.438  1.00  0.00    -0.401 OA
HETATM   17  H   UNL     1     -42.627 -48.911   9.303  1.00  0.00     0.209 HD
ENDBRANCH  15  16
ENDBRANCH  14  15
ENDBRANCH   3  14
BRANCH   4  18
HETATM   18  C   UNL     1     -37.843 -50.160  12.199  1.00  0.00     0.433 C 
HETATM   19  F   UNL     1     -36.938 -51.092  12.606  1.00  0.00    -0.165 F 
HETATM   20  F   UNL     1     -37.548 -49.873  10.907  1.00  0.00    -0.165 F 
HETATM   21  F   UNL     1     -37.613 -49.045  12.932  1.00  0.00    -0.165 F 
ENDBRANCH   4  18
TORSDOF 5
ENDMDL
