MODEL 1
REMARK VINA RESULT:      -6.4      0.000      0.000
REMARK  6 active torsions:
REMARK  status: ('A' for Active; 'I' for Inactive)
REMARK    1  A    between atoms: O_1  and  C_2 
REMARK    2  A    between atoms: C_2  and  CA_4 
REMARK    3  A    between atoms: CA_4  and  CB_5 
REMARK    4  A    between atoms: CA_4  and  N_12 
REMARK    5  A    between atoms: CB_5  and  CG_6 
REMARK       I    between atoms: N_12  and  C_16 
REMARK    6  A    between atoms: C_16  and  C_18 
ROOT
ATOM      1  CA  HIS A   1     -41.597 -51.684  12.708  1.00  0.00     0.188 C 
ENDROOT
BRANCH   1   2
ATOM      2  C   HIS A   1     -40.697 -52.900  12.411  1.00  0.00     0.163 C 
ATOM      3  OXT HIS A   1     -39.929 -53.381  13.240  1.00  0.00    -0.648 OA
BRANCH   2   4
ATOM      4  O   HIS A   1     -40.700 -53.326  11.127  1.00  0.00    -0.775 OA
ATOM      5  H   HIS A   1     -41.157 -52.745  10.493  1.00  0.00     0.167 HD
ENDBRANCH   2   4
ENDBRANCH   1   2
BRANCH   1   6
ATOM      6  CB  HIS A   1     -41.224 -50.428  11.908  1.00  0.00     0.094 C 
BRANCH   6   7
ATOM      7  CG  HIS A   1     -39.798 -50.042  12.069  1.00  0.00     0.028 A 
ATOM      8  CD2 HIS A   1     -39.152 -49.541  13.177  1.00  0.00     0.114 A 
ATOM      9  NE2 HIS A   1     -37.881 -49.267  12.756  1.00  0.00    -0.360 N 
ATOM     10  CE1 HIS A   1     -37.798 -49.630  11.442  1.00  0.00     0.180 A 
ATOM     11  HE2 HIS A   1     -37.140 -48.854  13.305  1.00  0.00     0.166 HD
ATOM     12  ND1 HIS A   1     -38.933 -50.129  11.009  1.00  0.00    -0.354 N 
ATOM     13  HD1 HIS A   1     -39.130 -50.503  10.081  1.00  0.00     0.166 HD
ENDBRANCH   6   7
ENDBRANCH   1   6
BRANCH   1  14
ATOM     14  N   HIS A   1     -42.988 -52.112  12.496  1.00  0.00    -0.346 N 
HETATM   15  C   UNK A   0     -43.674 -52.913  13.370  1.00  0.00     0.222 C 
HETATM   16  O   UNK A   0     -43.148 -53.364  14.383  1.00  0.00    -0.273 OA
ATOM     17  H   HIS A   1     -43.419 -51.795  11.631  1.00  0.00     0.163 HD
BRANCH  15  18
HETATM   18  C   UNK A   0     -45.113 -53.228  12.945  1.00  0.00     0.078 C 
HETATM   19  C   UNK A   0     -45.999 -51.977  12.823  1.00  0.00     0.014 C 
HETATM   20  C   UNK A   0     -46.502 -51.442  14.165  1.00  0.00     0.001 C 
HETATM   21  C   UNK A   0     -47.136 -52.524  15.029  1.00  0.00     0.000 C 
HETATM   22  C   UNK A   0     -46.206 -53.718  15.202  1.00  0.00     0.001 C 
HETATM   23  C   UNK A   0     -45.760 -54.282  13.855  1.00  0.00     0.014 C 
ENDBRANCH  15  18
ENDBRANCH   1  14
TORSDOF 6
ENDMDL
MODEL 2
REMARK VINA RESULT:      -6.2      1.446      1.747
REMARK  6 active torsions:
REMARK  status: ('A' for Active; 'I' for Inactive)
REMARK    1  A    between atoms: O_1  and  C_2 
REMARK    2  A    between atoms: C_2  and  CA_4 
REMARK    3  A    between atoms: CA_4  and  CB_5 
REMARK    4  A    between atoms: CA_4  and  N_12 
REMARK    5  A    between atoms: CB_5  and  CG_6 
REMARK       I    between atoms: N_12  and  C_16 
REMARK    6  A    between atoms: C_16  and  C_18 
ROOT
ATOM      1  CA  HIS A   1     -41.678 -51.727  13.377  1.00  0.00     0.188 C 
ENDROOT
BRANCH   1   2
ATOM      2  C   HIS A   1     -40.660 -52.152  12.300  1.00  0.00     0.163 C 
ATOM      3  OXT HIS A   1     -39.448 -52.171  12.496  1.00  0.00    -0.648 OA
BRANCH   2   4
ATOM      4  O   HIS A   1     -41.175 -52.373  11.068  1.00  0.00    -0.775 OA
ATOM      5  H   HIS A   1     -41.458 -53.287  10.890  1.00  0.00     0.167 HD
ENDBRANCH   2   4
ENDBRANCH   1   2
BRANCH   1   6
ATOM      6  CB  HIS A   1     -41.724 -50.213  13.623  1.00  0.00     0.094 C 
BRANCH   6   7
ATOM      7  CG  HIS A   1     -41.363 -49.420  12.419  1.00  0.00     0.028 A 
ATOM      8  CD2 HIS A   1     -40.218 -48.699  12.162  1.00  0.00     0.114 A 
ATOM      9  NE2 HIS A   1     -40.444 -48.088  10.960  1.00  0.00    -0.360 N 
ATOM     10  CE1 HIS A   1     -41.680 -48.475  10.529  1.00  0.00     0.180 A 
ATOM     11  HE2 HIS A   1     -39.822 -47.450  10.482  1.00  0.00     0.166 HD
ATOM     12  ND1 HIS A   1     -42.246 -49.304  11.377  1.00  0.00    -0.354 N 
ATOM     13  HD1 HIS A   1     -43.152 -49.764  11.280  1.00  0.00     0.166 HD
ENDBRANCH   6   7
ENDBRANCH   1   6
BRANCH   1  14
ATOM     14  N   HIS A   1     -42.981 -52.289  12.989  1.00  0.00    -0.346 N 
HETATM   15  C   UNK A   0     -43.450 -53.493  13.442  1.00  0.00     0.222 C 
HETATM   16  O   UNK A   0     -42.785 -54.210  14.183  1.00  0.00    -0.273 OA
ATOM     17  H   HIS A   1     -43.520 -51.735  12.328  1.00  0.00     0.163 HD
BRANCH  15  18
HETATM   18  C   UNK A   0     -44.835 -53.875  12.906  1.00  0.00     0.078 C 
HETATM   19  C   UNK A   0     -45.733 -52.661  12.620  1.00  0.00     0.014 C 
HETATM   20  C   UNK A   0     -46.373 -52.056  13.870  1.00  0.00     0.001 C 
HETATM   21  C   UNK A   0     -47.062 -53.098  14.740  1.00  0.00     0.000 C 
HETATM   22  C   UNK A   0     -46.127 -54.252  15.078  1.00  0.00     0.001 C 
HETATM   23  C   UNK A   0     -45.542 -54.887  13.819  1.00  0.00     0.014 C 
ENDBRANCH  15  18
ENDBRANCH   1  14
TORSDOF 6
ENDMDL
MODEL 3
REMARK VINA RESULT:      -6.2      1.097      1.447
REMARK  6 active torsions:
REMARK  status: ('A' for Active; 'I' for Inactive)
REMARK    1  A    between atoms: O_1  and  C_2 
REMARK    2  A    between atoms: C_2  and  CA_4 
REMARK    3  A    between atoms: CA_4  and  CB_5 
REMARK    4  A    between atoms: CA_4  and  N_12 
REMARK    5  A    between atoms: CB_5  and  CG_6 
REMARK       I    between atoms: N_12  and  C_16 
REMARK    6  A    between atoms: C_16  and  C_18 
ROOT
ATOM      1  CA  HIS A   1     -41.213 -52.677  13.923  1.00  0.00     0.188 C 
ENDROOT
BRANCH   1   2
ATOM      2  C   HIS A   1     -40.154 -53.411  13.077  1.00  0.00     0.163 C 
ATOM      3  OXT HIS A   1     -39.014 -53.630  13.478  1.00  0.00    -0.648 OA
BRANCH   2   4
ATOM      4  O   HIS A   1     -40.514 -53.683  11.802  1.00  0.00    -0.775 OA
ATOM      5  H   HIS A   1     -41.429 -53.991  11.681  1.00  0.00     0.167 HD
ENDBRANCH   2   4
ENDBRANCH   1   2
BRANCH   1   6
ATOM      6  CB  HIS A   1     -40.972 -51.165  14.040  1.00  0.00     0.094 C 
BRANCH   6   7
ATOM      7  CG  HIS A   1     -40.296 -50.593  12.847  1.00  0.00     0.028 A 
ATOM      8  CD2 HIS A   1     -40.837 -50.213  11.639  1.00  0.00     0.114 A 
ATOM      9  NE2 HIS A   1     -39.769 -49.849  10.867  1.00  0.00    -0.360 N 
ATOM     10  CE1 HIS A   1     -38.645 -49.993  11.630  1.00  0.00     0.180 A 
ATOM     11  HE2 HIS A   1     -39.797 -49.546   9.904  1.00  0.00     0.166 HD
ATOM     12  ND1 HIS A   1     -38.938 -50.413  12.840  1.00  0.00    -0.354 N 
ATOM     13  HD1 HIS A   1     -38.290 -50.572  13.612  1.00  0.00     0.166 HD
ENDBRANCH   6   7
ENDBRANCH   1   6
BRANCH   1  14
ATOM     14  N   HIS A   1     -42.529 -53.009  13.355  1.00  0.00    -0.346 N 
HETATM   15  C   UNK A   0     -43.294 -54.060  13.786  1.00  0.00     0.222 C 
HETATM   16  O   UNK A   0     -42.907 -54.827  14.662  1.00  0.00    -0.273 OA
ATOM     17  H   HIS A   1     -42.839 -52.419  12.587  1.00  0.00     0.163 HD
BRANCH  15  18
HETATM   18  C   UNK A   0     -44.630 -54.214  13.050  1.00  0.00     0.078 C 
HETATM   19  C   UNK A   0     -45.268 -52.871  12.659  1.00  0.00     0.014 C 
HETATM   20  C   UNK A   0     -45.975 -52.161  13.814  1.00  0.00     0.001 C 
HETATM   21  C   UNK A   0     -46.943 -53.071  14.558  1.00  0.00     0.000 C 
HETATM   22  C   UNK A   0     -46.267 -54.360  15.007  1.00  0.00     0.001 C 
HETATM   23  C   UNK A   0     -45.617 -55.090  13.835  1.00  0.00     0.014 C 
ENDBRANCH  15  18
ENDBRANCH   1  14
TORSDOF 6
ENDMDL
MODEL 4
REMARK VINA RESULT:      -6.0      1.377      1.738
REMARK  6 active torsions:
REMARK  status: ('A' for Active; 'I' for Inactive)
REMARK    1  A    between atoms: O_1  and  C_2 
REMARK    2  A    between atoms: C_2  and  CA_4 
REMARK    3  A    between atoms: CA_4  and  CB_5 
REMARK    4  A    between atoms: CA_4  and  N_12 
REMARK    5  A    between atoms: CB_5  and  CG_6 
REMARK       I    between atoms: N_12  and  C_16 
REMARK    6  A    between atoms: C_16  and  C_18 
ROOT
ATOM      1  CA  HIS A   1     -41.572 -52.766  13.050  1.00  0.00     0.188 C 
ENDROOT
BRANCH   1   2
ATOM      2  C   HIS A   1     -40.895 -54.011  13.657  1.00  0.00     0.163 C 
ATOM      3  OXT HIS A   1     -41.340 -54.602  14.637  1.00  0.00    -0.648 OA
BRANCH   2   4
ATOM      4  O   HIS A   1     -39.694 -54.337  13.126  1.00  0.00    -0.775 OA
ATOM      5  H   HIS A   1     -39.027 -54.655  13.760  1.00  0.00     0.167 HD
ENDBRANCH   2   4
ENDBRANCH   1   2
BRANCH   1   6
ATOM      6  CB  HIS A   1     -40.926 -52.285  11.744  1.00  0.00     0.094 C 
BRANCH   6   7
ATOM      7  CG  HIS A   1     -40.668 -50.822  11.731  1.00  0.00     0.028 A 
ATOM      8  CD2 HIS A   1     -39.520 -50.138  12.063  1.00  0.00     0.114 A 
ATOM      9  NE2 HIS A   1     -39.853 -48.815  11.970  1.00  0.00    -0.360 N 
ATOM     10  CE1 HIS A   1     -41.156 -48.748  11.566  1.00  0.00     0.180 A 
ATOM     11  HE2 HIS A   1     -39.255 -48.027  12.178  1.00  0.00     0.166 HD
ATOM     12  ND1 HIS A   1     -41.664 -49.946  11.386  1.00  0.00    -0.354 N 
ATOM     13  HD1 HIS A   1     -42.602 -50.176  11.058  1.00  0.00     0.166 HD
ENDBRANCH   6   7
ENDBRANCH   1   6
BRANCH   1  14
ATOM     14  N   HIS A   1     -43.003 -53.077  12.906  1.00  0.00    -0.346 N 
HETATM   15  C   UNK A   0     -43.995 -52.140  13.026  1.00  0.00     0.222 C 
HETATM   16  O   UNK A   0     -43.750 -50.969  13.304  1.00  0.00    -0.273 OA
ATOM     17  H   HIS A   1     -43.227 -54.053  12.735  1.00  0.00     0.163 HD
BRANCH  15  18
HETATM   18  C   UNK A   0     -45.412 -52.691  12.834  1.00  0.00     0.078 C 
HETATM   19  C   UNK A   0     -46.510 -51.638  13.061  1.00  0.00     0.014 C 
HETATM   20  C   UNK A   0     -46.806 -51.361  14.535  1.00  0.00     0.001 C 
HETATM   21  C   UNK A   0     -47.045 -52.634  15.337  1.00  0.00     0.000 C 
HETATM   22  C   UNK A   0     -45.905 -53.628  15.160  1.00  0.00     0.001 C 
HETATM   23  C   UNK A   0     -45.658 -53.944  13.687  1.00  0.00     0.014 C 
ENDBRANCH  15  18
ENDBRANCH   1  14
TORSDOF 6
ENDMDL
MODEL 5
REMARK VINA RESULT:      -5.9      3.219      4.431
REMARK  6 active torsions:
REMARK  status: ('A' for Active; 'I' for Inactive)
REMARK    1  A    between atoms: O_1  and  C_2 
REMARK    2  A    between atoms: C_2  and  CA_4 
REMARK    3  A    between atoms: CA_4  and  CB_5 
REMARK    4  A    between atoms: CA_4  and  N_12 
REMARK    5  A    between atoms: CB_5  and  CG_6 
REMARK       I    between atoms: N_12  and  C_16 
REMARK    6  A    between atoms: C_16  and  C_18 
ROOT
ATOM      1  CA  HIS A   1     -41.473 -54.209  13.827  1.00  0.00     0.188 C 
ENDROOT
BRANCH   1   2
ATOM      2  C   HIS A   1     -40.539 -53.463  12.853  1.00  0.00     0.163 C 
ATOM      3  OXT HIS A   1     -39.704 -52.643  13.224  1.00  0.00    -0.648 OA
BRANCH   2   4
ATOM      4  O   HIS A   1     -40.789 -53.664  11.538  1.00  0.00    -0.775 OA
ATOM      5  H   HIS A   1     -40.104 -53.340  10.927  1.00  0.00     0.167 HD
ENDBRANCH   2   4
ENDBRANCH   1   2
BRANCH   1   6
ATOM      6  CB  HIS A   1     -41.203 -53.896  15.305  1.00  0.00     0.094 C 
BRANCH   6   7
ATOM      7  CG  HIS A   1     -40.604 -55.042  16.038  1.00  0.00     0.028 A 
ATOM      8  CD2 HIS A   1     -39.277 -55.347  16.241  1.00  0.00     0.114 A 
ATOM      9  NE2 HIS A   1     -39.283 -56.551  16.889  1.00  0.00    -0.360 N 
ATOM     10  CE1 HIS A   1     -40.587 -56.909  17.076  1.00  0.00     0.180 A 
ATOM     11  HE2 HIS A   1     -38.474 -57.091  17.165  1.00  0.00     0.166 HD
ATOM     12  ND1 HIS A   1     -41.407 -56.001  16.598  1.00  0.00    -0.354 N 
ATOM     13  HD1 HIS A   1     -42.427 -56.008  16.635  1.00  0.00     0.166 HD
ENDBRANCH   6   7
ENDBRANCH   1   6
BRANCH   1  14
ATOM     14  N   HIS A   1     -42.854 -53.912  13.417  1.00  0.00    -0.346 N 
HETATM   15  C   UNK A   0     -43.953 -54.510  13.975  1.00  0.00     0.222 C 
HETATM   16  O   UNK A   0     -43.850 -55.375  14.839  1.00  0.00    -0.273 OA
ATOM     17  H   HIS A   1     -42.955 -53.240  12.660  1.00  0.00     0.163 HD
BRANCH  15  18
HETATM   18  C   UNK A   0     -45.292 -54.044  13.392  1.00  0.00     0.078 C 
HETATM   19  C   UNK A   0     -45.204 -52.687  12.673  1.00  0.00     0.014 C 
HETATM   20  C   UNK A   0     -45.185 -51.486  13.619  1.00  0.00     0.001 C 
HETATM   21  C   UNK A   0     -46.309 -51.529  14.646  1.00  0.00     0.000 C 
HETATM   22  C   UNK A   0     -46.325 -52.851  15.402  1.00  0.00     0.001 C 
HETATM   23  C   UNK A   0     -46.405 -54.041  14.450  1.00  0.00     0.014 C 
ENDBRANCH  15  18
ENDBRANCH   1  14
TORSDOF 6
ENDMDL
MODEL 6
REMARK VINA RESULT:      -5.7      2.540      3.113
REMARK  6 active torsions:
REMARK  status: ('A' for Active; 'I' for Inactive)
REMARK    1  A    between atoms: O_1  and  C_2 
REMARK    2  A    between atoms: C_2  and  CA_4 
REMARK    3  A    between atoms: CA_4  and  CB_5 
REMARK    4  A    between atoms: CA_4  and  N_12 
REMARK    5  A    between atoms: CB_5  and  CG_6 
REMARK       I    between atoms: N_12  and  C_16 
REMARK    6  A    between atoms: C_16  and  C_18 
ROOT
ATOM      1  CA  HIS A   1     -42.112 -50.656  12.609  1.00  0.00     0.188 C 
ENDROOT
BRANCH   1   2
ATOM      2  C   HIS A   1     -41.254 -51.884  12.243  1.00  0.00     0.163 C 
ATOM      3  OXT HIS A   1     -41.597 -53.036  12.492  1.00  0.00    -0.648 OA
BRANCH   2   4
ATOM      4  O   HIS A   1     -40.025 -51.608  11.750  1.00  0.00    -0.775 OA
ATOM      5  H   HIS A   1     -39.503 -52.381  11.470  1.00  0.00     0.167 HD
ENDBRANCH   2   4
ENDBRANCH   1   2
BRANCH   1   6
ATOM      6  CB  HIS A   1     -41.809 -49.414  11.759  1.00  0.00     0.094 C 
BRANCH   6   7
ATOM      7  CG  HIS A   1     -42.420 -48.175  12.306  1.00  0.00     0.028 A 
ATOM      8  CD2 HIS A   1     -42.973 -47.107  11.634  1.00  0.00     0.114 A 
ATOM      9  NE2 HIS A   1     -43.295 -46.202  12.607  1.00  0.00    -0.360 N 
ATOM     10  CE1 HIS A   1     -42.959 -46.755  13.809  1.00  0.00     0.180 A 
ATOM     11  HE2 HIS A   1     -43.692 -45.284  12.467  1.00  0.00     0.166 HD
ATOM     12  ND1 HIS A   1     -42.455 -47.959  13.659  1.00  0.00    -0.354 N 
ATOM     13  HD1 HIS A   1     -42.153 -48.599  14.394  1.00  0.00     0.166 HD
ENDBRANCH   6   7
ENDBRANCH   1   6
BRANCH   1  14
ATOM     14  N   HIS A   1     -43.521 -51.073  12.539  1.00  0.00    -0.346 N 
HETATM   15  C   UNK A   0     -44.415 -50.886  13.559  1.00  0.00     0.222 C 
HETATM   16  O   UNK A   0     -44.083 -50.384  14.629  1.00  0.00    -0.273 OA
ATOM     17  H   HIS A   1     -43.798 -51.545  11.682  1.00  0.00     0.163 HD
BRANCH  15  18
HETATM   18  C   UNK A   0     -45.829 -51.398  13.263  1.00  0.00     0.078 C 
HETATM   19  C   UNK A   0     -46.744 -51.409  14.498  1.00  0.00     0.014 C 
HETATM   20  C   UNK A   0     -46.502 -52.590  15.438  1.00  0.00     0.001 C 
HETATM   21  C   UNK A   0     -46.491 -53.928  14.710  1.00  0.00     0.000 C 
HETATM   22  C   UNK A   0     -45.517 -53.920  13.539  1.00  0.00     0.001 C 
HETATM   23  C   UNK A   0     -45.807 -52.771  12.576  1.00  0.00     0.014 C 
ENDBRANCH  15  18
ENDBRANCH   1  14
TORSDOF 6
ENDMDL
MODEL 7
REMARK VINA RESULT:      -5.7      3.013      4.520
REMARK  6 active torsions:
REMARK  status: ('A' for Active; 'I' for Inactive)
REMARK    1  A    between atoms: O_1  and  C_2 
REMARK    2  A    between atoms: C_2  and  CA_4 
REMARK    3  A    between atoms: CA_4  and  CB_5 
REMARK    4  A    between atoms: CA_4  and  N_12 
REMARK    5  A    between atoms: CB_5  and  CG_6 
REMARK       I    between atoms: N_12  and  C_16 
REMARK    6  A    between atoms: C_16  and  C_18 
ROOT
ATOM      1  CA  HIS A   1     -41.330 -53.272  13.979  1.00  0.00     0.188 C 
ENDROOT
BRANCH   1   2
ATOM      2  C   HIS A   1     -40.348 -52.993  12.823  1.00  0.00     0.163 C 
ATOM      3  OXT HIS A   1     -39.380 -52.247  12.934  1.00  0.00    -0.648 OA
BRANCH   2   4
ATOM      4  O   HIS A   1     -40.697 -53.516  11.625  1.00  0.00    -0.775 OA
ATOM      5  H   HIS A   1     -41.643 -53.458  11.401  1.00  0.00     0.167 HD
ENDBRANCH   2   4
ENDBRANCH   1   2
BRANCH   1   6
ATOM      6  CB  HIS A   1     -40.650 -53.404  15.349  1.00  0.00     0.094 C 
BRANCH   6   7
ATOM      7  CG  HIS A   1     -40.880 -54.729  15.983  1.00  0.00     0.028 A 
ATOM      8  CD2 HIS A   1     -39.960 -55.670  16.389  1.00  0.00     0.114 A 
ATOM      9  NE2 HIS A   1     -40.705 -56.736  16.812  1.00  0.00    -0.360 N 
ATOM     10  CE1 HIS A   1     -42.020 -56.398  16.675  1.00  0.00     0.180 A 
ATOM     11  HE2 HIS A   1     -40.352 -57.622  17.147  1.00  0.00     0.166 HD
ATOM     12  ND1 HIS A   1     -42.155 -55.179  16.204  1.00  0.00    -0.354 N 
ATOM     13  HD1 HIS A   1     -43.026 -54.673  16.038  1.00  0.00     0.166 HD
ENDBRANCH   6   7
ENDBRANCH   1   6
BRANCH   1  14
ATOM     14  N   HIS A   1     -42.355 -52.218  13.942  1.00  0.00    -0.346 N 
HETATM   15  C   UNK A   0     -43.512 -52.314  13.216  1.00  0.00     0.222 C 
HETATM   16  O   UNK A   0     -43.752 -53.287  12.506  1.00  0.00    -0.273 OA
ATOM     17  H   HIS A   1     -42.144 -51.380  14.477  1.00  0.00     0.163 HD
BRANCH  15  18
HETATM   18  C   UNK A   0     -44.435 -51.096  13.330  1.00  0.00     0.078 C 
HETATM   19  C   UNK A   0     -44.362 -50.403  14.700  1.00  0.00     0.014 C 
HETATM   20  C   UNK A   0     -45.152 -51.116  15.798  1.00  0.00     0.001 C 
HETATM   21  C   UNK A   0     -46.582 -51.433  15.381  1.00  0.00     0.000 C 
HETATM   22  C   UNK A   0     -46.625 -52.192  14.060  1.00  0.00     0.001 C 
HETATM   23  C   UNK A   0     -45.884 -51.440  12.957  1.00  0.00     0.014 C 
ENDBRANCH  15  18
ENDBRANCH   1  14
TORSDOF 6
ENDMDL
MODEL 8
REMARK VINA RESULT:      -5.5      2.527      3.282
REMARK  6 active torsions:
REMARK  status: ('A' for Active; 'I' for Inactive)
REMARK    1  A    between atoms: O_1  and  C_2 
REMARK    2  A    between atoms: C_2  and  CA_4 
REMARK    3  A    between atoms: CA_4  and  CB_5 
REMARK    4  A    between atoms: CA_4  and  N_12 
REMARK    5  A    between atoms: CB_5  and  CG_6 
REMARK       I    between atoms: N_12  and  C_16 
REMARK    6  A    between atoms: C_16  and  C_18 
ROOT
ATOM      1  CA  HIS A   1     -41.973 -53.539  13.550  1.00  0.00     0.188 C 
ENDROOT
BRANCH   1   2
ATOM      2  C   HIS A   1     -41.311 -52.867  12.331  1.00  0.00     0.163 C 
ATOM      3  OXT HIS A   1     -41.630 -51.752  11.928  1.00  0.00    -0.648 OA
BRANCH   2   4
ATOM      4  O   HIS A   1     -40.444 -53.642  11.639  1.00  0.00    -0.775 OA
ATOM      5  H   HIS A   1     -39.760 -53.163  11.139  1.00  0.00     0.167 HD
ENDBRANCH   2   4
ENDBRANCH   1   2
BRANCH   1   6
ATOM      6  CB  HIS A   1     -41.497 -52.981  14.899  1.00  0.00     0.094 C 
BRANCH   6   7
ATOM      7  CG  HIS A   1     -42.246 -51.768  15.319  1.00  0.00     0.028 A 
ATOM      8  CD2 HIS A   1     -43.168 -51.622  16.332  1.00  0.00     0.114 A 
ATOM      9  NE2 HIS A   1     -43.617 -50.335  16.222  1.00  0.00    -0.360 N 
ATOM     10  CE1 HIS A   1     -42.945 -49.753  15.186  1.00  0.00     0.180 A 
ATOM     11  HE2 HIS A   1     -44.329 -49.896  16.788  1.00  0.00     0.166 HD
ATOM     12  ND1 HIS A   1     -42.088 -50.587  14.641  1.00  0.00    -0.354 N 
ATOM     13  HD1 HIS A   1     -41.442 -50.396  13.875  1.00  0.00     0.166 HD
ENDBRANCH   6   7
ENDBRANCH   1   6
BRANCH   1  14
ATOM     14  N   HIS A   1     -43.428 -53.438  13.365  1.00  0.00    -0.346 N 
HETATM   15  C   UNK A   0     -44.326 -54.290  13.953  1.00  0.00     0.222 C 
HETATM   16  O   UNK A   0     -43.963 -55.231  14.652  1.00  0.00    -0.273 OA
ATOM     17  H   HIS A   1     -43.743 -52.700  12.741  1.00  0.00     0.163 HD
BRANCH  15  18
HETATM   18  C   UNK A   0     -45.792 -53.993  13.620  1.00  0.00     0.078 C 
HETATM   19  C   UNK A   0     -45.982 -52.706  12.800  1.00  0.00     0.014 C 
HETATM   20  C   UNK A   0     -45.901 -51.425  13.632  1.00  0.00     0.001 C 
HETATM   21  C   UNK A   0     -46.794 -51.468  14.865  1.00  0.00     0.000 C 
HETATM   22  C   UNK A   0     -46.531 -52.711  15.704  1.00  0.00     0.001 C 
HETATM   23  C   UNK A   0     -46.674 -53.987  14.877  1.00  0.00     0.014 C 
ENDBRANCH  15  18
ENDBRANCH   1  14
TORSDOF 6
ENDMDL
MODEL 9
REMARK VINA RESULT:      -5.2      2.677      3.488
REMARK  6 active torsions:
REMARK  status: ('A' for Active; 'I' for Inactive)
REMARK    1  A    between atoms: O_1  and  C_2 
REMARK    2  A    between atoms: C_2  and  CA_4 
REMARK    3  A    between atoms: CA_4  and  CB_5 
REMARK    4  A    between atoms: CA_4  and  N_12 
REMARK    5  A    between atoms: CB_5  and  CG_6 
REMARK       I    between atoms: N_12  and  C_16 
REMARK    6  A    between atoms: C_16  and  C_18 
ROOT
ATOM      1  CA  HIS A   1     -41.065 -53.817  13.160  1.00  0.00     0.188 C 
ENDROOT
BRANCH   1   2
ATOM      2  C   HIS A   1     -40.853 -52.567  12.284  1.00  0.00     0.163 C 
ATOM      3  OXT HIS A   1     -40.439 -51.500  12.730  1.00  0.00    -0.648 OA
BRANCH   2   4
ATOM      4  O   HIS A   1     -41.285 -52.672  11.006  1.00  0.00    -0.775 OA
ATOM      5  H   HIS A   1     -42.208 -52.963  10.898  1.00  0.00     0.167 HD
ENDBRANCH   2   4
ENDBRANCH   1   2
BRANCH   1   6
ATOM      6  CB  HIS A   1     -39.771 -54.367  13.777  1.00  0.00     0.094 C 
BRANCH   6   7
ATOM      7  CG  HIS A   1     -39.467 -53.774  15.106  1.00  0.00     0.028 A 
ATOM      8  CD2 HIS A   1     -39.662 -54.306  16.361  1.00  0.00     0.114 A 
ATOM      9  NE2 HIS A   1     -39.305 -53.312  17.229  1.00  0.00    -0.360 N 
ATOM     10  CE1 HIS A   1     -38.889 -52.247  16.484  1.00  0.00     0.180 A 
ATOM     11  HE2 HIS A   1     -39.355 -53.347  18.238  1.00  0.00     0.166 HD
ATOM     12  ND1 HIS A   1     -38.949 -52.509  15.198  1.00  0.00    -0.354 N 
ATOM     13  HD1 HIS A   1     -38.668 -51.899  14.429  1.00  0.00     0.166 HD
ENDBRANCH   6   7
ENDBRANCH   1   6
BRANCH   1  14
ATOM     14  N   HIS A   1     -42.084 -53.477  14.164  1.00  0.00    -0.346 N 
HETATM   15  C   UNK A   0     -43.422 -53.718  13.994  1.00  0.00     0.222 C 
HETATM   16  O   UNK A   0     -43.866 -54.206  12.959  1.00  0.00    -0.273 OA
ATOM     17  H   HIS A   1     -41.740 -53.018  15.003  1.00  0.00     0.163 HD
BRANCH  15  18
HETATM   18  C   UNK A   0     -44.298 -53.282  15.174  1.00  0.00     0.078 C 
HETATM   19  C   UNK A   0     -45.753 -53.768  15.064  1.00  0.00     0.014 C 
HETATM   20  C   UNK A   0     -46.611 -52.941  14.107  1.00  0.00     0.001 C 
HETATM   21  C   UNK A   0     -46.516 -51.445  14.376  1.00  0.00     0.000 C 
HETATM   22  C   UNK A   0     -45.068 -50.971  14.400  1.00  0.00     0.001 C 
HETATM   23  C   UNK A   0     -44.235 -51.765  15.403  1.00  0.00     0.014 C 
ENDBRANCH  15  18
ENDBRANCH   1  14
TORSDOF 6
ENDMDL
