MODEL 1
REMARK VINA RESULT:      -5.5      0.000      0.000
REMARK  5 active torsions:
REMARK  status: ('A' for Active; 'I' for Inactive)
REMARK    1  A    between atoms: C_2  and  O_3 
REMARK    2  A    between atoms: O_3  and  C_4 
REMARK    3  A    between atoms: C_6  and  N_7 
REMARK       I    between atoms: N_7  and  C_8 
REMARK       I    between atoms: C_8  and  N_10 
REMARK    4  A    between atoms: N_10  and  C_11 
REMARK    5  A    between atoms: C_18  and  O_19 
ROOT
HETATM    1  N   UNL     1     -41.873 -50.832  12.084  1.00  0.00    -0.336 N 
HETATM    2  C   UNL     1     -42.614 -51.590  12.963  1.00  0.00     0.321 C 
HETATM    3  O   UNL     1     -42.300 -51.673  14.148  1.00  0.00    -0.247 OA
HETATM    4  N   UNL     1     -43.668 -52.234  12.357  1.00  0.00    -0.309 N 
HETATM    5  H   UNL     1     -42.342 -50.523  11.243  1.00  0.00     0.164 HD
HETATM    6  H   UNL     1     -43.607 -52.339  11.355  1.00  0.00     0.170 HD
ENDROOT
BRANCH   1   7
HETATM    7  C   UNL     1     -40.715 -50.055  12.613  1.00  0.00     0.120 C 
HETATM    8  C   UNL     1     -40.994 -48.576  12.926  1.00  0.00     0.062 C 
HETATM    9  C   UNL     1     -40.566 -48.240  11.481  1.00  0.00     0.154 C 
HETATM   10  C   UNL     1     -39.726 -49.563  11.503  1.00  0.00     0.172 C 
BRANCH   9  11
HETATM   11  O   UNL     1     -39.878 -46.981  11.312  1.00  0.00    -0.384 OA
BRANCH  11  12
HETATM   12  C   UNL     1     -40.589 -45.991  10.578  1.00  0.00     0.163 C 
HETATM   13  C   UNL     1     -39.634 -44.873  10.214  1.00  0.00     0.033 C 
ENDBRANCH  11  12
ENDBRANCH   9  11
BRANCH  10  14
HETATM   14  O   UNL     1     -38.334 -49.458  11.898  1.00  0.00    -0.386 OA
HETATM   15  C   UNL     1     -37.393 -49.993  10.973  1.00  0.00     0.202 C 
ENDBRANCH  10  14
ENDBRANCH   1   7
BRANCH   4  16
HETATM   16  C   UNL     1     -44.644 -53.007  13.029  1.00  0.00     0.038 A 
HETATM   17  C   UNL     1     -44.553 -54.391  13.170  1.00  0.00     0.046 A 
HETATM   18  C   UNL     1     -45.575 -55.063  13.817  1.00  0.00     0.090 A 
HETATM   19  N   UNL     1     -46.658 -54.454  14.341  1.00  0.00    -0.375 N 
HETATM   20  C   UNL     1     -46.715 -53.112  14.213  1.00  0.00     0.090 A 
ATOM     21  HN  UNL     1     -47.396 -54.980  14.809  1.00  0.00     0.164 HD
HETATM   22  C   UNL     1     -45.742 -52.351  13.583  1.00  0.00     0.046 A 
ENDBRANCH   4  16
TORSDOF 5
ENDMDL
MODEL 2
REMARK VINA RESULT:      -5.4      2.177      2.938
REMARK  5 active torsions:
REMARK  status: ('A' for Active; 'I' for Inactive)
REMARK    1  A    between atoms: C_2  and  O_3 
REMARK    2  A    between atoms: O_3  and  C_4 
REMARK    3  A    between atoms: C_6  and  N_7 
REMARK       I    between atoms: N_7  and  C_8 
REMARK       I    between atoms: C_8  and  N_10 
REMARK    4  A    between atoms: N_10  and  C_11 
REMARK    5  A    between atoms: C_18  and  O_19 
ROOT
HETATM    1  N   UNL     1     -42.076 -49.962  11.749  1.00  0.00    -0.336 N 
HETATM    2  C   UNL     1     -42.672 -50.805  12.661  1.00  0.00     0.321 C 
HETATM    3  O   UNL     1     -43.152 -50.371  13.705  1.00  0.00    -0.247 OA
HETATM    4  N   UNL     1     -42.620 -52.127  12.280  1.00  0.00    -0.309 N 
HETATM    5  H   UNL     1     -42.014 -50.294  10.796  1.00  0.00     0.164 HD
HETATM    6  H   UNL     1     -41.924 -52.362  11.587  1.00  0.00     0.170 HD
ENDROOT
BRANCH   1   7
HETATM    7  C   UNL     1     -42.085 -48.496  12.023  1.00  0.00     0.120 C 
HETATM    8  C   UNL     1     -43.350 -47.744  11.577  1.00  0.00     0.062 C 
HETATM    9  C   UNL     1     -42.662 -47.492  10.219  1.00  0.00     0.154 C 
HETATM   10  C   UNL     1     -41.295 -47.653  10.967  1.00  0.00     0.172 C 
BRANCH   9  11
HETATM   11  O   UNL     1     -42.969 -46.228   9.591  1.00  0.00    -0.384 OA
BRANCH  11  12
HETATM   12  C   UNL     1     -43.593 -46.314   8.315  1.00  0.00     0.163 C 
HETATM   13  C   UNL     1     -43.504 -47.742   7.822  1.00  0.00     0.033 C 
ENDBRANCH  11  12
ENDBRANCH   9  11
BRANCH  10  14
HETATM   14  O   UNL     1     -40.666 -46.444  11.465  1.00  0.00    -0.386 OA
HETATM   15  C   UNL     1     -39.735 -45.829  10.580  1.00  0.00     0.202 C 
ENDBRANCH  10  14
ENDBRANCH   1   7
BRANCH   4  16
HETATM   16  C   UNL     1     -43.226 -53.198  12.976  1.00  0.00     0.038 A 
HETATM   17  C   UNL     1     -44.531 -53.623  12.733  1.00  0.00     0.046 A 
HETATM   18  C   UNL     1     -45.046 -54.661  13.489  1.00  0.00     0.090 A 
HETATM   19  N   UNL     1     -44.351 -55.306  14.447  1.00  0.00    -0.375 N 
HETATM   20  C   UNL     1     -43.084 -54.894  14.652  1.00  0.00     0.090 A 
ATOM     21  HN  UNL     1     -44.763 -56.065  14.990  1.00  0.00     0.164 HD
HETATM   22  C   UNL     1     -42.479 -53.865  13.946  1.00  0.00     0.046 A 
ENDBRANCH   4  16
TORSDOF 5
ENDMDL
MODEL 3
REMARK VINA RESULT:      -5.2      3.921      6.577
REMARK  5 active torsions:
REMARK  status: ('A' for Active; 'I' for Inactive)
REMARK    1  A    between atoms: C_2  and  O_3 
REMARK    2  A    between atoms: O_3  and  C_4 
REMARK    3  A    between atoms: C_6  and  N_7 
REMARK       I    between atoms: N_7  and  C_8 
REMARK       I    between atoms: C_8  and  N_10 
REMARK    4  A    between atoms: N_10  and  C_11 
REMARK    5  A    between atoms: C_18  and  O_19 
ROOT
HETATM    1  N   UNL     1     -40.713 -49.212  10.692  1.00  0.00    -0.336 N 
HETATM    2  C   UNL     1     -41.782 -48.346  10.755  1.00  0.00     0.321 C 
HETATM    3  O   UNL     1     -42.096 -47.804  11.812  1.00  0.00    -0.247 OA
HETATM    4  N   UNL     1     -42.434 -48.213   9.551  1.00  0.00    -0.309 N 
HETATM    5  H   UNL     1     -40.295 -49.353   9.782  1.00  0.00     0.164 HD
HETATM    6  H   UNL     1     -42.277 -48.949   8.877  1.00  0.00     0.170 HD
ENDROOT
BRANCH   1   7
HETATM    7  C   UNL     1     -39.898 -49.428  11.922  1.00  0.00     0.120 C 
HETATM    8  C   UNL     1     -38.880 -50.578  11.852  1.00  0.00     0.062 C 
HETATM    9  C   UNL     1     -39.974 -51.515  12.406  1.00  0.00     0.154 C 
HETATM   10  C   UNL     1     -40.639 -50.243  13.035  1.00  0.00     0.172 C 
BRANCH   9  11
HETATM   11  O   UNL     1     -39.509 -52.564  13.283  1.00  0.00    -0.384 OA
BRANCH  11  12
HETATM   12  C   UNL     1     -40.309 -53.741  13.307  1.00  0.00     0.163 C 
HETATM   13  C   UNL     1     -40.715 -54.029  14.736  1.00  0.00     0.033 C 
ENDBRANCH  11  12
ENDBRANCH   9  11
BRANCH  10  14
HETATM   14  O   UNL     1     -40.281 -49.916  14.402  1.00  0.00    -0.386 OA
HETATM   15  C   UNL     1     -41.370 -49.584  15.257  1.00  0.00     0.202 C 
ENDBRANCH  10  14
ENDBRANCH   1   7
BRANCH   4  16
HETATM   16  C   UNL     1     -43.508 -47.327   9.301  1.00  0.00     0.038 A 
HETATM   17  C   UNL     1     -43.350 -45.945   9.217  1.00  0.00     0.046 A 
HETATM   18  C   UNL     1     -44.468 -45.159   9.000  1.00  0.00     0.090 A 
HETATM   19  N   UNL     1     -45.713 -45.653   8.846  1.00  0.00    -0.375 N 
HETATM   20  C   UNL     1     -45.840 -46.994   8.909  1.00  0.00     0.090 A 
ATOM     21  HN  UNL     1     -46.517 -45.044   8.692  1.00  0.00     0.164 HD
HETATM   22  C   UNL     1     -44.781 -47.864   9.121  1.00  0.00     0.046 A 
ENDBRANCH   4  16
TORSDOF 5
ENDMDL
MODEL 4
REMARK VINA RESULT:      -5.0      1.420      2.699
REMARK  5 active torsions:
REMARK  status: ('A' for Active; 'I' for Inactive)
REMARK    1  A    between atoms: C_2  and  O_3 
REMARK    2  A    between atoms: O_3  and  C_4 
REMARK    3  A    between atoms: C_6  and  N_7 
REMARK       I    between atoms: N_7  and  C_8 
REMARK       I    between atoms: C_8  and  N_10 
REMARK    4  A    between atoms: N_10  and  C_11 
REMARK    5  A    between atoms: C_18  and  O_19 
ROOT
HETATM    1  N   UNL     1     -42.458 -50.463  12.001  1.00  0.00    -0.336 N 
HETATM    2  C   UNL     1     -43.185 -51.153  12.945  1.00  0.00     0.321 C 
HETATM    3  O   UNL     1     -43.058 -50.912  14.143  1.00  0.00    -0.247 OA
HETATM    4  N   UNL     1     -43.994 -52.121  12.395  1.00  0.00    -0.309 N 
HETATM    5  H   UNL     1     -42.832 -50.448  11.061  1.00  0.00     0.164 HD
HETATM    6  H   UNL     1     -43.753 -52.423  11.462  1.00  0.00     0.170 HD
ENDROOT
BRANCH   1   7
HETATM    7  C   UNL     1     -41.559 -49.364  12.457  1.00  0.00     0.120 C 
HETATM    8  C   UNL     1     -40.699 -48.711  11.363  1.00  0.00     0.062 C 
HETATM    9  C   UNL     1     -39.599 -49.747  11.676  1.00  0.00     0.154 C 
HETATM   10  C   UNL     1     -40.226 -49.868  13.107  1.00  0.00     0.172 C 
BRANCH   9  11
HETATM   11  O   UNL     1     -38.242 -49.272  11.547  1.00  0.00    -0.384 OA
BRANCH  11  12
HETATM   12  C   UNL     1     -37.258 -50.280  11.343  1.00  0.00     0.163 C 
HETATM   13  C   UNL     1     -36.749 -50.185   9.920  1.00  0.00     0.033 C 
ENDBRANCH  11  12
ENDBRANCH   9  11
BRANCH  10  14
HETATM   14  O   UNL     1     -39.670 -49.023  14.147  1.00  0.00    -0.386 OA
HETATM   15  C   UNL     1     -39.219 -49.704  15.313  1.00  0.00     0.202 C 
ENDBRANCH  10  14
ENDBRANCH   1   7
BRANCH   4  16
HETATM   16  C   UNL     1     -44.912 -52.919  13.115  1.00  0.00     0.038 A 
HETATM   17  C   UNL     1     -46.051 -52.403  13.730  1.00  0.00     0.046 A 
HETATM   18  C   UNL     1     -46.873 -53.260  14.440  1.00  0.00     0.090 A 
HETATM   19  N   UNL     1     -46.647 -54.584  14.562  1.00  0.00    -0.375 N 
HETATM   20  C   UNL     1     -45.552 -55.067  13.941  1.00  0.00     0.090 A 
ATOM     21  HN  UNL     1     -47.272 -55.188  15.096  1.00  0.00     0.164 HD
HETATM   22  C   UNL     1     -44.669 -54.289  13.207  1.00  0.00     0.046 A 
ENDBRANCH   4  16
TORSDOF 5
ENDMDL
MODEL 5
REMARK VINA RESULT:      -5.0      2.414      7.637
REMARK  5 active torsions:
REMARK  status: ('A' for Active; 'I' for Inactive)
REMARK    1  A    between atoms: C_2  and  O_3 
REMARK    2  A    between atoms: O_3  and  C_4 
REMARK    3  A    between atoms: C_6  and  N_7 
REMARK       I    between atoms: N_7  and  C_8 
REMARK       I    between atoms: C_8  and  N_10 
REMARK    4  A    between atoms: N_10  and  C_11 
REMARK    5  A    between atoms: C_18  and  O_19 
ROOT
HETATM    1  N   UNL     1     -42.253 -51.332  12.168  1.00  0.00    -0.336 N 
HETATM    2  C   UNL     1     -41.983 -49.989  12.309  1.00  0.00     0.321 C 
HETATM    3  O   UNL     1     -41.600 -49.530  13.382  1.00  0.00    -0.247 OA
HETATM    4  N   UNL     1     -42.227 -49.272  11.160  1.00  0.00    -0.309 N 
HETATM    5  H   UNL     1     -42.227 -51.706  11.228  1.00  0.00     0.164 HD
HETATM    6  H   UNL     1     -42.836 -49.709  10.484  1.00  0.00     0.170 HD
ENDROOT
BRANCH   1   7
HETATM    7  C   UNL     1     -42.006 -52.235  13.329  1.00  0.00     0.120 C 
HETATM    8  C   UNL     1     -42.100 -53.740  13.033  1.00  0.00     0.062 C 
HETATM    9  C   UNL     1     -43.597 -53.670  13.401  1.00  0.00     0.154 C 
HETATM   10  C   UNL     1     -43.248 -52.411  14.267  1.00  0.00     0.172 C 
BRANCH   9  11
HETATM   11  O   UNL     1     -44.133 -54.840  14.057  1.00  0.00    -0.384 OA
BRANCH  11  12
HETATM   12  C   UNL     1     -45.494 -55.136  13.763  1.00  0.00     0.163 C 
HETATM   13  C   UNL     1     -46.376 -54.452  14.785  1.00  0.00     0.033 C 
ENDBRANCH  11  12
ENDBRANCH   9  11
BRANCH  10  14
HETATM   14  O   UNL     1     -42.954 -52.634  15.670  1.00  0.00    -0.386 OA
HETATM   15  C   UNL     1     -43.839 -51.999  16.588  1.00  0.00     0.202 C 
ENDBRANCH  10  14
ENDBRANCH   1   7
BRANCH   4  16
HETATM   16  C   UNL     1     -41.956 -47.894  10.990  1.00  0.00     0.038 A 
HETATM   17  C   UNL     1     -42.954 -46.942  10.790  1.00  0.00     0.046 A 
HETATM   18  C   UNL     1     -42.587 -45.621  10.601  1.00  0.00     0.090 A 
HETATM   19  N   UNL     1     -41.310 -45.190  10.615  1.00  0.00    -0.375 N 
HETATM   20  C   UNL     1     -40.361 -46.123  10.832  1.00  0.00     0.090 A 
ATOM     21  HN  UNL     1     -41.073 -44.208  10.469  1.00  0.00     0.164 HD
HETATM   22  C   UNL     1     -40.629 -47.470  11.031  1.00  0.00     0.046 A 
ENDBRANCH   4  16
TORSDOF 5
ENDMDL
MODEL 6
REMARK VINA RESULT:      -4.9      2.689      7.446
REMARK  5 active torsions:
REMARK  status: ('A' for Active; 'I' for Inactive)
REMARK    1  A    between atoms: C_2  and  O_3 
REMARK    2  A    between atoms: O_3  and  C_4 
REMARK    3  A    between atoms: C_6  and  N_7 
REMARK       I    between atoms: N_7  and  C_8 
REMARK       I    between atoms: C_8  and  N_10 
REMARK    4  A    between atoms: N_10  and  C_11 
REMARK    5  A    between atoms: C_18  and  O_19 
ROOT
HETATM    1  N   UNL     1     -42.554 -51.392  12.562  1.00  0.00    -0.336 N 
HETATM    2  C   UNL     1     -42.544 -50.022  12.421  1.00  0.00     0.321 C 
HETATM    3  O   UNL     1     -43.061 -49.295  13.265  1.00  0.00    -0.247 OA
HETATM    4  N   UNL     1     -41.945 -49.611  11.252  1.00  0.00    -0.309 N 
HETATM    5  H   UNL     1     -41.847 -51.907  12.054  1.00  0.00     0.164 HD
HETATM    6  H   UNL     1     -41.869 -50.305  10.523  1.00  0.00     0.170 HD
ENDROOT
BRANCH   1   7
HETATM    7  C   UNL     1     -43.148 -51.976  13.800  1.00  0.00     0.120 C 
HETATM    8  C   UNL     1     -42.195 -52.100  15.000  1.00  0.00     0.062 C 
HETATM    9  C   UNL     1     -41.829 -53.514  14.502  1.00  0.00     0.154 C 
HETATM   10  C   UNL     1     -43.222 -53.540  13.785  1.00  0.00     0.172 C 
BRANCH   9  11
HETATM   11  O   UNL     1     -41.558 -54.487  15.535  1.00  0.00    -0.384 OA
BRANCH  11  12
HETATM   12  C   UNL     1     -40.213 -54.945  15.605  1.00  0.00     0.163 C 
HETATM   13  C   UNL     1     -39.496 -54.558  14.329  1.00  0.00     0.033 C 
ENDBRANCH  11  12
ENDBRANCH   9  11
BRANCH  10  14
HETATM   14  O   UNL     1     -44.331 -54.127  14.514  1.00  0.00    -0.386 OA
HETATM   15  C   UNL     1     -45.194 -54.961  13.748  1.00  0.00     0.202 C 
ENDBRANCH  10  14
ENDBRANCH   1   7
BRANCH   4  16
HETATM   16  C   UNL     1     -41.717 -48.263  10.887  1.00  0.00     0.038 A 
HETATM   17  C   UNL     1     -42.638 -47.503  10.169  1.00  0.00     0.046 A 
HETATM   18  C   UNL     1     -42.309 -46.202   9.832  1.00  0.00     0.090 A 
HETATM   19  N   UNL     1     -41.147 -45.611  10.172  1.00  0.00    -0.375 N 
HETATM   20  C   UNL     1     -40.278 -46.356  10.885  1.00  0.00     0.090 A 
ATOM     21  HN  UNL     1     -40.934 -44.650   9.903  1.00  0.00     0.164 HD
HETATM   22  C   UNL     1     -40.517 -47.667  11.271  1.00  0.00     0.046 A 
ENDBRANCH   4  16
TORSDOF 5
ENDMDL
MODEL 7
REMARK VINA RESULT:      -4.9      3.394      6.618
REMARK  5 active torsions:
REMARK  status: ('A' for Active; 'I' for Inactive)
REMARK    1  A    between atoms: C_2  and  O_3 
REMARK    2  A    between atoms: O_3  and  C_4 
REMARK    3  A    between atoms: C_6  and  N_7 
REMARK       I    between atoms: N_7  and  C_8 
REMARK       I    between atoms: C_8  and  N_10 
REMARK    4  A    between atoms: N_10  and  C_11 
REMARK    5  A    between atoms: C_18  and  O_19 
ROOT
HETATM    1  N   UNL     1     -41.935 -50.800  12.016  1.00  0.00    -0.336 N 
HETATM    2  C   UNL     1     -41.790 -49.561  11.432  1.00  0.00     0.321 C 
HETATM    3  O   UNL     1     -40.716 -49.210  10.950  1.00  0.00    -0.247 OA
HETATM    4  N   UNL     1     -42.936 -48.802  11.498  1.00  0.00    -0.309 N 
HETATM    5  H   UNL     1     -42.876 -51.166  12.080  1.00  0.00     0.164 HD
HETATM    6  H   UNL     1     -43.613 -49.079  12.195  1.00  0.00     0.170 HD
ENDROOT
BRANCH   1   7
HETATM    7  C   UNL     1     -40.777 -51.740  11.991  1.00  0.00     0.120 C 
HETATM    8  C   UNL     1     -41.065 -53.164  12.493  1.00  0.00     0.062 C 
HETATM    9  C   UNL     1     -40.660 -52.695  13.907  1.00  0.00     0.154 C 
HETATM   10  C   UNL     1     -39.808 -51.579  13.210  1.00  0.00     0.172 C 
BRANCH   9  11
HETATM   11  O   UNL     1     -39.987 -53.680  14.720  1.00  0.00    -0.384 OA
BRANCH  11  12
HETATM   12  C   UNL     1     -40.153 -53.529  16.126  1.00  0.00     0.163 C 
HETATM   13  C   UNL     1     -38.811 -53.206  16.746  1.00  0.00     0.033 C 
ENDBRANCH  11  12
ENDBRANCH   9  11
BRANCH  10  14
HETATM   14  O   UNL     1     -38.412 -51.876  12.952  1.00  0.00    -0.386 OA
HETATM   15  C   UNL     1     -37.498 -50.823  13.241  1.00  0.00     0.202 C 
ENDBRANCH  10  14
ENDBRANCH   1   7
BRANCH   4  16
HETATM   16  C   UNL     1     -43.103 -47.529  10.906  1.00  0.00     0.038 A 
HETATM   17  C   UNL     1     -42.503 -46.374  11.405  1.00  0.00     0.046 A 
HETATM   18  C   UNL     1     -42.752 -45.168  10.773  1.00  0.00     0.090 A 
HETATM   19  N   UNL     1     -43.535 -45.041   9.684  1.00  0.00    -0.375 N 
HETATM   20  C   UNL     1     -44.088 -46.173   9.204  1.00  0.00     0.090 A 
ATOM     21  HN  UNL     1     -43.701 -44.135   9.245  1.00  0.00     0.164 HD
HETATM   22  C   UNL     1     -43.898 -47.427   9.766  1.00  0.00     0.046 A 
ENDBRANCH   4  16
TORSDOF 5
ENDMDL
MODEL 8
REMARK VINA RESULT:      -4.7      2.402      7.580
REMARK  5 active torsions:
REMARK  status: ('A' for Active; 'I' for Inactive)
REMARK    1  A    between atoms: C_2  and  O_3 
REMARK    2  A    between atoms: O_3  and  C_4 
REMARK    3  A    between atoms: C_6  and  N_7 
REMARK       I    between atoms: N_7  and  C_8 
REMARK       I    between atoms: C_8  and  N_10 
REMARK    4  A    between atoms: N_10  and  C_11 
REMARK    5  A    between atoms: C_18  and  O_19 
ROOT
HETATM    1  N   UNL     1     -42.765 -51.215  13.251  1.00  0.00    -0.336 N 
HETATM    2  C   UNL     1     -42.061 -50.416  12.378  1.00  0.00     0.321 C 
HETATM    3  O   UNL     1     -41.319 -50.905  11.530  1.00  0.00    -0.247 OA
HETATM    4  N   UNL     1     -42.261 -49.073  12.603  1.00  0.00    -0.309 N 
HETATM    5  H   UNL     1     -43.588 -50.809  13.676  1.00  0.00     0.164 HD
HETATM    6  H   UNL     1     -42.617 -48.824  13.515  1.00  0.00     0.170 HD
ENDROOT
BRANCH   1   7
HETATM    7  C   UNL     1     -42.663 -52.695  13.102  1.00  0.00     0.120 C 
HETATM    8  C   UNL     1     -43.849 -53.376  12.399  1.00  0.00     0.062 C 
HETATM    9  C   UNL     1     -44.504 -53.556  13.785  1.00  0.00     0.154 C 
HETATM   10  C   UNL     1     -43.062 -53.488  14.392  1.00  0.00     0.172 C 
BRANCH   9  11
HETATM   11  O   UNL     1     -45.277 -54.764  13.956  1.00  0.00    -0.384 OA
BRANCH  11  12
HETATM   12  C   UNL     1     -46.470 -54.624  14.719  1.00  0.00     0.163 C 
HETATM   13  C   UNL     1     -46.871 -53.164  14.737  1.00  0.00     0.033 C 
ENDBRANCH  11  12
ENDBRANCH   9  11
BRANCH  10  14
HETATM   14  O   UNL     1     -42.371 -54.747  14.600  1.00  0.00    -0.386 OA
HETATM   15  C   UNL     1     -41.576 -54.821  15.779  1.00  0.00     0.202 C 
ENDBRANCH  10  14
ENDBRANCH   1   7
BRANCH   4  16
HETATM   16  C   UNL     1     -41.736 -48.028  11.808  1.00  0.00     0.038 A 
HETATM   17  C   UNL     1     -40.422 -47.576  11.916  1.00  0.00     0.046 A 
HETATM   18  C   UNL     1     -40.010 -46.526  11.114  1.00  0.00     0.090 A 
HETATM   19  N   UNL     1     -40.805 -45.916  10.212  1.00  0.00    -0.375 N 
HETATM   20  C   UNL     1     -42.066 -46.384  10.107  1.00  0.00     0.090 A 
ATOM     21  HN  UNL     1     -40.471 -45.142   9.639  1.00  0.00     0.164 HD
HETATM   22  C   UNL     1     -42.570 -47.430  10.865  1.00  0.00     0.046 A 
ENDBRANCH   4  16
TORSDOF 5
ENDMDL
MODEL 9
REMARK VINA RESULT:      -4.6      2.161      3.173
REMARK  5 active torsions:
REMARK  status: ('A' for Active; 'I' for Inactive)
REMARK    1  A    between atoms: C_2  and  O_3 
REMARK    2  A    between atoms: O_3  and  C_4 
REMARK    3  A    between atoms: C_6  and  N_7 
REMARK       I    between atoms: N_7  and  C_8 
REMARK       I    between atoms: C_8  and  N_10 
REMARK    4  A    between atoms: N_10  and  C_11 
REMARK    5  A    between atoms: C_18  and  O_19 
ROOT
HETATM    1  N   UNL     1     -40.755 -51.555  13.877  1.00  0.00    -0.336 N 
HETATM    2  C   UNL     1     -42.005 -51.972  13.476  1.00  0.00     0.321 C 
HETATM    3  O   UNL     1     -42.392 -51.794  12.324  1.00  0.00    -0.247 OA
HETATM    4  N   UNL     1     -42.730 -52.545  14.496  1.00  0.00    -0.309 N 
HETATM    5  H   UNL     1     -40.362 -52.012  14.689  1.00  0.00     0.164 HD
HETATM    6  H   UNL     1     -42.426 -52.328  15.434  1.00  0.00     0.170 HD
ENDROOT
BRANCH   1   7
HETATM    7  C   UNL     1     -39.850 -50.941  12.864  1.00  0.00     0.120 C 
HETATM    8  C   UNL     1     -38.358 -50.915  13.234  1.00  0.00     0.062 C 
HETATM    9  C   UNL     1     -38.591 -49.529  13.873  1.00  0.00     0.154 C 
HETATM   10  C   UNL     1     -39.819 -49.376  12.912  1.00  0.00     0.172 C 
BRANCH   9  11
HETATM   11  O   UNL     1     -37.493 -48.597  13.757  1.00  0.00    -0.384 OA
BRANCH  11  12
HETATM   12  C   UNL     1     -37.204 -47.844  14.929  1.00  0.00     0.163 C 
HETATM   13  C   UNL     1     -36.439 -48.720  15.897  1.00  0.00     0.033 C 
ENDBRANCH  11  12
ENDBRANCH   9  11
BRANCH  10  14
HETATM   14  O   UNL     1     -39.588 -48.708  11.645  1.00  0.00    -0.386 OA
HETATM   15  C   UNL     1     -40.320 -47.503  11.446  1.00  0.00     0.202 C 
ENDBRANCH  10  14
ENDBRANCH   1   7
BRANCH   4  16
HETATM   16  C   UNL     1     -44.005 -53.139  14.352  1.00  0.00     0.038 A 
HETATM   17  C   UNL     1     -45.196 -52.447  14.568  1.00  0.00     0.046 A 
HETATM   18  C   UNL     1     -46.395 -53.124  14.433  1.00  0.00     0.090 A 
HETATM   19  N   UNL     1     -46.486 -54.423  14.085  1.00  0.00    -0.375 N 
HETATM   20  C   UNL     1     -45.323 -55.069  13.859  1.00  0.00     0.090 A 
ATOM     21  HN  UNL     1     -47.386 -54.894  13.998  1.00  0.00     0.164 HD
HETATM   22  C   UNL     1     -44.074 -54.477  13.969  1.00  0.00     0.046 A 
ENDBRANCH   4  16
TORSDOF 5
ENDMDL
