MODEL 1
REMARK VINA RESULT:      -6.3      0.000      0.000
REMARK  6 active torsions:
REMARK  status: ('A' for Active; 'I' for Inactive)
REMARK    1  A    between atoms: C_2  and  C_3 
REMARK       I    between atoms: C_2  and  N_8 
REMARK    2  A    between atoms: C_10  and  S_12 
REMARK    3  A    between atoms: S_12  and  N_15 
REMARK    4  A    between atoms: N_15  and  C_16 
REMARK    5  A    between atoms: C_16  and  C_17 
REMARK    6  A    between atoms: C_17  and  C_18 
ROOT
HETATM    1  S   UNL     1     -38.227 -51.117  13.103  1.00  0.00     0.215 S 
HETATM    2  O   UNL     1     -38.084 -49.707  13.397  1.00  0.00    -0.211 OA
HETATM    3  O   UNL     1     -37.086 -51.863  12.616  1.00  0.00    -0.211 OA
ENDROOT
BRANCH   1   4
HETATM    4  C   UNL     1     -38.848 -51.990  14.521  1.00  0.00     0.151 C 
HETATM    5  C   UNL     1     -39.022 -53.487  14.343  1.00  0.00     0.120 C 
HETATM    6  N   UNL     1     -40.467 -53.285  14.383  1.00  0.00    -0.250 NA
HETATM    7  C   UNL     1     -41.342 -53.783  13.430  1.00  0.00     0.203 C 
HETATM    8  C   UNL     1     -40.357 -51.856  14.701  1.00  0.00     0.120 C 
HETATM    9  O   UNL     1     -40.976 -54.458  12.473  1.00  0.00    -0.279 OA
BRANCH   7  10
HETATM   10  C   UNL     1     -42.796 -53.572  13.805  1.00  0.00     0.072 C 
HETATM   11  C   UNL     1     -43.309 -54.827  14.522  1.00  0.00     0.013 C 
HETATM   12  C   UNL     1     -44.790 -54.943  14.167  1.00  0.00     0.001 C 
HETATM   13  C   UNL     1     -45.095 -53.766  13.249  1.00  0.00     0.001 C 
HETATM   14  C   UNL     1     -43.751 -53.411  12.630  1.00  0.00     0.013 C 
ENDBRANCH   7  10
ENDBRANCH   1   4
BRANCH   1  15
HETATM   15  N   UNL     1     -39.432 -51.198  11.889  1.00  0.00    -0.219 NA
HETATM   16  H   UNL     1     -40.238 -51.722  12.240  1.00  0.00     0.139 HD
BRANCH  15  17
HETATM   17  C   UNL     1     -39.921 -49.875  11.380  1.00  0.00     0.108 C 
BRANCH  17  18
HETATM   18  C   UNL     1     -41.415 -49.659  11.594  1.00  0.00     0.055 C 
BRANCH  18  19
HETATM   19  C   UNL     1     -41.838 -48.257  11.263  1.00  0.00    -0.042 A 
HETATM   20  C   UNL     1     -40.897 -47.311  10.847  1.00  0.00     0.010 A 
HETATM   21  C   UNL     1     -41.311 -46.023  10.531  1.00  0.00     0.018 A 
HETATM   22  C   UNL     1     -42.655 -45.722  10.658  1.00  0.00     0.087 A 
HETATM   23  N   UNL     1     -43.591 -46.606  11.068  1.00  0.00    -0.375 N 
HETATM   24  C   UNL     1     -43.164 -47.854  11.358  1.00  0.00     0.094 A 
ATOM     25  HN  UNL     1     -44.573 -46.343  11.155  1.00  0.00     0.164 HD
ENDBRANCH  18  19
ENDBRANCH  17  18
ENDBRANCH  15  17
ENDBRANCH   1  15
TORSDOF 6
ENDMDL
MODEL 2
REMARK VINA RESULT:      -6.1      3.270      4.953
REMARK  6 active torsions:
REMARK  status: ('A' for Active; 'I' for Inactive)
REMARK    1  A    between atoms: C_2  and  C_3 
REMARK       I    between atoms: C_2  and  N_8 
REMARK    2  A    between atoms: C_10  and  S_12 
REMARK    3  A    between atoms: S_12  and  N_15 
REMARK    4  A    between atoms: N_15  and  C_16 
REMARK    5  A    between atoms: C_16  and  C_17 
REMARK    6  A    between atoms: C_17  and  C_18 
ROOT
HETATM    1  S   UNL     1     -46.047 -52.229  12.964  1.00  0.00     0.215 S 
HETATM    2  O   UNL     1     -46.717 -52.416  11.696  1.00  0.00    -0.211 OA
HETATM    3  O   UNL     1     -46.615 -51.329  13.945  1.00  0.00    -0.211 OA
ENDROOT
BRANCH   1   4
HETATM    4  C   UNL     1     -45.801 -53.790  13.777  1.00  0.00     0.151 C 
HETATM    5  C   UNL     1     -45.319 -53.711  15.213  1.00  0.00     0.120 C 
HETATM    6  N   UNL     1     -44.032 -54.238  14.769  1.00  0.00    -0.250 NA
HETATM    7  C   UNL     1     -42.813 -53.650  15.071  1.00  0.00     0.203 C 
HETATM    8  C   UNL     1     -44.491 -54.471  13.394  1.00  0.00     0.120 C 
HETATM    9  O   UNL     1     -42.708 -52.639  15.758  1.00  0.00    -0.279 OA
BRANCH   7  10
HETATM   10  C   UNL     1     -41.632 -54.495  14.630  1.00  0.00     0.072 C 
HETATM   11  C   UNL     1     -40.825 -54.901  15.868  1.00  0.00     0.013 C 
HETATM   12  C   UNL     1     -39.370 -54.994  15.416  1.00  0.00     0.001 C 
HETATM   13  C   UNL     1     -39.367 -54.630  13.936  1.00  0.00     0.001 C 
HETATM   14  C   UNL     1     -40.615 -53.778  13.754  1.00  0.00     0.013 C 
ENDBRANCH   7  10
ENDBRANCH   1   4
BRANCH   1  15
HETATM   15  N   UNL     1     -44.498 -51.615  12.562  1.00  0.00    -0.219 NA
HETATM   16  H   UNL     1     -44.497 -51.300  11.588  1.00  0.00     0.139 HD
BRANCH  15  17
HETATM   17  C   UNL     1     -44.013 -50.486  13.420  1.00  0.00     0.108 C 
BRANCH  17  18
HETATM   18  C   UNL     1     -42.557 -50.112  13.160  1.00  0.00     0.055 C 
BRANCH  18  19
HETATM   19  C   UNL     1     -42.423 -49.072  12.086  1.00  0.00    -0.042 A 
HETATM   20  C   UNL     1     -43.446 -48.146  11.861  1.00  0.00     0.010 A 
HETATM   21  C   UNL     1     -43.296 -47.181  10.873  1.00  0.00     0.018 A 
HETATM   22  C   UNL     1     -42.129 -47.186  10.130  1.00  0.00     0.087 A 
HETATM   23  N   UNL     1     -41.124 -48.072  10.310  1.00  0.00    -0.375 N 
HETATM   24  C   UNL     1     -41.290 -48.992  11.286  1.00  0.00     0.094 A 
ATOM     25  HN  UNL     1     -40.280 -48.047   9.738  1.00  0.00     0.164 HD
ENDBRANCH  18  19
ENDBRANCH  17  18
ENDBRANCH  15  17
ENDBRANCH   1  15
TORSDOF 6
ENDMDL
MODEL 3
REMARK VINA RESULT:      -6.1      2.330      3.278
REMARK  6 active torsions:
REMARK  status: ('A' for Active; 'I' for Inactive)
REMARK    1  A    between atoms: C_2  and  C_3 
REMARK       I    between atoms: C_2  and  N_8 
REMARK    2  A    between atoms: C_10  and  S_12 
REMARK    3  A    between atoms: S_12  and  N_15 
REMARK    4  A    between atoms: N_15  and  C_16 
REMARK    5  A    between atoms: C_16  and  C_17 
REMARK    6  A    between atoms: C_17  and  C_18 
ROOT
HETATM    1  S   UNL     1     -39.559 -53.636  14.211  1.00  0.00     0.215 S 
HETATM    2  O   UNL     1     -40.138 -52.928  15.333  1.00  0.00    -0.211 OA
HETATM    3  O   UNL     1     -38.770 -54.826  14.449  1.00  0.00    -0.211 OA
ENDROOT
BRANCH   1   4
HETATM    4  C   UNL     1     -40.816 -54.077  13.035  1.00  0.00     0.151 C 
HETATM    5  C   UNL     1     -41.297 -52.951  12.140  1.00  0.00     0.120 C 
HETATM    6  N   UNL     1     -42.572 -52.981  12.852  1.00  0.00    -0.250 NA
HETATM    7  C   UNL     1     -43.177 -51.858  13.396  1.00  0.00     0.203 C 
HETATM    8  C   UNL     1     -42.212 -54.163  13.646  1.00  0.00     0.120 C 
HETATM    9  O   UNL     1     -42.700 -50.731  13.309  1.00  0.00    -0.279 OA
BRANCH   7  10
HETATM   10  C   UNL     1     -44.569 -52.146  13.927  1.00  0.00     0.072 C 
HETATM   11  C   UNL     1     -45.563 -52.098  12.761  1.00  0.00     0.013 C 
HETATM   12  C   UNL     1     -46.879 -51.590  13.346  1.00  0.00     0.001 C 
HETATM   13  C   UNL     1     -46.614 -51.346  14.827  1.00  0.00     0.001 C 
HETATM   14  C   UNL     1     -45.112 -51.117  14.909  1.00  0.00     0.013 C 
ENDBRANCH   7  10
ENDBRANCH   1   4
BRANCH   1  15
HETATM   15  N   UNL     1     -38.529 -52.497  13.452  1.00  0.00    -0.219 NA
HETATM   16  H   UNL     1     -38.693 -52.507  12.441  1.00  0.00     0.139 HD
BRANCH  15  17
HETATM   17  C   UNL     1     -38.667 -51.085  13.934  1.00  0.00     0.108 C 
BRANCH  17  18
HETATM   18  C   UNL     1     -38.109 -50.055  12.957  1.00  0.00     0.055 C 
BRANCH  18  19
HETATM   19  C   UNL     1     -39.196 -49.281  12.268  1.00  0.00    -0.042 A 
HETATM   20  C   UNL     1     -39.525 -47.990  12.689  1.00  0.00     0.010 A 
HETATM   21  C   UNL     1     -40.523 -47.284  12.028  1.00  0.00     0.018 A 
HETATM   22  C   UNL     1     -41.170 -47.905  10.975  1.00  0.00     0.087 A 
HETATM   23  N   UNL     1     -40.888 -49.156  10.547  1.00  0.00    -0.375 N 
HETATM   24  C   UNL     1     -39.905 -49.815  11.200  1.00  0.00     0.094 A 
ATOM     25  HN  UNL     1     -41.392 -49.581   9.770  1.00  0.00     0.164 HD
ENDBRANCH  18  19
ENDBRANCH  17  18
ENDBRANCH  15  17
ENDBRANCH   1  15
TORSDOF 6
ENDMDL
MODEL 4
REMARK VINA RESULT:      -6.1      1.639      2.011
REMARK  6 active torsions:
REMARK  status: ('A' for Active; 'I' for Inactive)
REMARK    1  A    between atoms: C_2  and  C_3 
REMARK       I    between atoms: C_2  and  N_8 
REMARK    2  A    between atoms: C_10  and  S_12 
REMARK    3  A    between atoms: S_12  and  N_15 
REMARK    4  A    between atoms: N_15  and  C_16 
REMARK    5  A    between atoms: C_16  and  C_17 
REMARK    6  A    between atoms: C_17  and  C_18 
ROOT
HETATM    1  S   UNL     1     -39.176 -51.033  13.101  1.00  0.00     0.215 S 
HETATM    2  O   UNL     1     -39.097 -49.669  13.579  1.00  0.00    -0.211 OA
HETATM    3  O   UNL     1     -37.969 -51.711  12.680  1.00  0.00    -0.211 OA
ENDROOT
BRANCH   1   4
HETATM    4  C   UNL     1     -39.959 -52.074  14.309  1.00  0.00     0.151 C 
HETATM    5  C   UNL     1     -40.730 -53.255  13.753  1.00  0.00     0.120 C 
HETATM    6  N   UNL     1     -41.965 -52.594  14.166  1.00  0.00    -0.250 NA
HETATM    7  C   UNL     1     -43.050 -52.395  13.326  1.00  0.00     0.203 C 
HETATM    8  C   UNL     1     -41.266 -51.498  14.847  1.00  0.00     0.120 C 
HETATM    9  O   UNL     1     -43.074 -52.775  12.160  1.00  0.00    -0.279 OA
BRANCH   7  10
HETATM   10  C   UNL     1     -44.259 -51.840  14.056  1.00  0.00     0.072 C 
HETATM   11  C   UNL     1     -44.907 -52.967  14.867  1.00  0.00     0.013 C 
HETATM   12  C   UNL     1     -46.404 -52.665  14.895  1.00  0.00     0.001 C 
HETATM   13  C   UNL     1     -46.587 -51.382  14.092  1.00  0.00     0.001 C 
HETATM   14  C   UNL     1     -45.385 -51.345  13.160  1.00  0.00     0.013 C 
ENDBRANCH   7  10
ENDBRANCH   1   4
BRANCH   1  15
HETATM   15  N   UNL     1     -40.213 -50.966  11.738  1.00  0.00    -0.219 NA
HETATM   16  H   UNL     1     -41.077 -51.477  11.940  1.00  0.00     0.139 HD
BRANCH  15  17
HETATM   17  C   UNL     1     -40.581 -49.588  11.278  1.00  0.00     0.108 C 
BRANCH  17  18
HETATM   18  C   UNL     1     -41.976 -49.156  11.717  1.00  0.00     0.055 C 
BRANCH  18  19
HETATM   19  C   UNL     1     -42.528 -48.061  10.852  1.00  0.00    -0.042 A 
HETATM   20  C   UNL     1     -43.899 -47.987  10.587  1.00  0.00     0.010 A 
HETATM   21  C   UNL     1     -44.392 -46.956   9.797  1.00  0.00     0.018 A 
HETATM   22  C   UNL     1     -43.490 -46.040   9.285  1.00  0.00     0.087 A 
HETATM   23  N   UNL     1     -42.158 -46.086   9.509  1.00  0.00    -0.375 N 
HETATM   24  C   UNL     1     -41.707 -47.092  10.290  1.00  0.00     0.094 A 
ATOM     25  HN  UNL     1     -41.524 -45.395   9.107  1.00  0.00     0.164 HD
ENDBRANCH  18  19
ENDBRANCH  17  18
ENDBRANCH  15  17
ENDBRANCH   1  15
TORSDOF 6
ENDMDL
MODEL 5
REMARK VINA RESULT:      -6.0      3.779      5.472
REMARK  6 active torsions:
REMARK  status: ('A' for Active; 'I' for Inactive)
REMARK    1  A    between atoms: C_2  and  C_3 
REMARK       I    between atoms: C_2  and  N_8 
REMARK    2  A    between atoms: C_10  and  S_12 
REMARK    3  A    between atoms: S_12  and  N_15 
REMARK    4  A    between atoms: N_15  and  C_16 
REMARK    5  A    between atoms: C_16  and  C_17 
REMARK    6  A    between atoms: C_17  and  C_18 
ROOT
HETATM    1  S   UNL     1     -45.463 -52.586  12.983  1.00  0.00     0.215 S 
HETATM    2  O   UNL     1     -46.350 -52.611  11.840  1.00  0.00    -0.211 OA
HETATM    3  O   UNL     1     -45.513 -51.468  13.901  1.00  0.00    -0.211 OA
ENDROOT
BRANCH   1   4
HETATM    4  C   UNL     1     -45.657 -54.061  13.955  1.00  0.00     0.151 C 
HETATM    5  C   UNL     1     -45.493 -53.884  15.452  1.00  0.00     0.120 C 
HETATM    6  N   UNL     1     -44.243 -54.632  15.365  1.00  0.00    -0.250 NA
HETATM    7  C   UNL     1     -43.040 -54.188  15.895  1.00  0.00     0.203 C 
HETATM    8  C   UNL     1     -44.422 -54.958  13.945  1.00  0.00     0.120 C 
HETATM    9  O   UNL     1     -42.926 -53.128  16.502  1.00  0.00    -0.279 OA
BRANCH   7  10
HETATM   10  C   UNL     1     -41.944 -55.234  15.812  1.00  0.00     0.072 C 
HETATM   11  C   UNL     1     -42.176 -56.280  16.909  1.00  0.00     0.013 C 
HETATM   12  C   UNL     1     -40.792 -56.772  17.326  1.00  0.00     0.001 C 
HETATM   13  C   UNL     1     -39.796 -55.994  16.475  1.00  0.00     0.001 C 
HETATM   14  C   UNL     1     -40.539 -54.722  16.092  1.00  0.00     0.013 C 
ENDBRANCH   7  10
ENDBRANCH   1   4
BRANCH   1  15
HETATM   15  N   UNL     1     -43.884 -52.618  12.320  1.00  0.00    -0.219 NA
HETATM   16  H   UNL     1     -43.930 -52.427  11.315  1.00  0.00     0.139 HD
BRANCH  15  17
HETATM   17  C   UNL     1     -42.911 -51.658  12.934  1.00  0.00     0.108 C 
BRANCH  17  18
HETATM   18  C   UNL     1     -41.543 -52.274  13.208  1.00  0.00     0.055 C 
BRANCH  18  19
HETATM   19  C   UNL     1     -40.425 -51.443  12.650  1.00  0.00    -0.042 A 
HETATM   20  C   UNL     1     -39.159 -51.464  13.243  1.00  0.00     0.010 A 
HETATM   21  C   UNL     1     -38.133 -50.699  12.702  1.00  0.00     0.018 A 
HETATM   22  C   UNL     1     -38.415 -49.925  11.590  1.00  0.00     0.087 A 
HETATM   23  N   UNL     1     -39.628 -49.869  10.997  1.00  0.00    -0.375 N 
HETATM   24  C   UNL     1     -40.605 -50.632  11.537  1.00  0.00     0.094 A 
ATOM     25  HN  UNL     1     -39.798 -49.280  10.182  1.00  0.00     0.164 HD
ENDBRANCH  18  19
ENDBRANCH  17  18
ENDBRANCH  15  17
ENDBRANCH   1  15
TORSDOF 6
ENDMDL
MODEL 6
REMARK VINA RESULT:      -5.9      2.637      3.116
REMARK  6 active torsions:
REMARK  status: ('A' for Active; 'I' for Inactive)
REMARK    1  A    between atoms: C_2  and  C_3 
REMARK       I    between atoms: C_2  and  N_8 
REMARK    2  A    between atoms: C_10  and  S_12 
REMARK    3  A    between atoms: S_12  and  N_15 
REMARK    4  A    between atoms: N_15  and  C_16 
REMARK    5  A    between atoms: C_16  and  C_17 
REMARK    6  A    between atoms: C_17  and  C_18 
ROOT
HETATM    1  S   UNL     1     -39.250 -51.726  13.641  1.00  0.00     0.215 S 
HETATM    2  O   UNL     1     -38.817 -52.260  14.915  1.00  0.00    -0.211 OA
HETATM    3  O   UNL     1     -38.269 -51.438  12.617  1.00  0.00    -0.211 OA
ENDROOT
BRANCH   1   4
HETATM    4  C   UNL     1     -40.470 -52.786  12.903  1.00  0.00     0.151 C 
HETATM    5  C   UNL     1     -41.402 -52.119  11.909  1.00  0.00     0.120 C 
HETATM    6  N   UNL     1     -42.485 -52.279  12.875  1.00  0.00    -0.250 NA
HETATM    7  C   UNL     1     -43.319 -51.246  13.276  1.00  0.00     0.203 C 
HETATM    8  C   UNL     1     -41.666 -53.057  13.812  1.00  0.00     0.120 C 
HETATM    9  O   UNL     1     -43.230 -50.104  12.836  1.00  0.00    -0.279 OA
BRANCH   7  10
HETATM   10  C   UNL     1     -44.460 -51.724  14.154  1.00  0.00     0.072 C 
HETATM   11  C   UNL     1     -45.756 -51.703  13.336  1.00  0.00     0.013 C 
HETATM   12  C   UNL     1     -46.877 -51.389  14.324  1.00  0.00     0.001 C 
HETATM   13  C   UNL     1     -46.205 -51.224  15.682  1.00  0.00     0.001 C 
HETATM   14  C   UNL     1     -44.772 -50.836  15.350  1.00  0.00     0.013 C 
ENDBRANCH   7  10
ENDBRANCH   1   4
BRANCH   1  15
HETATM   15  N   UNL     1     -40.025 -50.246  14.021  1.00  0.00    -0.219 NA
HETATM   16  H   UNL     1     -39.762 -49.954  14.966  1.00  0.00     0.139 HD
BRANCH  15  17
HETATM   17  C   UNL     1     -39.737 -49.113  13.084  1.00  0.00     0.108 C 
BRANCH  17  18
HETATM   18  C   UNL     1     -40.387 -47.799  13.506  1.00  0.00     0.055 C 
BRANCH  18  19
HETATM   19  C   UNL     1     -40.127 -46.696  12.521  1.00  0.00    -0.042 A 
HETATM   20  C   UNL     1     -39.864 -45.396  12.963  1.00  0.00     0.010 A 
HETATM   21  C   UNL     1     -39.610 -44.393  12.035  1.00  0.00     0.018 A 
HETATM   22  C   UNL     1     -39.645 -44.724  10.692  1.00  0.00     0.087 A 
HETATM   23  N   UNL     1     -39.908 -45.966  10.228  1.00  0.00    -0.375 N 
HETATM   24  C   UNL     1     -40.139 -46.925  11.151  1.00  0.00     0.094 A 
ATOM     25  HN  UNL     1     -39.930 -46.169   9.229  1.00  0.00     0.164 HD
ENDBRANCH  18  19
ENDBRANCH  17  18
ENDBRANCH  15  17
ENDBRANCH   1  15
TORSDOF 6
ENDMDL
MODEL 7
REMARK VINA RESULT:      -5.9      2.073      2.874
REMARK  6 active torsions:
REMARK  status: ('A' for Active; 'I' for Inactive)
REMARK    1  A    between atoms: C_2  and  C_3 
REMARK       I    between atoms: C_2  and  N_8 
REMARK    2  A    between atoms: C_10  and  S_12 
REMARK    3  A    between atoms: S_12  and  N_15 
REMARK    4  A    between atoms: N_15  and  C_16 
REMARK    5  A    between atoms: C_16  and  C_17 
REMARK    6  A    between atoms: C_17  and  C_18 
ROOT
HETATM    1  S   UNL     1     -40.950 -52.109  12.941  1.00  0.00     0.215 S 
HETATM    2  O   UNL     1     -40.024 -51.102  13.412  1.00  0.00    -0.211 OA
HETATM    3  O   UNL     1     -40.494 -53.114  12.004  1.00  0.00    -0.211 OA
ENDROOT
BRANCH   1   4
HETATM    4  C   UNL     1     -41.682 -52.974  14.310  1.00  0.00     0.151 C 
HETATM    5  C   UNL     1     -42.287 -54.325  13.982  1.00  0.00     0.120 C 
HETATM    6  N   UNL     1     -43.608 -53.746  14.209  1.00  0.00    -0.250 NA
HETATM    7  C   UNL     1     -44.659 -53.847  13.310  1.00  0.00     0.203 C 
HETATM    8  C   UNL     1     -43.072 -52.461  14.675  1.00  0.00     0.120 C 
HETATM    9  O   UNL     1     -44.575 -54.453  12.247  1.00  0.00    -0.279 OA
BRANCH   7  10
HETATM   10  C   UNL     1     -45.960 -53.305  13.871  1.00  0.00     0.072 C 
HETATM   11  C   UNL     1     -46.043 -51.805  13.565  1.00  0.00     0.013 C 
HETATM   12  C   UNL     1     -46.817 -51.177  14.722  1.00  0.00     0.001 C 
HETATM   13  C   UNL     1     -47.152 -52.321  15.672  1.00  0.00     0.001 C 
HETATM   14  C   UNL     1     -46.090 -53.373  15.386  1.00  0.00     0.013 C 
ENDBRANCH   7  10
ENDBRANCH   1   4
BRANCH   1  15
HETATM   15  N   UNL     1     -42.201 -51.234  12.165  1.00  0.00    -0.219 NA
HETATM   16  H   UNL     1     -43.062 -51.307  12.714  1.00  0.00     0.139 HD
BRANCH  15  17
HETATM   17  C   UNL     1     -41.918 -49.781  11.931  1.00  0.00     0.108 C 
BRANCH  17  18
HETATM   18  C   UNL     1     -43.109 -48.876  12.232  1.00  0.00     0.055 C 
BRANCH  18  19
HETATM   19  C   UNL     1     -43.192 -47.716  11.283  1.00  0.00    -0.042 A 
HETATM   20  C   UNL     1     -42.204 -46.728  11.280  1.00  0.00     0.010 A 
HETATM   21  C   UNL     1     -42.291 -45.670  10.384  1.00  0.00     0.018 A 
HETATM   22  C   UNL     1     -43.378 -45.630   9.529  1.00  0.00     0.087 A 
HETATM   23  N   UNL     1     -44.359 -46.559   9.511  1.00  0.00    -0.375 N 
HETATM   24  C   UNL     1     -44.243 -47.583  10.385  1.00  0.00     0.094 A 
ATOM     25  HN  UNL     1     -45.148 -46.491   8.868  1.00  0.00     0.164 HD
ENDBRANCH  18  19
ENDBRANCH  17  18
ENDBRANCH  15  17
ENDBRANCH   1  15
TORSDOF 6
ENDMDL
MODEL 8
REMARK VINA RESULT:      -5.8      2.221      6.353
REMARK  6 active torsions:
REMARK  status: ('A' for Active; 'I' for Inactive)
REMARK    1  A    between atoms: C_2  and  C_3 
REMARK       I    between atoms: C_2  and  N_8 
REMARK    2  A    between atoms: C_10  and  S_12 
REMARK    3  A    between atoms: S_12  and  N_15 
REMARK    4  A    between atoms: N_15  and  C_16 
REMARK    5  A    between atoms: C_16  and  C_17 
REMARK    6  A    between atoms: C_17  and  C_18 
ROOT
HETATM    1  S   UNL     1     -39.443 -52.021  13.302  1.00  0.00     0.215 S 
HETATM    2  O   UNL     1     -38.644 -53.183  13.628  1.00  0.00    -0.211 OA
HETATM    3  O   UNL     1     -40.302 -51.440  14.311  1.00  0.00    -0.211 OA
ENDROOT
BRANCH   1   4
HETATM    4  C   UNL     1     -38.416 -50.711  12.681  1.00  0.00     0.151 C 
HETATM    5  C   UNL     1     -38.396 -49.444  13.515  1.00  0.00     0.120 C 
HETATM    6  N   UNL     1     -39.135 -48.776  12.449  1.00  0.00    -0.250 NA
HETATM    7  C   UNL     1     -40.299 -48.051  12.655  1.00  0.00     0.203 C 
HETATM    8  C   UNL     1     -39.058 -49.927  11.540  1.00  0.00     0.120 C 
HETATM    9  O   UNL     1     -40.802 -47.891  13.763  1.00  0.00    -0.279 OA
BRANCH   7  10
HETATM   10  C   UNL     1     -40.763 -47.324  11.407  1.00  0.00     0.072 C 
HETATM   11  C   UNL     1     -39.843 -46.122  11.165  1.00  0.00     0.013 C 
HETATM   12  C   UNL     1     -40.711 -45.047  10.514  1.00  0.00     0.001 C 
HETATM   13  C   UNL     1     -42.109 -45.646  10.406  1.00  0.00     0.001 C 
HETATM   14  C   UNL     1     -42.151 -46.706  11.496  1.00  0.00     0.013 C 
ENDBRANCH   7  10
ENDBRANCH   1   4
BRANCH   1  15
HETATM   15  N   UNL     1     -40.455 -52.526  12.015  1.00  0.00    -0.219 NA
HETATM   16  H   UNL     1     -40.320 -53.527  11.846  1.00  0.00     0.139 HD
BRANCH  15  17
HETATM   17  C   UNL     1     -41.920 -52.280  12.216  1.00  0.00     0.108 C 
BRANCH  17  18
HETATM   18  C   UNL     1     -42.655 -53.467  12.830  1.00  0.00     0.055 C 
BRANCH  18  19
HETATM   19  C   UNL     1     -44.074 -53.132  13.187  1.00  0.00    -0.042 A 
HETATM   20  C   UNL     1     -44.483 -51.800  13.297  1.00  0.00     0.010 A 
HETATM   21  C   UNL     1     -45.805 -51.511  13.612  1.00  0.00     0.018 A 
HETATM   22  C   UNL     1     -46.671 -52.569  13.822  1.00  0.00     0.087 A 
HETATM   23  N   UNL     1     -46.309 -53.868  13.736  1.00  0.00    -0.375 N 
HETATM   24  C   UNL     1     -45.021 -54.122  13.417  1.00  0.00     0.094 A 
ATOM     25  HN  UNL     1     -46.976 -54.621  13.904  1.00  0.00     0.164 HD
ENDBRANCH  18  19
ENDBRANCH  17  18
ENDBRANCH  15  17
ENDBRANCH   1  15
TORSDOF 6
ENDMDL
MODEL 9
REMARK VINA RESULT:      -5.7      1.795      2.346
REMARK  6 active torsions:
REMARK  status: ('A' for Active; 'I' for Inactive)
REMARK    1  A    between atoms: C_2  and  C_3 
REMARK       I    between atoms: C_2  and  N_8 
REMARK    2  A    between atoms: C_10  and  S_12 
REMARK    3  A    between atoms: S_12  and  N_15 
REMARK    4  A    between atoms: N_15  and  C_16 
REMARK    5  A    between atoms: C_16  and  C_17 
REMARK    6  A    between atoms: C_17  and  C_18 
ROOT
HETATM    1  S   UNL     1     -39.358 -52.160  14.013  1.00  0.00     0.215 S 
HETATM    2  O   UNL     1     -39.383 -51.191  15.088  1.00  0.00    -0.211 OA
HETATM    3  O   UNL     1     -38.088 -52.671  13.543  1.00  0.00    -0.211 OA
ENDROOT
BRANCH   1   4
HETATM    4  C   UNL     1     -40.364 -53.568  14.417  1.00  0.00     0.151 C 
HETATM    5  C   UNL     1     -41.095 -54.206  13.252  1.00  0.00     0.120 C 
HETATM    6  N   UNL     1     -42.346 -53.703  13.811  1.00  0.00    -0.250 NA
HETATM    7  C   UNL     1     -43.280 -52.980  13.084  1.00  0.00     0.203 C 
HETATM    8  C   UNL     1     -41.710 -53.193  15.032  1.00  0.00     0.120 C 
HETATM    9  O   UNL     1     -43.143 -52.713  11.895  1.00  0.00    -0.279 OA
BRANCH   7  10
HETATM   10  C   UNL     1     -44.559 -52.731  13.862  1.00  0.00     0.072 C 
HETATM   11  C   UNL     1     -45.747 -52.805  12.896  1.00  0.00     0.013 C 
HETATM   12  C   UNL     1     -46.792 -51.830  13.432  1.00  0.00     0.001 C 
HETATM   13  C   UNL     1     -46.183 -51.208  14.683  1.00  0.00     0.001 C 
HETATM   14  C   UNL     1     -44.681 -51.345  14.480  1.00  0.00     0.013 C 
ENDBRANCH   7  10
ENDBRANCH   1   4
BRANCH   1  15
HETATM   15  N   UNL     1     -40.099 -51.369  12.686  1.00  0.00    -0.219 NA
HETATM   16  H   UNL     1     -40.900 -51.920  12.362  1.00  0.00     0.139 HD
BRANCH  15  17
HETATM   17  C   UNL     1     -40.571 -49.973  12.953  1.00  0.00     0.108 C 
BRANCH  17  18
HETATM   18  C   UNL     1     -39.802 -48.914  12.168  1.00  0.00     0.055 C 
BRANCH  18  19
HETATM   19  C   UNL     1     -40.712 -48.040  11.354  1.00  0.00    -0.042 A 
HETATM   20  C   UNL     1     -41.950 -48.519  10.914  1.00  0.00     0.010 A 
HETATM   21  C   UNL     1     -42.784 -47.689  10.175  1.00  0.00     0.018 A 
HETATM   22  C   UNL     1     -42.342 -46.410   9.888  1.00  0.00     0.087 A 
HETATM   23  N   UNL     1     -41.148 -45.917  10.286  1.00  0.00    -0.375 N 
HETATM   24  C   UNL     1     -40.362 -46.740  11.013  1.00  0.00     0.094 A 
ATOM     25  HN  UNL     1     -40.855 -44.969  10.049  1.00  0.00     0.164 HD
ENDBRANCH  18  19
ENDBRANCH  17  18
ENDBRANCH  15  17
ENDBRANCH   1  15
TORSDOF 6
ENDMDL
