MODEL 1
REMARK VINA RESULT:      -6.1      0.000      0.000
REMARK  7 active torsions:
REMARK  status: ('A' for Active; 'I' for Inactive)
REMARK    1  A    between atoms: O_2  and  C_3 
REMARK    2  A    between atoms: C_3  and  C_4 
REMARK    3  A    between atoms: C_4  and  N_5 
REMARK    4  A    between atoms: C_6  and  S_7 
REMARK    5  A    between atoms: S_7  and  C_8 
REMARK    6  A    between atoms: C_8  and  C_9 
REMARK    7  A    between atoms: C_9  and  C_11 
ROOT
HETATM    1  N   UNL     1     -42.319 -52.225  12.474  1.00  0.00    -0.324 N 
HETATM    2  C   UNL     1     -42.391 -50.851  12.495  1.00  0.00     0.148 A 
HETATM    3  N   UNL     1     -43.574 -50.427  12.878  1.00  0.00    -0.335 N 
ATOM      4  HN  UNL     1     -43.883 -49.460  12.978  1.00  0.00     0.168 HD
HETATM    5  C   UNL     1     -44.306 -51.563  13.117  1.00  0.00     0.061 A 
HETATM    6  C   UNL     1     -45.635 -51.695  13.554  1.00  0.00     0.032 A 
HETATM    7  C   UNL     1     -46.166 -52.979  13.733  1.00  0.00     0.002 A 
HETATM    8  C   UNL     1     -45.392 -54.112  13.487  1.00  0.00     0.002 A 
HETATM    9  C   UNL     1     -44.063 -53.999  13.064  1.00  0.00     0.032 A 
HETATM   10  C   UNL     1     -43.550 -52.707  12.878  1.00  0.00     0.063 A 
ENDROOT
BRANCH   2  11
HETATM   11  S   UNL     1     -41.074 -49.807  12.062  1.00  0.00    -0.086 SA
BRANCH  11  12
HETATM   12  C   UNL     1     -41.876 -48.172  12.153  1.00  0.00     0.167 C 
BRANCH  12  13
HETATM   13  C   UNL     1     -41.753 -47.392  10.843  1.00  0.00     0.185 C 
HETATM   14  O   UNL     1     -40.785 -46.691  10.559  1.00  0.00    -0.290 OA
BRANCH  13  15
HETATM   15  C   UNL     1     -42.860 -47.521   9.900  1.00  0.00     0.079 A 
HETATM   16  C   UNL     1     -44.225 -47.344  10.054  1.00  0.00     0.034 A 
HETATM   17  C   UNL     1     -44.845 -47.590   8.802  1.00  0.00     0.019 A 
HETATM   18  C   UNL     1     -43.849 -47.915   7.912  1.00  0.00     0.088 A 
HETATM   19  N   UNL     1     -42.657 -47.877   8.580  1.00  0.00    -0.363 N 
HETATM   20  H   UNL     1     -41.745 -48.075   8.185  1.00  0.00     0.165 HD
ENDBRANCH  13  15
ENDBRANCH  12  13
ENDBRANCH  11  12
ENDBRANCH   2  11
BRANCH   1  21
HETATM   21  C   UNL     1     -41.162 -53.059  12.212  1.00  0.00     0.157 C 
BRANCH  21  22
HETATM   22  C   UNL     1     -40.365 -53.438  13.458  1.00  0.00     0.187 C 
BRANCH  22  23
HETATM   23  O   UNL     1     -39.075 -52.826  13.374  1.00  0.00    -0.394 OA
HETATM   24  C   UNL     1     -38.865 -51.888  14.422  1.00  0.00     0.201 C 
ENDBRANCH  22  23
ENDBRANCH  21  22
ENDBRANCH   1  21
TORSDOF 7
ENDMDL
MODEL 2
REMARK VINA RESULT:      -5.9      1.327      1.648
REMARK  7 active torsions:
REMARK  status: ('A' for Active; 'I' for Inactive)
REMARK    1  A    between atoms: O_2  and  C_3 
REMARK    2  A    between atoms: C_3  and  C_4 
REMARK    3  A    between atoms: C_4  and  N_5 
REMARK    4  A    between atoms: C_6  and  S_7 
REMARK    5  A    between atoms: S_7  and  C_8 
REMARK    6  A    between atoms: C_8  and  C_9 
REMARK    7  A    between atoms: C_9  and  C_11 
ROOT
HETATM    1  N   UNL     1     -41.324 -52.216  13.532  1.00  0.00    -0.324 N 
HETATM    2  C   UNL     1     -41.661 -51.587  12.355  1.00  0.00     0.148 A 
HETATM    3  N   UNL     1     -42.780 -52.055  11.851  1.00  0.00    -0.335 N 
ATOM      4  HN  UNL     1     -43.244 -51.758  10.992  1.00  0.00     0.168 HD
HETATM    5  C   UNL     1     -43.193 -53.027  12.726  1.00  0.00     0.061 A 
HETATM    6  C   UNL     1     -44.334 -53.847  12.679  1.00  0.00     0.032 A 
HETATM    7  C   UNL     1     -44.546 -54.775  13.707  1.00  0.00     0.002 A 
HETATM    8  C   UNL     1     -43.645 -54.884  14.766  1.00  0.00     0.002 A 
HETATM    9  C   UNL     1     -42.512 -54.068  14.836  1.00  0.00     0.032 A 
HETATM   10  C   UNL     1     -42.307 -53.152  13.793  1.00  0.00     0.063 A 
ENDROOT
BRANCH   2  11
HETATM   11  S   UNL     1     -40.715 -50.328  11.628  1.00  0.00    -0.086 SA
BRANCH  11  12
HETATM   12  C   UNL     1     -41.753 -48.867  11.964  1.00  0.00     0.167 C 
BRANCH  12  13
HETATM   13  C   UNL     1     -41.385 -47.677  11.076  1.00  0.00     0.185 C 
HETATM   14  O   UNL     1     -40.337 -47.045  11.188  1.00  0.00    -0.290 OA
BRANCH  13  15
HETATM   15  C   UNL     1     -42.351 -47.308  10.045  1.00  0.00     0.079 A 
HETATM   16  C   UNL     1     -43.100 -46.159   9.856  1.00  0.00     0.034 A 
HETATM   17  C   UNL     1     -43.877 -46.328   8.680  1.00  0.00     0.019 A 
HETATM   18  C   UNL     1     -43.590 -47.577   8.181  1.00  0.00     0.088 A 
HETATM   19  N   UNL     1     -42.675 -48.163   9.009  1.00  0.00    -0.363 N 
HETATM   20  H   UNL     1     -42.277 -49.089   8.899  1.00  0.00     0.165 HD
ENDBRANCH  13  15
ENDBRANCH  12  13
ENDBRANCH  11  12
ENDBRANCH   2  11
BRANCH   1  21
HETATM   21  C   UNL     1     -40.230 -51.909  14.433  1.00  0.00     0.157 C 
BRANCH  21  22
HETATM   22  C   UNL     1     -39.008 -52.811  14.267  1.00  0.00     0.187 C 
BRANCH  22  23
HETATM   23  O   UNL     1     -38.128 -52.209  13.313  1.00  0.00    -0.394 OA
HETATM   24  C   UNL     1     -37.686 -50.926  13.738  1.00  0.00     0.201 C 
ENDBRANCH  22  23
ENDBRANCH  21  22
ENDBRANCH   1  21
TORSDOF 7
ENDMDL
MODEL 3
REMARK VINA RESULT:      -5.8      1.640      2.067
REMARK  7 active torsions:
REMARK  status: ('A' for Active; 'I' for Inactive)
REMARK    1  A    between atoms: O_2  and  C_3 
REMARK    2  A    between atoms: C_3  and  C_4 
REMARK    3  A    between atoms: C_4  and  N_5 
REMARK    4  A    between atoms: C_6  and  S_7 
REMARK    5  A    between atoms: S_7  and  C_8 
REMARK    6  A    between atoms: C_8  and  C_9 
REMARK    7  A    between atoms: C_9  and  C_11 
ROOT
HETATM    1  N   UNL     1     -41.228 -52.994  13.552  1.00  0.00    -0.324 N 
HETATM    2  C   UNL     1     -41.374 -52.114  12.504  1.00  0.00     0.148 A 
HETATM    3  N   UNL     1     -42.574 -52.179  11.972  1.00  0.00    -0.335 N 
ATOM      4  HN  UNL     1     -42.934 -51.634  11.189  1.00  0.00     0.168 HD
HETATM    5  C   UNL     1     -43.239 -53.137  12.695  1.00  0.00     0.061 A 
HETATM    6  C   UNL     1     -44.557 -53.605  12.558  1.00  0.00     0.032 A 
HETATM    7  C   UNL     1     -45.019 -54.599  13.431  1.00  0.00     0.002 A 
HETATM    8  C   UNL     1     -44.189 -55.115  14.425  1.00  0.00     0.002 A 
HETATM    9  C   UNL     1     -42.879 -54.652  14.585  1.00  0.00     0.032 A 
HETATM   10  C   UNL     1     -42.428 -53.665  13.695  1.00  0.00     0.063 A 
ENDROOT
BRANCH   2  11
HETATM   11  S   UNL     1     -40.120 -51.050  11.954  1.00  0.00    -0.086 SA
BRANCH  11  12
HETATM   12  C   UNL     1     -40.614 -49.483  12.744  1.00  0.00     0.167 C 
BRANCH  12  13
HETATM   13  C   UNL     1     -40.544 -48.299  11.778  1.00  0.00     0.185 C 
HETATM   14  O   UNL     1     -39.528 -47.635  11.591  1.00  0.00    -0.290 OA
BRANCH  13  15
HETATM   15  C   UNL     1     -41.769 -47.976  11.051  1.00  0.00     0.079 A 
HETATM   16  C   UNL     1     -43.002 -47.517  11.483  1.00  0.00     0.034 A 
HETATM   17  C   UNL     1     -43.837 -47.361  10.347  1.00  0.00     0.019 A 
HETATM   18  C   UNL     1     -43.099 -47.732   9.247  1.00  0.00     0.088 A 
HETATM   19  N   UNL     1     -41.858 -48.106   9.678  1.00  0.00    -0.363 N 
HETATM   20  H   UNL     1     -41.097 -48.433   9.093  1.00  0.00     0.165 HD
ENDBRANCH  13  15
ENDBRANCH  12  13
ENDBRANCH  11  12
ENDBRANCH   2  11
BRANCH   1  21
HETATM   21  C   UNL     1     -40.099 -53.141  14.451  1.00  0.00     0.157 C 
BRANCH  21  22
HETATM   22  C   UNL     1     -39.117 -54.240  14.052  1.00  0.00     0.187 C 
BRANCH  22  23
HETATM   23  O   UNL     1     -39.317 -55.361  14.919  1.00  0.00    -0.394 OA
HETATM   24  C   UNL     1     -38.319 -55.430  15.930  1.00  0.00     0.201 C 
ENDBRANCH  22  23
ENDBRANCH  21  22
ENDBRANCH   1  21
TORSDOF 7
ENDMDL
MODEL 4
REMARK VINA RESULT:      -5.8      1.728      6.571
REMARK  7 active torsions:
REMARK  status: ('A' for Active; 'I' for Inactive)
REMARK    1  A    between atoms: O_2  and  C_3 
REMARK    2  A    between atoms: C_3  and  C_4 
REMARK    3  A    between atoms: C_4  and  N_5 
REMARK    4  A    between atoms: C_6  and  S_7 
REMARK    5  A    between atoms: S_7  and  C_8 
REMARK    6  A    between atoms: C_8  and  C_9 
REMARK    7  A    between atoms: C_9  and  C_11 
ROOT
HETATM    1  N   UNL     1     -41.698 -47.412  11.114  1.00  0.00    -0.324 N 
HETATM    2  C   UNL     1     -42.158 -48.537  11.760  1.00  0.00     0.148 A 
HETATM    3  N   UNL     1     -43.411 -48.797  11.462  1.00  0.00    -0.335 N 
ATOM      4  HN  UNL     1     -43.981 -49.570  11.805  1.00  0.00     0.168 HD
HETATM    5  C   UNL     1     -43.789 -47.808  10.590  1.00  0.00     0.061 A 
HETATM    6  C   UNL     1     -45.022 -47.603   9.950  1.00  0.00     0.032 A 
HETATM    7  C   UNL     1     -45.167 -46.509   9.086  1.00  0.00     0.002 A 
HETATM    8  C   UNL     1     -44.104 -45.637   8.858  1.00  0.00     0.002 A 
HETATM    9  C   UNL     1     -42.864 -45.833   9.475  1.00  0.00     0.032 A 
HETATM   10  C   UNL     1     -42.740 -46.925  10.347  1.00  0.00     0.063 A 
ENDROOT
BRANCH   2  11
HETATM   11  S   UNL     1     -41.194 -49.492  12.842  1.00  0.00    -0.086 SA
BRANCH  11  12
HETATM   12  C   UNL     1     -40.789 -50.921  11.785  1.00  0.00     0.167 C 
BRANCH  12  13
HETATM   13  C   UNL     1     -40.689 -52.223  12.582  1.00  0.00     0.185 C 
HETATM   14  O   UNL     1     -39.635 -52.662  13.034  1.00  0.00    -0.290 OA
BRANCH  13  15
HETATM   15  C   UNL     1     -41.936 -52.949  12.806  1.00  0.00     0.079 A 
HETATM   16  C   UNL     1     -42.292 -53.899  13.749  1.00  0.00     0.034 A 
HETATM   17  C   UNL     1     -43.641 -54.268  13.516  1.00  0.00     0.019 A 
HETATM   18  C   UNL     1     -44.080 -53.541  12.434  1.00  0.00     0.088 A 
HETATM   19  N   UNL     1     -43.048 -52.753  12.008  1.00  0.00    -0.363 N 
HETATM   20  H   UNL     1     -43.072 -52.110  11.225  1.00  0.00     0.165 HD
ENDBRANCH  13  15
ENDBRANCH  12  13
ENDBRANCH  11  12
ENDBRANCH   2  11
BRANCH   1  21
HETATM   21  C   UNL     1     -40.354 -46.869  11.103  1.00  0.00     0.157 C 
BRANCH  21  22
HETATM   22  C   UNL     1     -40.125 -45.735  12.100  1.00  0.00     0.187 C 
BRANCH  22  23
HETATM   23  O   UNL     1     -40.069 -44.502  11.378  1.00  0.00    -0.394 OA
HETATM   24  C   UNL     1     -39.426 -44.656  10.118  1.00  0.00     0.201 C 
ENDBRANCH  22  23
ENDBRANCH  21  22
ENDBRANCH   1  21
TORSDOF 7
ENDMDL
MODEL 5
REMARK VINA RESULT:      -5.8      2.551      4.737
REMARK  7 active torsions:
REMARK  status: ('A' for Active; 'I' for Inactive)
REMARK    1  A    between atoms: O_2  and  C_3 
REMARK    2  A    between atoms: C_3  and  C_4 
REMARK    3  A    between atoms: C_4  and  N_5 
REMARK    4  A    between atoms: C_6  and  S_7 
REMARK    5  A    between atoms: S_7  and  C_8 
REMARK    6  A    between atoms: C_8  and  C_9 
REMARK    7  A    between atoms: C_9  and  C_11 
ROOT
HETATM    1  N   UNL     1     -41.483 -49.652  12.709  1.00  0.00    -0.324 N 
HETATM    2  C   UNL     1     -41.556 -48.816  11.618  1.00  0.00     0.148 A 
HETATM    3  N   UNL     1     -40.404 -48.724  10.993  1.00  0.00    -0.335 N 
ATOM      4  HN  UNL     1     -40.194 -48.173  10.161  1.00  0.00     0.168 HD
HETATM    5  C   UNL     1     -39.543 -49.525  11.699  1.00  0.00     0.061 A 
HETATM    6  C   UNL     1     -38.184 -49.800  11.470  1.00  0.00     0.032 A 
HETATM    7  C   UNL     1     -37.510 -50.668  12.338  1.00  0.00     0.002 A 
HETATM    8  C   UNL     1     -38.174 -51.258  13.413  1.00  0.00     0.002 A 
HETATM    9  C   UNL     1     -39.529 -51.006  13.650  1.00  0.00     0.032 A 
HETATM   10  C   UNL     1     -40.187 -50.125  12.778  1.00  0.00     0.063 A 
ENDROOT
BRANCH   2  11
HETATM   11  S   UNL     1     -42.999 -47.985  11.132  1.00  0.00    -0.086 SA
BRANCH  11  12
HETATM   12  C   UNL     1     -42.489 -47.309   9.517  1.00  0.00     0.167 C 
BRANCH  12  13
HETATM   13  C   UNL     1     -43.447 -47.706   8.393  1.00  0.00     0.185 C 
HETATM   14  O   UNL     1     -43.080 -48.212   7.335  1.00  0.00    -0.290 OA
BRANCH  13  15
HETATM   15  C   UNL     1     -44.868 -47.466   8.630  1.00  0.00     0.079 A 
HETATM   16  C   UNL     1     -45.944 -48.332   8.732  1.00  0.00     0.034 A 
HETATM   17  C   UNL     1     -47.108 -47.561   8.980  1.00  0.00     0.019 A 
HETATM   18  C   UNL     1     -46.722 -46.242   9.019  1.00  0.00     0.088 A 
HETATM   19  N   UNL     1     -45.373 -46.191   8.803  1.00  0.00    -0.363 N 
HETATM   20  H   UNL     1     -44.805 -45.352   8.771  1.00  0.00     0.165 HD
ENDBRANCH  13  15
ENDBRANCH  12  13
ENDBRANCH  11  12
ENDBRANCH   2  11
BRANCH   1  21
HETATM   21  C   UNL     1     -42.559 -50.088  13.578  1.00  0.00     0.157 C 
BRANCH  21  22
HETATM   22  C   UNL     1     -43.266 -51.360  13.114  1.00  0.00     0.187 C 
BRANCH  22  23
HETATM   23  O   UNL     1     -44.678 -51.149  13.201  1.00  0.00    -0.394 OA
HETATM   24  C   UNL     1     -45.135 -51.173  14.548  1.00  0.00     0.201 C 
ENDBRANCH  22  23
ENDBRANCH  21  22
ENDBRANCH   1  21
TORSDOF 7
ENDMDL
MODEL 6
REMARK VINA RESULT:      -5.7      1.931      2.771
REMARK  7 active torsions:
REMARK  status: ('A' for Active; 'I' for Inactive)
REMARK    1  A    between atoms: O_2  and  C_3 
REMARK    2  A    between atoms: C_3  and  C_4 
REMARK    3  A    between atoms: C_4  and  N_5 
REMARK    4  A    between atoms: C_6  and  S_7 
REMARK    5  A    between atoms: S_7  and  C_8 
REMARK    6  A    between atoms: C_8  and  C_9 
REMARK    7  A    between atoms: C_9  and  C_11 
ROOT
HETATM    1  N   UNL     1     -41.146 -51.744  13.570  1.00  0.00    -0.324 N 
HETATM    2  C   UNL     1     -41.532 -51.246  12.346  1.00  0.00     0.148 A 
HETATM    3  N   UNL     1     -42.574 -51.884  11.863  1.00  0.00    -0.335 N 
ATOM      4  HN  UNL     1     -43.052 -51.709  10.979  1.00  0.00     0.168 HD
HETATM    5  C   UNL     1     -42.883 -52.837  12.801  1.00  0.00     0.061 A 
HETATM    6  C   UNL     1     -43.911 -53.794  12.798  1.00  0.00     0.032 A 
HETATM    7  C   UNL     1     -44.030 -54.667  13.888  1.00  0.00     0.002 A 
HETATM    8  C   UNL     1     -43.146 -54.589  14.963  1.00  0.00     0.002 A 
HETATM    9  C   UNL     1     -42.124 -53.634  14.988  1.00  0.00     0.032 A 
HETATM   10  C   UNL     1     -42.012 -52.775  13.885  1.00  0.00     0.063 A 
ENDROOT
BRANCH   2  11
HETATM   11  S   UNL     1     -40.734 -49.933  11.542  1.00  0.00    -0.086 SA
BRANCH  11  12
HETATM   12  C   UNL     1     -41.973 -48.607  11.714  1.00  0.00     0.167 C 
BRANCH  12  13
HETATM   13  C   UNL     1     -42.003 -47.679  10.499  1.00  0.00     0.185 C 
HETATM   14  O   UNL     1     -42.550 -47.968   9.437  1.00  0.00    -0.290 OA
BRANCH  13  15
HETATM   15  C   UNL     1     -41.344 -46.384  10.649  1.00  0.00     0.079 A 
HETATM   16  C   UNL     1     -41.801 -45.170  11.133  1.00  0.00     0.034 A 
HETATM   17  C   UNL     1     -40.733 -44.238  11.064  1.00  0.00     0.019 A 
HETATM   18  C   UNL     1     -39.650 -44.900  10.535  1.00  0.00     0.088 A 
HETATM   19  N   UNL     1     -40.025 -46.190  10.283  1.00  0.00    -0.363 N 
HETATM   20  H   UNL     1     -39.439 -46.916   9.887  1.00  0.00     0.165 HD
ENDBRANCH  13  15
ENDBRANCH  12  13
ENDBRANCH  11  12
ENDBRANCH   2  11
BRANCH   1  21
HETATM   21  C   UNL     1     -40.118 -51.241  14.460  1.00  0.00     0.157 C 
BRANCH  21  22
HETATM   22  C   UNL     1     -38.840 -52.076  14.480  1.00  0.00     0.187 C 
BRANCH  22  23
HETATM   23  O   UNL     1     -38.287 -52.088  13.161  1.00  0.00    -0.394 OA
HETATM   24  C   UNL     1     -37.361 -51.026  12.966  1.00  0.00     0.201 C 
ENDBRANCH  22  23
ENDBRANCH  21  22
ENDBRANCH   1  21
TORSDOF 7
ENDMDL
MODEL 7
REMARK VINA RESULT:      -5.6      2.384      6.149
REMARK  7 active torsions:
REMARK  status: ('A' for Active; 'I' for Inactive)
REMARK    1  A    between atoms: O_2  and  C_3 
REMARK    2  A    between atoms: C_3  and  C_4 
REMARK    3  A    between atoms: C_4  and  N_5 
REMARK    4  A    between atoms: C_6  and  S_7 
REMARK    5  A    between atoms: S_7  and  C_8 
REMARK    6  A    between atoms: C_8  and  C_9 
REMARK    7  A    between atoms: C_9  and  C_11 
ROOT
HETATM    1  N   UNL     1     -40.154 -49.011  11.907  1.00  0.00    -0.324 N 
HETATM    2  C   UNL     1     -41.217 -49.876  11.784  1.00  0.00     0.148 A 
HETATM    3  N   UNL     1     -42.253 -49.304  11.213  1.00  0.00    -0.335 N 
ATOM      4  HN  UNL     1     -43.158 -49.727  11.007  1.00  0.00     0.168 HD
HETATM    5  C   UNL     1     -41.857 -48.016  10.953  1.00  0.00     0.061 A 
HETATM    6  C   UNL     1     -42.569 -46.968  10.345  1.00  0.00     0.032 A 
HETATM    7  C   UNL     1     -41.941 -45.726  10.181  1.00  0.00     0.002 A 
HETATM    8  C   UNL     1     -40.628 -45.530  10.608  1.00  0.00     0.002 A 
HETATM    9  C   UNL     1     -39.900 -46.566  11.203  1.00  0.00     0.032 A 
HETATM   10  C   UNL     1     -40.547 -47.799  11.370  1.00  0.00     0.063 A 
ENDROOT
BRANCH   2  11
HETATM   11  S   UNL     1     -41.188 -51.525  12.323  1.00  0.00    -0.086 SA
BRANCH  11  12
HETATM   12  C   UNL     1     -42.566 -51.530  13.518  1.00  0.00     0.167 C 
BRANCH  12  13
HETATM   13  C   UNL     1     -43.725 -52.417  13.062  1.00  0.00     0.185 C 
HETATM   14  O   UNL     1     -43.635 -53.239  12.153  1.00  0.00    -0.290 OA
BRANCH  13  15
HETATM   15  C   UNL     1     -44.989 -52.258  13.777  1.00  0.00     0.079 A 
HETATM   16  C   UNL     1     -45.584 -51.151  14.359  1.00  0.00     0.034 A 
HETATM   17  C   UNL     1     -46.824 -51.558  14.914  1.00  0.00     0.019 A 
HETATM   18  C   UNL     1     -46.959 -52.904  14.665  1.00  0.00     0.088 A 
HETATM   19  N   UNL     1     -45.849 -53.320  13.985  1.00  0.00    -0.363 N 
HETATM   20  H   UNL     1     -45.663 -54.265  13.667  1.00  0.00     0.165 HD
ENDBRANCH  13  15
ENDBRANCH  12  13
ENDBRANCH  11  12
ENDBRANCH   2  11
BRANCH   1  21
HETATM   21  C   UNL     1     -38.814 -49.297  12.382  1.00  0.00     0.157 C 
BRANCH  21  22
HETATM   22  C   UNL     1     -37.870 -49.842  11.312  1.00  0.00     0.187 C 
BRANCH  22  23
HETATM   23  O   UNL     1     -37.318 -51.075  11.782  1.00  0.00    -0.394 OA
HETATM   24  C   UNL     1     -37.456 -51.213  13.192  1.00  0.00     0.201 C 
ENDBRANCH  22  23
ENDBRANCH  21  22
ENDBRANCH   1  21
TORSDOF 7
ENDMDL
MODEL 8
REMARK VINA RESULT:      -5.5      4.157      5.955
REMARK  7 active torsions:
REMARK  status: ('A' for Active; 'I' for Inactive)
REMARK    1  A    between atoms: O_2  and  C_3 
REMARK    2  A    between atoms: C_3  and  C_4 
REMARK    3  A    between atoms: C_4  and  N_5 
REMARK    4  A    between atoms: C_6  and  S_7 
REMARK    5  A    between atoms: S_7  and  C_8 
REMARK    6  A    between atoms: C_8  and  C_9 
REMARK    7  A    between atoms: C_9  and  C_11 
ROOT
HETATM    1  N   UNL     1     -40.704 -47.004  12.910  1.00  0.00    -0.324 N 
HETATM    2  C   UNL     1     -41.338 -48.122  12.418  1.00  0.00     0.148 A 
HETATM    3  N   UNL     1     -40.656 -49.219  12.656  1.00  0.00    -0.335 N 
ATOM      4  HN  UNL     1     -40.908 -50.173  12.397  1.00  0.00     0.168 HD
HETATM    5  C   UNL     1     -39.532 -48.808  13.327  1.00  0.00     0.061 A 
HETATM    6  C   UNL     1     -38.462 -49.568  13.828  1.00  0.00     0.032 A 
HETATM    7  C   UNL     1     -37.416 -48.914  14.493  1.00  0.00     0.002 A 
HETATM    8  C   UNL     1     -37.435 -47.530  14.661  1.00  0.00     0.002 A 
HETATM    9  C   UNL     1     -38.498 -46.759  14.181  1.00  0.00     0.032 A 
HETATM   10  C   UNL     1     -39.531 -47.428  13.507  1.00  0.00     0.063 A 
ENDROOT
BRANCH   2  11
HETATM   11  S   UNL     1     -42.857 -48.080  11.581  1.00  0.00    -0.086 SA
BRANCH  11  12
HETATM   12  C   UNL     1     -42.316 -47.684   9.885  1.00  0.00     0.167 C 
BRANCH  12  13
HETATM   13  C   UNL     1     -43.329 -46.812   9.141  1.00  0.00     0.185 C 
HETATM   14  O   UNL     1     -43.089 -45.669   8.760  1.00  0.00    -0.290 OA
BRANCH  13  15
HETATM   15  C   UNL     1     -44.636 -47.408   8.881  1.00  0.00     0.079 A 
HETATM   16  C   UNL     1     -45.852 -47.280   9.532  1.00  0.00     0.034 A 
HETATM   17  C   UNL     1     -46.804 -48.079   8.847  1.00  0.00     0.019 A 
HETATM   18  C   UNL     1     -46.151 -48.680   7.798  1.00  0.00     0.088 A 
HETATM   19  N   UNL     1     -44.845 -48.276   7.826  1.00  0.00    -0.363 N 
HETATM   20  H   UNL     1     -44.119 -48.558   7.177  1.00  0.00     0.165 HD
ENDBRANCH  13  15
ENDBRANCH  12  13
ENDBRANCH  11  12
ENDBRANCH   2  11
BRANCH   1  21
HETATM   21  C   UNL     1     -41.187 -45.637  12.939  1.00  0.00     0.157 C 
BRANCH  21  22
HETATM   22  C   UNL     1     -40.576 -44.732  11.872  1.00  0.00     0.187 C 
BRANCH  22  23
HETATM   23  O   UNL     1     -39.766 -45.535  11.008  1.00  0.00    -0.394 OA
HETATM   24  C   UNL     1     -39.455 -44.858   9.796  1.00  0.00     0.201 C 
ENDBRANCH  22  23
ENDBRANCH  21  22
ENDBRANCH   1  21
TORSDOF 7
ENDMDL
MODEL 9
REMARK VINA RESULT:      -5.5      2.508      5.940
REMARK  7 active torsions:
REMARK  status: ('A' for Active; 'I' for Inactive)
REMARK    1  A    between atoms: O_2  and  C_3 
REMARK    2  A    between atoms: C_3  and  C_4 
REMARK    3  A    between atoms: C_4  and  N_5 
REMARK    4  A    between atoms: C_6  and  S_7 
REMARK    5  A    between atoms: S_7  and  C_8 
REMARK    6  A    between atoms: C_8  and  C_9 
REMARK    7  A    between atoms: C_9  and  C_11 
ROOT
HETATM    1  N   UNL     1     -39.889 -49.031  11.862  1.00  0.00    -0.324 N 
HETATM    2  C   UNL     1     -40.822 -50.038  11.766  1.00  0.00     0.148 A 
HETATM    3  N   UNL     1     -41.941 -49.621  11.220  1.00  0.00    -0.335 N 
ATOM      4  HN  UNL     1     -42.782 -50.168  11.036  1.00  0.00     0.168 HD
HETATM    5  C   UNL     1     -41.738 -48.291  10.948  1.00  0.00     0.061 A 
HETATM    6  C   UNL     1     -42.604 -47.356  10.357  1.00  0.00     0.032 A 
HETATM    7  C   UNL     1     -42.162 -46.039  10.176  1.00  0.00     0.002 A 
HETATM    8  C   UNL     1     -40.880 -45.658  10.571  1.00  0.00     0.002 A 
HETATM    9  C   UNL     1     -39.999 -46.578  11.149  1.00  0.00     0.032 A 
HETATM   10  C   UNL     1     -40.462 -47.890  11.334  1.00  0.00     0.063 A 
ENDROOT
BRANCH   2  11
HETATM   11  S   UNL     1     -40.548 -51.664  12.307  1.00  0.00    -0.086 SA
BRANCH  11  12
HETATM   12  C   UNL     1     -42.231 -52.359  12.204  1.00  0.00     0.167 C 
BRANCH  12  13
HETATM   13  C   UNL     1     -43.003 -52.205  13.516  1.00  0.00     0.185 C 
HETATM   14  O   UNL     1     -42.472 -52.236  14.623  1.00  0.00    -0.290 OA
BRANCH  13  15
HETATM   15  C   UNL     1     -44.445 -52.003  13.404  1.00  0.00     0.079 A 
HETATM   16  C   UNL     1     -45.357 -51.397  14.252  1.00  0.00     0.034 A 
HETATM   17  C   UNL     1     -46.638 -51.469  13.645  1.00  0.00     0.019 A 
HETATM   18  C   UNL     1     -46.482 -52.122  12.445  1.00  0.00     0.088 A 
HETATM   19  N   UNL     1     -45.161 -52.444  12.308  1.00  0.00    -0.363 N 
HETATM   20  H   UNL     1     -44.745 -52.935  11.524  1.00  0.00     0.165 HD
ENDBRANCH  13  15
ENDBRANCH  12  13
ENDBRANCH  11  12
ENDBRANCH   2  11
BRANCH   1  21
HETATM   21  C   UNL     1     -38.511 -49.123  12.305  1.00  0.00     0.157 C 
BRANCH  21  22
HETATM   22  C   UNL     1     -38.324 -48.967  13.813  1.00  0.00     0.187 C 
BRANCH  22  23
HETATM   23  O   UNL     1     -37.565 -47.779  14.054  1.00  0.00    -0.394 OA
HETATM   24  C   UNL     1     -38.235 -46.895  14.944  1.00  0.00     0.201 C 
ENDBRANCH  22  23
ENDBRANCH  21  22
ENDBRANCH   1  21
TORSDOF 7
ENDMDL
