MODEL 1
REMARK VINA RESULT:      -6.4      0.000      0.000
REMARK  5 active torsions:
REMARK  status: ('A' for Active; 'I' for Inactive)
REMARK       I    between atoms: N_1  and  C_2 
REMARK    1  A    between atoms: C_2  and  C_4 
REMARK    2  A    between atoms: C_4  and  C_5 
REMARK    3  A    between atoms: C_5  and  N_6 
REMARK       I    between atoms: N_6  and  C_7 
REMARK       I    between atoms: C_7  and  N_9 
REMARK    4  A    between atoms: N_9  and  C_10 
REMARK    5  A    between atoms: C_13  and  N_17 
ROOT
HETATM    1  N   UNL     1     -42.367 -51.262  12.119  1.00  0.00    -0.342 N 
HETATM    2  C   UNL     1     -42.203 -49.902  12.325  1.00  0.00     0.320 C 
HETATM    3  O   UNL     1     -42.074 -49.436  13.448  1.00  0.00    -0.247 OA
HETATM    4  N   UNL     1     -42.235 -49.186  11.147  1.00  0.00    -0.308 N 
HETATM    5  H   UNL     1     -41.980 -51.597  11.247  1.00  0.00     0.164 HD
HETATM    6  H   UNL     1     -42.720 -49.627  10.378  1.00  0.00     0.170 HD
ENDROOT
BRANCH   1   7
HETATM    7  C   UNL     1     -42.254 -52.125  13.293  1.00  0.00     0.143 C 
BRANCH   7   8
HETATM    8  C   UNL     1     -43.561 -52.775  13.795  1.00  0.00     0.060 C 
HETATM    9  C   UNL     1     -44.022 -53.918  12.866  1.00  0.00     0.047 C 
HETATM   10  C   UNL     1     -45.151 -54.736  13.483  1.00  0.00     0.168 C 
HETATM   11  O   UNL     1     -44.773 -55.219  14.769  1.00  0.00    -0.391 OA
HETATM   12  C   UNL     1     -44.550 -54.156  15.693  1.00  0.00     0.168 C 
HETATM   13  C   UNL     1     -43.366 -53.313  15.233  1.00  0.00     0.047 C 
BRANCH   8  14
HETATM   14  C   UNL     1     -44.622 -51.649  13.826  1.00  0.00     0.226 C 
HETATM   15  N   UNL     1     -44.609 -50.800  14.892  1.00  0.00    -0.369 N 
HETATM   16  H   UNL     1     -45.353 -50.111  14.930  1.00  0.00     0.159 HD
HETATM   17  H   UNL     1     -44.041 -50.922  15.717  1.00  0.00     0.159 HD
HETATM   18  O   UNL     1     -45.473 -51.492  12.959  1.00  0.00    -0.273 OA
ENDBRANCH   8  14
ENDBRANCH   7   8
ENDBRANCH   1   7
BRANCH   4  19
HETATM   19  C   UNL     1     -42.005 -47.791  11.055  1.00  0.00     0.051 A 
HETATM   20  C   UNL     1     -40.739 -47.227  11.005  1.00  0.00     0.035 A 
HETATM   21  C   UNL     1     -40.590 -45.837  10.987  1.00  0.00     0.051 A 
HETATM   22  C   UNL     1     -41.702 -44.999  11.026  1.00  0.00     0.103 A 
HETATM   23  N   UNL     1     -42.942 -45.542  11.001  1.00  0.00    -0.350 N 
HETATM   24  C   UNL     1     -43.067 -46.898  11.009  1.00  0.00     0.119 A 
ATOM     25  HN  UNL     1     -43.768 -44.945  10.977  1.00  0.00     0.166 HD
BRANCH  22  26
HETATM   26  N   UNL     1     -41.579 -43.634  11.099  1.00  0.00    -0.367 N 
HETATM   27  C   UNL     1     -42.764 -42.786  11.155  1.00  0.00     0.124 C 
HETATM   28  C   UNL     1     -42.262 -41.447  11.710  1.00  0.00     0.021 C 
HETATM   29  C   UNL     1     -40.884 -41.742  12.279  1.00  0.00     0.021 C 
HETATM   30  C   UNL     1     -40.372 -42.897  11.428  1.00  0.00     0.124 C 
ENDBRANCH  22  26
ENDBRANCH   4  19
TORSDOF 5
ENDMDL
MODEL 2
REMARK VINA RESULT:      -6.2      3.234      9.275
REMARK  5 active torsions:
REMARK  status: ('A' for Active; 'I' for Inactive)
REMARK       I    between atoms: N_1  and  C_2 
REMARK    1  A    between atoms: C_2  and  C_4 
REMARK    2  A    between atoms: C_4  and  C_5 
REMARK    3  A    between atoms: C_5  and  N_6 
REMARK       I    between atoms: N_6  and  C_7 
REMARK       I    between atoms: C_7  and  N_9 
REMARK    4  A    between atoms: N_9  and  C_10 
REMARK    5  A    between atoms: C_13  and  N_17 
ROOT
HETATM    1  N   UNL     1     -41.898 -49.022  10.805  1.00  0.00    -0.342 N 
HETATM    2  C   UNL     1     -41.717 -49.889  11.871  1.00  0.00     0.320 C 
HETATM    3  O   UNL     1     -42.222 -49.674  12.963  1.00  0.00    -0.247 OA
HETATM    4  N   UNL     1     -40.904 -50.955  11.545  1.00  0.00    -0.308 N 
HETATM    5  H   UNL     1     -41.897 -49.473   9.900  1.00  0.00     0.164 HD
HETATM    6  H   UNL     1     -40.269 -50.804  10.774  1.00  0.00     0.170 HD
ENDROOT
BRANCH   1   7
HETATM    7  C   UNL     1     -42.820 -47.907  11.012  1.00  0.00     0.143 C 
BRANCH   7   8
HETATM    8  C   UNL     1     -42.231 -46.489  10.842  1.00  0.00     0.060 C 
HETATM    9  C   UNL     1     -42.524 -45.601  12.069  1.00  0.00     0.047 C 
HETATM   10  C   UNL     1     -41.732 -44.299  12.034  1.00  0.00     0.168 C 
HETATM   11  O   UNL     1     -40.339 -44.565  11.895  1.00  0.00    -0.391 OA
HETATM   12  C   UNL     1     -40.041 -45.204  10.655  1.00  0.00     0.168 C 
HETATM   13  C   UNL     1     -40.704 -46.576  10.609  1.00  0.00     0.047 C 
BRANCH   8  14
HETATM   14  C   UNL     1     -42.894 -45.893   9.577  1.00  0.00     0.226 C 
HETATM   15  N   UNL     1     -42.788 -46.602   8.417  1.00  0.00    -0.369 N 
HETATM   16  H   UNL     1     -43.168 -46.164   7.585  1.00  0.00     0.159 HD
HETATM   17  H   UNL     1     -42.211 -47.420   8.294  1.00  0.00     0.159 HD
HETATM   18  O   UNL     1     -43.489 -44.823   9.561  1.00  0.00    -0.273 OA
ENDBRANCH   8  14
ENDBRANCH   7   8
ENDBRANCH   1   7
BRANCH   4  19
HETATM   19  C   UNL     1     -40.623 -52.037  12.416  1.00  0.00     0.051 A 
HETATM   20  C   UNL     1     -41.343 -53.222  12.419  1.00  0.00     0.035 A 
HETATM   21  C   UNL     1     -41.052 -54.218  13.356  1.00  0.00     0.051 A 
HETATM   22  C   UNL     1     -40.046 -54.037  14.302  1.00  0.00     0.103 A 
HETATM   23  N   UNL     1     -39.291 -52.914  14.259  1.00  0.00    -0.350 N 
HETATM   24  C   UNL     1     -39.583 -51.959  13.332  1.00  0.00     0.119 A 
ATOM     25  HN  UNL     1     -38.517 -52.785  14.909  1.00  0.00     0.166 HD
BRANCH  22  26
HETATM   26  N   UNL     1     -39.801 -54.961  15.287  1.00  0.00    -0.367 N 
HETATM   27  C   UNL     1     -38.435 -55.346  15.619  1.00  0.00     0.124 C 
HETATM   28  C   UNL     1     -38.532 -55.969  17.016  1.00  0.00     0.021 C 
HETATM   29  C   UNL     1     -39.900 -55.565  17.540  1.00  0.00     0.021 C 
HETATM   30  C   UNL     1     -40.750 -55.422  16.284  1.00  0.00     0.124 C 
ENDBRANCH  22  26
ENDBRANCH   4  19
TORSDOF 5
ENDMDL
MODEL 3
REMARK VINA RESULT:      -6.2      1.891      2.776
REMARK  5 active torsions:
REMARK  status: ('A' for Active; 'I' for Inactive)
REMARK       I    between atoms: N_1  and  C_2 
REMARK    1  A    between atoms: C_2  and  C_4 
REMARK    2  A    between atoms: C_4  and  C_5 
REMARK    3  A    between atoms: C_5  and  N_6 
REMARK       I    between atoms: N_6  and  C_7 
REMARK       I    between atoms: C_7  and  N_9 
REMARK    4  A    between atoms: N_9  and  C_10 
REMARK    5  A    between atoms: C_13  and  N_17 
ROOT
HETATM    1  N   UNL     1     -42.617 -51.333  12.371  1.00  0.00    -0.342 N 
HETATM    2  C   UNL     1     -42.536 -49.956  12.507  1.00  0.00     0.320 C 
HETATM    3  O   UNL     1     -42.709 -49.409  13.586  1.00  0.00    -0.247 OA
HETATM    4  N   UNL     1     -42.276 -49.327  11.307  1.00  0.00    -0.308 N 
HETATM    5  H   UNL     1     -42.014 -51.714  11.655  1.00  0.00     0.164 HD
HETATM    6  H   UNL     1     -42.540 -49.838  10.477  1.00  0.00     0.170 HD
ENDROOT
BRANCH   1   7
HETATM    7  C   UNL     1     -42.795 -52.107  13.598  1.00  0.00     0.143 C 
BRANCH   7   8
HETATM    8  C   UNL     1     -41.545 -52.834  14.139  1.00  0.00     0.060 C 
HETATM    9  C   UNL     1     -40.784 -51.971  15.167  1.00  0.00     0.047 C 
HETATM   10  C   UNL     1     -39.711 -52.768  15.899  1.00  0.00     0.168 C 
HETATM   11  O   UNL     1     -40.275 -53.931  16.499  1.00  0.00    -0.391 OA
HETATM   12  C   UNL     1     -40.794 -54.834  15.525  1.00  0.00     0.168 C 
HETATM   13  C   UNL     1     -41.954 -54.180  14.784  1.00  0.00     0.047 C 
BRANCH   8  14
HETATM   14  C   UNL     1     -40.647 -53.123  12.912  1.00  0.00     0.226 C 
HETATM   15  N   UNL     1     -40.872 -54.280  12.226  1.00  0.00    -0.369 N 
HETATM   16  H   UNL     1     -40.231 -54.487  11.467  1.00  0.00     0.159 HD
HETATM   17  H   UNL     1     -41.494 -55.015  12.526  1.00  0.00     0.159 HD
HETATM   18  O   UNL     1     -39.746 -52.383  12.539  1.00  0.00    -0.273 OA
ENDBRANCH   8  14
ENDBRANCH   7   8
ENDBRANCH   1   7
BRANCH   4  19
HETATM   19  C   UNL     1     -42.054 -47.934  11.170  1.00  0.00     0.051 A 
HETATM   20  C   UNL     1     -40.793 -47.366  11.085  1.00  0.00     0.035 A 
HETATM   21  C   UNL     1     -40.651 -45.976  11.023  1.00  0.00     0.051 A 
HETATM   22  C   UNL     1     -41.767 -45.143  11.051  1.00  0.00     0.103 A 
HETATM   23  N   UNL     1     -43.004 -45.692  11.060  1.00  0.00    -0.350 N 
HETATM   24  C   UNL     1     -43.122 -47.048  11.111  1.00  0.00     0.119 A 
ATOM     25  HN  UNL     1     -43.834 -45.101  11.029  1.00  0.00     0.166 HD
BRANCH  22  26
HETATM   26  N   UNL     1     -41.650 -43.776  11.081  1.00  0.00    -0.367 N 
HETATM   27  C   UNL     1     -42.838 -42.930  11.059  1.00  0.00     0.124 C 
HETATM   28  C   UNL     1     -42.362 -41.572  11.586  1.00  0.00     0.021 C 
HETATM   29  C   UNL     1     -41.007 -41.841  12.220  1.00  0.00     0.021 C 
HETATM   30  C   UNL     1     -40.459 -43.024  11.432  1.00  0.00     0.124 C 
ENDBRANCH  22  26
ENDBRANCH   4  19
TORSDOF 5
ENDMDL
MODEL 4
REMARK VINA RESULT:      -6.1      2.978      9.127
REMARK  5 active torsions:
REMARK  status: ('A' for Active; 'I' for Inactive)
REMARK       I    between atoms: N_1  and  C_2 
REMARK    1  A    between atoms: C_2  and  C_4 
REMARK    2  A    between atoms: C_4  and  C_5 
REMARK    3  A    between atoms: C_5  and  N_6 
REMARK       I    between atoms: N_6  and  C_7 
REMARK       I    between atoms: C_7  and  N_9 
REMARK    4  A    between atoms: N_9  and  C_10 
REMARK    5  A    between atoms: C_13  and  N_17 
ROOT
HETATM    1  N   UNL     1     -40.925 -49.356  10.632  1.00  0.00    -0.342 N 
HETATM    2  C   UNL     1     -40.794 -50.097  11.795  1.00  0.00     0.320 C 
HETATM    3  O   UNL     1     -40.554 -49.564  12.869  1.00  0.00    -0.247 OA
HETATM    4  N   UNL     1     -40.936 -51.451  11.572  1.00  0.00    -0.308 N 
HETATM    5  H   UNL     1     -41.570 -49.751   9.961  1.00  0.00     0.164 HD
HETATM    6  H   UNL     1     -40.742 -51.763  10.631  1.00  0.00     0.170 HD
ENDROOT
BRANCH   1   7
HETATM    7  C   UNL     1     -40.887 -47.901  10.769  1.00  0.00     0.143 C 
BRANCH   7   8
HETATM    8  C   UNL     1     -42.213 -47.153  10.514  1.00  0.00     0.060 C 
HETATM    9  C   UNL     1     -41.992 -45.631  10.384  1.00  0.00     0.047 C 
HETATM   10  C   UNL     1     -43.237 -44.915   9.873  1.00  0.00     0.168 C 
HETATM   11  O   UNL     1     -43.677 -45.492   8.647  1.00  0.00    -0.391 OA
HETATM   12  C   UNL     1     -44.084 -46.849   8.813  1.00  0.00     0.168 C 
HETATM   13  C   UNL     1     -42.889 -47.697   9.233  1.00  0.00     0.047 C 
BRANCH   8  14
HETATM   14  C   UNL     1     -43.125 -47.461  11.726  1.00  0.00     0.226 C 
HETATM   15  N   UNL     1     -43.230 -46.507  12.694  1.00  0.00    -0.369 N 
HETATM   16  H   UNL     1     -43.777 -46.752  13.513  1.00  0.00     0.159 HD
HETATM   17  H   UNL     1     -42.668 -45.670  12.740  1.00  0.00     0.159 HD
HETATM   18  O   UNL     1     -43.739 -48.511  11.865  1.00  0.00    -0.273 OA
ENDBRANCH   8  14
ENDBRANCH   7   8
ENDBRANCH   1   7
BRANCH   4  19
HETATM   19  C   UNL     1     -40.936 -52.431  12.595  1.00  0.00     0.051 A 
HETATM   20  C   UNL     1     -42.016 -53.260  12.859  1.00  0.00     0.035 A 
HETATM   21  C   UNL     1     -41.969 -54.155  13.932  1.00  0.00     0.051 A 
HETATM   22  C   UNL     1     -40.847 -54.226  14.754  1.00  0.00     0.103 A 
HETATM   23  N   UNL     1     -39.761 -53.474  14.459  1.00  0.00    -0.350 N 
HETATM   24  C   UNL     1     -39.822 -52.614  13.404  1.00  0.00     0.119 A 
ATOM     25  HN  UNL     1     -38.911 -53.548  15.017  1.00  0.00     0.166 HD
BRANCH  22  26
HETATM   26  N   UNL     1     -40.811 -55.032  15.864  1.00  0.00    -0.367 N 
HETATM   27  C   UNL     1     -42.027 -55.668  16.357  1.00  0.00     0.124 C 
HETATM   28  C   UNL     1     -41.536 -56.818  17.244  1.00  0.00     0.021 C 
HETATM   29  C   UNL     1     -40.063 -56.985  16.903  1.00  0.00     0.021 C 
HETATM   30  C   UNL     1     -39.622 -55.589  16.482  1.00  0.00     0.124 C 
ENDBRANCH  22  26
ENDBRANCH   4  19
TORSDOF 5
ENDMDL
MODEL 5
REMARK VINA RESULT:      -6.0      2.657      3.324
REMARK  5 active torsions:
REMARK  status: ('A' for Active; 'I' for Inactive)
REMARK       I    between atoms: N_1  and  C_2 
REMARK    1  A    between atoms: C_2  and  C_4 
REMARK    2  A    between atoms: C_4  and  C_5 
REMARK    3  A    between atoms: C_5  and  N_6 
REMARK       I    between atoms: N_6  and  C_7 
REMARK       I    between atoms: C_7  and  N_9 
REMARK    4  A    between atoms: N_9  and  C_10 
REMARK    5  A    between atoms: C_13  and  N_17 
ROOT
HETATM    1  N   UNL     1     -40.923 -52.823  12.363  1.00  0.00    -0.342 N 
HETATM    2  C   UNL     1     -41.224 -51.471  12.322  1.00  0.00     0.320 C 
HETATM    3  O   UNL     1     -42.101 -50.989  13.025  1.00  0.00    -0.247 OA
HETATM    4  N   UNL     1     -40.453 -50.791  11.403  1.00  0.00    -0.308 N 
HETATM    5  H   UNL     1     -39.953 -53.037  12.175  1.00  0.00     0.164 HD
HETATM    6  H   UNL     1     -40.072 -51.349  10.652  1.00  0.00     0.170 HD
ENDROOT
BRANCH   1   7
HETATM    7  C   UNL     1     -41.616 -53.622  13.372  1.00  0.00     0.143 C 
BRANCH   7   8
HETATM    8  C   UNL     1     -40.801 -54.000  14.627  1.00  0.00     0.060 C 
HETATM    9  C   UNL     1     -41.542 -55.035  15.498  1.00  0.00     0.047 C 
HETATM   10  C   UNL     1     -40.646 -55.611  16.588  1.00  0.00     0.168 C 
HETATM   11  O   UNL     1     -39.457 -56.153  16.022  1.00  0.00    -0.391 OA
HETATM   12  C   UNL     1     -38.661 -55.150  15.394  1.00  0.00     0.168 C 
HETATM   13  C   UNL     1     -39.418 -54.558  14.211  1.00  0.00     0.047 C 
BRANCH   8  14
HETATM   14  C   UNL     1     -40.587 -52.687  15.418  1.00  0.00     0.226 C 
HETATM   15  N   UNL     1     -41.683 -52.112  15.992  1.00  0.00    -0.369 N 
HETATM   16  H   UNL     1     -41.536 -51.218  16.448  1.00  0.00     0.159 HD
HETATM   17  H   UNL     1     -42.634 -52.410  15.839  1.00  0.00     0.159 HD
HETATM   18  O   UNL     1     -39.501 -52.136  15.541  1.00  0.00    -0.273 OA
ENDBRANCH   8  14
ENDBRANCH   7   8
ENDBRANCH   1   7
BRANCH   4  19
HETATM   19  C   UNL     1     -40.488 -49.387  11.217  1.00  0.00     0.051 A 
HETATM   20  C   UNL     1     -39.626 -48.509  11.857  1.00  0.00     0.035 A 
HETATM   21  C   UNL     1     -39.768 -47.130  11.678  1.00  0.00     0.051 A 
HETATM   22  C   UNL     1     -40.774 -46.615  10.864  1.00  0.00     0.103 A 
HETATM   23  N   UNL     1     -41.572 -47.467  10.179  1.00  0.00    -0.350 N 
HETATM   24  C   UNL     1     -41.413 -48.807  10.358  1.00  0.00     0.119 A 
ATOM     25  HN  UNL     1     -42.281 -47.111   9.538  1.00  0.00     0.166 HD
BRANCH  22  26
HETATM   26  N   UNL     1     -40.989 -45.265  10.743  1.00  0.00    -0.367 N 
HETATM   27  C   UNL     1     -42.295 -44.693  11.044  1.00  0.00     0.124 C 
HETATM   28  C   UNL     1     -42.027 -43.201  11.274  1.00  0.00     0.021 C 
HETATM   29  C   UNL     1     -40.521 -43.088  11.446  1.00  0.00     0.021 C 
HETATM   30  C   UNL     1     -39.967 -44.241  10.620  1.00  0.00     0.124 C 
ENDBRANCH  22  26
ENDBRANCH   4  19
TORSDOF 5
ENDMDL
MODEL 6
REMARK VINA RESULT:      -5.9      3.585      8.717
REMARK  5 active torsions:
REMARK  status: ('A' for Active; 'I' for Inactive)
REMARK       I    between atoms: N_1  and  C_2 
REMARK    1  A    between atoms: C_2  and  C_4 
REMARK    2  A    between atoms: C_4  and  C_5 
REMARK    3  A    between atoms: C_5  and  N_6 
REMARK       I    between atoms: N_6  and  C_7 
REMARK       I    between atoms: C_7  and  N_9 
REMARK    4  A    between atoms: N_9  and  C_10 
REMARK    5  A    between atoms: C_13  and  N_17 
ROOT
HETATM    1  N   UNL     1     -42.295 -48.484  10.391  1.00  0.00    -0.342 N 
HETATM    2  C   UNL     1     -42.128 -49.250  11.534  1.00  0.00     0.320 C 
HETATM    3  O   UNL     1     -42.637 -48.930  12.598  1.00  0.00    -0.247 OA
HETATM    4  N   UNL     1     -41.323 -50.348  11.314  1.00  0.00    -0.308 N 
HETATM    5  H   UNL     1     -42.293 -49.017   9.532  1.00  0.00     0.164 HD
HETATM    6  H   UNL     1     -40.682 -50.274  10.536  1.00  0.00     0.170 HD
ENDROOT
BRANCH   1   7
HETATM    7  C   UNL     1     -43.208 -47.347  10.488  1.00  0.00     0.143 C 
BRANCH   7   8
HETATM    8  C   UNL     1     -44.317 -47.264   9.417  1.00  0.00     0.060 C 
HETATM    9  C   UNL     1     -45.391 -48.352   9.624  1.00  0.00     0.047 C 
HETATM   10  C   UNL     1     -46.616 -48.121   8.746  1.00  0.00     0.168 C 
HETATM   11  O   UNL     1     -47.141 -46.813   8.957  1.00  0.00    -0.391 OA
HETATM   12  C   UNL     1     -46.218 -45.799   8.565  1.00  0.00     0.168 C 
HETATM   13  C   UNL     1     -44.976 -45.864   9.446  1.00  0.00     0.047 C 
BRANCH   8  14
HETATM   14  C   UNL     1     -43.616 -47.455   8.051  1.00  0.00     0.226 C 
HETATM   15  N   UNL     1     -42.858 -46.424   7.582  1.00  0.00    -0.369 N 
HETATM   16  H   UNL     1     -42.462 -46.539   6.655  1.00  0.00     0.159 HD
HETATM   17  H   UNL     1     -42.818 -45.505   7.997  1.00  0.00     0.159 HD
HETATM   18  O   UNL     1     -43.718 -48.468   7.370  1.00  0.00    -0.273 OA
ENDBRANCH   8  14
ENDBRANCH   7   8
ENDBRANCH   1   7
BRANCH   4  19
HETATM   19  C   UNL     1     -41.056 -51.347  12.283  1.00  0.00     0.051 A 
HETATM   20  C   UNL     1     -41.985 -52.300  12.673  1.00  0.00     0.035 A 
HETATM   21  C   UNL     1     -41.673 -53.211  13.688  1.00  0.00     0.051 A 
HETATM   22  C   UNL     1     -40.435 -53.173  14.325  1.00  0.00     0.103 A 
HETATM   23  N   UNL     1     -39.498 -52.294  13.900  1.00  0.00    -0.350 N 
HETATM   24  C   UNL     1     -39.817 -51.421  12.904  1.00  0.00     0.119 A 
ATOM     25  HN  UNL     1     -38.568 -52.285  14.318  1.00  0.00     0.166 HD
BRANCH  22  26
HETATM   26  N   UNL     1     -40.139 -53.997  15.382  1.00  0.00    -0.367 N 
HETATM   27  C   UNL     1     -41.048 -55.071  15.762  1.00  0.00     0.124 C 
HETATM   28  C   UNL     1     -40.194 -56.029  16.600  1.00  0.00     0.021 C 
HETATM   29  C   UNL     1     -38.755 -55.618  16.336  1.00  0.00     0.021 C 
HETATM   30  C   UNL     1     -38.847 -54.129  16.030  1.00  0.00     0.124 C 
ENDBRANCH  22  26
ENDBRANCH   4  19
TORSDOF 5
ENDMDL
MODEL 7
REMARK VINA RESULT:      -5.9      2.410      3.498
REMARK  5 active torsions:
REMARK  status: ('A' for Active; 'I' for Inactive)
REMARK       I    between atoms: N_1  and  C_2 
REMARK    1  A    between atoms: C_2  and  C_4 
REMARK    2  A    between atoms: C_4  and  C_5 
REMARK    3  A    between atoms: C_5  and  N_6 
REMARK       I    between atoms: N_6  and  C_7 
REMARK       I    between atoms: C_7  and  N_9 
REMARK    4  A    between atoms: N_9  and  C_10 
REMARK    5  A    between atoms: C_13  and  N_17 
ROOT
HETATM    1  N   UNL     1     -40.205 -49.409  11.069  1.00  0.00    -0.342 N 
HETATM    2  C   UNL     1     -40.317 -48.109  11.535  1.00  0.00     0.320 C 
HETATM    3  O   UNL     1     -40.059 -47.821  12.695  1.00  0.00    -0.247 OA
HETATM    4  N   UNL     1     -40.765 -47.241  10.561  1.00  0.00    -0.308 N 
HETATM    5  H   UNL     1     -39.950 -49.478  10.093  1.00  0.00     0.164 HD
HETATM    6  H   UNL     1     -41.291 -47.661   9.808  1.00  0.00     0.170 HD
ENDROOT
BRANCH   1   7
HETATM    7  C   UNL     1     -39.647 -50.395  11.993  1.00  0.00     0.143 C 
BRANCH   7   8
HETATM    8  C   UNL     1     -40.662 -51.194  12.838  1.00  0.00     0.060 C 
HETATM    9  C   UNL     1     -40.490 -50.917  14.347  1.00  0.00     0.047 C 
HETATM   10  C   UNL     1     -41.643 -51.486  15.167  1.00  0.00     0.168 C 
HETATM   11  O   UNL     1     -42.890 -51.000  14.679  1.00  0.00    -0.391 OA
HETATM   12  C   UNL     1     -43.146 -51.435  13.345  1.00  0.00     0.168 C 
HETATM   13  C   UNL     1     -42.105 -50.845  12.401  1.00  0.00     0.047 C 
BRANCH   8  14
HETATM   14  C   UNL     1     -40.399 -52.689  12.534  1.00  0.00     0.226 C 
HETATM   15  N   UNL     1     -40.903 -53.193  11.371  1.00  0.00    -0.369 N 
HETATM   16  H   UNL     1     -40.780 -54.189  11.220  1.00  0.00     0.159 HD
HETATM   17  H   UNL     1     -41.533 -52.700  10.756  1.00  0.00     0.159 HD
HETATM   18  O   UNL     1     -39.782 -53.437  13.282  1.00  0.00    -0.273 OA
ENDBRANCH   8  14
ENDBRANCH   7   8
ENDBRANCH   1   7
BRANCH   4  19
HETATM   19  C   UNL     1     -40.886 -45.840  10.737  1.00  0.00     0.051 A 
HETATM   20  C   UNL     1     -39.807 -44.970  10.705  1.00  0.00     0.035 A 
HETATM   21  C   UNL     1     -39.995 -43.608  10.958  1.00  0.00     0.051 A 
HETATM   22  C   UNL     1     -41.260 -43.105  11.251  1.00  0.00     0.103 A 
HETATM   23  N   UNL     1     -42.329 -43.935  11.213  1.00  0.00    -0.350 N 
HETATM   24  C   UNL     1     -42.127 -45.257  10.955  1.00  0.00     0.119 A 
ATOM     25  HN  UNL     1     -43.270 -43.576  11.374  1.00  0.00     0.166 HD
BRANCH  22  26
HETATM   26  N   UNL     1     -41.457 -41.789  11.590  1.00  0.00    -0.367 N 
HETATM   27  C   UNL     1     -40.387 -41.017  12.209  1.00  0.00     0.124 C 
HETATM   28  C   UNL     1     -40.782 -39.552  11.987  1.00  0.00     0.021 C 
HETATM   29  C   UNL     1     -41.875 -39.589  10.932  1.00  0.00     0.021 C 
HETATM   30  C   UNL     1     -42.544 -40.940  11.140  1.00  0.00     0.124 C 
ENDBRANCH  22  26
ENDBRANCH   4  19
TORSDOF 5
ENDMDL
MODEL 8
REMARK VINA RESULT:      -5.8      2.731      8.979
REMARK  5 active torsions:
REMARK  status: ('A' for Active; 'I' for Inactive)
REMARK       I    between atoms: N_1  and  C_2 
REMARK    1  A    between atoms: C_2  and  C_4 
REMARK    2  A    between atoms: C_4  and  C_5 
REMARK    3  A    between atoms: C_5  and  N_6 
REMARK       I    between atoms: N_6  and  C_7 
REMARK       I    between atoms: C_7  and  N_9 
REMARK    4  A    between atoms: N_9  and  C_10 
REMARK    5  A    between atoms: C_13  and  N_17 
ROOT
HETATM    1  N   UNL     1     -40.018 -46.439  10.882  1.00  0.00    -0.342 N 
HETATM    2  C   UNL     1     -40.318 -47.504  11.717  1.00  0.00     0.320 C 
HETATM    3  O   UNL     1     -40.242 -47.405  12.933  1.00  0.00    -0.247 OA
HETATM    4  N   UNL     1     -40.667 -48.638  11.013  1.00  0.00    -0.308 N 
HETATM    5  H   UNL     1     -40.548 -46.426  10.022  1.00  0.00     0.164 HD
HETATM    6  H   UNL     1     -40.320 -48.691  10.066  1.00  0.00     0.170 HD
ENDROOT
BRANCH   1   7
HETATM    7  C   UNL     1     -39.727 -45.160  11.526  1.00  0.00     0.143 C 
BRANCH   7   8
HETATM    8  C   UNL     1     -40.938 -44.244  11.812  1.00  0.00     0.060 C 
HETATM    9  C   UNL     1     -41.133 -44.013  13.325  1.00  0.00     0.047 C 
HETATM   10  C   UNL     1     -42.148 -42.912  13.608  1.00  0.00     0.168 C 
HETATM   11  O   UNL     1     -41.783 -41.711  12.933  1.00  0.00    -0.391 OA
HETATM   12  C   UNL     1     -41.808 -41.869  11.516  1.00  0.00     0.168 C 
HETATM   13  C   UNL     1     -40.755 -42.886  11.092  1.00  0.00     0.047 C 
BRANCH   8  14
HETATM   14  C   UNL     1     -42.173 -44.960  11.215  1.00  0.00     0.226 C 
HETATM   15  N   UNL     1     -42.988 -45.633  12.075  1.00  0.00    -0.369 N 
HETATM   16  H   UNL     1     -43.754 -46.153  11.659  1.00  0.00     0.159 HD
HETATM   17  H   UNL     1     -42.783 -45.802  13.048  1.00  0.00     0.159 HD
HETATM   18  O   UNL     1     -42.446 -44.964  10.020  1.00  0.00    -0.273 OA
ENDBRANCH   8  14
ENDBRANCH   7   8
ENDBRANCH   1   7
BRANCH   4  19
HETATM   19  C   UNL     1     -41.106 -49.844  11.612  1.00  0.00     0.051 A 
HETATM   20  C   UNL     1     -40.308 -50.971  11.735  1.00  0.00     0.035 A 
HETATM   21  C   UNL     1     -40.833 -52.149  12.275  1.00  0.00     0.051 A 
HETATM   22  C   UNL     1     -42.161 -52.214  12.690  1.00  0.00     0.103 A 
HETATM   23  N   UNL     1     -42.925 -51.098  12.641  1.00  0.00    -0.350 N 
HETATM   24  C   UNL     1     -42.393 -49.957  12.121  1.00  0.00     0.119 A 
ATOM     25  HN  UNL     1     -43.884 -51.110  12.987  1.00  0.00     0.166 HD
BRANCH  22  26
HETATM   26  N   UNL     1     -42.724 -53.382  13.139  1.00  0.00    -0.367 N 
HETATM   27  C   UNL     1     -42.146 -54.096  14.271  1.00  0.00     0.124 C 
HETATM   28  C   UNL     1     -43.267 -55.014  14.770  1.00  0.00     0.021 C 
HETATM   29  C   UNL     1     -44.534 -54.493  14.111  1.00  0.00     0.021 C 
HETATM   30  C   UNL     1     -44.045 -53.882  12.804  1.00  0.00     0.124 C 
ENDBRANCH  22  26
ENDBRANCH   4  19
TORSDOF 5
ENDMDL
MODEL 9
REMARK VINA RESULT:      -5.7      8.281     11.608
REMARK  5 active torsions:
REMARK  status: ('A' for Active; 'I' for Inactive)
REMARK       I    between atoms: N_1  and  C_2 
REMARK    1  A    between atoms: C_2  and  C_4 
REMARK    2  A    between atoms: C_4  and  C_5 
REMARK    3  A    between atoms: C_5  and  N_6 
REMARK       I    between atoms: N_6  and  C_7 
REMARK       I    between atoms: C_7  and  N_9 
REMARK    4  A    between atoms: N_9  and  C_10 
REMARK    5  A    between atoms: C_13  and  N_17 
ROOT
HETATM    1  N   UNL     1     -36.161 -56.191  17.791  1.00  0.00    -0.342 N 
HETATM    2  C   UNL     1     -37.388 -55.567  17.635  1.00  0.00     0.320 C 
HETATM    3  O   UNL     1     -37.738 -54.652  18.366  1.00  0.00    -0.247 OA
HETATM    4  N   UNL     1     -38.129 -56.118  16.610  1.00  0.00    -0.308 N 
HETATM    5  H   UNL     1     -35.760 -56.535  16.929  1.00  0.00     0.164 HD
HETATM    6  H   UNL     1     -37.900 -57.071  16.366  1.00  0.00     0.170 HD
ENDROOT
BRANCH   1   7
HETATM    7  C   UNL     1     -35.256 -55.623  18.788  1.00  0.00     0.143 C 
BRANCH   7   8
HETATM    8  C   UNL     1     -33.746 -55.831  18.541  1.00  0.00     0.060 C 
HETATM    9  C   UNL     1     -33.122 -54.636  17.789  1.00  0.00     0.047 C 
HETATM   10  C   UNL     1     -31.600 -54.703  17.772  1.00  0.00     0.168 C 
HETATM   11  O   UNL     1     -31.090 -54.817  19.098  1.00  0.00    -0.391 OA
HETATM   12  C   UNL     1     -31.499 -56.032  19.723  1.00  0.00     0.168 C 
HETATM   13  C   UNL     1     -33.014 -56.043  19.888  1.00  0.00     0.047 C 
BRANCH   8  14
HETATM   14  C   UNL     1     -33.617 -57.122  17.697  1.00  0.00     0.226 C 
HETATM   15  N   UNL     1     -33.581 -58.310  18.365  1.00  0.00    -0.369 N 
HETATM   16  H   UNL     1     -33.428 -59.140  17.802  1.00  0.00     0.159 HD
HETATM   17  H   UNL     1     -33.510 -58.404  19.367  1.00  0.00     0.159 HD
HETATM   18  O   UNL     1     -33.533 -57.130  16.475  1.00  0.00    -0.273 OA
ENDBRANCH   8  14
ENDBRANCH   7   8
ENDBRANCH   1   7
BRANCH   4  19
HETATM   19  C   UNL     1     -39.381 -55.619  16.174  1.00  0.00     0.051 A 
HETATM   20  C   UNL     1     -40.589 -55.975  16.754  1.00  0.00     0.035 A 
HETATM   21  C   UNL     1     -41.791 -55.497  16.223  1.00  0.00     0.051 A 
HETATM   22  C   UNL     1     -41.798 -54.664  15.107  1.00  0.00     0.103 A 
HETATM   23  N   UNL     1     -40.620 -54.253  14.581  1.00  0.00    -0.350 N 
HETATM   24  C   UNL     1     -39.459 -54.722  15.117  1.00  0.00     0.119 A 
ATOM     25  HN  UNL     1     -40.602 -53.603  13.795  1.00  0.00     0.166 HD
BRANCH  22  26
HETATM   26  N   UNL     1     -42.966 -54.254  14.515  1.00  0.00    -0.367 N 
HETATM   27  C   UNL     1     -42.964 -53.743  13.149  1.00  0.00     0.124 C 
HETATM   28  C   UNL     1     -44.421 -53.859  12.686  1.00  0.00     0.021 C 
HETATM   29  C   UNL     1     -45.092 -54.772  13.700  1.00  0.00     0.021 C 
HETATM   30  C   UNL     1     -44.310 -54.533  14.985  1.00  0.00     0.124 C 
ENDBRANCH  22  26
ENDBRANCH   4  19
TORSDOF 5
ENDMDL
