MODEL 1
REMARK VINA RESULT:      -6.5      0.000      0.000
REMARK  4 active torsions:
REMARK  status: ('A' for Active; 'I' for Inactive)
REMARK       I    between atoms: C_2  and  N_3 
REMARK       I    between atoms: C_2  and  N_13 
REMARK    1  A    between atoms: N_3  and  C_4 
REMARK    2  A    between atoms: C_4  and  C_5 
REMARK    3  A    between atoms: C_5  and  C_6 
REMARK    4  A    between atoms: N_13  and  C_14 
ROOT
HETATM    1  O   UNL     1     -41.893 -49.618  13.302  1.00  0.00    -0.247 OA
HETATM    2  C   UNL     1     -41.992 -50.000  12.146  1.00  0.00     0.316 C 
HETATM    3  N   UNL     1     -42.018 -49.167  11.051  1.00  0.00    -0.343 N 
HETATM    4  N   UNL     1     -42.101 -51.308  11.753  1.00  0.00    -0.339 N 
HETATM    5  H   UNL     1     -42.557 -49.530  10.278  1.00  0.00     0.164 HD
HETATM    6  H   UNL     1     -41.840 -51.487  10.797  1.00  0.00     0.164 HD
ENDROOT
BRANCH   3   7
HETATM    7  C   UNL     1     -42.028 -47.727  11.242  1.00  0.00     0.129 C 
BRANCH   7   8
HETATM    8  C   UNL     1     -42.308 -46.989   9.932  1.00  0.00     0.060 C 
BRANCH   8   9
HETATM    9  C   UNL     1     -43.575 -47.447   9.266  1.00  0.00    -0.041 A 
HETATM   10  C   UNL     1     -44.802 -47.425   9.931  1.00  0.00     0.010 A 
HETATM   11  C   UNL     1     -45.950 -47.863   9.280  1.00  0.00     0.018 A 
HETATM   12  C   UNL     1     -45.835 -48.309   7.972  1.00  0.00     0.087 A 
HETATM   13  N   UNL     1     -44.668 -48.337   7.290  1.00  0.00    -0.375 N 
HETATM   14  C   UNL     1     -43.570 -47.902   7.950  1.00  0.00     0.094 A 
ATOM     15  HN  UNL     1     -44.619 -48.668   6.327  1.00  0.00     0.164 HD
ENDBRANCH   8   9
ENDBRANCH   7   8
ENDBRANCH   3   7
BRANCH   4  16
HETATM   16  C   UNL     1     -42.089 -52.462  12.655  1.00  0.00     0.086 C 
HETATM   17  C   UNL     1     -40.834 -53.321  12.457  1.00  0.00     0.025 C 
HETATM   18  C   UNL     1     -40.496 -54.303  13.584  1.00  0.00     0.002 C 
HETATM   19  C   UNL     1     -40.675 -53.756  15.002  1.00  0.00     0.000 C 
HETATM   20  C   UNL     1     -41.964 -54.188  15.710  1.00  0.00     0.000 C 
HETATM   21  C   UNL     1     -43.306 -53.707  15.145  1.00  0.00     0.000 C 
HETATM   22  C   UNL     1     -43.656 -54.233  13.751  1.00  0.00     0.002 C 
HETATM   23  C   UNL     1     -43.403 -53.250  12.600  1.00  0.00     0.025 C 
ENDBRANCH   4  16
TORSDOF 4
ENDMDL
MODEL 2
REMARK VINA RESULT:      -6.4      2.262      2.784
REMARK  4 active torsions:
REMARK  status: ('A' for Active; 'I' for Inactive)
REMARK       I    between atoms: C_2  and  N_3 
REMARK       I    between atoms: C_2  and  N_13 
REMARK    1  A    between atoms: N_3  and  C_4 
REMARK    2  A    between atoms: C_4  and  C_5 
REMARK    3  A    between atoms: C_5  and  C_6 
REMARK    4  A    between atoms: N_13  and  C_14 
ROOT
HETATM    1  O   UNL     1     -43.528 -49.616  14.265  1.00  0.00    -0.247 OA
HETATM    2  C   UNL     1     -43.538 -50.057  13.126  1.00  0.00     0.316 C 
HETATM    3  N   UNL     1     -42.895 -49.471  12.060  1.00  0.00    -0.343 N 
HETATM    4  N   UNL     1     -44.191 -51.191  12.725  1.00  0.00    -0.339 N 
HETATM    5  H   UNL     1     -43.350 -49.632  11.173  1.00  0.00     0.164 HD
HETATM    6  H   UNL     1     -43.844 -51.603  11.873  1.00  0.00     0.164 HD
ENDROOT
BRANCH   3   7
HETATM    7  C   UNL     1     -42.228 -48.192  12.235  1.00  0.00     0.129 C 
BRANCH   7   8
HETATM    8  C   UNL     1     -43.020 -47.053  11.590  1.00  0.00     0.060 C 
BRANCH   8   9
HETATM    9  C   UNL     1     -43.551 -47.413  10.230  1.00  0.00    -0.041 A 
HETATM   10  C   UNL     1     -44.920 -47.493   9.976  1.00  0.00     0.010 A 
HETATM   11  C   UNL     1     -45.369 -47.834   8.704  1.00  0.00     0.018 A 
HETATM   12  C   UNL     1     -44.426 -48.082   7.718  1.00  0.00     0.087 A 
HETATM   13  N   UNL     1     -43.092 -48.004   7.921  1.00  0.00    -0.375 N 
HETATM   14  C   UNL     1     -42.687 -47.668   9.168  1.00  0.00     0.094 A 
ATOM     15  HN  UNL     1     -42.425 -48.190   7.172  1.00  0.00     0.164 HD
ENDBRANCH   8   9
ENDBRANCH   7   8
ENDBRANCH   3   7
BRANCH   4  16
HETATM   16  C   UNL     1     -44.962 -52.075  13.602  1.00  0.00     0.086 C 
HETATM   17  C   UNL     1     -44.967 -53.520  13.087  1.00  0.00     0.025 C 
HETATM   18  C   UNL     1     -45.375 -54.600  14.095  1.00  0.00     0.002 C 
HETATM   19  C   UNL     1     -44.804 -54.429  15.504  1.00  0.00     0.000 C 
HETATM   20  C   UNL     1     -45.771 -53.833  16.532  1.00  0.00     0.000 C 
HETATM   21  C   UNL     1     -46.246 -52.388  16.339  1.00  0.00     0.000 C 
HETATM   22  C   UNL     1     -47.100 -52.140  15.092  1.00  0.00     0.002 C 
HETATM   23  C   UNL     1     -46.357 -51.514  13.905  1.00  0.00     0.025 C 
ENDBRANCH   4  16
TORSDOF 4
ENDMDL
MODEL 3
REMARK VINA RESULT:      -6.3      3.370      6.535
REMARK  4 active torsions:
REMARK  status: ('A' for Active; 'I' for Inactive)
REMARK       I    between atoms: C_2  and  N_3 
REMARK       I    between atoms: C_2  and  N_13 
REMARK    1  A    between atoms: N_3  and  C_4 
REMARK    2  A    between atoms: C_4  and  C_5 
REMARK    3  A    between atoms: C_5  and  C_6 
REMARK    4  A    between atoms: N_13  and  C_14 
ROOT
HETATM    1  O   UNL     1     -42.185 -51.343  13.538  1.00  0.00    -0.247 OA
HETATM    2  C   UNL     1     -42.039 -51.678  12.371  1.00  0.00     0.316 C 
HETATM    3  N   UNL     1     -42.736 -52.696  11.763  1.00  0.00    -0.343 N 
HETATM    4  N   UNL     1     -41.161 -51.107  11.490  1.00  0.00    -0.339 N 
HETATM    5  H   UNL     1     -42.219 -53.159  11.029  1.00  0.00     0.164 HD
HETATM    6  H   UNL     1     -41.383 -51.247  10.517  1.00  0.00     0.164 HD
ENDROOT
BRANCH   3   7
HETATM    7  C   UNL     1     -43.645 -53.516  12.545  1.00  0.00     0.129 C 
BRANCH   7   8
HETATM    8  C   UNL     1     -45.087 -53.020  12.431  1.00  0.00     0.060 C 
BRANCH   8   9
HETATM    9  C   UNL     1     -45.709 -52.731  13.769  1.00  0.00    -0.041 A 
HETATM   10  C   UNL     1     -46.428 -51.558  14.004  1.00  0.00     0.010 A 
HETATM   11  C   UNL     1     -46.983 -51.327  15.259  1.00  0.00     0.018 A 
HETATM   12  C   UNL     1     -46.803 -52.286  16.245  1.00  0.00     0.087 A 
HETATM   13  N   UNL     1     -46.123 -53.438  16.054  1.00  0.00    -0.375 N 
HETATM   14  C   UNL     1     -45.597 -53.635  14.823  1.00  0.00     0.094 A 
ATOM     15  HN  UNL     1     -46.011 -54.124  16.800  1.00  0.00     0.164 HD
ENDBRANCH   8   9
ENDBRANCH   7   8
ENDBRANCH   3   7
BRANCH   4  16
HETATM   16  C   UNL     1     -40.273 -49.983  11.794  1.00  0.00     0.086 C 
HETATM   17  C   UNL     1     -40.701 -48.708  11.056  1.00  0.00     0.025 C 
HETATM   18  C   UNL     1     -40.126 -47.389  11.586  1.00  0.00     0.002 C 
HETATM   19  C   UNL     1     -40.087 -47.259  13.110  1.00  0.00     0.000 C 
HETATM   20  C   UNL     1     -38.719 -47.516  13.751  1.00  0.00     0.000 C 
HETATM   21  C   UNL     1     -38.122 -48.925  13.662  1.00  0.00     0.000 C 
HETATM   22  C   UNL     1     -37.773 -49.400  12.248  1.00  0.00     0.002 C 
HETATM   23  C   UNL     1     -38.795 -50.348  11.607  1.00  0.00     0.025 C 
ENDBRANCH   4  16
TORSDOF 4
ENDMDL
MODEL 4
REMARK VINA RESULT:      -6.1      3.038      4.021
REMARK  4 active torsions:
REMARK  status: ('A' for Active; 'I' for Inactive)
REMARK       I    between atoms: C_2  and  N_3 
REMARK       I    between atoms: C_2  and  N_13 
REMARK    1  A    between atoms: N_3  and  C_4 
REMARK    2  A    between atoms: C_4  and  C_5 
REMARK    3  A    between atoms: C_5  and  C_6 
REMARK    4  A    between atoms: N_13  and  C_14 
ROOT
HETATM    1  O   UNL     1     -42.831 -49.937  13.500  1.00  0.00    -0.247 OA
HETATM    2  C   UNL     1     -42.667 -50.771  12.622  1.00  0.00     0.316 C 
HETATM    3  N   UNL     1     -41.689 -50.702  11.657  1.00  0.00    -0.343 N 
HETATM    4  N   UNL     1     -43.428 -51.896  12.450  1.00  0.00    -0.339 N 
HETATM    5  H   UNL     1     -41.949 -51.135  10.783  1.00  0.00     0.164 HD
HETATM    6  H   UNL     1     -42.985 -52.632  11.924  1.00  0.00     0.164 HD
ENDROOT
BRANCH   3   7
HETATM    7  C   UNL     1     -40.833 -49.530  11.581  1.00  0.00     0.129 C 
BRANCH   7   8
HETATM    8  C   UNL     1     -41.363 -48.513  10.570  1.00  0.00     0.060 C 
BRANCH   8   9
HETATM    9  C   UNL     1     -41.518 -47.137  11.157  1.00  0.00    -0.041 A 
HETATM   10  C   UNL     1     -40.488 -46.197  11.103  1.00  0.00     0.010 A 
HETATM   11  C   UNL     1     -40.672 -44.937  11.664  1.00  0.00     0.018 A 
HETATM   12  C   UNL     1     -41.891 -44.654  12.261  1.00  0.00     0.087 A 
HETATM   13  N   UNL     1     -42.916 -45.533  12.324  1.00  0.00    -0.375 N 
HETATM   14  C   UNL     1     -42.708 -46.749  11.768  1.00  0.00     0.094 A 
ATOM     15  HN  UNL     1     -43.802 -45.291  12.768  1.00  0.00     0.164 HD
ENDBRANCH   8   9
ENDBRANCH   7   8
ENDBRANCH   3   7
BRANCH   4  16
HETATM   16  C   UNL     1     -44.545 -52.297  13.308  1.00  0.00     0.086 C 
HETATM   17  C   UNL     1     -44.818 -53.803  13.216  1.00  0.00     0.025 C 
HETATM   18  C   UNL     1     -45.665 -54.412  14.339  1.00  0.00     0.002 C 
HETATM   19  C   UNL     1     -45.340 -53.910  15.748  1.00  0.00     0.000 C 
HETATM   20  C   UNL     1     -46.299 -52.850  16.299  1.00  0.00     0.000 C 
HETATM   21  C   UNL     1     -46.351 -51.481  15.612  1.00  0.00     0.000 C 
HETATM   22  C   UNL     1     -46.869 -51.490  14.171  1.00  0.00     0.002 C 
HETATM   23  C   UNL     1     -45.785 -51.421  13.087  1.00  0.00     0.025 C 
ENDBRANCH   4  16
TORSDOF 4
ENDMDL
MODEL 5
REMARK VINA RESULT:      -6.1      3.624      5.366
REMARK  4 active torsions:
REMARK  status: ('A' for Active; 'I' for Inactive)
REMARK       I    between atoms: C_2  and  N_3 
REMARK       I    between atoms: C_2  and  N_13 
REMARK    1  A    between atoms: N_3  and  C_4 
REMARK    2  A    between atoms: C_4  and  C_5 
REMARK    3  A    between atoms: C_5  and  C_6 
REMARK    4  A    between atoms: N_13  and  C_14 
ROOT
HETATM    1  O   UNL     1     -41.910 -51.439  13.848  1.00  0.00    -0.247 OA
HETATM    2  C   UNL     1     -42.187 -51.756  12.701  1.00  0.00     0.316 C 
HETATM    3  N   UNL     1     -41.323 -51.649  11.635  1.00  0.00    -0.343 N 
HETATM    4  N   UNL     1     -43.393 -52.255  12.289  1.00  0.00    -0.339 N 
HETATM    5  H   UNL     1     -41.785 -51.479  10.754  1.00  0.00     0.164 HD
HETATM    6  H   UNL     1     -43.367 -52.770  11.424  1.00  0.00     0.164 HD
ENDROOT
BRANCH   3   7
HETATM    7  C   UNL     1     -40.019 -51.036  11.823  1.00  0.00     0.129 C 
BRANCH   7   8
HETATM    8  C   UNL     1     -40.039 -49.550  11.459  1.00  0.00     0.060 C 
BRANCH   8   9
HETATM    9  C   UNL     1     -39.344 -48.693  12.480  1.00  0.00    -0.041 A 
HETATM   10  C   UNL     1     -38.196 -49.128  13.143  1.00  0.00     0.010 A 
HETATM   11  C   UNL     1     -37.588 -48.304  14.085  1.00  0.00     0.018 A 
HETATM   12  C   UNL     1     -38.150 -47.060  14.332  1.00  0.00     0.087 A 
HETATM   13  N   UNL     1     -39.253 -46.599  13.704  1.00  0.00    -0.375 N 
HETATM   14  C   UNL     1     -39.821 -47.422  12.792  1.00  0.00     0.094 A 
ATOM     15  HN  UNL     1     -39.639 -45.677  13.907  1.00  0.00     0.164 HD
ENDBRANCH   8   9
ENDBRANCH   7   8
ENDBRANCH   3   7
BRANCH   4  16
HETATM   16  C   UNL     1     -44.539 -52.518  13.163  1.00  0.00     0.086 C 
HETATM   17  C   UNL     1     -44.945 -53.996  13.134  1.00  0.00     0.025 C 
HETATM   18  C   UNL     1     -45.840 -54.478  14.282  1.00  0.00     0.002 C 
HETATM   19  C   UNL     1     -45.467 -53.948  15.668  1.00  0.00     0.000 C 
HETATM   20  C   UNL     1     -46.326 -52.784  16.173  1.00  0.00     0.000 C 
HETATM   21  C   UNL     1     -46.257 -51.446  15.429  1.00  0.00     0.000 C 
HETATM   22  C   UNL     1     -46.778 -51.470  13.989  1.00  0.00     0.002 C 
HETATM   23  C   UNL     1     -45.696 -51.545  12.904  1.00  0.00     0.025 C 
ENDBRANCH   4  16
TORSDOF 4
ENDMDL
MODEL 6
REMARK VINA RESULT:      -6.0      2.788      3.983
REMARK  4 active torsions:
REMARK  status: ('A' for Active; 'I' for Inactive)
REMARK       I    between atoms: C_2  and  N_3 
REMARK       I    between atoms: C_2  and  N_13 
REMARK    1  A    between atoms: N_3  and  C_4 
REMARK    2  A    between atoms: C_4  and  C_5 
REMARK    3  A    between atoms: C_5  and  C_6 
REMARK    4  A    between atoms: N_13  and  C_14 
ROOT
HETATM    1  O   UNL     1     -42.024 -51.315  13.776  1.00  0.00    -0.247 OA
HETATM    2  C   UNL     1     -42.214 -51.755  12.652  1.00  0.00     0.316 C 
HETATM    3  N   UNL     1     -41.310 -51.662  11.618  1.00  0.00    -0.343 N 
HETATM    4  N   UNL     1     -43.350 -52.397  12.237  1.00  0.00    -0.339 N 
HETATM    5  H   UNL     1     -41.740 -51.614  10.706  1.00  0.00     0.164 HD
HETATM    6  H   UNL     1     -43.234 -52.981  11.424  1.00  0.00     0.164 HD
ENDROOT
BRANCH   3   7
HETATM    7  C   UNL     1     -40.076 -50.918  11.804  1.00  0.00     0.129 C 
BRANCH   7   8
HETATM    8  C   UNL     1     -40.071 -49.626  10.986  1.00  0.00     0.060 C 
BRANCH   8   9
HETATM    9  C   UNL     1     -41.072 -48.620  11.481  1.00  0.00    -0.041 A 
HETATM   10  C   UNL     1     -42.149 -48.209  10.695  1.00  0.00     0.010 A 
HETATM   11  C   UNL     1     -43.050 -47.271  11.191  1.00  0.00     0.018 A 
HETATM   12  C   UNL     1     -42.846 -46.775  12.469  1.00  0.00     0.087 A 
HETATM   13  N   UNL     1     -41.823 -47.156  13.266  1.00  0.00    -0.375 N 
HETATM   14  C   UNL     1     -40.965 -48.071  12.757  1.00  0.00     0.094 A 
ATOM     15  HN  UNL     1     -41.704 -46.773  14.204  1.00  0.00     0.164 HD
ENDBRANCH   8   9
ENDBRANCH   7   8
ENDBRANCH   3   7
BRANCH   4  16
HETATM   16  C   UNL     1     -44.511 -52.686  13.081  1.00  0.00     0.086 C 
HETATM   17  C   UNL     1     -44.816 -54.188  13.129  1.00  0.00     0.025 C 
HETATM   18  C   UNL     1     -45.723 -54.663  14.270  1.00  0.00     0.002 C 
HETATM   19  C   UNL     1     -45.445 -54.027  15.633  1.00  0.00     0.000 C 
HETATM   20  C   UNL     1     -46.400 -52.898  16.033  1.00  0.00     0.000 C 
HETATM   21  C   UNL     1     -46.390 -51.604  15.210  1.00  0.00     0.000 C 
HETATM   22  C   UNL     1     -46.848 -51.749  13.756  1.00  0.00     0.002 C 
HETATM   23  C   UNL     1     -45.719 -51.813  12.719  1.00  0.00     0.025 C 
ENDBRANCH   4  16
TORSDOF 4
ENDMDL
MODEL 7
REMARK VINA RESULT:      -5.9      2.934      4.637
REMARK  4 active torsions:
REMARK  status: ('A' for Active; 'I' for Inactive)
REMARK       I    between atoms: C_2  and  N_3 
REMARK       I    between atoms: C_2  and  N_13 
REMARK    1  A    between atoms: N_3  and  C_4 
REMARK    2  A    between atoms: C_4  and  C_5 
REMARK    3  A    between atoms: C_5  and  C_6 
REMARK    4  A    between atoms: N_13  and  C_14 
ROOT
HETATM    1  O   UNL     1     -41.793 -50.968  14.548  1.00  0.00    -0.247 OA
HETATM    2  C   UNL     1     -41.458 -52.000  13.984  1.00  0.00     0.316 C 
HETATM    3  N   UNL     1     -40.163 -52.314  13.643  1.00  0.00    -0.343 N 
HETATM    4  N   UNL     1     -42.310 -52.999  13.596  1.00  0.00    -0.339 N 
HETATM    5  H   UNL     1     -40.090 -52.893  12.819  1.00  0.00     0.164 HD
HETATM    6  H   UNL     1     -41.877 -53.898  13.462  1.00  0.00     0.164 HD
ENDROOT
BRANCH   3   7
HETATM    7  C   UNL     1     -39.104 -51.343  13.861  1.00  0.00     0.129 C 
BRANCH   7   8
HETATM    8  C   UNL     1     -38.578 -50.780  12.540  1.00  0.00     0.060 C 
BRANCH   8   9
HETATM    9  C   UNL     1     -39.413 -49.644  12.020  1.00  0.00    -0.041 A 
HETATM   10  C   UNL     1     -39.248 -48.339  12.486  1.00  0.00     0.010 A 
HETATM   11  C   UNL     1     -40.047 -47.318  11.981  1.00  0.00     0.018 A 
HETATM   12  C   UNL     1     -40.989 -47.636  11.014  1.00  0.00     0.087 A 
HETATM   13  N   UNL     1     -41.171 -48.884  10.529  1.00  0.00    -0.375 N 
HETATM   14  C   UNL     1     -40.378 -49.855  11.038  1.00  0.00     0.094 A 
ATOM     15  HN  UNL     1     -41.872 -49.084   9.814  1.00  0.00     0.164 HD
ENDBRANCH   8   9
ENDBRANCH   7   8
ENDBRANCH   3   7
BRANCH   4  16
HETATM   16  C   UNL     1     -43.758 -53.006  13.818  1.00  0.00     0.086 C 
HETATM   17  C   UNL     1     -44.180 -54.137  14.763  1.00  0.00     0.025 C 
HETATM   18  C   UNL     1     -45.573 -54.013  15.393  1.00  0.00     0.002 C 
HETATM   19  C   UNL     1     -45.951 -52.610  15.872  1.00  0.00     0.000 C 
HETATM   20  C   UNL     1     -46.872 -51.827  14.931  1.00  0.00     0.000 C 
HETATM   21  C   UNL     1     -46.339 -51.424  13.551  1.00  0.00     0.000 C 
HETATM   22  C   UNL     1     -46.027 -52.586  12.605  1.00  0.00     0.002 C 
HETATM   23  C   UNL     1     -44.543 -52.963  12.501  1.00  0.00     0.025 C 
ENDBRANCH   4  16
TORSDOF 4
ENDMDL
MODEL 8
REMARK VINA RESULT:      -5.9      3.521      5.475
REMARK  4 active torsions:
REMARK  status: ('A' for Active; 'I' for Inactive)
REMARK       I    between atoms: C_2  and  N_3 
REMARK       I    between atoms: C_2  and  N_13 
REMARK    1  A    between atoms: N_3  and  C_4 
REMARK    2  A    between atoms: C_4  and  C_5 
REMARK    3  A    between atoms: C_5  and  C_6 
REMARK    4  A    between atoms: N_13  and  C_14 
ROOT
HETATM    1  O   UNL     1     -41.469 -50.874  13.473  1.00  0.00    -0.247 OA
HETATM    2  C   UNL     1     -41.483 -51.468  12.405  1.00  0.00     0.316 C 
HETATM    3  N   UNL     1     -40.838 -51.038  11.269  1.00  0.00    -0.343 N 
HETATM    4  N   UNL     1     -42.145 -52.642  12.164  1.00  0.00    -0.339 N 
HETATM    5  H   UNL     1     -41.296 -51.316  10.413  1.00  0.00     0.164 HD
HETATM    6  H   UNL     1     -41.802 -53.169  11.376  1.00  0.00     0.164 HD
ENDROOT
BRANCH   3   7
HETATM    7  C   UNL     1     -40.163 -49.752  11.266  1.00  0.00     0.129 C 
BRANCH   7   8
HETATM    8  C   UNL     1     -38.655 -49.908  11.470  1.00  0.00     0.060 C 
BRANCH   8   9
HETATM    9  C   UNL     1     -38.223 -49.587  12.873  1.00  0.00    -0.041 A 
HETATM   10  C   UNL     1     -37.560 -50.522  13.669  1.00  0.00     0.010 A 
HETATM   11  C   UNL     1     -37.182 -50.185  14.965  1.00  0.00     0.018 A 
HETATM   12  C   UNL     1     -37.477 -48.911  15.426  1.00  0.00     0.087 A 
HETATM   13  N   UNL     1     -38.107 -47.973  14.683  1.00  0.00    -0.375 N 
HETATM   14  C   UNL     1     -38.460 -48.331  13.427  1.00  0.00     0.094 A 
ATOM     15  HN  UNL     1     -38.307 -47.043  15.052  1.00  0.00     0.164 HD
ENDBRANCH   8   9
ENDBRANCH   7   8
ENDBRANCH   3   7
BRANCH   4  16
HETATM   16  C   UNL     1     -42.920 -53.392  13.154  1.00  0.00     0.086 C 
HETATM   17  C   UNL     1     -42.047 -54.400  13.911  1.00  0.00     0.025 C 
HETATM   18  C   UNL     1     -42.620 -54.946  15.224  1.00  0.00     0.002 C 
HETATM   19  C   UNL     1     -43.314 -53.912  16.113  1.00  0.00     0.000 C 
HETATM   20  C   UNL     1     -44.845 -53.916  16.044  1.00  0.00     0.000 C 
HETATM   21  C   UNL     1     -45.519 -53.521  14.725  1.00  0.00     0.000 C 
HETATM   22  C   UNL     1     -45.262 -54.467  13.549  1.00  0.00     0.002 C 
HETATM   23  C   UNL     1     -44.195 -53.996  12.552  1.00  0.00     0.025 C 
ENDBRANCH   4  16
TORSDOF 4
ENDMDL
MODEL 9
REMARK VINA RESULT:      -5.7      2.331      3.380
REMARK  4 active torsions:
REMARK  status: ('A' for Active; 'I' for Inactive)
REMARK       I    between atoms: C_2  and  N_3 
REMARK       I    between atoms: C_2  and  N_13 
REMARK    1  A    between atoms: N_3  and  C_4 
REMARK    2  A    between atoms: C_4  and  C_5 
REMARK    3  A    between atoms: C_5  and  C_6 
REMARK    4  A    between atoms: N_13  and  C_14 
ROOT
HETATM    1  O   UNL     1     -43.113 -49.820  13.349  1.00  0.00    -0.247 OA
HETATM    2  C   UNL     1     -42.553 -50.225  12.341  1.00  0.00     0.316 C 
HETATM    3  N   UNL     1     -42.063 -49.413  11.344  1.00  0.00    -0.343 N 
HETATM    4  N   UNL     1     -42.331 -51.542  12.037  1.00  0.00    -0.339 N 
HETATM    5  H   UNL     1     -42.079 -49.839  10.429  1.00  0.00     0.164 HD
HETATM    6  H   UNL     1     -41.589 -51.705  11.375  1.00  0.00     0.164 HD
ENDROOT
BRANCH   3   7
HETATM    7  C   UNL     1     -42.289 -47.979  11.407  1.00  0.00     0.129 C 
BRANCH   7   8
HETATM    8  C   UNL     1     -41.083 -47.197  10.884  1.00  0.00     0.060 C 
BRANCH   8   9
HETATM    9  C   UNL     1     -41.256 -45.710  11.010  1.00  0.00    -0.041 A 
HETATM   10  C   UNL     1     -40.168 -44.837  10.954  1.00  0.00     0.010 A 
HETATM   11  C   UNL     1     -40.373 -43.467  11.081  1.00  0.00     0.018 A 
HETATM   12  C   UNL     1     -41.670 -43.009  11.256  1.00  0.00     0.087 A 
HETATM   13  N   UNL     1     -42.751 -43.820  11.305  1.00  0.00    -0.375 N 
HETATM   14  C   UNL     1     -42.519 -45.147  11.176  1.00  0.00     0.094 A 
ATOM     15  HN  UNL     1     -43.693 -43.449  11.432  1.00  0.00     0.164 HD
ENDBRANCH   8   9
ENDBRANCH   7   8
ENDBRANCH   3   7
BRANCH   4  16
HETATM   16  C   UNL     1     -42.704 -52.677  12.883  1.00  0.00     0.086 C 
HETATM   17  C   UNL     1     -41.508 -53.598  13.154  1.00  0.00     0.025 C 
HETATM   18  C   UNL     1     -41.652 -54.573  14.328  1.00  0.00     0.002 C 
HETATM   19  C   UNL     1     -42.302 -53.990  15.585  1.00  0.00     0.000 C 
HETATM   20  C   UNL     1     -43.779 -54.346  15.779  1.00  0.00     0.000 C 
HETATM   21  C   UNL     1     -44.800 -53.813  14.767  1.00  0.00     0.000 C 
HETATM   22  C   UNL     1     -44.650 -54.350  13.341  1.00  0.00     0.002 C 
HETATM   23  C   UNL     1     -43.949 -53.404  12.358  1.00  0.00     0.025 C 
ENDBRANCH   4  16
TORSDOF 4
ENDMDL
