MODEL 1
REMARK VINA RESULT:      -6.6      0.000      0.000
REMARK  4 active torsions:
REMARK  status: ('A' for Active; 'I' for Inactive)
REMARK    1  A    between atoms: C_5  and  N_6 
REMARK       I    between atoms: N_6  and  C_7 
REMARK       I    between atoms: C_7  and  N_9 
REMARK    2  A    between atoms: N_9  and  C_10 
REMARK    3  A    between atoms: C_10  and  C_11 
REMARK    4  A    between atoms: C_11  and  C_12 
REMARK       I    between atoms: C_12  and  N_14 
ROOT
HETATM    1  N   UNL     1     -40.873 -48.518  10.648  1.00  0.00    -0.295 N 
HETATM    2  C   UNL     1     -40.460 -49.722  11.129  1.00  0.00     0.321 C 
HETATM    3  O   UNL     1     -39.268 -49.890  11.379  1.00  0.00    -0.247 OA
HETATM    4  N   UNL     1     -41.425 -50.648  11.389  1.00  0.00    -0.342 N 
HETATM    5  H   UNL     1     -40.129 -47.837  10.619  1.00  0.00     0.172 HD
HETATM    6  H   UNL     1     -42.282 -50.499  10.857  1.00  0.00     0.164 HD
ENDROOT
BRANCH   1   7
HETATM    7  C   UNL     1     -42.144 -48.135  10.221  1.00  0.00     0.108 A 
HETATM    8  C   UNL     1     -43.078 -47.802  11.195  1.00  0.00     0.049 A 
HETATM    9  C   UNL     1     -44.355 -47.408  10.799  1.00  0.00     0.012 A 
HETATM   10  C   UNL     1     -44.656 -47.319   9.441  1.00  0.00    -0.046 A 
HETATM   11  C   UNL     1     -45.998 -46.878   8.952  1.00  0.00     0.049 C 
HETATM   12  C   UNL     1     -43.656 -47.662   8.542  1.00  0.00     0.096 A 
HETATM   13  N   UNL     1     -42.421 -48.079   8.899  1.00  0.00    -0.352 N 
ATOM     14  HN  UNL     1     -41.725 -48.340   8.200  1.00  0.00     0.166 HD
ENDBRANCH   1   7
BRANCH   4  15
HETATM   15  C   UNL     1     -41.099 -51.980  11.854  1.00  0.00     0.133 C 
BRANCH  15  16
HETATM   16  C   UNL     1     -41.720 -52.287  13.214  1.00  0.00     0.122 C 
BRANCH  16  17
HETATM   17  C   UNL     1     -42.933 -51.403  13.452  1.00  0.00     0.221 C 
HETATM   18  O   UNL     1     -42.799 -50.229  13.799  1.00  0.00    -0.273 OA
HETATM   19  N   UNL     1     -44.188 -51.972  13.285  1.00  0.00    -0.352 N 
HETATM   20  C   UNL     1     -45.375 -51.142  13.493  1.00  0.00     0.125 C 
HETATM   21  C   UNL     1     -44.461 -53.343  12.861  1.00  0.00     0.125 C 
HETATM   22  C   UNL     1     -46.322 -51.791  14.500  1.00  0.00     0.020 C 
HETATM   23  C   UNL     1     -46.651 -53.229  14.106  1.00  0.00     0.003 C 
HETATM   24  C   UNL     1     -45.377 -54.038  13.867  1.00  0.00     0.020 C 
ENDBRANCH  16  17
ENDBRANCH  15  16
ENDBRANCH   4  15
TORSDOF 4
ENDMDL
MODEL 2
REMARK VINA RESULT:      -6.2      1.841      2.613
REMARK  4 active torsions:
REMARK  status: ('A' for Active; 'I' for Inactive)
REMARK    1  A    between atoms: C_5  and  N_6 
REMARK       I    between atoms: N_6  and  C_7 
REMARK       I    between atoms: C_7  and  N_9 
REMARK    2  A    between atoms: N_9  and  C_10 
REMARK    3  A    between atoms: C_10  and  C_11 
REMARK    4  A    between atoms: C_11  and  C_12 
REMARK       I    between atoms: C_12  and  N_14 
ROOT
HETATM    1  N   UNL     1     -40.086 -50.571  12.544  1.00  0.00    -0.295 N 
HETATM    2  C   UNL     1     -40.176 -51.900  12.820  1.00  0.00     0.321 C 
HETATM    3  O   UNL     1     -39.191 -52.488  13.261  1.00  0.00    -0.247 OA
HETATM    4  N   UNL     1     -41.399 -52.481  12.668  1.00  0.00    -0.342 N 
HETATM    5  H   UNL     1     -39.197 -50.179  12.818  1.00  0.00     0.172 HD
HETATM    6  H   UNL     1     -42.007 -51.980  12.021  1.00  0.00     0.164 HD
ENDROOT
BRANCH   1   7
HETATM    7  C   UNL     1     -41.035 -49.729  11.965  1.00  0.00     0.108 A 
HETATM    8  C   UNL     1     -42.125 -49.356  12.743  1.00  0.00     0.049 A 
HETATM    9  C   UNL     1     -43.087 -48.510  12.195  1.00  0.00     0.012 A 
HETATM   10  C   UNL     1     -42.920 -48.028  10.898  1.00  0.00    -0.046 A 
HETATM   11  C   UNL     1     -43.903 -47.098  10.263  1.00  0.00     0.049 C 
HETATM   12  C   UNL     1     -41.795 -48.448  10.202  1.00  0.00     0.096 A 
HETATM   13  N   UNL     1     -40.864 -49.293  10.698  1.00  0.00    -0.352 N 
ATOM     14  HN  UNL     1     -40.064 -49.590  10.138  1.00  0.00     0.166 HD
ENDBRANCH   1   7
BRANCH   4  15
HETATM   15  C   UNL     1     -41.602 -53.899  12.882  1.00  0.00     0.133 C 
BRANCH  15  16
HETATM   16  C   UNL     1     -42.679 -54.179  13.927  1.00  0.00     0.122 C 
BRANCH  16  17
HETATM   17  C   UNL     1     -44.047 -53.796  13.390  1.00  0.00     0.221 C 
HETATM   18  O   UNL     1     -44.313 -53.923  12.193  1.00  0.00    -0.273 OA
HETATM   19  N   UNL     1     -44.973 -53.280  14.287  1.00  0.00    -0.352 N 
HETATM   20  C   UNL     1     -46.304 -52.915  13.801  1.00  0.00     0.125 C 
HETATM   21  C   UNL     1     -44.769 -53.103  15.723  1.00  0.00     0.125 C 
HETATM   22  C   UNL     1     -46.641 -51.473  14.173  1.00  0.00     0.020 C 
HETATM   23  C   UNL     1     -46.455 -51.227  15.669  1.00  0.00     0.003 C 
HETATM   24  C   UNL     1     -45.062 -51.659  16.127  1.00  0.00     0.020 C 
ENDBRANCH  16  17
ENDBRANCH  15  16
ENDBRANCH   4  15
TORSDOF 4
ENDMDL
MODEL 3
REMARK VINA RESULT:      -6.2      2.966      3.912
REMARK  4 active torsions:
REMARK  status: ('A' for Active; 'I' for Inactive)
REMARK    1  A    between atoms: C_5  and  N_6 
REMARK       I    between atoms: N_6  and  C_7 
REMARK       I    between atoms: C_7  and  N_9 
REMARK    2  A    between atoms: N_9  and  C_10 
REMARK    3  A    between atoms: C_10  and  C_11 
REMARK    4  A    between atoms: C_11  and  C_12 
REMARK       I    between atoms: C_12  and  N_14 
ROOT
HETATM    1  N   UNL     1     -41.997 -46.164   9.837  1.00  0.00    -0.295 N 
HETATM    2  C   UNL     1     -40.963 -46.628  10.591  1.00  0.00     0.321 C 
HETATM    3  O   UNL     1     -40.043 -45.865  10.877  1.00  0.00    -0.247 OA
HETATM    4  N   UNL     1     -41.063 -47.904  11.057  1.00  0.00    -0.342 N 
HETATM    5  H   UNL     1     -41.927 -45.174   9.652  1.00  0.00     0.172 HD
HETATM    6  H   UNL     1     -41.685 -48.490  10.502  1.00  0.00     0.164 HD
ENDROOT
BRANCH   1   7
HETATM    7  C   UNL     1     -43.091 -46.861   9.326  1.00  0.00     0.108 A 
HETATM    8  C   UNL     1     -44.259 -46.867  10.079  1.00  0.00     0.049 A 
HETATM    9  C   UNL     1     -45.372 -47.550   9.591  1.00  0.00     0.012 A 
HETATM   10  C   UNL     1     -45.304 -48.177   8.349  1.00  0.00    -0.046 A 
HETATM   11  C   UNL     1     -46.470 -48.904   7.759  1.00  0.00     0.049 C 
HETATM   12  C   UNL     1     -44.097 -48.109   7.666  1.00  0.00     0.096 A 
HETATM   13  N   UNL     1     -42.993 -47.482   8.130  1.00  0.00    -0.352 N 
ATOM     14  HN  UNL     1     -42.122 -47.478   7.599  1.00  0.00     0.166 HD
ENDBRANCH   1   7
BRANCH   4  15
HETATM   15  C   UNL     1     -40.000 -48.520  11.825  1.00  0.00     0.133 C 
BRANCH  15  16
HETATM   16  C   UNL     1     -39.688 -49.937  11.350  1.00  0.00     0.122 C 
BRANCH  16  17
HETATM   17  C   UNL     1     -38.937 -50.700  12.428  1.00  0.00     0.221 C 
HETATM   18  O   UNL     1     -37.729 -50.525  12.598  1.00  0.00    -0.273 OA
HETATM   19  N   UNL     1     -39.653 -51.611  13.192  1.00  0.00    -0.352 N 
HETATM   20  C   UNL     1     -38.959 -52.351  14.247  1.00  0.00     0.125 C 
HETATM   21  C   UNL     1     -41.084 -51.883  13.086  1.00  0.00     0.125 C 
HETATM   22  C   UNL     1     -39.164 -53.855  14.080  1.00  0.00     0.020 C 
HETATM   23  C   UNL     1     -40.647 -54.205  13.971  1.00  0.00     0.003 C 
HETATM   24  C   UNL     1     -41.327 -53.378  12.880  1.00  0.00     0.020 C 
ENDBRANCH  16  17
ENDBRANCH  15  16
ENDBRANCH   4  15
TORSDOF 4
ENDMDL
MODEL 4
REMARK VINA RESULT:      -6.1      1.979      6.180
REMARK  4 active torsions:
REMARK  status: ('A' for Active; 'I' for Inactive)
REMARK    1  A    between atoms: C_5  and  N_6 
REMARK       I    between atoms: N_6  and  C_7 
REMARK       I    between atoms: C_7  and  N_9 
REMARK    2  A    between atoms: N_9  and  C_10 
REMARK    3  A    between atoms: C_10  and  C_11 
REMARK    4  A    between atoms: C_11  and  C_12 
REMARK       I    between atoms: C_12  and  N_14 
ROOT
HETATM    1  N   UNL     1     -40.941 -51.656  11.456  1.00  0.00    -0.295 N 
HETATM    2  C   UNL     1     -40.621 -50.366  11.750  1.00  0.00     0.321 C 
HETATM    3  O   UNL     1     -39.780 -49.788  11.067  1.00  0.00    -0.247 OA
HETATM    4  N   UNL     1     -41.332 -49.765  12.745  1.00  0.00    -0.342 N 
HETATM    5  H   UNL     1     -40.483 -51.986  10.620  1.00  0.00     0.172 HD
HETATM    6  H   UNL     1     -41.744 -50.425  13.404  1.00  0.00     0.164 HD
ENDROOT
BRANCH   1   7
HETATM    7  C   UNL     1     -41.792 -52.525  12.138  1.00  0.00     0.108 A 
HETATM    8  C   UNL     1     -41.254 -53.264  13.185  1.00  0.00     0.049 A 
HETATM    9  C   UNL     1     -42.082 -54.136  13.890  1.00  0.00     0.012 A 
HETATM   10  C   UNL     1     -43.433 -54.221  13.558  1.00  0.00    -0.046 A 
HETATM   11  C   UNL     1     -44.378 -55.117  14.293  1.00  0.00     0.049 C 
HETATM   12  C   UNL     1     -43.881 -53.437  12.504  1.00  0.00     0.096 A 
HETATM   13  N   UNL     1     -43.093 -52.608  11.783  1.00  0.00    -0.352 N 
ATOM     14  HN  UNL     1     -43.466 -52.067  11.002  1.00  0.00     0.166 HD
ENDBRANCH   1   7
BRANCH   4  15
HETATM   15  C   UNL     1     -41.044 -48.413  13.179  1.00  0.00     0.133 C 
BRANCH  15  16
HETATM   16  C   UNL     1     -42.287 -47.529  13.183  1.00  0.00     0.122 C 
BRANCH  16  17
HETATM   17  C   UNL     1     -42.162 -46.438  12.133  1.00  0.00     0.221 C 
HETATM   18  O   UNL     1     -41.594 -45.375  12.393  1.00  0.00    -0.273 OA
HETATM   19  N   UNL     1     -42.727 -46.673  10.887  1.00  0.00    -0.352 N 
HETATM   20  C   UNL     1     -42.611 -45.645   9.851  1.00  0.00     0.125 C 
HETATM   21  C   UNL     1     -43.406 -47.897  10.469  1.00  0.00     0.125 C 
HETATM   22  C   UNL     1     -43.983 -45.282   9.291  1.00  0.00     0.020 C 
HETATM   23  C   UNL     1     -44.742 -46.524   8.828  1.00  0.00     0.003 C 
HETATM   24  C   UNL     1     -44.801 -47.575   9.936  1.00  0.00     0.020 C 
ENDBRANCH  16  17
ENDBRANCH  15  16
ENDBRANCH   4  15
TORSDOF 4
ENDMDL
MODEL 5
REMARK VINA RESULT:      -6.0      2.429      3.257
REMARK  4 active torsions:
REMARK  status: ('A' for Active; 'I' for Inactive)
REMARK    1  A    between atoms: C_5  and  N_6 
REMARK       I    between atoms: N_6  and  C_7 
REMARK       I    between atoms: C_7  and  N_9 
REMARK    2  A    between atoms: N_9  and  C_10 
REMARK    3  A    between atoms: C_10  and  C_11 
REMARK    4  A    between atoms: C_11  and  C_12 
REMARK       I    between atoms: C_12  and  N_14 
ROOT
HETATM    1  N   UNL     1     -39.001 -51.371  12.757  1.00  0.00    -0.295 N 
HETATM    2  C   UNL     1     -39.507 -52.385  13.510  1.00  0.00     0.321 C 
HETATM    3  O   UNL     1     -38.783 -53.336  13.795  1.00  0.00    -0.247 OA
HETATM    4  N   UNL     1     -40.777 -52.233  13.979  1.00  0.00    -0.342 N 
HETATM    5  H   UNL     1     -38.016 -51.481  12.570  1.00  0.00     0.172 HD
HETATM    6  H   UNL     1     -41.338 -51.587  13.425  1.00  0.00     0.164 HD
ENDROOT
BRANCH   1   7
HETATM    7  C   UNL     1     -39.654 -50.248  12.248  1.00  0.00     0.108 A 
HETATM    8  C   UNL     1     -39.295 -49.007  12.760  1.00  0.00     0.049 A 
HETATM    9  C   UNL     1     -39.924 -47.866  12.266  1.00  0.00     0.012 A 
HETATM   10  C   UNL     1     -40.868 -47.987  11.249  1.00  0.00    -0.046 A 
HETATM   11  C   UNL     1     -41.559 -46.800  10.659  1.00  0.00     0.049 C 
HETATM   12  C   UNL     1     -41.154 -49.267  10.795  1.00  0.00     0.096 A 
HETATM   13  N   UNL     1     -40.583 -50.393  11.278  1.00  0.00    -0.352 N 
ATOM     14  HN  UNL     1     -40.843 -51.314  10.925  1.00  0.00     0.166 HD
ENDBRANCH   1   7
BRANCH   4  15
HETATM   15  C   UNL     1     -41.435 -53.269  14.747  1.00  0.00     0.133 C 
BRANCH  15  16
HETATM   16  C   UNL     1     -42.336 -54.148  13.883  1.00  0.00     0.122 C 
BRANCH  16  17
HETATM   17  C   UNL     1     -43.308 -53.288  13.091  1.00  0.00     0.221 C 
HETATM   18  O   UNL     1     -42.918 -52.609  12.140  1.00  0.00    -0.273 OA
HETATM   19  N   UNL     1     -44.637 -53.281  13.492  1.00  0.00    -0.352 N 
HETATM   20  C   UNL     1     -45.599 -52.474  12.740  1.00  0.00     0.125 C 
HETATM   21  C   UNL     1     -45.208 -54.058  14.590  1.00  0.00     0.125 C 
HETATM   22  C   UNL     1     -46.359 -51.531  13.669  1.00  0.00     0.020 C 
HETATM   23  C   UNL     1     -46.987 -52.288  14.838  1.00  0.00     0.003 C 
HETATM   24  C   UNL     1     -45.946 -53.140  15.563  1.00  0.00     0.020 C 
ENDBRANCH  16  17
ENDBRANCH  15  16
ENDBRANCH   4  15
TORSDOF 4
ENDMDL
MODEL 6
REMARK VINA RESULT:      -5.9      3.440      6.253
REMARK  4 active torsions:
REMARK  status: ('A' for Active; 'I' for Inactive)
REMARK    1  A    between atoms: C_5  and  N_6 
REMARK       I    between atoms: N_6  and  C_7 
REMARK       I    between atoms: C_7  and  N_9 
REMARK    2  A    between atoms: N_9  and  C_10 
REMARK    3  A    between atoms: C_10  and  C_11 
REMARK    4  A    between atoms: C_11  and  C_12 
REMARK       I    between atoms: C_12  and  N_14 
ROOT
HETATM    1  N   UNL     1     -44.240 -53.122  15.911  1.00  0.00    -0.295 N 
HETATM    2  C   UNL     1     -42.947 -53.539  15.993  1.00  0.00     0.321 C 
HETATM    3  O   UNL     1     -42.449 -53.726  17.100  1.00  0.00    -0.247 OA
HETATM    4  N   UNL     1     -42.310 -53.809  14.820  1.00  0.00    -0.342 N 
HETATM    5  H   UNL     1     -44.692 -53.084  16.813  1.00  0.00     0.172 HD
HETATM    6  H   UNL     1     -42.713 -53.324  14.019  1.00  0.00     0.164 HD
ENDROOT
BRANCH   1   7
HETATM    7  C   UNL     1     -44.977 -52.769  14.781  1.00  0.00     0.108 A 
HETATM    8  C   UNL     1     -45.955 -51.792  14.928  1.00  0.00     0.049 A 
HETATM    9  C   UNL     1     -46.702 -51.413  13.815  1.00  0.00     0.012 A 
HETATM   10  C   UNL     1     -46.432 -51.991  12.576  1.00  0.00    -0.046 A 
HETATM   11  C   UNL     1     -47.181 -51.609  11.340  1.00  0.00     0.049 C 
HETATM   12  C   UNL     1     -45.431 -52.951  12.525  1.00  0.00     0.096 A 
HETATM   13  N   UNL     1     -44.713 -53.360  13.595  1.00  0.00    -0.352 N 
ATOM     14  HN  UNL     1     -44.001 -54.085  13.510  1.00  0.00     0.166 HD
ENDBRANCH   1   7
BRANCH   4  15
HETATM   15  C   UNL     1     -40.918 -54.209  14.783  1.00  0.00     0.133 C 
BRANCH  15  16
HETATM   16  C   UNL     1     -40.286 -53.982  13.412  1.00  0.00     0.122 C 
BRANCH  16  17
HETATM   17  C   UNL     1     -40.721 -52.640  12.847  1.00  0.00     0.221 C 
HETATM   18  O   UNL     1     -41.800 -52.521  12.263  1.00  0.00    -0.273 OA
HETATM   19  N   UNL     1     -39.852 -51.567  12.992  1.00  0.00    -0.352 N 
HETATM   20  C   UNL     1     -40.250 -50.259  12.470  1.00  0.00     0.125 C 
HETATM   21  C   UNL     1     -38.562 -51.593  13.677  1.00  0.00     0.125 C 
HETATM   22  C   UNL     1     -39.182 -49.702  11.532  1.00  0.00     0.020 C 
HETATM   23  C   UNL     1     -37.806 -49.695  12.197  1.00  0.00     0.003 C 
HETATM   24  C   UNL     1     -37.460 -51.076  12.754  1.00  0.00     0.020 C 
ENDBRANCH  16  17
ENDBRANCH  15  16
ENDBRANCH   4  15
TORSDOF 4
ENDMDL
MODEL 7
REMARK VINA RESULT:      -5.9      2.072      2.833
REMARK  4 active torsions:
REMARK  status: ('A' for Active; 'I' for Inactive)
REMARK    1  A    between atoms: C_5  and  N_6 
REMARK       I    between atoms: N_6  and  C_7 
REMARK       I    between atoms: C_7  and  N_9 
REMARK    2  A    between atoms: N_9  and  C_10 
REMARK    3  A    between atoms: C_10  and  C_11 
REMARK    4  A    between atoms: C_11  and  C_12 
REMARK       I    between atoms: C_12  and  N_14 
ROOT
HETATM    1  N   UNL     1     -38.516 -49.815  11.766  1.00  0.00    -0.295 N 
HETATM    2  C   UNL     1     -38.469 -50.925  12.552  1.00  0.00     0.321 C 
HETATM    3  O   UNL     1     -37.433 -51.584  12.594  1.00  0.00    -0.247 OA
HETATM    4  N   UNL     1     -39.564 -51.186  13.319  1.00  0.00    -0.342 N 
HETATM    5  H   UNL     1     -37.625 -49.603  11.342  1.00  0.00     0.172 HD
HETATM    6  H   UNL     1     -40.421 -50.767  12.958  1.00  0.00     0.164 HD
ENDROOT
BRANCH   1   7
HETATM    7  C   UNL     1     -39.597 -48.975  11.501  1.00  0.00     0.108 A 
HETATM    8  C   UNL     1     -39.582 -47.706  12.069  1.00  0.00     0.049 A 
HETATM    9  C   UNL     1     -40.645 -46.841  11.816  1.00  0.00     0.012 A 
HETATM   10  C   UNL     1     -41.677 -47.248  10.974  1.00  0.00    -0.046 A 
HETATM   11  C   UNL     1     -42.831 -46.358  10.643  1.00  0.00     0.049 C 
HETATM   12  C   UNL     1     -41.601 -48.529  10.445  1.00  0.00     0.096 A 
HETATM   13  N   UNL     1     -40.599 -49.400  10.699  1.00  0.00    -0.352 N 
ATOM     14  HN  UNL     1     -40.598 -50.340  10.303  1.00  0.00     0.166 HD
ENDBRANCH   1   7
BRANCH   4  15
HETATM   15  C   UNL     1     -39.646 -52.366  14.154  1.00  0.00     0.133 C 
BRANCH  15  16
HETATM   16  C   UNL     1     -40.216 -53.568  13.405  1.00  0.00     0.122 C 
BRANCH  16  17
HETATM   17  C   UNL     1     -41.507 -53.187  12.701  1.00  0.00     0.221 C 
HETATM   18  O   UNL     1     -41.495 -52.437  11.723  1.00  0.00    -0.273 OA
HETATM   19  N   UNL     1     -42.695 -53.695  13.212  1.00  0.00    -0.352 N 
HETATM   20  C   UNL     1     -43.954 -53.356  12.547  1.00  0.00     0.125 C 
HETATM   21  C   UNL     1     -42.822 -54.601  14.350  1.00  0.00     0.125 C 
HETATM   22  C   UNL     1     -44.950 -52.764  13.540  1.00  0.00     0.020 C 
HETATM   23  C   UNL     1     -45.132 -53.673  14.754  1.00  0.00     0.003 C 
HETATM   24  C   UNL     1     -43.784 -54.022  15.385  1.00  0.00     0.020 C 
ENDBRANCH  16  17
ENDBRANCH  15  16
ENDBRANCH   4  15
TORSDOF 4
ENDMDL
MODEL 8
REMARK VINA RESULT:      -5.8      2.963      7.059
REMARK  4 active torsions:
REMARK  status: ('A' for Active; 'I' for Inactive)
REMARK    1  A    between atoms: C_5  and  N_6 
REMARK       I    between atoms: N_6  and  C_7 
REMARK       I    between atoms: C_7  and  N_9 
REMARK    2  A    between atoms: N_9  and  C_10 
REMARK    3  A    between atoms: C_10  and  C_11 
REMARK    4  A    between atoms: C_11  and  C_12 
REMARK       I    between atoms: C_12  and  N_14 
ROOT
HETATM    1  N   UNL     1     -40.935 -51.663  11.441  1.00  0.00    -0.295 N 
HETATM    2  C   UNL     1     -40.460 -50.448  11.830  1.00  0.00     0.321 C 
HETATM    3  O   UNL     1     -39.612 -49.889  11.138  1.00  0.00    -0.247 OA
HETATM    4  N   UNL     1     -41.029 -49.887  12.933  1.00  0.00    -0.342 N 
HETATM    5  H   UNL     1     -40.577 -51.948  10.542  1.00  0.00     0.172 HD
HETATM    6  H   UNL     1     -41.461 -50.567  13.557  1.00  0.00     0.164 HD
ENDROOT
BRANCH   1   7
HETATM    7  C   UNL     1     -41.824 -52.509  12.104  1.00  0.00     0.108 A 
HETATM    8  C   UNL     1     -41.307 -53.341  13.090  1.00  0.00     0.049 A 
HETATM    9  C   UNL     1     -42.171 -54.193  13.775  1.00  0.00     0.012 A 
HETATM   10  C   UNL     1     -43.534 -54.167  13.486  1.00  0.00    -0.046 A 
HETATM   11  C   UNL     1     -44.516 -55.037  14.203  1.00  0.00     0.049 C 
HETATM   12  C   UNL     1     -43.958 -53.296  12.493  1.00  0.00     0.096 A 
HETATM   13  N   UNL     1     -43.138 -52.483  11.790  1.00  0.00    -0.352 N 
ATOM     14  HN  UNL     1     -43.496 -51.874  11.054  1.00  0.00     0.166 HD
ENDBRANCH   1   7
BRANCH   4  15
HETATM   15  C   UNL     1     -40.568 -48.622  13.468  1.00  0.00     0.133 C 
BRANCH  15  16
HETATM   16  C   UNL     1     -41.686 -47.586  13.553  1.00  0.00     0.122 C 
BRANCH  16  17
HETATM   17  C   UNL     1     -41.739 -46.764  12.276  1.00  0.00     0.221 C 
HETATM   18  O   UNL     1     -41.928 -47.304  11.185  1.00  0.00    -0.273 OA
HETATM   19  N   UNL     1     -41.547 -45.393  12.383  1.00  0.00    -0.352 N 
HETATM   20  C   UNL     1     -41.607 -44.573  11.172  1.00  0.00     0.125 C 
HETATM   21  C   UNL     1     -41.333 -44.649  13.622  1.00  0.00     0.125 C 
HETATM   22  C   UNL     1     -40.345 -43.725  11.028  1.00  0.00     0.020 C 
HETATM   23  C   UNL     1     -40.071 -42.916  12.294  1.00  0.00     0.003 C 
HETATM   24  C   UNL     1     -40.055 -43.817  13.529  1.00  0.00     0.020 C 
ENDBRANCH  16  17
ENDBRANCH  15  16
ENDBRANCH   4  15
TORSDOF 4
ENDMDL
MODEL 9
REMARK VINA RESULT:      -5.7      3.464      6.095
REMARK  4 active torsions:
REMARK  status: ('A' for Active; 'I' for Inactive)
REMARK    1  A    between atoms: C_5  and  N_6 
REMARK       I    between atoms: N_6  and  C_7 
REMARK       I    between atoms: C_7  and  N_9 
REMARK    2  A    between atoms: N_9  and  C_10 
REMARK    3  A    between atoms: C_10  and  C_11 
REMARK    4  A    between atoms: C_11  and  C_12 
REMARK       I    between atoms: C_12  and  N_14 
ROOT
HETATM    1  N   UNL     1     -41.819 -53.722  12.561  1.00  0.00    -0.295 N 
HETATM    2  C   UNL     1     -40.739 -53.789  13.387  1.00  0.00     0.321 C 
HETATM    3  O   UNL     1     -39.743 -54.410  13.020  1.00  0.00    -0.247 OA
HETATM    4  N   UNL     1     -40.803 -53.078  14.546  1.00  0.00    -0.342 N 
HETATM    5  H   UNL     1     -41.645 -54.148  11.662  1.00  0.00     0.172 HD
HETATM    6  H   UNL     1     -41.757 -52.889  14.853  1.00  0.00     0.164 HD
ENDROOT
BRANCH   1   7
HETATM    7  C   UNL     1     -43.070 -53.154  12.799  1.00  0.00     0.108 A 
HETATM    8  C   UNL     1     -44.143 -54.016  12.988  1.00  0.00     0.049 A 
HETATM    9  C   UNL     1     -45.405 -53.477  13.236  1.00  0.00     0.012 A 
HETATM   10  C   UNL     1     -45.557 -52.095  13.325  1.00  0.00    -0.046 A 
HETATM   11  C   UNL     1     -46.878 -51.457  13.612  1.00  0.00     0.049 C 
HETATM   12  C   UNL     1     -44.425 -51.315  13.131  1.00  0.00     0.096 A 
HETATM   13  N   UNL     1     -43.197 -51.810  12.858  1.00  0.00    -0.352 N 
ATOM     14  HN  UNL     1     -42.399 -51.194  12.702  1.00  0.00     0.166 HD
ENDBRANCH   1   7
BRANCH   4  15
HETATM   15  C   UNL     1     -39.735 -53.116  15.524  1.00  0.00     0.133 C 
BRANCH  15  16
HETATM   16  C   UNL     1     -39.305 -51.720  15.968  1.00  0.00     0.122 C 
BRANCH  16  17
HETATM   17  C   UNL     1     -39.819 -50.675  14.991  1.00  0.00     0.221 C 
HETATM   18  O   UNL     1     -40.997 -50.315  15.014  1.00  0.00    -0.273 OA
HETATM   19  N   UNL     1     -38.922 -50.162  14.063  1.00  0.00    -0.352 N 
HETATM   20  C   UNL     1     -39.384 -49.145  13.119  1.00  0.00     0.125 C 
HETATM   21  C   UNL     1     -37.505 -50.505  13.958  1.00  0.00     0.125 C 
HETATM   22  C   UNL     1     -39.083 -49.562  11.681  1.00  0.00     0.020 C 
HETATM   23  C   UNL     1     -37.610 -49.927  11.505  1.00  0.00     0.003 C 
HETATM   24  C   UNL     1     -37.174 -50.965  12.539  1.00  0.00     0.020 C 
ENDBRANCH  16  17
ENDBRANCH  15  16
ENDBRANCH   4  15
TORSDOF 4
ENDMDL
