MODEL 1
REMARK VINA RESULT:      -6.6      0.000      0.000
REMARK  5 active torsions:
REMARK  status: ('A' for Active; 'I' for Inactive)
REMARK    1  A    between atoms: N_4  and  S_9 
REMARK    2  A    between atoms: S_9  and  C_12 
REMARK    3  A    between atoms: C_12  and  C_13 
REMARK    4  A    between atoms: C_13  and  N_14 
REMARK       I    between atoms: N_14  and  C_15 
REMARK       I    between atoms: C_15  and  N_17 
REMARK    5  A    between atoms: N_17  and  C_18 
ROOT
HETATM    1  C   UNL     1     -40.086 -50.498  11.863  1.00  0.00     0.140 C 
ENDROOT
BRANCH   1   2
HETATM    2  C   UNL     1     -40.169 -49.070  11.353  1.00  0.00     0.177 C 
BRANCH   2   3
HETATM    3  S   UNL     1     -41.391 -48.207  12.358  1.00  0.00     0.213 S 
HETATM    4  O   UNL     1     -41.069 -48.422  13.750  1.00  0.00    -0.211 OA
HETATM    5  O   UNL     1     -42.708 -48.513  11.841  1.00  0.00    -0.211 OA
BRANCH   3   6
HETATM    6  N   UNL     1     -41.123 -46.544  12.043  1.00  0.00    -0.206 NA
HETATM    7  C   UNL     1     -42.348 -45.747  11.719  1.00  0.00     0.138 C 
HETATM    8  C   UNL     1     -41.991 -44.278  11.424  1.00  0.00     0.132 C 
HETATM    9  C   UNL     1     -41.531 -43.507  12.661  1.00  0.00     0.041 C 
HETATM   10  O   UNL     1     -41.036 -44.175  10.360  1.00  0.00    -0.379 OA
HETATM   11  C   UNL     1     -39.829 -44.910  10.616  1.00  0.00     0.132 C 
HETATM   12  C   UNL     1     -40.123 -46.390  10.911  1.00  0.00     0.138 C 
HETATM   13  C   UNL     1     -38.954 -44.774   9.375  1.00  0.00     0.041 C 
ENDBRANCH   3   6
ENDBRANCH   2   3
ENDBRANCH   1   2
BRANCH   1  14
HETATM   14  N   UNL     1     -41.140 -51.390  11.388  1.00  0.00    -0.342 N 
HETATM   15  C   UNL     1     -41.965 -51.915  12.372  1.00  0.00     0.320 C 
HETATM   16  O   UNL     1     -41.772 -51.690  13.560  1.00  0.00    -0.247 OA
HETATM   17  N   UNL     1     -42.964 -52.707  11.853  1.00  0.00    -0.308 N 
HETATM   18  H   UNL     1     -42.793 -53.087  10.934  1.00  0.00     0.170 HD
HETATM   19  H   UNL     1     -41.626 -51.135  10.539  1.00  0.00     0.164 HD
BRANCH  17  20
HETATM   20  C   UNL     1     -43.980 -53.319  12.631  1.00  0.00     0.051 A 
HETATM   21  C   UNL     1     -43.760 -54.421  13.457  1.00  0.00     0.032 A 
HETATM   22  C   UNL     1     -44.820 -54.998  14.156  1.00  0.00     0.019 A 
HETATM   23  C   UNL     1     -46.078 -54.440  14.019  1.00  0.00     0.088 A 
HETATM   24  N   UNL     1     -46.334 -53.352  13.263  1.00  0.00    -0.373 N 
HETATM   25  C   UNL     1     -45.281 -52.817  12.593  1.00  0.00     0.117 A 
ATOM     26  HN  UNL     1     -47.270 -52.952  13.197  1.00  0.00     0.164 HD
ENDBRANCH  17  20
ENDBRANCH   1  14
TORSDOF 5
ENDMDL
MODEL 2
REMARK VINA RESULT:      -6.4      1.295      1.979
REMARK  5 active torsions:
REMARK  status: ('A' for Active; 'I' for Inactive)
REMARK    1  A    between atoms: N_4  and  S_9 
REMARK    2  A    between atoms: S_9  and  C_12 
REMARK    3  A    between atoms: C_12  and  C_13 
REMARK    4  A    between atoms: C_13  and  N_14 
REMARK       I    between atoms: N_14  and  C_15 
REMARK       I    between atoms: C_15  and  N_17 
REMARK    5  A    between atoms: N_17  and  C_18 
ROOT
HETATM    1  C   UNL     1     -40.476 -51.299  11.972  1.00  0.00     0.140 C 
ENDROOT
BRANCH   1   2
HETATM    2  C   UNL     1     -40.191 -49.961  11.312  1.00  0.00     0.177 C 
BRANCH   2   3
HETATM    3  S   UNL     1     -41.008 -48.689  12.292  1.00  0.00     0.213 S 
HETATM    4  O   UNL     1     -40.171 -48.384  13.431  1.00  0.00    -0.211 OA
HETATM    5  O   UNL     1     -42.395 -49.065  12.466  1.00  0.00    -0.211 OA
BRANCH   3   6
HETATM    6  N   UNL     1     -41.005 -47.297  11.295  1.00  0.00    -0.206 NA
HETATM    7  C   UNL     1     -40.695 -46.008  11.992  1.00  0.00     0.138 C 
HETATM    8  C   UNL     1     -40.750 -44.821  11.013  1.00  0.00     0.132 C 
HETATM    9  C   UNL     1     -39.605 -44.819  10.000  1.00  0.00     0.041 C 
HETATM   10  O   UNL     1     -42.024 -44.737  10.361  1.00  0.00    -0.379 OA
HETATM   11  C   UNL     1     -42.375 -45.942   9.661  1.00  0.00     0.132 C 
HETATM   12  C   UNL     1     -42.345 -47.164  10.592  1.00  0.00     0.138 C 
HETATM   13  C   UNL     1     -43.775 -45.733   9.094  1.00  0.00     0.041 C 
ENDBRANCH   3   6
ENDBRANCH   2   3
ENDBRANCH   1   2
BRANCH   1  14
HETATM   14  N   UNL     1     -41.713 -51.950  11.551  1.00  0.00    -0.342 N 
HETATM   15  C   UNL     1     -42.580 -52.303  12.575  1.00  0.00     0.320 C 
HETATM   16  O   UNL     1     -42.287 -52.133  13.752  1.00  0.00    -0.247 OA
HETATM   17  N   UNL     1     -43.745 -52.866  12.107  1.00  0.00    -0.308 N 
HETATM   18  H   UNL     1     -43.701 -53.265  11.180  1.00  0.00     0.170 HD
HETATM   19  H   UNL     1     -42.176 -51.592  10.727  1.00  0.00     0.164 HD
BRANCH  17  20
HETATM   20  C   UNL     1     -44.827 -53.263  12.935  1.00  0.00     0.051 A 
HETATM   21  C   UNL     1     -45.738 -52.368  13.494  1.00  0.00     0.032 A 
HETATM   22  C   UNL     1     -46.749 -52.829  14.337  1.00  0.00     0.019 A 
HETATM   23  C   UNL     1     -46.828 -54.187  14.585  1.00  0.00     0.088 A 
HETATM   24  N   UNL     1     -45.994 -55.096  14.037  1.00  0.00    -0.373 N 
HETATM   25  C   UNL     1     -45.020 -54.613  13.224  1.00  0.00     0.117 A 
ATOM     26  HN  UNL     1     -46.090 -56.094  14.224  1.00  0.00     0.164 HD
ENDBRANCH  17  20
ENDBRANCH   1  14
TORSDOF 5
ENDMDL
MODEL 3
REMARK VINA RESULT:      -6.3      2.472      7.569
REMARK  5 active torsions:
REMARK  status: ('A' for Active; 'I' for Inactive)
REMARK    1  A    between atoms: N_4  and  S_9 
REMARK    2  A    between atoms: S_9  and  C_12 
REMARK    3  A    between atoms: C_12  and  C_13 
REMARK    4  A    between atoms: C_13  and  N_14 
REMARK       I    between atoms: N_14  and  C_15 
REMARK       I    between atoms: C_15  and  N_17 
REMARK    5  A    between atoms: N_17  and  C_18 
ROOT
HETATM    1  C   UNL     1     -40.851 -52.172  12.433  1.00  0.00     0.140 C 
ENDROOT
BRANCH   1   2
HETATM    2  C   UNL     1     -42.117 -52.996  12.591  1.00  0.00     0.177 C 
BRANCH   2   3
HETATM    3  S   UNL     1     -42.498 -53.072  14.351  1.00  0.00     0.213 S 
HETATM    4  O   UNL     1     -41.632 -52.144  15.043  1.00  0.00    -0.211 OA
HETATM    5  O   UNL     1     -42.568 -54.463  14.744  1.00  0.00    -0.211 OA
BRANCH   3   6
HETATM    6  N   UNL     1     -44.089 -52.451  14.483  1.00  0.00    -0.206 NA
HETATM    7  C   UNL     1     -45.007 -53.224  15.379  1.00  0.00     0.138 C 
HETATM    8  C   UNL     1     -46.414 -52.600  15.401  1.00  0.00     0.132 C 
HETATM    9  C   UNL     1     -46.468 -51.252  16.119  1.00  0.00     0.041 C 
HETATM   10  O   UNL     1     -46.969 -52.512  14.082  1.00  0.00    -0.379 OA
HETATM   11  C   UNL     1     -46.139 -51.769  13.174  1.00  0.00     0.132 C 
HETATM   12  C   UNL     1     -44.718 -52.352  13.105  1.00  0.00     0.138 C 
HETATM   13  C   UNL     1     -46.812 -51.830  11.807  1.00  0.00     0.041 C 
ENDBRANCH   3   6
ENDBRANCH   2   3
ENDBRANCH   1   2
BRANCH   1  14
HETATM   14  N   UNL     1     -40.858 -51.228  11.319  1.00  0.00    -0.342 N 
HETATM   15  C   UNL     1     -41.288 -49.945  11.627  1.00  0.00     0.320 C 
HETATM   16  O   UNL     1     -41.693 -49.655  12.746  1.00  0.00    -0.247 OA
HETATM   17  N   UNL     1     -41.224 -49.096  10.546  1.00  0.00    -0.308 N 
HETATM   18  H   UNL     1     -41.223 -49.537   9.638  1.00  0.00     0.170 HD
HETATM   19  H   UNL     1     -40.082 -51.256  10.673  1.00  0.00     0.164 HD
BRANCH  17  20
HETATM   20  C   UNL     1     -41.548 -47.715  10.598  1.00  0.00     0.051 A 
HETATM   21  C   UNL     1     -40.620 -46.717  10.885  1.00  0.00     0.032 A 
HETATM   22  C   UNL     1     -41.023 -45.384  10.965  1.00  0.00     0.019 A 
HETATM   23  C   UNL     1     -42.354 -45.086  10.736  1.00  0.00     0.088 A 
HETATM   24  N   UNL     1     -43.282 -46.013  10.417  1.00  0.00    -0.373 N 
HETATM   25  C   UNL     1     -42.856 -47.300  10.351  1.00  0.00     0.117 A 
ATOM     26  HN  UNL     1     -44.253 -45.759  10.235  1.00  0.00     0.164 HD
ENDBRANCH  17  20
ENDBRANCH   1  14
TORSDOF 5
ENDMDL
MODEL 4
REMARK VINA RESULT:      -6.3      2.997      8.058
REMARK  5 active torsions:
REMARK  status: ('A' for Active; 'I' for Inactive)
REMARK    1  A    between atoms: N_4  and  S_9 
REMARK    2  A    between atoms: S_9  and  C_12 
REMARK    3  A    between atoms: C_12  and  C_13 
REMARK    4  A    between atoms: C_13  and  N_14 
REMARK       I    between atoms: N_14  and  C_15 
REMARK       I    between atoms: C_15  and  N_17 
REMARK    5  A    between atoms: N_17  and  C_18 
ROOT
HETATM    1  C   UNL     1     -44.529 -51.679  14.262  1.00  0.00     0.140 C 
ENDROOT
BRANCH   1   2
HETATM    2  C   UNL     1     -45.464 -52.874  14.206  1.00  0.00     0.177 C 
BRANCH   2   3
HETATM    3  S   UNL     1     -44.502 -54.287  13.635  1.00  0.00     0.213 S 
HETATM    4  O   UNL     1     -44.463 -54.256  12.191  1.00  0.00    -0.211 OA
HETATM    5  O   UNL     1     -44.956 -55.466  14.344  1.00  0.00    -0.211 OA
BRANCH   3   6
HETATM    6  N   UNL     1     -42.907 -53.981  14.177  1.00  0.00    -0.206 NA
HETATM    7  C   UNL     1     -41.846 -54.053  13.122  1.00  0.00     0.138 C 
HETATM    8  C   UNL     1     -40.451 -53.793  13.720  1.00  0.00     0.132 C 
HETATM    9  C   UNL     1     -40.242 -52.345  14.162  1.00  0.00     0.041 C 
HETATM   10  O   UNL     1     -40.157 -54.711  14.781  1.00  0.00    -0.379 OA
HETATM   11  C   UNL     1     -41.133 -54.681  15.834  1.00  0.00     0.132 C 
HETATM   12  C   UNL     1     -42.550 -54.941  15.297  1.00  0.00     0.138 C 
HETATM   13  C   UNL     1     -40.734 -55.754  16.840  1.00  0.00     0.041 C 
ENDBRANCH   3   6
ENDBRANCH   2   3
ENDBRANCH   1   2
BRANCH   1  14
HETATM   14  N   UNL     1     -43.835 -51.373  13.015  1.00  0.00    -0.342 N 
HETATM   15  C   UNL     1     -43.118 -50.184  13.007  1.00  0.00     0.320 C 
HETATM   16  O   UNL     1     -43.129 -49.422  13.965  1.00  0.00    -0.247 OA
HETATM   17  N   UNL     1     -42.450 -49.981  11.821  1.00  0.00    -0.308 N 
HETATM   18  H   UNL     1     -42.809 -50.483  11.021  1.00  0.00     0.170 HD
HETATM   19  H   UNL     1     -43.373 -52.132  12.534  1.00  0.00     0.164 HD
BRANCH  17  20
HETATM   20  C   UNL     1     -41.597 -48.876  11.567  1.00  0.00     0.051 A 
HETATM   21  C   UNL     1     -40.447 -48.605  12.306  1.00  0.00     0.032 A 
HETATM   22  C   UNL     1     -39.683 -47.472  12.027  1.00  0.00     0.019 A 
HETATM   23  C   UNL     1     -40.088 -46.645  10.994  1.00  0.00     0.088 A 
HETATM   24  N   UNL     1     -41.171 -46.887  10.226  1.00  0.00    -0.373 N 
HETATM   25  C   UNL     1     -41.894 -47.996  10.527  1.00  0.00     0.117 A 
ATOM     26  HN  UNL     1     -41.434 -46.268   9.459  1.00  0.00     0.164 HD
ENDBRANCH  17  20
ENDBRANCH   1  14
TORSDOF 5
ENDMDL
MODEL 5
REMARK VINA RESULT:      -6.2      3.630      8.225
REMARK  5 active torsions:
REMARK  status: ('A' for Active; 'I' for Inactive)
REMARK    1  A    between atoms: N_4  and  S_9 
REMARK    2  A    between atoms: S_9  and  C_12 
REMARK    3  A    between atoms: C_12  and  C_13 
REMARK    4  A    between atoms: C_13  and  N_14 
REMARK       I    between atoms: N_14  and  C_15 
REMARK       I    between atoms: C_15  and  N_17 
REMARK    5  A    between atoms: N_17  and  C_18 
ROOT
HETATM    1  C   UNL     1     -45.198 -51.356  13.942  1.00  0.00     0.140 C 
ENDROOT
BRANCH   1   2
HETATM    2  C   UNL     1     -46.275 -52.425  13.971  1.00  0.00     0.177 C 
BRANCH   2   3
HETATM    3  S   UNL     1     -45.450 -54.027  13.933  1.00  0.00     0.213 S 
HETATM    4  O   UNL     1     -44.978 -54.263  12.587  1.00  0.00    -0.211 OA
HETATM    5  O   UNL     1     -46.291 -54.992  14.609  1.00  0.00    -0.211 OA
BRANCH   3   6
HETATM    6  N   UNL     1     -44.059 -53.828  14.913  1.00  0.00    -0.206 NA
HETATM    7  C   UNL     1     -42.866 -54.637  14.506  1.00  0.00     0.138 C 
HETATM    8  C   UNL     1     -41.686 -54.407  15.469  1.00  0.00     0.132 C 
HETATM    9  C   UNL     1     -41.073 -53.012  15.352  1.00  0.00     0.041 C 
HETATM   10  O   UNL     1     -42.049 -54.707  16.822  1.00  0.00    -0.379 OA
HETATM   11  C   UNL     1     -43.183 -53.952  17.279  1.00  0.00     0.132 C 
HETATM   12  C   UNL     1     -44.398 -54.147  16.358  1.00  0.00     0.138 C 
HETATM   13  C   UNL     1     -43.496 -54.432  18.691  1.00  0.00     0.041 C 
ENDBRANCH   3   6
ENDBRANCH   2   3
ENDBRANCH   1   2
BRANCH   1  14
HETATM   14  N   UNL     1     -44.272 -51.436  12.816  1.00  0.00    -0.342 N 
HETATM   15  C   UNL     1     -43.040 -50.827  13.012  1.00  0.00     0.320 C 
HETATM   16  O   UNL     1     -42.784 -50.212  14.040  1.00  0.00    -0.247 OA
HETATM   17  N   UNL     1     -42.200 -50.981  11.933  1.00  0.00    -0.308 N 
HETATM   18  H   UNL     1     -42.648 -51.182  11.051  1.00  0.00     0.170 HD
HETATM   19  H   UNL     1     -44.221 -52.308  12.309  1.00  0.00     0.164 HD
BRANCH  17  20
HETATM   20  C   UNL     1     -40.862 -50.509  11.892  1.00  0.00     0.051 A 
HETATM   21  C   UNL     1     -39.782 -51.207  12.428  1.00  0.00     0.032 A 
HETATM   22  C   UNL     1     -38.501 -50.657  12.391  1.00  0.00     0.019 A 
HETATM   23  C   UNL     1     -38.336 -49.419  11.797  1.00  0.00     0.088 A 
HETATM   24  N   UNL     1     -39.343 -48.722  11.231  1.00  0.00    -0.373 N 
HETATM   25  C   UNL     1     -40.578 -49.285  11.287  1.00  0.00     0.117 A 
ATOM     26  HN  UNL     1     -39.186 -47.819  10.783  1.00  0.00     0.164 HD
ENDBRANCH  17  20
ENDBRANCH   1  14
TORSDOF 5
ENDMDL
MODEL 6
REMARK VINA RESULT:      -6.2      2.007      8.130
REMARK  5 active torsions:
REMARK  status: ('A' for Active; 'I' for Inactive)
REMARK    1  A    between atoms: N_4  and  S_9 
REMARK    2  A    between atoms: S_9  and  C_12 
REMARK    3  A    between atoms: C_12  and  C_13 
REMARK    4  A    between atoms: C_13  and  N_14 
REMARK       I    between atoms: N_14  and  C_15 
REMARK       I    between atoms: C_15  and  N_17 
REMARK    5  A    between atoms: N_17  and  C_18 
ROOT
HETATM    1  C   UNL     1     -40.478 -51.090  11.782  1.00  0.00     0.140 C 
ENDROOT
BRANCH   1   2
HETATM    2  C   UNL     1     -41.659 -52.042  11.849  1.00  0.00     0.177 C 
BRANCH   2   3
HETATM    3  S   UNL     1     -41.519 -52.974  13.385  1.00  0.00     0.213 S 
HETATM    4  O   UNL     1     -40.757 -52.184  14.327  1.00  0.00    -0.211 OA
HETATM    5  O   UNL     1     -41.132 -54.331  13.064  1.00  0.00    -0.211 OA
BRANCH   3   6
HETATM    6  N   UNL     1     -43.117 -53.057  13.995  1.00  0.00    -0.206 NA
HETATM    7  C   UNL     1     -43.673 -54.439  14.150  1.00  0.00     0.138 C 
HETATM    8  C   UNL     1     -45.120 -54.398  14.674  1.00  0.00     0.132 C 
HETATM    9  C   UNL     1     -45.225 -53.940  16.128  1.00  0.00     0.041 C 
HETATM   10  O   UNL     1     -45.965 -53.618  13.818  1.00  0.00    -0.379 OA
HETATM   11  C   UNL     1     -45.492 -52.274  13.638  1.00  0.00     0.132 C 
HETATM   12  C   UNL     1     -44.049 -52.251  13.109  1.00  0.00     0.138 C 
HETATM   13  C   UNL     1     -46.437 -51.599  12.651  1.00  0.00     0.041 C 
ENDBRANCH   3   6
ENDBRANCH   2   3
ENDBRANCH   1   2
BRANCH   1  14
HETATM   14  N   UNL     1     -40.602 -50.012  10.805  1.00  0.00    -0.342 N 
HETATM   15  C   UNL     1     -40.903 -48.763  11.330  1.00  0.00     0.320 C 
HETATM   16  O   UNL     1     -41.111 -48.602  12.526  1.00  0.00    -0.247 OA
HETATM   17  N   UNL     1     -40.958 -47.786  10.362  1.00  0.00    -0.308 N 
HETATM   18  H   UNL     1     -41.123 -48.108   9.420  1.00  0.00     0.170 HD
HETATM   19  H   UNL     1     -39.939 -49.988  10.044  1.00  0.00     0.164 HD
BRANCH  17  20
HETATM   20  C   UNL     1     -41.187 -46.412  10.631  1.00  0.00     0.051 A 
HETATM   21  C   UNL     1     -40.170 -45.464  10.720  1.00  0.00     0.032 A 
HETATM   22  C   UNL     1     -40.469 -44.138  11.034  1.00  0.00     0.019 A 
HETATM   23  C   UNL     1     -41.794 -43.794  11.235  1.00  0.00     0.088 A 
HETATM   24  N   UNL     1     -42.817 -44.668  11.122  1.00  0.00    -0.373 N 
HETATM   25  C   UNL     1     -42.490 -45.950  10.818  1.00  0.00     0.117 A 
ATOM     26  HN  UNL     1     -43.786 -44.380  11.257  1.00  0.00     0.164 HD
ENDBRANCH  17  20
ENDBRANCH   1  14
TORSDOF 5
ENDMDL
MODEL 7
REMARK VINA RESULT:      -6.1      3.057      4.136
REMARK  5 active torsions:
REMARK  status: ('A' for Active; 'I' for Inactive)
REMARK    1  A    between atoms: N_4  and  S_9 
REMARK    2  A    between atoms: S_9  and  C_12 
REMARK    3  A    between atoms: C_12  and  C_13 
REMARK    4  A    between atoms: C_13  and  N_14 
REMARK       I    between atoms: N_14  and  C_15 
REMARK       I    between atoms: C_15  and  N_17 
REMARK    5  A    between atoms: N_17  and  C_18 
ROOT
HETATM    1  C   UNL     1     -40.287 -51.897  12.114  1.00  0.00     0.140 C 
ENDROOT
BRANCH   1   2
HETATM    2  C   UNL     1     -39.849 -50.452  11.962  1.00  0.00     0.177 C 
BRANCH   2   3
HETATM    3  S   UNL     1     -38.065 -50.397  12.206  1.00  0.00     0.213 S 
HETATM    4  O   UNL     1     -37.456 -49.893  10.995  1.00  0.00    -0.211 OA
HETATM    5  O   UNL     1     -37.643 -51.655  12.785  1.00  0.00    -0.211 OA
BRANCH   3   6
HETATM    6  N   UNL     1     -37.823 -49.204  13.410  1.00  0.00    -0.206 NA
HETATM    7  C   UNL     1     -37.963 -49.680  14.823  1.00  0.00     0.138 C 
HETATM    8  C   UNL     1     -37.757 -48.525  15.820  1.00  0.00     0.132 C 
HETATM    9  C   UNL     1     -36.312 -48.030  15.883  1.00  0.00     0.041 C 
HETATM   10  O   UNL     1     -38.668 -47.448  15.569  1.00  0.00    -0.379 OA
HETATM   11  C   UNL     1     -38.574 -46.936  14.230  1.00  0.00     0.132 C 
HETATM   12  C   UNL     1     -38.779 -48.045  13.187  1.00  0.00     0.138 C 
HETATM   13  C   UNL     1     -39.647 -45.862  14.090  1.00  0.00     0.041 C 
ENDBRANCH   3   6
ENDBRANCH   2   3
ENDBRANCH   1   2
BRANCH   1  14
HETATM   14  N   UNL     1     -41.659 -52.179  11.700  1.00  0.00    -0.342 N 
HETATM   15  C   UNL     1     -42.585 -52.273  12.728  1.00  0.00     0.320 C 
HETATM   16  O   UNL     1     -42.250 -52.189  13.904  1.00  0.00    -0.247 OA
HETATM   17  N   UNL     1     -43.863 -52.491  12.267  1.00  0.00    -0.308 N 
HETATM   18  H   UNL     1     -43.936 -52.889  11.342  1.00  0.00     0.170 HD
HETATM   19  H   UNL     1     -42.008 -51.709  10.876  1.00  0.00     0.164 HD
BRANCH  17  20
HETATM   20  C   UNL     1     -45.009 -52.568  13.100  1.00  0.00     0.051 A 
HETATM   21  C   UNL     1     -45.681 -51.451  13.591  1.00  0.00     0.032 A 
HETATM   22  C   UNL     1     -46.773 -51.606  14.445  1.00  0.00     0.019 A 
HETATM   23  C   UNL     1     -47.173 -52.889  14.772  1.00  0.00     0.088 A 
HETATM   24  N   UNL     1     -46.578 -54.002  14.292  1.00  0.00    -0.373 N 
HETATM   25  C   UNL     1     -45.517 -53.815  13.466  1.00  0.00     0.117 A 
ATOM     26  HN  UNL     1     -46.909 -54.935  14.536  1.00  0.00     0.164 HD
ENDBRANCH  17  20
ENDBRANCH   1  14
TORSDOF 5
ENDMDL
MODEL 8
REMARK VINA RESULT:      -6.1      2.535      7.799
REMARK  5 active torsions:
REMARK  status: ('A' for Active; 'I' for Inactive)
REMARK    1  A    between atoms: N_4  and  S_9 
REMARK    2  A    between atoms: S_9  and  C_12 
REMARK    3  A    between atoms: C_12  and  C_13 
REMARK    4  A    between atoms: C_13  and  N_14 
REMARK       I    between atoms: N_14  and  C_15 
REMARK       I    between atoms: C_15  and  N_17 
REMARK    5  A    between atoms: N_17  and  C_18 
ROOT
HETATM    1  C   UNL     1     -39.986 -51.963  12.885  1.00  0.00     0.140 C 
ENDROOT
BRANCH   1   2
HETATM    2  C   UNL     1     -40.720 -53.288  12.990  1.00  0.00     0.177 C 
BRANCH   2   3
HETATM    3  S   UNL     1     -41.315 -53.446  14.683  1.00  0.00     0.213 S 
HETATM    4  O   UNL     1     -41.096 -52.188  15.361  1.00  0.00    -0.211 OA
HETATM    5  O   UNL     1     -40.810 -54.686  15.232  1.00  0.00    -0.211 OA
BRANCH   3   6
HETATM    6  N   UNL     1     -43.011 -53.636  14.537  1.00  0.00    -0.206 NA
HETATM    7  C   UNL     1     -43.511 -53.888  13.148  1.00  0.00     0.138 C 
HETATM    8  C   UNL     1     -45.046 -54.012  13.126  1.00  0.00     0.132 C 
HETATM    9  C   UNL     1     -45.560 -55.287  13.794  1.00  0.00     0.041 C 
HETATM   10  O   UNL     1     -45.673 -52.846  13.674  1.00  0.00    -0.379 OA
HETATM   11  C   UNL     1     -45.244 -52.556  15.014  1.00  0.00     0.132 C 
HETATM   12  C   UNL     1     -43.716 -52.414  15.098  1.00  0.00     0.138 C 
HETATM   13  C   UNL     1     -45.928 -51.258  15.428  1.00  0.00     0.041 C 
ENDBRANCH   3   6
ENDBRANCH   2   3
ENDBRANCH   1   2
BRANCH   1  14
HETATM   14  N   UNL     1     -40.217 -51.220  11.650  1.00  0.00    -0.342 N 
HETATM   15  C   UNL     1     -40.872 -50.005  11.798  1.00  0.00     0.320 C 
HETATM   16  O   UNL     1     -41.281 -49.625  12.888  1.00  0.00    -0.247 OA
HETATM   17  N   UNL     1     -41.015 -49.336  10.604  1.00  0.00    -0.308 N 
HETATM   18  H   UNL     1     -40.964 -49.904   9.771  1.00  0.00     0.170 HD
HETATM   19  H   UNL     1     -39.476 -51.204  10.963  1.00  0.00     0.164 HD
BRANCH  17  20
HETATM   20  C   UNL     1     -41.594 -48.047  10.478  1.00  0.00     0.051 A 
HETATM   21  C   UNL     1     -42.878 -47.824   9.985  1.00  0.00     0.032 A 
HETATM   22  C   UNL     1     -43.362 -46.523   9.846  1.00  0.00     0.019 A 
HETATM   23  C   UNL     1     -42.544 -45.474  10.224  1.00  0.00     0.088 A 
HETATM   24  N   UNL     1     -41.308 -45.641  10.742  1.00  0.00    -0.373 N 
HETATM   25  C   UNL     1     -40.867 -46.920  10.861  1.00  0.00     0.117 A 
ATOM     26  HN  UNL     1     -40.736 -44.848  11.030  1.00  0.00     0.164 HD
ENDBRANCH  17  20
ENDBRANCH   1  14
TORSDOF 5
ENDMDL
MODEL 9
REMARK VINA RESULT:      -6.1      2.902      8.169
REMARK  5 active torsions:
REMARK  status: ('A' for Active; 'I' for Inactive)
REMARK    1  A    between atoms: N_4  and  S_9 
REMARK    2  A    between atoms: S_9  and  C_12 
REMARK    3  A    between atoms: C_12  and  C_13 
REMARK    4  A    between atoms: C_13  and  N_14 
REMARK       I    between atoms: N_14  and  C_15 
REMARK       I    between atoms: C_15  and  N_17 
REMARK    5  A    between atoms: N_17  and  C_18 
ROOT
HETATM    1  C   UNL     1     -40.406 -50.410  12.054  1.00  0.00     0.140 C 
ENDROOT
BRANCH   1   2
HETATM    2  C   UNL     1     -40.853 -51.861  12.052  1.00  0.00     0.177 C 
BRANCH   2   3
HETATM    3  S   UNL     1     -40.457 -52.553  13.667  1.00  0.00     0.213 S 
HETATM    4  O   UNL     1     -40.458 -51.479  14.635  1.00  0.00    -0.211 OA
HETATM    5  O   UNL     1     -39.311 -53.426  13.523  1.00  0.00    -0.211 OA
BRANCH   3   6
HETATM    6  N   UNL     1     -41.788 -53.560  14.052  1.00  0.00    -0.206 NA
HETATM    7  C   UNL     1     -43.043 -52.843  14.443  1.00  0.00     0.138 C 
HETATM    8  C   UNL     1     -44.163 -53.839  14.797  1.00  0.00     0.132 C 
HETATM    9  C   UNL     1     -44.699 -54.604  13.586  1.00  0.00     0.041 C 
HETATM   10  O   UNL     1     -43.758 -54.733  15.841  1.00  0.00    -0.379 OA
HETATM   11  C   UNL     1     -42.563 -55.463  15.522  1.00  0.00     0.132 C 
HETATM   12  C   UNL     1     -41.404 -54.518  15.165  1.00  0.00     0.138 C 
HETATM   13  C   UNL     1     -42.214 -56.302  16.746  1.00  0.00     0.041 C 
ENDBRANCH   3   6
ENDBRANCH   2   3
ENDBRANCH   1   2
BRANCH   1  14
HETATM   14  N   UNL     1     -40.651 -49.681  10.813  1.00  0.00    -0.342 N 
HETATM   15  C   UNL     1     -41.780 -48.874  10.808  1.00  0.00     0.320 C 
HETATM   16  O   UNL     1     -42.546 -48.835  11.763  1.00  0.00    -0.247 OA
HETATM   17  N   UNL     1     -41.925 -48.180   9.628  1.00  0.00    -0.308 N 
HETATM   18  H   UNL     1     -41.449 -48.569   8.827  1.00  0.00     0.170 HD
HETATM   19  H   UNL     1     -39.856 -49.276  10.340  1.00  0.00     0.164 HD
BRANCH  17  20
HETATM   20  C   UNL     1     -42.959 -47.241   9.379  1.00  0.00     0.051 A 
HETATM   21  C   UNL     1     -42.845 -45.879   9.654  1.00  0.00     0.032 A 
HETATM   22  C   UNL     1     -43.922 -45.023   9.425  1.00  0.00     0.019 A 
HETATM   23  C   UNL     1     -45.087 -45.559   8.907  1.00  0.00     0.088 A 
HETATM   24  N   UNL     1     -45.232 -46.863   8.589  1.00  0.00    -0.373 N 
HETATM   25  C   UNL     1     -44.166 -47.668   8.827  1.00  0.00     0.117 A 
ATOM     26  HN  UNL     1     -46.099 -47.225   8.190  1.00  0.00     0.164 HD
ENDBRANCH  17  20
ENDBRANCH   1  14
TORSDOF 5
ENDMDL
