MODEL 1
REMARK VINA RESULT:      -5.8      0.000      0.000
REMARK  5 active torsions:
REMARK  status: ('A' for Active; 'I' for Inactive)
REMARK    1  A    between atoms: C_5  and  N_15 
REMARK    2  A    between atoms: C_9  and  C_10 
REMARK    3  A    between atoms: C_10  and  C_11 
REMARK    4  A    between atoms: C_11  and  C_12 
REMARK    5  A    between atoms: C_12  and  O_14 
ROOT
HETATM    1  C   UNL     1     -44.523 -50.789  13.886  1.00  0.00     0.069 C 
HETATM    2  C   UNL     1     -43.263 -50.894  13.064  1.00  0.00     0.034 C 
HETATM    3  N   UNL     1     -42.920 -49.720  12.426  1.00  0.00    -0.195 N 
ATOM      4  HN  UNL     1     -43.532 -48.906  12.480  1.00  0.00     0.184 HD
HETATM    5  C   UNL     1     -41.812 -49.663  11.757  1.00  0.00     0.683 C 
HETATM    6  N   UNL     1     -41.016 -50.763  11.638  1.00  0.00    -0.156 N 
HETATM    7  C   UNL     1     -41.352 -51.986  12.115  1.00  0.00     0.267 C 
HETATM    8  O   UNL     1     -40.686 -52.980  11.845  1.00  0.00    -0.267 OA
HETATM    9  C   UNL     1     -42.549 -52.037  12.984  1.00  0.00     0.034 C 
HETATM   10  H   UNL     1     -40.232 -50.743  11.010  1.00  0.00     0.187 HD
ENDROOT
BRANCH   5  11
HETATM   11  N   UNL     1     -41.379 -48.519  11.129  1.00  0.00    -0.213 N 
HETATM   12  C   UNL     1     -40.144 -47.807  11.467  1.00  0.00     0.167 C 
HETATM   13  C   UNL     1     -40.441 -46.317  11.678  1.00  0.00     0.188 C 
HETATM   14  O   UNL     1     -41.062 -45.747  10.519  1.00  0.00    -0.388 OA
HETATM   15  C   UNL     1     -42.318 -46.399  10.261  1.00  0.00     0.188 C 
HETATM   16  C   UNL     1     -42.138 -47.905  10.029  1.00  0.00     0.167 C 
ENDBRANCH   5  11
BRANCH   9  17
HETATM   17  C   UNL     1     -42.851 -53.368  13.634  1.00  0.00     0.057 C 
BRANCH  17  18
HETATM   18  C   UNL     1     -43.791 -54.242  12.794  1.00  0.00     0.115 C 
BRANCH  18  19
HETATM   19  C   UNL     1     -45.085 -54.534  13.515  1.00  0.00     0.139 C 
HETATM   20  O   UNL     1     -45.221 -55.320  14.438  1.00  0.00    -0.650 OA
BRANCH  19  21
HETATM   21  O   UNL     1     -46.123 -53.822  13.011  1.00  0.00    -0.776 OA
HETATM   22  H   UNL     1     -46.505 -54.205  12.199  1.00  0.00     0.167 HD
ENDBRANCH  19  21
ENDBRANCH  18  19
ENDBRANCH  17  18
ENDBRANCH   9  17
TORSDOF 5
ENDMDL
MODEL 2
REMARK VINA RESULT:      -5.7      2.927      3.954
REMARK  5 active torsions:
REMARK  status: ('A' for Active; 'I' for Inactive)
REMARK    1  A    between atoms: C_5  and  N_15 
REMARK    2  A    between atoms: C_9  and  C_10 
REMARK    3  A    between atoms: C_10  and  C_11 
REMARK    4  A    between atoms: C_11  and  C_12 
REMARK    5  A    between atoms: C_12  and  O_14 
ROOT
HETATM    1  C   UNL     1     -44.456 -50.125  15.908  1.00  0.00     0.069 C 
HETATM    2  C   UNL     1     -44.225 -50.955  14.671  1.00  0.00     0.034 C 
HETATM    3  N   UNL     1     -42.909 -50.980  14.258  1.00  0.00    -0.195 N 
ATOM      4  HN  UNL     1     -42.208 -50.416  14.738  1.00  0.00     0.184 HD
HETATM    5  C   UNL     1     -42.573 -51.728  13.255  1.00  0.00     0.683 C 
HETATM    6  N   UNL     1     -43.514 -52.443  12.576  1.00  0.00    -0.156 N 
HETATM    7  C   UNL     1     -44.843 -52.362  12.830  1.00  0.00     0.267 C 
HETATM    8  O   UNL     1     -45.666 -52.895  12.093  1.00  0.00    -0.267 OA
HETATM    9  C   UNL     1     -45.227 -51.613  14.048  1.00  0.00     0.034 C 
HETATM   10  H   UNL     1     -43.264 -52.910  11.724  1.00  0.00     0.187 HD
ENDROOT
BRANCH   5  11
HETATM   11  N   UNL     1     -41.277 -51.839  12.810  1.00  0.00    -0.213 N 
HETATM   12  C   UNL     1     -40.324 -52.846  13.284  1.00  0.00     0.167 C 
HETATM   13  C   UNL     1     -39.011 -52.170  13.697  1.00  0.00     0.188 C 
HETATM   14  O   UNL     1     -38.459 -51.411  12.613  1.00  0.00    -0.388 OA
HETATM   15  C   UNL     1     -39.373 -50.369  12.228  1.00  0.00     0.188 C 
HETATM   16  C   UNL     1     -40.728 -50.936  11.787  1.00  0.00     0.167 C 
ENDBRANCH   5  11
BRANCH   9  17
HETATM   17  C   UNL     1     -46.692 -51.635  14.416  1.00  0.00     0.057 C 
BRANCH  17  18
HETATM   18  C   UNL     1     -46.994 -52.547  15.612  1.00  0.00     0.115 C 
BRANCH  18  19
HETATM   19  C   UNL     1     -46.437 -53.936  15.419  1.00  0.00     0.139 C 
HETATM   20  O   UNL     1     -45.565 -54.451  16.100  1.00  0.00    -0.650 OA
BRANCH  19  21
HETATM   21  O   UNL     1     -47.009 -54.575  14.370  1.00  0.00    -0.776 OA
HETATM   22  H   UNL     1     -47.756 -54.089  13.972  1.00  0.00     0.167 HD
ENDBRANCH  19  21
ENDBRANCH  18  19
ENDBRANCH  17  18
ENDBRANCH   9  17
TORSDOF 5
ENDMDL
MODEL 3
REMARK VINA RESULT:      -5.7      2.615      3.167
REMARK  5 active torsions:
REMARK  status: ('A' for Active; 'I' for Inactive)
REMARK    1  A    between atoms: C_5  and  N_15 
REMARK    2  A    between atoms: C_9  and  C_10 
REMARK    3  A    between atoms: C_10  and  C_11 
REMARK    4  A    between atoms: C_11  and  C_12 
REMARK    5  A    between atoms: C_12  and  O_14 
ROOT
HETATM    1  C   UNL     1     -43.418 -50.730  13.294  1.00  0.00     0.069 C 
HETATM    2  C   UNL     1     -42.316 -50.121  12.464  1.00  0.00     0.034 C 
HETATM    3  N   UNL     1     -42.747 -49.113  11.627  1.00  0.00    -0.195 N 
ATOM      4  HN  UNL     1     -43.739 -48.887  11.561  1.00  0.00     0.184 HD
HETATM    5  C   UNL     1     -41.878 -48.457  10.925  1.00  0.00     0.683 C 
HETATM    6  N   UNL     1     -40.557 -48.790  10.969  1.00  0.00    -0.156 N 
HETATM    7  C   UNL     1     -40.075 -49.854  11.655  1.00  0.00     0.267 C 
HETATM    8  O   UNL     1     -38.908 -50.213  11.537  1.00  0.00    -0.267 OA
HETATM    9  C   UNL     1     -41.034 -50.533  12.557  1.00  0.00     0.034 C 
HETATM   10  H   UNL     1     -39.916 -48.364  10.323  1.00  0.00     0.187 HD
ENDROOT
BRANCH   5  11
HETATM   11  N   UNL     1     -42.223 -47.413  10.099  1.00  0.00    -0.213 N 
HETATM   12  C   UNL     1     -41.720 -46.044  10.244  1.00  0.00     0.167 C 
HETATM   13  C   UNL     1     -42.890 -45.054  10.238  1.00  0.00     0.188 C 
HETATM   14  O   UNL     1     -43.673 -45.190   9.044  1.00  0.00    -0.388 OA
HETATM   15  C   UNL     1     -44.233 -46.513   8.971  1.00  0.00     0.188 C 
HETATM   16  C   UNL     1     -43.142 -47.592   8.966  1.00  0.00     0.167 C 
ENDBRANCH   5  11
BRANCH   9  17
HETATM   17  C   UNL     1     -40.472 -51.630  13.431  1.00  0.00     0.057 C 
BRANCH  17  18
HETATM   18  C   UNL     1     -40.593 -53.021  12.795  1.00  0.00     0.115 C 
BRANCH  18  19
HETATM   19  C   UNL     1     -40.076 -54.106  13.707  1.00  0.00     0.139 C 
HETATM   20  O   UNL     1     -40.653 -54.541  14.690  1.00  0.00    -0.650 OA
BRANCH  19  21
HETATM   21  O   UNL     1     -38.858 -54.560  13.323  1.00  0.00    -0.776 OA
HETATM   22  H   UNL     1     -38.759 -55.529  13.396  1.00  0.00     0.167 HD
ENDBRANCH  19  21
ENDBRANCH  18  19
ENDBRANCH  17  18
ENDBRANCH   9  17
TORSDOF 5
ENDMDL
MODEL 4
REMARK VINA RESULT:      -5.6      2.405      6.503
REMARK  5 active torsions:
REMARK  status: ('A' for Active; 'I' for Inactive)
REMARK    1  A    between atoms: C_5  and  N_15 
REMARK    2  A    between atoms: C_9  and  C_10 
REMARK    3  A    between atoms: C_10  and  C_11 
REMARK    4  A    between atoms: C_11  and  C_12 
REMARK    5  A    between atoms: C_12  and  O_14 
ROOT
HETATM    1  C   UNL     1     -42.589 -48.582  12.611  1.00  0.00     0.069 C 
HETATM    2  C   UNL     1     -42.542 -50.083  12.479  1.00  0.00     0.034 C 
HETATM    3  N   UNL     1     -43.701 -50.710  12.888  1.00  0.00    -0.195 N 
ATOM      4  HN  UNL     1     -44.462 -50.170  13.299  1.00  0.00     0.184 HD
HETATM    5  C   UNL     1     -43.812 -51.993  12.744  1.00  0.00     0.683 C 
HETATM    6  N   UNL     1     -42.778 -52.727  12.245  1.00  0.00    -0.156 N 
HETATM    7  C   UNL     1     -41.561 -52.206  11.954  1.00  0.00     0.267 C 
HETATM    8  O   UNL     1     -40.613 -52.927  11.662  1.00  0.00    -0.267 OA
HETATM    9  C   UNL     1     -41.461 -50.729  11.994  1.00  0.00     0.034 C 
HETATM   10  H   UNL     1     -42.827 -53.730  12.262  1.00  0.00     0.187 HD
ENDROOT
BRANCH   5  11
HETATM   11  N   UNL     1     -44.949 -52.686  13.088  1.00  0.00    -0.213 N 
HETATM   12  C   UNL     1     -46.245 -52.061  13.363  1.00  0.00     0.167 C 
HETATM   13  C   UNL     1     -46.799 -52.573  14.699  1.00  0.00     0.188 C 
HETATM   14  O   UNL     1     -46.907 -54.003  14.697  1.00  0.00    -0.388 OA
HETATM   15  C   UNL     1     -45.609 -54.595  14.518  1.00  0.00     0.188 C 
HETATM   16  C   UNL     1     -44.959 -54.152  13.201  1.00  0.00     0.167 C 
ENDBRANCH   5  11
BRANCH   9  17
HETATM   17  C   UNL     1     -40.150 -50.133  11.536  1.00  0.00     0.057 C 
BRANCH  17  18
HETATM   18  C   UNL     1     -39.022 -50.312  12.560  1.00  0.00     0.115 C 
BRANCH  18  19
HETATM   19  C   UNL     1     -37.717 -50.689  11.903  1.00  0.00     0.139 C 
HETATM   20  O   UNL     1     -36.881 -51.445  12.370  1.00  0.00    -0.650 OA
BRANCH  19  21
HETATM   21  O   UNL     1     -37.551 -50.077  10.706  1.00  0.00    -0.776 OA
HETATM   22  H   UNL     1     -37.357 -49.123  10.776  1.00  0.00     0.167 HD
ENDBRANCH  19  21
ENDBRANCH  18  19
ENDBRANCH  17  18
ENDBRANCH   9  17
TORSDOF 5
ENDMDL
MODEL 5
REMARK VINA RESULT:      -5.5      3.821      7.736
REMARK  5 active torsions:
REMARK  status: ('A' for Active; 'I' for Inactive)
REMARK    1  A    between atoms: C_5  and  N_15 
REMARK    2  A    between atoms: C_9  and  C_10 
REMARK    3  A    between atoms: C_10  and  C_11 
REMARK    4  A    between atoms: C_11  and  C_12 
REMARK    5  A    between atoms: C_12  and  O_14 
ROOT
HETATM    1  C   UNL     1     -39.923 -45.020  14.376  1.00  0.00     0.069 C 
HETATM    2  C   UNL     1     -40.065 -45.639  13.009  1.00  0.00     0.034 C 
HETATM    3  N   UNL     1     -39.640 -46.950  12.947  1.00  0.00    -0.195 N 
ATOM      4  HN  UNL     1     -39.211 -47.390  13.761  1.00  0.00     0.184 HD
HETATM    5  C   UNL     1     -39.790 -47.615  11.846  1.00  0.00     0.683 C 
HETATM    6  N   UNL     1     -40.314 -47.015  10.740  1.00  0.00    -0.156 N 
HETATM    7  C   UNL     1     -40.624 -45.697  10.678  1.00  0.00     0.267 C 
HETATM    8  O   UNL     1     -40.938 -45.166   9.618  1.00  0.00    -0.267 OA
HETATM    9  C   UNL     1     -40.575 -44.958  11.960  1.00  0.00     0.034 C 
HETATM   10  H   UNL     1     -40.302 -47.499   9.860  1.00  0.00     0.187 HD
ENDROOT
BRANCH   5  11
HETATM   11  N   UNL     1     -39.430 -48.935  11.718  1.00  0.00    -0.213 N 
HETATM   12  C   UNL     1     -40.375 -50.031  11.484  1.00  0.00     0.167 C 
HETATM   13  C   UNL     1     -40.133 -51.155  12.498  1.00  0.00     0.188 C 
HETATM   14  O   UNL     1     -38.778 -51.623  12.435  1.00  0.00    -0.388 OA
HETATM   15  C   UNL     1     -37.873 -50.553  12.760  1.00  0.00     0.188 C 
HETATM   16  C   UNL     1     -38.027 -49.368  11.798  1.00  0.00     0.167 C 
ENDBRANCH   5  11
BRANCH   9  17
HETATM   17  C   UNL     1     -41.053 -43.525  11.928  1.00  0.00     0.057 C 
BRANCH  17  18
HETATM   18  C   UNL     1     -42.550 -43.388  12.233  1.00  0.00     0.115 C 
BRANCH  18  19
HETATM   19  C   UNL     1     -43.294 -42.695  11.117  1.00  0.00     0.139 C 
HETATM   20  O   UNL     1     -43.657 -41.531  11.123  1.00  0.00    -0.650 OA
BRANCH  19  21
HETATM   21  O   UNL     1     -43.540 -43.525  10.075  1.00  0.00    -0.776 OA
HETATM   22  H   UNL     1     -44.486 -43.593   9.841  1.00  0.00     0.167 HD
ENDBRANCH  19  21
ENDBRANCH  18  19
ENDBRANCH  17  18
ENDBRANCH   9  17
TORSDOF 5
ENDMDL
MODEL 6
REMARK VINA RESULT:      -5.4      2.416      3.682
REMARK  5 active torsions:
REMARK  status: ('A' for Active; 'I' for Inactive)
REMARK    1  A    between atoms: C_5  and  N_15 
REMARK    2  A    between atoms: C_9  and  C_10 
REMARK    3  A    between atoms: C_10  and  C_11 
REMARK    4  A    between atoms: C_11  and  C_12 
REMARK    5  A    between atoms: C_12  and  O_14 
ROOT
HETATM    1  C   UNL     1     -42.645 -55.124  15.265  1.00  0.00     0.069 C 
HETATM    2  C   UNL     1     -43.076 -54.146  14.202  1.00  0.00     0.034 C 
HETATM    3  N   UNL     1     -42.120 -53.198  13.902  1.00  0.00    -0.195 N 
ATOM      4  HN  UNL     1     -41.247 -53.162  14.428  1.00  0.00     0.184 HD
HETATM    5  C   UNL     1     -42.343 -52.354  12.945  1.00  0.00     0.683 C 
HETATM    6  N   UNL     1     -43.529 -52.363  12.274  1.00  0.00    -0.156 N 
HETATM    7  C   UNL     1     -44.569 -53.167  12.602  1.00  0.00     0.267 C 
HETATM    8  O   UNL     1     -45.670 -53.030  12.079  1.00  0.00    -0.267 OA
HETATM    9  C   UNL     1     -44.286 -54.218  13.607  1.00  0.00     0.034 C 
HETATM   10  H   UNL     1     -43.741 -51.623  11.628  1.00  0.00     0.187 HD
ENDROOT
BRANCH   5  11
HETATM   11  N   UNL     1     -41.424 -51.407  12.558  1.00  0.00    -0.213 N 
HETATM   12  C   UNL     1     -39.972 -51.600  12.596  1.00  0.00     0.167 C 
HETATM   13  C   UNL     1     -39.308 -50.424  13.323  1.00  0.00     0.188 C 
HETATM   14  O   UNL     1     -39.644 -49.178  12.699  1.00  0.00    -0.388 OA
HETATM   15  C   UNL     1     -41.066 -48.966  12.757  1.00  0.00     0.188 C 
HETATM   16  C   UNL     1     -41.836 -50.089  12.051  1.00  0.00     0.167 C 
ENDBRANCH   5  11
BRANCH   9  17
HETATM   17  C   UNL     1     -45.397 -55.206  13.876  1.00  0.00     0.057 C 
BRANCH  17  18
HETATM   18  C   UNL     1     -46.571 -54.590  14.647  1.00  0.00     0.115 C 
BRANCH  18  19
HETATM   19  C   UNL     1     -46.112 -53.854  15.882  1.00  0.00     0.139 C 
HETATM   20  O   UNL     1     -46.045 -52.642  16.001  1.00  0.00    -0.650 OA
BRANCH  19  21
HETATM   21  O   UNL     1     -45.757 -54.700  16.879  1.00  0.00    -0.776 OA
HETATM   22  H   UNL     1     -45.663 -55.629  16.593  1.00  0.00     0.167 HD
ENDBRANCH  19  21
ENDBRANCH  18  19
ENDBRANCH  17  18
ENDBRANCH   9  17
TORSDOF 5
ENDMDL
MODEL 7
REMARK VINA RESULT:      -5.4      2.561      3.181
REMARK  5 active torsions:
REMARK  status: ('A' for Active; 'I' for Inactive)
REMARK    1  A    between atoms: C_5  and  N_15 
REMARK    2  A    between atoms: C_9  and  C_10 
REMARK    3  A    between atoms: C_10  and  C_11 
REMARK    4  A    between atoms: C_11  and  C_12 
REMARK    5  A    between atoms: C_12  and  O_14 
ROOT
HETATM    1  C   UNL     1     -44.051 -52.855  13.097  1.00  0.00     0.069 C 
HETATM    2  C   UNL     1     -42.824 -52.042  12.773  1.00  0.00     0.034 C 
HETATM    3  N   UNL     1     -43.102 -50.740  12.413  1.00  0.00    -0.195 N 
ATOM      4  HN  UNL     1     -44.068 -50.426  12.321  1.00  0.00     0.184 HD
HETATM    5  C   UNL     1     -42.124 -49.920  12.192  1.00  0.00     0.683 C 
HETATM    6  N   UNL     1     -40.831 -50.347  12.261  1.00  0.00    -0.156 N 
HETATM    7  C   UNL     1     -40.480 -51.640  12.469  1.00  0.00     0.267 C 
HETATM    8  O   UNL     1     -39.315 -52.008  12.363  1.00  0.00    -0.267 OA
HETATM    9  C   UNL     1     -41.578 -52.559  12.846  1.00  0.00     0.034 C 
HETATM   10  H   UNL     1     -40.090 -49.740  11.960  1.00  0.00     0.187 HD
ENDROOT
BRANCH   5  11
HETATM   11  N   UNL     1     -42.318 -48.597  11.870  1.00  0.00    -0.213 N 
HETATM   12  C   UNL     1     -41.983 -48.006  10.572  1.00  0.00     0.167 C 
HETATM   13  C   UNL     1     -41.140 -46.741  10.775  1.00  0.00     0.188 C 
HETATM   14  O   UNL     1     -41.823 -45.796  11.611  1.00  0.00    -0.388 OA
HETATM   15  C   UNL     1     -42.056 -46.367  12.910  1.00  0.00     0.188 C 
HETATM   16  C   UNL     1     -42.902 -47.644  12.825  1.00  0.00     0.167 C 
ENDBRANCH   5  11
BRANCH   9  17
HETATM   17  C   UNL     1     -41.178 -53.968  13.216  1.00  0.00     0.057 C 
BRANCH  17  18
HETATM   18  C   UNL     1     -40.560 -54.064  14.617  1.00  0.00     0.115 C 
BRANCH  18  19
HETATM   19  C   UNL     1     -39.218 -54.754  14.596  1.00  0.00     0.139 C 
HETATM   20  O   UNL     1     -38.668 -55.264  15.558  1.00  0.00    -0.650 OA
BRANCH  19  21
HETATM   21  O   UNL     1     -38.654 -54.740  13.364  1.00  0.00    -0.776 OA
HETATM   22  H   UNL     1     -39.109 -55.314  12.717  1.00  0.00     0.167 HD
ENDBRANCH  19  21
ENDBRANCH  18  19
ENDBRANCH  17  18
ENDBRANCH   9  17
TORSDOF 5
ENDMDL
MODEL 8
REMARK VINA RESULT:      -5.4      2.557      6.287
REMARK  5 active torsions:
REMARK  status: ('A' for Active; 'I' for Inactive)
REMARK    1  A    between atoms: C_5  and  N_15 
REMARK    2  A    between atoms: C_9  and  C_10 
REMARK    3  A    between atoms: C_10  and  C_11 
REMARK    4  A    between atoms: C_11  and  C_12 
REMARK    5  A    between atoms: C_12  and  O_14 
ROOT
HETATM    1  C   UNL     1     -39.926 -49.463  15.347  1.00  0.00     0.069 C 
HETATM    2  C   UNL     1     -40.616 -49.945  14.096  1.00  0.00     0.034 C 
HETATM    3  N   UNL     1     -41.694 -50.770  14.342  1.00  0.00    -0.195 N 
ATOM      4  HN  UNL     1     -41.918 -51.055  15.296  1.00  0.00     0.184 HD
HETATM    5  C   UNL     1     -42.418 -51.180  13.350  1.00  0.00     0.683 C 
HETATM    6  N   UNL     1     -42.093 -50.847  12.069  1.00  0.00    -0.156 N 
HETATM    7  C   UNL     1     -40.973 -50.159  11.736  1.00  0.00     0.267 C 
HETATM    8  O   UNL     1     -40.636 -50.021  10.565  1.00  0.00    -0.267 OA
HETATM    9  C   UNL     1     -40.207 -49.579  12.863  1.00  0.00     0.034 C 
HETATM   10  H   UNL     1     -42.580 -51.277  11.304  1.00  0.00     0.187 HD
ENDROOT
BRANCH   5  11
HETATM   11  N   UNL     1     -43.531 -51.971  13.516  1.00  0.00    -0.213 N 
HETATM   12  C   UNL     1     -43.490 -53.416  13.752  1.00  0.00     0.167 C 
HETATM   13  C   UNL     1     -44.424 -54.133  12.770  1.00  0.00     0.188 C 
HETATM   14  O   UNL     1     -45.764 -53.633  12.875  1.00  0.00    -0.388 OA
HETATM   15  C   UNL     1     -45.793 -52.233  12.547  1.00  0.00     0.188 C 
HETATM   16  C   UNL     1     -44.891 -51.413  13.478  1.00  0.00     0.167 C 
ENDBRANCH   5  11
BRANCH   9  17
HETATM   17  C   UNL     1     -39.039 -48.695  12.496  1.00  0.00     0.057 C 
BRANCH  17  18
HETATM   18  C   UNL     1     -37.681 -49.353  12.773  1.00  0.00     0.115 C 
BRANCH  18  19
HETATM   19  C   UNL     1     -37.386 -50.470  11.801  1.00  0.00     0.139 C 
HETATM   20  O   UNL     1     -36.952 -51.571  12.097  1.00  0.00    -0.650 OA
BRANCH  19  21
HETATM   21  O   UNL     1     -37.646 -50.115  10.519  1.00  0.00    -0.776 OA
HETATM   22  H   UNL     1     -36.853 -49.852  10.015  1.00  0.00     0.167 HD
ENDBRANCH  19  21
ENDBRANCH  18  19
ENDBRANCH  17  18
ENDBRANCH   9  17
TORSDOF 5
ENDMDL
MODEL 9
REMARK VINA RESULT:      -5.2      2.282      3.743
REMARK  5 active torsions:
REMARK  status: ('A' for Active; 'I' for Inactive)
REMARK    1  A    between atoms: C_5  and  N_15 
REMARK    2  A    between atoms: C_9  and  C_10 
REMARK    3  A    between atoms: C_10  and  C_11 
REMARK    4  A    between atoms: C_11  and  C_12 
REMARK    5  A    between atoms: C_12  and  O_14 
ROOT
HETATM    1  C   UNL     1     -38.381 -50.898  12.473  1.00  0.00     0.069 C 
HETATM    2  C   UNL     1     -39.867 -50.695  12.324  1.00  0.00     0.034 C 
HETATM    3  N   UNL     1     -40.221 -49.396  12.023  1.00  0.00    -0.195 N 
ATOM      4  HN  UNL     1     -39.511 -48.664  11.986  1.00  0.00     0.184 HD
HETATM    5  C   UNL     1     -41.464 -49.115  11.788  1.00  0.00     0.683 C 
HETATM    6  N   UNL     1     -42.423 -50.078  11.889  1.00  0.00    -0.156 N 
HETATM    7  C   UNL     1     -42.176 -51.340  12.315  1.00  0.00     0.267 C 
HETATM    8  O   UNL     1     -43.090 -52.125  12.545  1.00  0.00    -0.267 OA
HETATM    9  C   UNL     1     -40.749 -51.707  12.465  1.00  0.00     0.034 C 
HETATM   10  H   UNL     1     -43.393 -49.821  11.836  1.00  0.00     0.187 HD
ENDROOT
BRANCH   5  11
HETATM   11  N   UNL     1     -41.890 -47.855  11.442  1.00  0.00    -0.213 N 
HETATM   12  C   UNL     1     -43.170 -47.566  10.789  1.00  0.00     0.167 C 
HETATM   13  C   UNL     1     -42.941 -46.682   9.558  1.00  0.00     0.188 C 
HETATM   14  O   UNL     1     -42.260 -45.471   9.913  1.00  0.00    -0.388 OA
HETATM   15  C   UNL     1     -40.967 -45.777  10.465  1.00  0.00     0.188 C 
HETATM   16  C   UNL     1     -41.078 -46.659  11.715  1.00  0.00     0.167 C 
ENDBRANCH   5  11
BRANCH   9  17
HETATM   17  C   UNL     1     -40.459 -53.151  12.803  1.00  0.00     0.057 C 
BRANCH  17  18
HETATM   18  C   UNL     1     -40.206 -53.375  14.299  1.00  0.00     0.115 C 
BRANCH  18  19
HETATM   19  C   UNL     1     -39.112 -54.385  14.543  1.00  0.00     0.139 C 
HETATM   20  O   UNL     1     -38.671 -54.704  15.635  1.00  0.00    -0.650 OA
BRANCH  19  21
HETATM   21  O   UNL     1     -38.638 -54.914  13.388  1.00  0.00    -0.776 OA
HETATM   22  H   UNL     1     -37.900 -54.410  12.998  1.00  0.00     0.167 HD
ENDBRANCH  19  21
ENDBRANCH  18  19
ENDBRANCH  17  18
ENDBRANCH   9  17
TORSDOF 5
ENDMDL
