MODEL 1
REMARK VINA RESULT:      -5.7      0.000      0.000
REMARK  5 active torsions:
REMARK  status: ('A' for Active; 'I' for Inactive)
REMARK    1  A    between atoms: C_2  and  C_3 
REMARK    2  A    between atoms: C_3  and  C_5 
REMARK       I    between atoms: C_5  and  N_7 
REMARK    3  A    between atoms: N_7  and  C_8 
REMARK    4  A    between atoms: C_11  and  C_12 
REMARK    5  A    between atoms: C_12  and  C_13 
REMARK       I    between atoms: C_13  and  N_15 
ROOT
HETATM    1  C   UNL     1     -41.431 -48.403  10.624  1.00  0.00     0.130 C 
HETATM    2  N   UNL     1     -41.492 -49.629  11.072  1.00  0.00    -0.344 N 
ATOM      3  HN  UNL     1     -42.197 -50.321  10.815  1.00  0.00     0.167 HD
HETATM    4  C   UNL     1     -40.438 -49.837  11.959  1.00  0.00     0.026 C 
HETATM    5  C   UNL     1     -39.738 -48.689  12.292  1.00  0.00     0.078 C 
HETATM    6  S   UNL     1     -40.315 -47.357  11.379  1.00  0.00    -0.070 SA
ENDROOT
BRANCH   1   7
HETATM    7  N   UNL     1     -42.277 -47.875   9.683  1.00  0.00    -0.208 NA
HETATM    8  C   UNL     1     -43.576 -47.610  10.093  1.00  0.00     0.207 C 
HETATM    9  O   UNL     1     -44.017 -47.804  11.223  1.00  0.00    -0.279 OA
HETATM   10  H   UNL     1     -41.857 -47.122   9.155  1.00  0.00     0.138 HD
BRANCH   8  11
HETATM   11  C   UNL     1     -44.447 -47.049   8.969  1.00  0.00     0.068 C 
HETATM   12  C   UNL     1     -44.275 -45.534   8.847  1.00  0.00     0.019 C 
BRANCH  11  13
HETATM   13  C   UNL     1     -45.916 -47.450   9.185  1.00  0.00     0.008 C 
HETATM   14  C   UNL     1     -46.383 -48.614   8.315  1.00  0.00     0.006 C 
ENDBRANCH  11  13
ENDBRANCH   8  11
ENDBRANCH   1   7
BRANCH   4  15
HETATM   15  C   UNL     1     -40.133 -51.246  12.352  1.00  0.00     0.160 C 
BRANCH  15  16
HETATM   16  C   UNL     1     -41.223 -52.260  12.076  1.00  0.00     0.221 C 
HETATM   17  O   UNL     1     -42.411 -52.140  12.366  1.00  0.00    -0.273 OA
HETATM   18  N   UNL     1     -40.786 -53.405  11.470  1.00  0.00    -0.370 N 
HETATM   19  H   UNL     1     -39.837 -53.534  11.147  1.00  0.00     0.159 HD
HETATM   20  H   UNL     1     -41.477 -54.110  11.247  1.00  0.00     0.159 HD
ENDBRANCH  15  16
ENDBRANCH   4  15
TORSDOF 5
ENDMDL
MODEL 2
REMARK VINA RESULT:      -5.6      2.335      2.634
REMARK  5 active torsions:
REMARK  status: ('A' for Active; 'I' for Inactive)
REMARK    1  A    between atoms: C_2  and  C_3 
REMARK    2  A    between atoms: C_3  and  C_5 
REMARK       I    between atoms: C_5  and  N_7 
REMARK    3  A    between atoms: N_7  and  C_8 
REMARK    4  A    between atoms: C_11  and  C_12 
REMARK    5  A    between atoms: C_12  and  C_13 
REMARK       I    between atoms: C_13  and  N_15 
ROOT
HETATM    1  C   UNL     1     -41.720 -48.837  10.995  1.00  0.00     0.130 C 
HETATM    2  N   UNL     1     -40.436 -48.878  10.750  1.00  0.00    -0.344 N 
ATOM      3  HN  UNL     1     -39.992 -48.628   9.867  1.00  0.00     0.167 HD
HETATM    4  C   UNL     1     -39.775 -49.321  11.894  1.00  0.00     0.026 C 
HETATM    5  C   UNL     1     -40.615 -49.784  12.895  1.00  0.00     0.078 C 
HETATM    6  S   UNL     1     -42.253 -49.533  12.458  1.00  0.00    -0.070 SA
ENDROOT
BRANCH   1   7
HETATM    7  N   UNL     1     -42.666 -48.386  10.111  1.00  0.00    -0.208 NA
HETATM    8  C   UNL     1     -42.669 -47.025   9.843  1.00  0.00     0.207 C 
HETATM    9  O   UNL     1     -41.894 -46.204  10.327  1.00  0.00    -0.279 OA
HETATM   10  H   UNL     1     -42.736 -48.962   9.283  1.00  0.00     0.138 HD
BRANCH   8  11
HETATM   11  C   UNL     1     -43.773 -46.617   8.867  1.00  0.00     0.068 C 
HETATM   12  C   UNL     1     -44.222 -45.177   9.118  1.00  0.00     0.019 C 
BRANCH  11  13
HETATM   13  C   UNL     1     -44.944 -47.612   8.944  1.00  0.00     0.008 C 
HETATM   14  C   UNL     1     -46.313 -46.958   9.103  1.00  0.00     0.006 C 
ENDBRANCH  11  13
ENDBRANCH   8  11
ENDBRANCH   1   7
BRANCH   4  15
HETATM   15  C   UNL     1     -38.292 -49.153  11.944  1.00  0.00     0.160 C 
BRANCH  15  16
HETATM   16  C   UNL     1     -37.477 -50.299  11.382  1.00  0.00     0.221 C 
HETATM   17  O   UNL     1     -37.112 -51.296  11.999  1.00  0.00    -0.273 OA
HETATM   18  N   UNL     1     -37.125 -50.147  10.069  1.00  0.00    -0.370 N 
HETATM   19  H   UNL     1     -37.451 -49.385   9.491  1.00  0.00     0.159 HD
HETATM   20  H   UNL     1     -36.594 -50.894   9.638  1.00  0.00     0.159 HD
ENDBRANCH  15  16
ENDBRANCH   4  15
TORSDOF 5
ENDMDL
MODEL 3
REMARK VINA RESULT:      -5.5      2.612      6.548
REMARK  5 active torsions:
REMARK  status: ('A' for Active; 'I' for Inactive)
REMARK    1  A    between atoms: C_2  and  C_3 
REMARK    2  A    between atoms: C_3  and  C_5 
REMARK       I    between atoms: C_5  and  N_7 
REMARK    3  A    between atoms: N_7  and  C_8 
REMARK    4  A    between atoms: C_11  and  C_12 
REMARK    5  A    between atoms: C_12  and  C_13 
REMARK       I    between atoms: C_13  and  N_15 
ROOT
HETATM    1  C   UNL     1     -41.293 -48.881  10.965  1.00  0.00     0.130 C 
HETATM    2  N   UNL     1     -41.546 -48.178   9.893  1.00  0.00    -0.344 N 
ATOM      3  HN  UNL     1     -40.886 -47.988   9.138  1.00  0.00     0.167 HD
HETATM    4  C   UNL     1     -42.863 -47.729   9.951  1.00  0.00     0.026 C 
HETATM    5  C   UNL     1     -43.489 -47.952  11.167  1.00  0.00     0.078 C 
HETATM    6  S   UNL     1     -42.467 -48.858  12.202  1.00  0.00    -0.070 SA
ENDROOT
BRANCH   1   7
HETATM    7  N   UNL     1     -40.109 -49.529  11.209  1.00  0.00    -0.208 NA
HETATM    8  C   UNL     1     -39.121 -48.799  11.853  1.00  0.00     0.207 C 
HETATM    9  O   UNL     1     -39.227 -47.632  12.223  1.00  0.00    -0.279 OA
HETATM   10  H   UNL     1     -40.240 -50.457  11.589  1.00  0.00     0.138 HD
BRANCH   8  11
HETATM   11  C   UNL     1     -37.834 -49.598  12.057  1.00  0.00     0.068 C 
HETATM   12  C   UNL     1     -37.227 -50.012  10.715  1.00  0.00     0.019 C 
BRANCH  11  13
HETATM   13  C   UNL     1     -38.098 -50.806  12.971  1.00  0.00     0.008 C 
HETATM   14  C   UNL     1     -37.868 -50.533  14.455  1.00  0.00     0.006 C 
ENDBRANCH  11  13
ENDBRANCH   8  11
ENDBRANCH   1   7
BRANCH   4  15
HETATM   15  C   UNL     1     -43.459 -47.171   8.700  1.00  0.00     0.160 C 
BRANCH  15  16
HETATM   16  C   UNL     1     -44.250 -45.889   8.859  1.00  0.00     0.221 C 
HETATM   17  O   UNL     1     -43.779 -44.765   9.016  1.00  0.00    -0.273 OA
HETATM   18  N   UNL     1     -45.607 -46.060   8.842  1.00  0.00    -0.370 N 
HETATM   19  H   UNL     1     -46.052 -46.946   8.649  1.00  0.00     0.159 HD
HETATM   20  H   UNL     1     -46.183 -45.232   8.927  1.00  0.00     0.159 HD
ENDBRANCH  15  16
ENDBRANCH   4  15
TORSDOF 5
ENDMDL
MODEL 4
REMARK VINA RESULT:      -5.4      4.200      4.940
REMARK  5 active torsions:
REMARK  status: ('A' for Active; 'I' for Inactive)
REMARK    1  A    between atoms: C_2  and  C_3 
REMARK    2  A    between atoms: C_3  and  C_5 
REMARK       I    between atoms: C_5  and  N_7 
REMARK    3  A    between atoms: N_7  and  C_8 
REMARK    4  A    between atoms: C_11  and  C_12 
REMARK    5  A    between atoms: C_12  and  C_13 
REMARK       I    between atoms: C_13  and  N_15 
ROOT
HETATM    1  C   UNL     1     -42.416 -52.135  12.761  1.00  0.00     0.130 C 
HETATM    2  N   UNL     1     -41.572 -51.166  12.519  1.00  0.00    -0.344 N 
ATOM      3  HN  UNL     1     -41.813 -50.247  12.148  1.00  0.00     0.167 HD
HETATM    4  C   UNL     1     -40.288 -51.595  12.850  1.00  0.00     0.026 C 
HETATM    5  C   UNL     1     -40.197 -52.946  13.144  1.00  0.00     0.078 C 
HETATM    6  S   UNL     1     -41.756 -53.660  13.144  1.00  0.00    -0.070 SA
ENDROOT
BRANCH   1   7
HETATM    7  N   UNL     1     -43.775 -52.037  12.610  1.00  0.00    -0.208 NA
HETATM    8  C   UNL     1     -44.450 -51.255  13.536  1.00  0.00     0.207 C 
HETATM    9  O   UNL     1     -43.927 -50.644  14.465  1.00  0.00    -0.279 OA
HETATM   10  H   UNL     1     -44.053 -51.864  11.654  1.00  0.00     0.138 HD
BRANCH   8  11
HETATM   11  C   UNL     1     -45.960 -51.229  13.299  1.00  0.00     0.068 C 
HETATM   12  C   UNL     1     -46.723 -51.493  14.598  1.00  0.00     0.019 C 
BRANCH  11  13
HETATM   13  C   UNL     1     -46.341 -52.225  12.190  1.00  0.00     0.008 C 
HETATM   14  C   UNL     1     -47.325 -51.673  11.162  1.00  0.00     0.006 C 
ENDBRANCH  11  13
ENDBRANCH   8  11
ENDBRANCH   1   7
BRANCH   4  15
HETATM   15  C   UNL     1     -39.216 -50.560  12.945  1.00  0.00     0.160 C 
BRANCH  15  16
HETATM   16  C   UNL     1     -37.989 -50.799  12.091  1.00  0.00     0.221 C 
HETATM   17  O   UNL     1     -37.032 -51.511  12.384  1.00  0.00    -0.273 OA
HETATM   18  N   UNL     1     -37.988 -50.116  10.906  1.00  0.00    -0.370 N 
HETATM   19  H   UNL     1     -38.773 -49.570  10.579  1.00  0.00     0.159 HD
HETATM   20  H   UNL     1     -37.198 -50.253  10.287  1.00  0.00     0.159 HD
ENDBRANCH  15  16
ENDBRANCH   4  15
TORSDOF 5
ENDMDL
MODEL 5
REMARK VINA RESULT:      -5.3      4.001      5.125
REMARK  5 active torsions:
REMARK  status: ('A' for Active; 'I' for Inactive)
REMARK    1  A    between atoms: C_2  and  C_3 
REMARK    2  A    between atoms: C_3  and  C_5 
REMARK       I    between atoms: C_5  and  N_7 
REMARK    3  A    between atoms: N_7  and  C_8 
REMARK    4  A    between atoms: C_11  and  C_12 
REMARK    5  A    between atoms: C_12  and  C_13 
REMARK       I    between atoms: C_13  and  N_15 
ROOT
HETATM    1  C   UNL     1     -42.444 -51.952  12.521  1.00  0.00     0.130 C 
HETATM    2  N   UNL     1     -41.970 -50.984  11.780  1.00  0.00    -0.344 N 
ATOM      3  HN  UNL     1     -42.512 -50.414  11.131  1.00  0.00     0.167 HD
HETATM    4  C   UNL     1     -40.604 -50.861  12.023  1.00  0.00     0.026 C 
HETATM    5  C   UNL     1     -40.068 -51.878  12.796  1.00  0.00     0.078 C 
HETATM    6  S   UNL     1     -41.310 -52.925  13.343  1.00  0.00    -0.070 SA
ENDROOT
BRANCH   1   7
HETATM    7  N   UNL     1     -43.767 -52.307  12.583  1.00  0.00    -0.208 NA
HETATM    8  C   UNL     1     -44.602 -51.473  13.312  1.00  0.00     0.207 C 
HETATM    9  O   UNL     1     -44.251 -50.449  13.893  1.00  0.00    -0.279 OA
HETATM   10  H   UNL     1     -44.145 -52.573  11.684  1.00  0.00     0.138 HD
BRANCH   8  11
HETATM   11  C   UNL     1     -46.049 -51.966  13.342  1.00  0.00     0.068 C 
HETATM   12  C   UNL     1     -46.739 -51.725  11.999  1.00  0.00     0.019 C 
BRANCH  11  13
HETATM   13  C   UNL     1     -46.808 -51.312  14.510  1.00  0.00     0.008 C 
HETATM   14  C   UNL     1     -47.024 -52.230  15.710  1.00  0.00     0.006 C 
ENDBRANCH  11  13
ENDBRANCH   8  11
ENDBRANCH   1   7
BRANCH   4  15
HETATM   15  C   UNL     1     -39.921 -49.630  11.522  1.00  0.00     0.160 C 
BRANCH  15  16
HETATM   16  C   UNL     1     -38.418 -49.588  11.702  1.00  0.00     0.221 C 
HETATM   17  O   UNL     1     -37.820 -49.156  12.684  1.00  0.00    -0.273 OA
HETATM   18  N   UNL     1     -37.711 -50.067  10.634  1.00  0.00    -0.370 N 
HETATM   19  H   UNL     1     -38.145 -50.496   9.829  1.00  0.00     0.159 HD
HETATM   20  H   UNL     1     -36.701 -50.078  10.708  1.00  0.00     0.159 HD
ENDBRANCH  15  16
ENDBRANCH   4  15
TORSDOF 5
ENDMDL
MODEL 6
REMARK VINA RESULT:      -5.2      1.872      5.994
REMARK  5 active torsions:
REMARK  status: ('A' for Active; 'I' for Inactive)
REMARK    1  A    between atoms: C_2  and  C_3 
REMARK    2  A    between atoms: C_3  and  C_5 
REMARK       I    between atoms: C_5  and  N_7 
REMARK    3  A    between atoms: N_7  and  C_8 
REMARK    4  A    between atoms: C_11  and  C_12 
REMARK    5  A    between atoms: C_12  and  C_13 
REMARK       I    between atoms: C_13  and  N_15 
ROOT
HETATM    1  C   UNL     1     -41.115 -48.238  10.683  1.00  0.00     0.130 C 
HETATM    2  N   UNL     1     -42.157 -48.314   9.897  1.00  0.00    -0.344 N 
ATOM      3  HN  UNL     1     -42.486 -49.158   9.428  1.00  0.00     0.167 HD
HETATM    4  C   UNL     1     -42.743 -47.054   9.804  1.00  0.00     0.026 C 
HETATM    5  C   UNL     1     -41.997 -46.034  10.372  1.00  0.00     0.078 C 
HETATM    6  S   UNL     1     -40.614 -46.677  11.156  1.00  0.00    -0.070 SA
ENDROOT
BRANCH   1   7
HETATM    7  N   UNL     1     -40.337 -49.305  11.049  1.00  0.00    -0.208 NA
HETATM    8  C   UNL     1     -40.935 -50.266  11.851  1.00  0.00     0.207 C 
HETATM    9  O   UNL     1     -42.098 -50.236  12.248  1.00  0.00    -0.279 OA
HETATM   10  H   UNL     1     -39.812 -49.692  10.277  1.00  0.00     0.138 HD
BRANCH   8  11
HETATM   11  C   UNL     1     -39.982 -51.401  12.225  1.00  0.00     0.068 C 
HETATM   12  C   UNL     1     -40.754 -52.627  12.713  1.00  0.00     0.019 C 
BRANCH  11  13
HETATM   13  C   UNL     1     -38.955 -50.912  13.261  1.00  0.00     0.008 C 
HETATM   14  C   UNL     1     -37.514 -50.904  12.760  1.00  0.00     0.006 C 
ENDBRANCH  11  13
ENDBRANCH   8  11
ENDBRANCH   1   7
BRANCH   4  15
HETATM   15  C   UNL     1     -44.112 -46.970   9.212  1.00  0.00     0.160 C 
BRANCH  15  16
HETATM   16  C   UNL     1     -44.391 -47.908   8.056  1.00  0.00     0.221 C 
HETATM   17  O   UNL     1     -43.585 -48.252   7.194  1.00  0.00    -0.273 OA
HETATM   18  N   UNL     1     -45.679 -48.366   8.001  1.00  0.00    -0.370 N 
HETATM   19  H   UNL     1     -46.366 -48.174   8.716  1.00  0.00     0.159 HD
HETATM   20  H   UNL     1     -45.915 -49.011   7.258  1.00  0.00     0.159 HD
ENDBRANCH  15  16
ENDBRANCH   4  15
TORSDOF 5
ENDMDL
MODEL 7
REMARK VINA RESULT:      -5.2      3.872      5.597
REMARK  5 active torsions:
REMARK  status: ('A' for Active; 'I' for Inactive)
REMARK    1  A    between atoms: C_2  and  C_3 
REMARK    2  A    between atoms: C_3  and  C_5 
REMARK       I    between atoms: C_5  and  N_7 
REMARK    3  A    between atoms: N_7  and  C_8 
REMARK    4  A    between atoms: C_11  and  C_12 
REMARK    5  A    between atoms: C_12  and  C_13 
REMARK       I    between atoms: C_13  and  N_15 
ROOT
HETATM    1  C   UNL     1     -41.164 -50.769  11.879  1.00  0.00     0.130 C 
HETATM    2  N   UNL     1     -39.865 -50.814  12.017  1.00  0.00    -0.344 N 
ATOM      3  HN  UNL     1     -39.313 -51.658  12.171  1.00  0.00     0.167 HD
HETATM    4  C   UNL     1     -39.358 -49.520  11.920  1.00  0.00     0.026 C 
HETATM    5  C   UNL     1     -40.325 -48.528  11.910  1.00  0.00     0.078 C 
HETATM    6  S   UNL     1     -41.891 -49.226  11.879  1.00  0.00    -0.070 SA
ENDROOT
BRANCH   1   7
HETATM    7  N   UNL     1     -41.983 -51.869  11.858  1.00  0.00    -0.208 NA
HETATM    8  C   UNL     1     -42.163 -52.534  13.061  1.00  0.00     0.207 C 
HETATM    9  O   UNL     1     -41.656 -52.212  14.134  1.00  0.00    -0.279 OA
HETATM   10  H   UNL     1     -42.843 -51.709  11.351  1.00  0.00     0.138 HD
BRANCH   8  11
HETATM   11  C   UNL     1     -43.069 -53.758  12.930  1.00  0.00     0.068 C 
HETATM   12  C   UNL     1     -44.465 -53.358  12.450  1.00  0.00     0.019 C 
BRANCH  11  13
HETATM   13  C   UNL     1     -43.113 -54.531  14.259  1.00  0.00     0.008 C 
HETATM   14  C   UNL     1     -44.474 -54.518  14.949  1.00  0.00     0.006 C 
ENDBRANCH  11  13
ENDBRANCH   8  11
ENDBRANCH   1   7
BRANCH   4  15
HETATM   15  C   UNL     1     -37.883 -49.368  11.741  1.00  0.00     0.160 C 
BRANCH  15  16
HETATM   16  C   UNL     1     -37.171 -50.539  11.096  1.00  0.00     0.221 C 
HETATM   17  O   UNL     1     -36.827 -51.574  11.659  1.00  0.00    -0.273 OA
HETATM   18  N   UNL     1     -36.890 -50.363   9.769  1.00  0.00    -0.370 N 
HETATM   19  H   UNL     1     -37.205 -49.565   9.235  1.00  0.00     0.159 HD
HETATM   20  H   UNL     1     -36.430 -51.123   9.283  1.00  0.00     0.159 HD
ENDBRANCH  15  16
ENDBRANCH   4  15
TORSDOF 5
ENDMDL
MODEL 8
REMARK VINA RESULT:      -5.1      3.603      5.474
REMARK  5 active torsions:
REMARK  status: ('A' for Active; 'I' for Inactive)
REMARK    1  A    between atoms: C_2  and  C_3 
REMARK    2  A    between atoms: C_3  and  C_5 
REMARK       I    between atoms: C_5  and  N_7 
REMARK    3  A    between atoms: N_7  and  C_8 
REMARK    4  A    between atoms: C_11  and  C_12 
REMARK    5  A    between atoms: C_12  and  C_13 
REMARK       I    between atoms: C_13  and  N_15 
ROOT
HETATM    1  C   UNL     1     -41.587 -52.355  12.091  1.00  0.00     0.130 C 
HETATM    2  N   UNL     1     -42.880 -52.195  12.208  1.00  0.00    -0.344 N 
ATOM      3  HN  UNL     1     -43.408 -51.381  11.892  1.00  0.00     0.167 HD
HETATM    4  C   UNL     1     -43.417 -53.317  12.834  1.00  0.00     0.026 C 
HETATM    5  C   UNL     1     -42.471 -54.194  13.342  1.00  0.00     0.078 C 
HETATM    6  S   UNL     1     -40.894 -53.681  12.909  1.00  0.00    -0.070 SA
ENDROOT
BRANCH   1   7
HETATM    7  N   UNL     1     -40.748 -51.471  11.464  1.00  0.00    -0.208 NA
HETATM    8  C   UNL     1     -40.324 -50.380  12.208  1.00  0.00     0.207 C 
HETATM    9  O   UNL     1     -40.635 -50.152  13.375  1.00  0.00    -0.279 OA
HETATM   10  H   UNL     1     -40.003 -51.929  10.957  1.00  0.00     0.138 HD
BRANCH   8  11
HETATM   11  C   UNL     1     -39.414 -49.442  11.416  1.00  0.00     0.068 C 
HETATM   12  C   UNL     1     -37.945 -49.833  11.583  1.00  0.00     0.019 C 
BRANCH  11  13
HETATM   13  C   UNL     1     -39.675 -47.981  11.822  1.00  0.00     0.008 C 
HETATM   14  C   UNL     1     -40.847 -47.328  11.095  1.00  0.00     0.006 C 
ENDBRANCH  11  13
ENDBRANCH   8  11
ENDBRANCH   1   7
BRANCH   4  15
HETATM   15  C   UNL     1     -44.900 -53.488  12.794  1.00  0.00     0.160 C 
BRANCH  15  16
HETATM   16  C   UNL     1     -45.710 -52.212  12.688  1.00  0.00     0.221 C 
HETATM   17  O   UNL     1     -45.593 -51.221  13.405  1.00  0.00    -0.273 OA
HETATM   18  N   UNL     1     -46.659 -52.229  11.703  1.00  0.00    -0.370 N 
HETATM   19  H   UNL     1     -46.757 -52.985  11.040  1.00  0.00     0.159 HD
HETATM   20  H   UNL     1     -47.217 -51.394  11.577  1.00  0.00     0.159 HD
ENDBRANCH  15  16
ENDBRANCH   4  15
TORSDOF 5
ENDMDL
MODEL 9
REMARK VINA RESULT:      -5.1      1.998      5.461
REMARK  5 active torsions:
REMARK  status: ('A' for Active; 'I' for Inactive)
REMARK    1  A    between atoms: C_2  and  C_3 
REMARK    2  A    between atoms: C_3  and  C_5 
REMARK       I    between atoms: C_5  and  N_7 
REMARK    3  A    between atoms: N_7  and  C_8 
REMARK    4  A    between atoms: C_11  and  C_12 
REMARK    5  A    between atoms: C_12  and  C_13 
REMARK       I    between atoms: C_13  and  N_15 
ROOT
HETATM    1  C   UNL     1     -41.379 -48.905  11.202  1.00  0.00     0.130 C 
HETATM    2  N   UNL     1     -42.240 -48.589  10.270  1.00  0.00    -0.344 N 
ATOM      3  HN  UNL     1     -42.853 -49.242   9.782  1.00  0.00     0.167 HD
HETATM    4  C   UNL     1     -42.183 -47.214  10.053  1.00  0.00     0.026 C 
HETATM    5  C   UNL     1     -41.134 -46.578  10.697  1.00  0.00     0.078 C 
HETATM    6  S   UNL     1     -40.294 -47.687  11.699  1.00  0.00    -0.070 SA
ENDROOT
BRANCH   1   7
HETATM    7  N   UNL     1     -41.213 -50.166  11.713  1.00  0.00    -0.208 NA
HETATM    8  C   UNL     1     -42.189 -50.616  12.590  1.00  0.00     0.207 C 
HETATM    9  O   UNL     1     -43.182 -49.979  12.935  1.00  0.00    -0.279 OA
HETATM   10  H   UNL     1     -40.959 -50.845  11.008  1.00  0.00     0.138 HD
BRANCH   8  11
HETATM   11  C   UNL     1     -41.903 -52.019  13.123  1.00  0.00     0.068 C 
HETATM   12  C   UNL     1     -41.117 -52.844  12.103  1.00  0.00     0.019 C 
BRANCH  11  13
HETATM   13  C   UNL     1     -43.215 -52.708  13.538  1.00  0.00     0.008 C 
HETATM   14  C   UNL     1     -43.925 -53.440  12.403  1.00  0.00     0.006 C 
ENDBRANCH  11  13
ENDBRANCH   8  11
ENDBRANCH   1   7
BRANCH   4  15
HETATM   15  C   UNL     1     -43.285 -46.593   9.259  1.00  0.00     0.160 C 
BRANCH  15  16
HETATM   16  C   UNL     1     -43.940 -47.487   8.226  1.00  0.00     0.221 C 
HETATM   17  O   UNL     1     -43.363 -48.109   7.338  1.00  0.00    -0.273 OA
HETATM   18  N   UNL     1     -45.303 -47.553   8.324  1.00  0.00    -0.370 N 
HETATM   19  H   UNL     1     -45.828 -47.120   9.071  1.00  0.00     0.159 HD
HETATM   20  H   UNL     1     -45.791 -48.151   7.668  1.00  0.00     0.159 HD
ENDBRANCH  15  16
ENDBRANCH   4  15
TORSDOF 5
ENDMDL
