MODEL 1
REMARK VINA RESULT:      -5.9      0.000      0.000
REMARK  4 active torsions:
REMARK  status: ('A' for Active; 'I' for Inactive)
REMARK    1  A    between atoms: O_2  and  C_3 
REMARK    2  A    between atoms: C_6  and  N_7 
REMARK       I    between atoms: N_7  and  C_8 
REMARK       I    between atoms: C_8  and  N_10 
REMARK    3  A    between atoms: N_10  and  C_11 
REMARK    4  A    between atoms: N_14  and  C_16 
ROOT
HETATM    1  N   UNL     1     -41.035 -49.314  10.692  1.00  0.00    -0.308 N 
HETATM    2  C   UNL     1     -41.205 -50.048  11.843  1.00  0.00     0.321 C 
HETATM    3  O   UNL     1     -41.959 -49.764  12.765  1.00  0.00    -0.247 OA
HETATM    4  N   UNL     1     -40.394 -51.161  11.899  1.00  0.00    -0.336 N 
HETATM    5  H   UNL     1     -40.581 -49.768   9.914  1.00  0.00     0.170 HD
HETATM    6  H   UNL     1     -40.055 -51.552  11.034  1.00  0.00     0.164 HD
ENDROOT
BRANCH   1   7
HETATM    7  C   UNL     1     -41.573 -48.023  10.469  1.00  0.00     0.051 A 
HETATM    8  C   UNL     1     -42.741 -47.795   9.743  1.00  0.00     0.035 A 
HETATM    9  C   UNL     1     -43.232 -46.501   9.595  1.00  0.00     0.058 A 
HETATM   10  C   UNL     1     -42.538 -45.459  10.183  1.00  0.00     0.141 A 
HETATM   11  N   UNL     1     -41.400 -45.626  10.891  1.00  0.00    -0.345 N 
HETATM   12  C   UNL     1     -40.953 -46.902  11.020  1.00  0.00     0.119 A 
ATOM     13  HN  UNL     1     -40.903 -44.838  11.306  1.00  0.00     0.167 HD
BRANCH  10  14
HETATM   14  O   UNL     1     -43.101 -44.207  10.044  1.00  0.00    -0.341 OA
HETATM   15  C   UNL     1     -42.776 -43.317  11.103  1.00  0.00     0.211 C 
ENDBRANCH  10  14
ENDBRANCH   1   7
BRANCH   4  16
HETATM   16  C   UNL     1     -40.499 -52.037  13.057  1.00  0.00     0.116 C 
HETATM   17  C   UNL     1     -39.166 -52.326  13.726  1.00  0.00     0.057 C 
HETATM   18  C   UNL     1     -39.202 -53.815  14.059  1.00  0.00     0.275 C 
HETATM   19  N   UNL     1     -40.568 -54.314  13.811  1.00  0.00     0.094 N 
HETATM   20  C   UNL     1     -41.055 -53.425  12.734  1.00  0.00     0.298 C 
BRANCH  19  21
HETATM   21  C   UNL     1     -41.434 -54.325  15.015  1.00  0.00     0.215 C 
HETATM   22  C   UNL     1     -42.833 -54.895  14.707  1.00  0.00     0.042 C 
HETATM   23  C   UNL     1     -40.848 -55.213  16.130  1.00  0.00     0.042 C 
ENDBRANCH  19  21
ENDBRANCH   4  16
TORSDOF 4
ENDMDL
MODEL 2
REMARK VINA RESULT:      -5.7      2.482      3.151
REMARK  4 active torsions:
REMARK  status: ('A' for Active; 'I' for Inactive)
REMARK    1  A    between atoms: O_2  and  C_3 
REMARK    2  A    between atoms: C_6  and  N_7 
REMARK       I    between atoms: N_7  and  C_8 
REMARK       I    between atoms: C_8  and  N_10 
REMARK    3  A    between atoms: N_10  and  C_11 
REMARK    4  A    between atoms: N_14  and  C_16 
ROOT
HETATM    1  N   UNL     1     -41.743 -49.450  11.079  1.00  0.00    -0.308 N 
HETATM    2  C   UNL     1     -42.420 -49.926  12.178  1.00  0.00     0.321 C 
HETATM    3  O   UNL     1     -42.900 -49.241  13.072  1.00  0.00    -0.247 OA
HETATM    4  N   UNL     1     -42.485 -51.302  12.218  1.00  0.00    -0.336 N 
HETATM    5  H   UNL     1     -41.614 -50.082  10.303  1.00  0.00     0.170 HD
HETATM    6  H   UNL     1     -42.399 -51.812  11.352  1.00  0.00     0.164 HD
ENDROOT
BRANCH   1   7
HETATM    7  C   UNL     1     -41.342 -48.105  10.896  1.00  0.00     0.051 A 
HETATM    8  C   UNL     1     -40.177 -47.572  11.446  1.00  0.00     0.035 A 
HETATM    9  C   UNL     1     -39.826 -46.248  11.194  1.00  0.00     0.058 A 
HETATM   10  C   UNL     1     -40.654 -45.486  10.391  1.00  0.00     0.141 A 
HETATM   11  N   UNL     1     -41.795 -45.953   9.839  1.00  0.00    -0.345 N 
HETATM   12  C   UNL     1     -42.104 -47.249  10.101  1.00  0.00     0.119 A 
ATOM     13  HN  UNL     1     -42.392 -45.364   9.258  1.00  0.00     0.167 HD
BRANCH  10  14
HETATM   14  O   UNL     1     -40.226 -44.198  10.138  1.00  0.00    -0.341 OA
HETATM   15  C   UNL     1     -40.565 -43.275  11.164  1.00  0.00     0.211 C 
ENDBRANCH  10  14
ENDBRANCH   1   7
BRANCH   4  16
HETATM   16  C   UNL     1     -43.199 -51.930  13.320  1.00  0.00     0.116 C 
HETATM   17  C   UNL     1     -42.586 -53.244  13.775  1.00  0.00     0.057 C 
HETATM   18  C   UNL     1     -43.771 -54.176  14.012  1.00  0.00     0.275 C 
HETATM   19  N   UNL     1     -45.012 -53.381  13.927  1.00  0.00     0.094 N 
HETATM   20  C   UNL     1     -44.648 -52.298  12.989  1.00  0.00     0.298 C 
BRANCH  19  21
HETATM   21  C   UNL     1     -45.509 -52.896  15.237  1.00  0.00     0.215 C 
HETATM   22  C   UNL     1     -46.719 -51.954  15.076  1.00  0.00     0.042 C 
HETATM   23  C   UNL     1     -45.989 -54.057  16.130  1.00  0.00     0.042 C 
ENDBRANCH  19  21
ENDBRANCH   4  16
TORSDOF 4
ENDMDL
MODEL 3
REMARK VINA RESULT:      -5.6      2.112      8.445
REMARK  4 active torsions:
REMARK  status: ('A' for Active; 'I' for Inactive)
REMARK    1  A    between atoms: O_2  and  C_3 
REMARK    2  A    between atoms: C_6  and  N_7 
REMARK       I    between atoms: N_7  and  C_8 
REMARK       I    between atoms: C_8  and  N_10 
REMARK    3  A    between atoms: N_10  and  C_11 
REMARK    4  A    between atoms: N_14  and  C_16 
ROOT
HETATM    1  N   UNL     1     -41.960 -51.524  11.880  1.00  0.00    -0.308 N 
HETATM    2  C   UNL     1     -42.086 -50.198  12.224  1.00  0.00     0.321 C 
HETATM    3  O   UNL     1     -42.294 -49.771  13.353  1.00  0.00    -0.247 OA
HETATM    4  N   UNL     1     -41.996 -49.348  11.143  1.00  0.00    -0.336 N 
HETATM    5  H   UNL     1     -41.554 -51.734  10.981  1.00  0.00     0.170 HD
HETATM    6  H   UNL     1     -41.505 -49.666  10.322  1.00  0.00     0.164 HD
ENDROOT
BRANCH   1   7
HETATM    7  C   UNL     1     -42.226 -52.613  12.745  1.00  0.00     0.051 A 
HETATM    8  C   UNL     1     -41.256 -53.199  13.559  1.00  0.00     0.035 A 
HETATM    9  C   UNL     1     -41.599 -54.244  14.413  1.00  0.00     0.058 A 
HETATM   10  C   UNL     1     -42.911 -54.679  14.433  1.00  0.00     0.141 A 
HETATM   11  N   UNL     1     -43.885 -54.149  13.662  1.00  0.00    -0.345 N 
HETATM   12  C   UNL     1     -43.518 -53.128  12.846  1.00  0.00     0.119 A 
ATOM     13  HN  UNL     1     -44.844 -54.497  13.691  1.00  0.00     0.167 HD
BRANCH  10  14
HETATM   14  O   UNL     1     -43.197 -55.683  15.336  1.00  0.00    -0.341 OA
HETATM   15  C   UNL     1     -42.226 -55.814  16.366  1.00  0.00     0.211 C 
ENDBRANCH  10  14
ENDBRANCH   1   7
BRANCH   4  16
HETATM   16  C   UNL     1     -42.086 -47.915  11.380  1.00  0.00     0.116 C 
HETATM   17  C   UNL     1     -43.259 -47.253  10.676  1.00  0.00     0.057 C 
HETATM   18  C   UNL     1     -42.702 -45.945  10.120  1.00  0.00     0.275 C 
HETATM   19  N   UNL     1     -41.347 -45.745  10.669  1.00  0.00     0.094 N 
HETATM   20  C   UNL     1     -40.870 -47.128  10.885  1.00  0.00     0.298 C 
BRANCH  19  21
HETATM   21  C   UNL     1     -41.308 -44.901  11.888  1.00  0.00     0.215 C 
HETATM   22  C   UNL     1     -39.972 -44.144  12.015  1.00  0.00     0.042 C 
HETATM   23  C   UNL     1     -42.410 -43.823  11.870  1.00  0.00     0.042 C 
ENDBRANCH  19  21
ENDBRANCH   4  16
TORSDOF 4
ENDMDL
MODEL 4
REMARK VINA RESULT:      -5.2      2.263      2.750
REMARK  4 active torsions:
REMARK  status: ('A' for Active; 'I' for Inactive)
REMARK    1  A    between atoms: O_2  and  C_3 
REMARK    2  A    between atoms: C_6  and  N_7 
REMARK       I    between atoms: N_7  and  C_8 
REMARK       I    between atoms: C_8  and  N_10 
REMARK    3  A    between atoms: N_10  and  C_11 
REMARK    4  A    between atoms: N_14  and  C_16 
ROOT
HETATM    1  N   UNL     1     -43.519 -49.208  12.097  1.00  0.00    -0.308 N 
HETATM    2  C   UNL     1     -42.909 -50.278  12.709  1.00  0.00     0.321 C 
HETATM    3  O   UNL     1     -41.739 -50.322  13.070  1.00  0.00    -0.247 OA
HETATM    4  N   UNL     1     -43.744 -51.365  12.857  1.00  0.00    -0.336 N 
HETATM    5  H   UNL     1     -44.528 -49.200  12.071  1.00  0.00     0.170 HD
HETATM    6  H   UNL     1     -44.739 -51.206  12.874  1.00  0.00     0.164 HD
ENDROOT
BRANCH   1   7
HETATM    7  C   UNL     1     -42.847 -48.053  11.628  1.00  0.00     0.051 A 
HETATM    8  C   UNL     1     -42.871 -46.829  12.296  1.00  0.00     0.035 A 
HETATM    9  C   UNL     1     -42.156 -45.745  11.795  1.00  0.00     0.058 A 
HETATM   10  C   UNL     1     -41.427 -45.914  10.632  1.00  0.00     0.141 A 
HETATM   11  N   UNL     1     -41.375 -47.076   9.946  1.00  0.00    -0.345 N 
HETATM   12  C   UNL     1     -42.079 -48.114  10.465  1.00  0.00     0.119 A 
ATOM     13  HN  UNL     1     -40.837 -47.169   9.084  1.00  0.00     0.167 HD
BRANCH  10  14
HETATM   14  O   UNL     1     -40.700 -44.818  10.214  1.00  0.00    -0.341 OA
HETATM   15  C   UNL     1     -40.540 -43.825  11.219  1.00  0.00     0.211 C 
ENDBRANCH  10  14
ENDBRANCH   1   7
BRANCH   4  16
HETATM   16  C   UNL     1     -43.223 -52.554  13.516  1.00  0.00     0.116 C 
HETATM   17  C   UNL     1     -43.788 -53.852  12.965  1.00  0.00     0.057 C 
HETATM   18  C   UNL     1     -44.064 -54.718  14.192  1.00  0.00     0.275 C 
HETATM   19  N   UNL     1     -43.477 -54.053  15.372  1.00  0.00     0.094 N 
HETATM   20  C   UNL     1     -43.541 -52.621  15.012  1.00  0.00     0.298 C 
BRANCH  19  21
HETATM   21  C   UNL     1     -42.113 -54.524  15.713  1.00  0.00     0.215 C 
HETATM   22  C   UNL     1     -41.408 -53.570  16.697  1.00  0.00     0.042 C 
HETATM   23  C   UNL     1     -42.142 -55.903  16.402  1.00  0.00     0.042 C 
ENDBRANCH  19  21
ENDBRANCH   4  16
TORSDOF 4
ENDMDL
MODEL 5
REMARK VINA RESULT:      -5.1      4.698      7.365
REMARK  4 active torsions:
REMARK  status: ('A' for Active; 'I' for Inactive)
REMARK    1  A    between atoms: O_2  and  C_3 
REMARK    2  A    between atoms: C_6  and  N_7 
REMARK       I    between atoms: N_7  and  C_8 
REMARK       I    between atoms: C_8  and  N_10 
REMARK    3  A    between atoms: N_10  and  C_11 
REMARK    4  A    between atoms: N_14  and  C_16 
ROOT
HETATM    1  N   UNL     1     -39.894 -52.351  13.360  1.00  0.00    -0.308 N 
HETATM    2  C   UNL     1     -39.562 -51.538  14.418  1.00  0.00     0.321 C 
HETATM    3  O   UNL     1     -40.250 -51.344  15.413  1.00  0.00    -0.247 OA
HETATM    4  N   UNL     1     -38.355 -50.895  14.248  1.00  0.00    -0.336 N 
HETATM    5  H   UNL     1     -39.153 -52.618  12.728  1.00  0.00     0.170 HD
HETATM    6  H   UNL     1     -37.675 -51.306  13.627  1.00  0.00     0.164 HD
ENDROOT
BRANCH   1   7
HETATM    7  C   UNL     1     -41.160 -52.956  13.170  1.00  0.00     0.051 A 
HETATM    8  C   UNL     1     -41.665 -53.954  14.003  1.00  0.00     0.035 A 
HETATM    9  C   UNL     1     -42.935 -54.477  13.778  1.00  0.00     0.058 A 
HETATM   10  C   UNL     1     -43.675 -53.984  12.718  1.00  0.00     0.141 A 
HETATM   11  N   UNL     1     -43.230 -53.023  11.880  1.00  0.00    -0.345 N 
HETATM   12  C   UNL     1     -41.990 -52.531  12.132  1.00  0.00     0.119 A 
ATOM     13  HN  UNL     1     -43.794 -52.685  11.100  1.00  0.00     0.167 HD
BRANCH  10  14
HETATM   14  O   UNL     1     -44.945 -54.506  12.577  1.00  0.00    -0.341 OA
HETATM   15  C   UNL     1     -45.500 -54.986  13.795  1.00  0.00     0.211 C 
ENDBRANCH  10  14
ENDBRANCH   1   7
BRANCH   4  16
HETATM   16  C   UNL     1     -37.878 -50.024  15.313  1.00  0.00     0.116 C 
HETATM   17  C   UNL     1     -37.958 -48.546  14.974  1.00  0.00     0.057 C 
HETATM   18  C   UNL     1     -36.652 -47.947  15.490  1.00  0.00     0.275 C 
HETATM   19  N   UNL     1     -35.956 -48.972  16.291  1.00  0.00     0.094 N 
HETATM   20  C   UNL     1     -36.406 -50.238  15.674  1.00  0.00     0.298 C 
BRANCH  19  21
HETATM   21  C   UNL     1     -36.226 -48.887  17.747  1.00  0.00     0.215 C 
HETATM   22  C   UNL     1     -35.259 -49.768  18.561  1.00  0.00     0.042 C 
HETATM   23  C   UNL     1     -36.044 -47.451  18.277  1.00  0.00     0.042 C 
ENDBRANCH  19  21
ENDBRANCH   4  16
TORSDOF 4
ENDMDL
MODEL 6
REMARK VINA RESULT:      -4.9      2.367      8.765
REMARK  4 active torsions:
REMARK  status: ('A' for Active; 'I' for Inactive)
REMARK    1  A    between atoms: O_2  and  C_3 
REMARK    2  A    between atoms: C_6  and  N_7 
REMARK       I    between atoms: N_7  and  C_8 
REMARK       I    between atoms: C_8  and  N_10 
REMARK    3  A    between atoms: N_10  and  C_11 
REMARK    4  A    between atoms: N_14  and  C_16 
ROOT
HETATM    1  N   UNL     1     -40.906 -52.881  12.923  1.00  0.00    -0.308 N 
HETATM    2  C   UNL     1     -40.955 -51.512  13.049  1.00  0.00     0.321 C 
HETATM    3  O   UNL     1     -40.517 -50.865  13.993  1.00  0.00    -0.247 OA
HETATM    4  N   UNL     1     -41.603 -50.895  12.000  1.00  0.00    -0.336 N 
HETATM    5  H   UNL     1     -41.075 -53.270  12.008  1.00  0.00     0.170 HD
HETATM    6  H   UNL     1     -41.646 -51.375  11.114  1.00  0.00     0.164 HD
ENDROOT
BRANCH   1   7
HETATM    7  C   UNL     1     -40.499 -53.772  13.945  1.00  0.00     0.051 A 
HETATM    8  C   UNL     1     -39.176 -54.172  14.130  1.00  0.00     0.035 A 
HETATM    9  C   UNL     1     -38.843 -55.024  15.180  1.00  0.00     0.058 A 
HETATM   10  C   UNL     1     -39.848 -55.456  16.025  1.00  0.00     0.141 A 
HETATM   11  N   UNL     1     -41.144 -55.102  15.886  1.00  0.00    -0.345 N 
HETATM   12  C   UNL     1     -41.433 -54.266  14.856  1.00  0.00     0.119 A 
ATOM     13  HN  UNL     1     -41.866 -55.444  16.520  1.00  0.00     0.167 HD
BRANCH  10  14
HETATM   14  O   UNL     1     -39.447 -56.257  17.075  1.00  0.00    -0.341 OA
HETATM   15  C   UNL     1     -40.148 -57.492  17.147  1.00  0.00     0.211 C 
ENDBRANCH  10  14
ENDBRANCH   1   7
BRANCH   4  16
HETATM   16  C   UNL     1     -41.698 -49.443  12.002  1.00  0.00     0.116 C 
HETATM   17  C   UNL     1     -43.124 -48.925  12.087  1.00  0.00     0.057 C 
HETATM   18  C   UNL     1     -43.185 -47.762  11.100  1.00  0.00     0.275 C 
HETATM   19  N   UNL     1     -41.813 -47.469  10.641  1.00  0.00     0.094 N 
HETATM   20  C   UNL     1     -41.144 -48.785  10.736  1.00  0.00     0.298 C 
BRANCH  19  21
HETATM   21  C   UNL     1     -41.136 -46.397  11.410  1.00  0.00     0.215 C 
HETATM   22  C   UNL     1     -39.944 -45.803  10.632  1.00  0.00     0.042 C 
HETATM   23  C   UNL     1     -42.085 -45.218  11.701  1.00  0.00     0.042 C 
ENDBRANCH  19  21
ENDBRANCH   4  16
TORSDOF 4
ENDMDL
MODEL 7
REMARK VINA RESULT:      -4.8      5.165      6.749
REMARK  4 active torsions:
REMARK  status: ('A' for Active; 'I' for Inactive)
REMARK    1  A    between atoms: O_2  and  C_3 
REMARK    2  A    between atoms: C_6  and  N_7 
REMARK       I    between atoms: N_7  and  C_8 
REMARK       I    between atoms: C_8  and  N_10 
REMARK    3  A    between atoms: N_10  and  C_11 
REMARK    4  A    between atoms: N_14  and  C_16 
ROOT
HETATM    1  N   UNL     1     -43.444 -45.980   9.983  1.00  0.00    -0.308 N 
HETATM    2  C   UNL     1     -42.644 -46.332  11.045  1.00  0.00     0.321 C 
HETATM    3  O   UNL     1     -42.488 -47.468  11.475  1.00  0.00    -0.247 OA
HETATM    4  N   UNL     1     -42.032 -45.251  11.643  1.00  0.00    -0.336 N 
HETATM    5  H   UNL     1     -43.301 -45.067   9.576  1.00  0.00     0.170 HD
HETATM    6  H   UNL     1     -41.898 -44.414  11.098  1.00  0.00     0.164 HD
ENDROOT
BRANCH   1   7
HETATM    7  C   UNL     1     -44.349 -46.850   9.329  1.00  0.00     0.051 A 
HETATM    8  C   UNL     1     -45.684 -46.992   9.708  1.00  0.00     0.035 A 
HETATM    9  C   UNL     1     -46.527 -47.839   8.994  1.00  0.00     0.058 A 
HETATM   10  C   UNL     1     -46.011 -48.527   7.911  1.00  0.00     0.141 A 
HETATM   11  N   UNL     1     -44.726 -48.429   7.508  1.00  0.00    -0.345 N 
HETATM   12  C   UNL     1     -43.933 -47.590   8.222  1.00  0.00     0.119 A 
ATOM     13  HN  UNL     1     -44.370 -48.957   6.711  1.00  0.00     0.167 HD
BRANCH  10  14
HETATM   14  O   UNL     1     -46.908 -49.312   7.216  1.00  0.00    -0.341 OA
HETATM   15  C   UNL     1     -46.375 -49.857   6.015  1.00  0.00     0.211 C 
ENDBRANCH  10  14
ENDBRANCH   1   7
BRANCH   4  16
HETATM   16  C   UNL     1     -41.137 -45.495  12.765  1.00  0.00     0.116 C 
HETATM   17  C   UNL     1     -41.443 -44.644  13.986  1.00  0.00     0.057 C 
HETATM   18  C   UNL     1     -40.081 -44.191  14.507  1.00  0.00     0.275 C 
HETATM   19  N   UNL     1     -39.035 -44.927  13.773  1.00  0.00     0.094 N 
HETATM   20  C   UNL     1     -39.669 -45.187  12.462  1.00  0.00     0.298 C 
BRANCH  19  21
HETATM   21  C   UNL     1     -38.562 -46.153  14.462  1.00  0.00     0.215 C 
HETATM   22  C   UNL     1     -39.224 -46.322  15.844  1.00  0.00     0.042 C 
HETATM   23  C   UNL     1     -38.908 -47.425  13.664  1.00  0.00     0.042 C 
ENDBRANCH  19  21
ENDBRANCH   4  16
TORSDOF 4
ENDMDL
MODEL 8
REMARK VINA RESULT:      -4.8      2.382      9.000
REMARK  4 active torsions:
REMARK  status: ('A' for Active; 'I' for Inactive)
REMARK    1  A    between atoms: O_2  and  C_3 
REMARK    2  A    between atoms: C_6  and  N_7 
REMARK       I    between atoms: N_7  and  C_8 
REMARK       I    between atoms: C_8  and  N_10 
REMARK    3  A    between atoms: N_10  and  C_11 
REMARK    4  A    between atoms: N_14  and  C_16 
ROOT
HETATM    1  N   UNL     1     -40.488 -47.751  10.914  1.00  0.00    -0.308 N 
HETATM    2  C   UNL     1     -40.705 -46.617  11.662  1.00  0.00     0.321 C 
HETATM    3  O   UNL     1     -40.580 -46.529  12.877  1.00  0.00    -0.247 OA
HETATM    4  N   UNL     1     -41.133 -45.546  10.908  1.00  0.00    -0.336 N 
HETATM    5  H   UNL     1     -40.386 -47.638   9.916  1.00  0.00     0.170 HD
HETATM    6  H   UNL     1     -40.908 -45.531   9.925  1.00  0.00     0.164 HD
ENDROOT
BRANCH   1   7
HETATM    7  C   UNL     1     -40.257 -49.041  11.449  1.00  0.00     0.051 A 
HETATM    8  C   UNL     1     -38.986 -49.527  11.755  1.00  0.00     0.035 A 
HETATM    9  C   UNL     1     -38.837 -50.793  12.315  1.00  0.00     0.058 A 
HETATM   10  C   UNL     1     -39.971 -51.547  12.558  1.00  0.00     0.141 A 
HETATM   11  N   UNL     1     -41.222 -51.125  12.275  1.00  0.00    -0.345 N 
HETATM   12  C   UNL     1     -41.332 -49.883  11.736  1.00  0.00     0.119 A 
ATOM     13  HN  UNL     1     -42.040 -51.706  12.456  1.00  0.00     0.167 HD
BRANCH  10  14
HETATM   14  O   UNL     1     -39.761 -52.771  13.159  1.00  0.00    -0.341 OA
HETATM   15  C   UNL     1     -40.769 -53.729  12.862  1.00  0.00     0.211 C 
ENDBRANCH  10  14
ENDBRANCH   1   7
BRANCH   4  16
HETATM   16  C   UNL     1     -41.372 -44.277  11.580  1.00  0.00     0.116 C 
HETATM   17  C   UNL     1     -42.682 -43.616  11.186  1.00  0.00     0.057 C 
HETATM   18  C   UNL     1     -42.348 -42.134  11.029  1.00  0.00     0.275 C 
HETATM   19  N   UNL     1     -40.979 -41.911  11.530  1.00  0.00     0.094 N 
HETATM   20  C   UNL     1     -40.317 -43.209  11.280  1.00  0.00     0.298 C 
BRANCH  19  21
HETATM   21  C   UNL     1     -40.918 -41.471  12.945  1.00  0.00     0.215 C 
HETATM   22  C   UNL     1     -39.620 -40.696  13.247  1.00  0.00     0.042 C 
HETATM   23  C   UNL     1     -42.076 -40.517  13.295  1.00  0.00     0.042 C 
ENDBRANCH  19  21
ENDBRANCH   4  16
TORSDOF 4
ENDMDL
MODEL 9
REMARK VINA RESULT:      -4.8      6.083     11.147
REMARK  4 active torsions:
REMARK  status: ('A' for Active; 'I' for Inactive)
REMARK    1  A    between atoms: O_2  and  C_3 
REMARK    2  A    between atoms: C_6  and  N_7 
REMARK       I    between atoms: N_7  and  C_8 
REMARK       I    between atoms: C_8  and  N_10 
REMARK    3  A    between atoms: N_10  and  C_11 
REMARK    4  A    between atoms: N_14  and  C_16 
ROOT
HETATM    1  N   UNL     1     -37.064 -55.298  17.616  1.00  0.00    -0.308 N 
HETATM    2  C   UNL     1     -37.959 -55.362  16.572  1.00  0.00     0.321 C 
HETATM    3  O   UNL     1     -38.117 -56.320  15.826  1.00  0.00    -0.247 OA
HETATM    4  N   UNL     1     -38.669 -54.194  16.397  1.00  0.00    -0.336 N 
HETATM    5  H   UNL     1     -37.196 -54.565  18.297  1.00  0.00     0.170 HD
HETATM    6  H   UNL     1     -38.776 -53.574  17.185  1.00  0.00     0.164 HD
ENDROOT
BRANCH   1   7
HETATM    7  C   UNL     1     -36.063 -56.263  17.883  1.00  0.00     0.051 A 
HETATM    8  C   UNL     1     -36.275 -57.385  18.683  1.00  0.00     0.035 A 
HETATM    9  C   UNL     1     -35.254 -58.312  18.873  1.00  0.00     0.058 A 
HETATM   10  C   UNL     1     -34.038 -58.093  18.251  1.00  0.00     0.141 A 
HETATM   11  N   UNL     1     -33.781 -57.021  17.471  1.00  0.00    -0.345 N 
HETATM   12  C   UNL     1     -34.801 -56.140  17.303  1.00  0.00     0.119 A 
ATOM     13  HN  UNL     1     -32.871 -56.880  17.032  1.00  0.00     0.167 HD
BRANCH  10  14
HETATM   14  O   UNL     1     -33.084 -59.073  18.436  1.00  0.00    -0.341 OA
HETATM   15  C   UNL     1     -33.542 -60.173  19.211  1.00  0.00     0.211 C 
ENDBRANCH  10  14
ENDBRANCH   1   7
BRANCH   4  16
HETATM   16  C   UNL     1     -39.668 -54.143  15.340  1.00  0.00     0.116 C 
HETATM   17  C   UNL     1     -39.266 -53.272  14.162  1.00  0.00     0.057 C 
HETATM   18  C   UNL     1     -40.528 -52.497  13.790  1.00  0.00     0.275 C 
HETATM   19  N   UNL     1     -41.659 -53.057  14.555  1.00  0.00     0.094 N 
HETATM   20  C   UNL     1     -41.011 -53.559  15.786  1.00  0.00     0.298 C 
BRANCH  19  21
HETATM   21  C   UNL     1     -42.432 -54.089  13.822  1.00  0.00     0.215 C 
HETATM   22  C   UNL     1     -43.280 -54.952  14.776  1.00  0.00     0.042 C 
HETATM   23  C   UNL     1     -43.422 -53.457  12.824  1.00  0.00     0.042 C 
ENDBRANCH  19  21
ENDBRANCH   4  16
TORSDOF 4
ENDMDL
