MODEL 1
REMARK VINA RESULT:      -6.2      0.000      0.000
REMARK  7 active torsions:
REMARK  status: ('A' for Active; 'I' for Inactive)
REMARK    1  A    between atoms: C_2  and  C_3 
REMARK    2  A    between atoms: C_3  and  C_4 
REMARK    3  A    between atoms: C_4  and  C_5 
REMARK    4  A    between atoms: C_5  and  N_6 
REMARK       I    between atoms: N_6  and  C_7 
REMARK    5  A    between atoms: C_7  and  C_9 
REMARK    6  A    between atoms: C_9  and  C_10 
REMARK    7  A    between atoms: C_13  and  N_16 
ROOT
HETATM    1  C   UNL     1     -41.269 -51.120  11.987  1.00  0.00     0.026 A 
HETATM    2  C   UNL     1     -40.717 -52.256  12.552  1.00  0.00     0.078 A 
HETATM    3  S   UNL     1     -41.902 -53.105  13.432  1.00  0.00    -0.064 SA
HETATM    4  C   UNL     1     -43.084 -51.966  12.947  1.00  0.00     0.155 A 
HETATM    5  N   UNL     1     -42.644 -50.996  12.171  1.00  0.00    -0.339 N 
ATOM      6  HN  UNL     1     -43.225 -50.262  11.765  1.00  0.00     0.168 HD
ENDROOT
BRANCH   1   7
HETATM    7  C   UNL     1     -40.524 -50.077  11.224  1.00  0.00     0.160 C 
BRANCH   7   8
HETATM    8  C   UNL     1     -41.328 -48.788  11.156  1.00  0.00     0.223 C 
HETATM    9  N   UNL     1     -41.666 -48.392   9.879  1.00  0.00    -0.361 N 
HETATM   10  H   UNL     1     -41.358 -48.948   9.092  1.00  0.00     0.162 HD
HETATM   11  O   UNL     1     -41.670 -48.176  12.164  1.00  0.00    -0.273 OA
BRANCH   9  12
HETATM   12  C   UNL     1     -42.466 -47.211   9.623  1.00  0.00     0.122 C 
BRANCH  12  13
HETATM   13  C   UNL     1     -43.765 -47.531   8.884  1.00  0.00     0.020 C 
BRANCH  13  14
HETATM   14  C   UNL     1     -44.977 -47.519   9.819  1.00  0.00     0.001 C 
BRANCH  14  15
HETATM   15  C   UNL     1     -46.284 -47.378   9.042  1.00  0.00    -0.004 C 
HETATM   16  C   UNL     1     -46.696 -48.701   8.416  1.00  0.00     0.005 C 
ENDBRANCH  14  15
ENDBRANCH  13  14
ENDBRANCH  12  13
ENDBRANCH   9  12
ENDBRANCH   7   8
ENDBRANCH   1   7
BRANCH   4  17
HETATM   17  N   UNL     1     -44.407 -52.147  13.290  1.00  0.00    -0.278 N 
HETATM   18  C   UNL     1     -45.170 -51.245  14.122  1.00  0.00     0.155 C 
HETATM   19  C   UNL     1     -46.605 -51.736  13.969  1.00  0.00     0.145 C 
HETATM   20  N   UNL     1     -46.456 -53.068  13.466  1.00  0.00    -0.341 N 
HETATM   21  C   UNL     1     -45.172 -53.276  12.968  1.00  0.00     0.324 C 
HETATM   22  H   UNL     1     -47.198 -53.704  13.201  1.00  0.00     0.164 HD
HETATM   23  O   UNL     1     -44.872 -54.303  12.385  1.00  0.00    -0.247 OA
ENDBRANCH   4  17
TORSDOF 7
ENDMDL
MODEL 2
REMARK VINA RESULT:      -6.1      2.590      6.041
REMARK  7 active torsions:
REMARK  status: ('A' for Active; 'I' for Inactive)
REMARK    1  A    between atoms: C_2  and  C_3 
REMARK    2  A    between atoms: C_3  and  C_4 
REMARK    3  A    between atoms: C_4  and  C_5 
REMARK    4  A    between atoms: C_5  and  N_6 
REMARK       I    between atoms: N_6  and  C_7 
REMARK    5  A    between atoms: C_7  and  C_9 
REMARK    6  A    between atoms: C_9  and  C_10 
REMARK    7  A    between atoms: C_13  and  N_16 
ROOT
HETATM    1  C   UNL     1     -40.691 -51.087  11.866  1.00  0.00     0.026 A 
HETATM    2  C   UNL     1     -39.441 -50.872  12.420  1.00  0.00     0.078 A 
HETATM    3  S   UNL     1     -38.955 -49.261  12.156  1.00  0.00    -0.064 SA
HETATM    4  C   UNL     1     -40.454 -48.928  11.400  1.00  0.00     0.155 A 
HETATM    5  N   UNL     1     -41.289 -49.947  11.335  1.00  0.00    -0.339 N 
ATOM      6  HN  UNL     1     -42.234 -49.906  10.953  1.00  0.00     0.168 HD
ENDROOT
BRANCH   1   7
HETATM    7  C   UNL     1     -41.405 -52.395  11.812  1.00  0.00     0.160 C 
BRANCH   7   8
HETATM    8  C   UNL     1     -42.684 -52.340  12.633  1.00  0.00     0.223 C 
HETATM    9  N   UNL     1     -43.705 -53.133  12.154  1.00  0.00    -0.361 N 
HETATM   10  H   UNL     1     -43.558 -53.671  11.310  1.00  0.00     0.162 HD
HETATM   11  O   UNL     1     -42.777 -51.666  13.656  1.00  0.00    -0.273 OA
BRANCH   9  12
HETATM   12  C   UNL     1     -44.982 -53.240  12.831  1.00  0.00     0.122 C 
BRANCH  12  13
HETATM   13  C   UNL     1     -46.054 -52.349  12.204  1.00  0.00     0.020 C 
BRANCH  13  14
HETATM   14  C   UNL     1     -46.772 -51.489  13.247  1.00  0.00     0.001 C 
BRANCH  14  15
HETATM   15  C   UNL     1     -46.099 -51.587  14.615  1.00  0.00    -0.004 C 
HETATM   16  C   UNL     1     -47.118 -51.462  15.737  1.00  0.00     0.005 C 
ENDBRANCH  14  15
ENDBRANCH  13  14
ENDBRANCH  12  13
ENDBRANCH   9  12
ENDBRANCH   7   8
ENDBRANCH   1   7
BRANCH   4  17
HETATM   17  N   UNL     1     -40.758 -47.647  10.990  1.00  0.00    -0.278 N 
HETATM   18  C   UNL     1     -40.035 -46.463  11.393  1.00  0.00     0.155 C 
HETATM   19  C   UNL     1     -40.577 -45.375  10.474  1.00  0.00     0.145 C 
HETATM   20  N   UNL     1     -41.810 -45.923   9.992  1.00  0.00    -0.341 N 
HETATM   21  C   UNL     1     -41.868 -47.297  10.210  1.00  0.00     0.324 C 
HETATM   22  H   UNL     1     -42.440 -45.501   9.320  1.00  0.00     0.164 HD
HETATM   23  O   UNL     1     -42.778 -47.976   9.768  1.00  0.00    -0.247 OA
ENDBRANCH   4  17
TORSDOF 7
ENDMDL
MODEL 3
REMARK VINA RESULT:      -5.8      2.669      5.997
REMARK  7 active torsions:
REMARK  status: ('A' for Active; 'I' for Inactive)
REMARK    1  A    between atoms: C_2  and  C_3 
REMARK    2  A    between atoms: C_3  and  C_4 
REMARK    3  A    between atoms: C_4  and  C_5 
REMARK    4  A    between atoms: C_5  and  N_6 
REMARK       I    between atoms: N_6  and  C_7 
REMARK    5  A    between atoms: C_7  and  C_9 
REMARK    6  A    between atoms: C_9  and  C_10 
REMARK    7  A    between atoms: C_13  and  N_16 
ROOT
HETATM    1  C   UNL     1     -41.338 -48.551  11.021  1.00  0.00     0.026 A 
HETATM    2  C   UNL     1     -41.097 -47.406  11.759  1.00  0.00     0.078 A 
HETATM    3  S   UNL     1     -42.262 -46.220  11.390  1.00  0.00    -0.064 SA
HETATM    4  C   UNL     1     -43.055 -47.317  10.344  1.00  0.00     0.155 A 
HETATM    5  N   UNL     1     -42.501 -48.510  10.256  1.00  0.00    -0.339 N 
ATOM      6  HN  UNL     1     -42.870 -49.288   9.709  1.00  0.00     0.168 HD
ENDROOT
BRANCH   1   7
HETATM    7  C   UNL     1     -40.478 -49.770  11.000  1.00  0.00     0.160 C 
BRANCH   7   8
HETATM    8  C   UNL     1     -40.975 -50.792  12.010  1.00  0.00     0.223 C 
HETATM    9  N   UNL     1     -42.348 -50.887  12.099  1.00  0.00    -0.361 N 
HETATM   10  H   UNL     1     -42.923 -50.285  11.525  1.00  0.00     0.162 HD
HETATM   11  O   UNL     1     -40.207 -51.493  12.664  1.00  0.00    -0.273 OA
BRANCH   9  12
HETATM   12  C   UNL     1     -43.001 -51.837  12.978  1.00  0.00     0.122 C 
BRANCH  12  13
HETATM   13  C   UNL     1     -44.144 -51.209  13.775  1.00  0.00     0.020 C 
BRANCH  13  14
HETATM   14  C   UNL     1     -45.484 -51.320  13.043  1.00  0.00     0.001 C 
BRANCH  14  15
HETATM   15  C   UNL     1     -46.551 -51.972  13.920  1.00  0.00    -0.004 C 
HETATM   16  C   UNL     1     -46.579 -51.348  15.307  1.00  0.00     0.005 C 
ENDBRANCH  14  15
ENDBRANCH  13  14
ENDBRANCH  12  13
ENDBRANCH   9  12
ENDBRANCH   7   8
ENDBRANCH   1   7
BRANCH   4  17
HETATM   17  N   UNL     1     -44.240 -46.964   9.733  1.00  0.00    -0.278 N 
HETATM   18  C   UNL     1     -45.372 -47.847   9.566  1.00  0.00     0.155 C 
HETATM   19  C   UNL     1     -46.489 -46.921   9.099  1.00  0.00     0.145 C 
HETATM   20  N   UNL     1     -45.794 -45.760   8.633  1.00  0.00    -0.341 N 
HETATM   21  C   UNL     1     -44.482 -45.738   9.099  1.00  0.00     0.324 C 
HETATM   22  H   UNL     1     -46.208 -44.905   8.281  1.00  0.00     0.164 HD
HETATM   23  O   UNL     1     -43.755 -44.777   8.917  1.00  0.00    -0.247 OA
ENDBRANCH   4  17
TORSDOF 7
ENDMDL
MODEL 4
REMARK VINA RESULT:      -5.7      2.749      6.796
REMARK  7 active torsions:
REMARK  status: ('A' for Active; 'I' for Inactive)
REMARK    1  A    between atoms: C_2  and  C_3 
REMARK    2  A    between atoms: C_3  and  C_4 
REMARK    3  A    between atoms: C_4  and  C_5 
REMARK    4  A    between atoms: C_5  and  N_6 
REMARK       I    between atoms: N_6  and  C_7 
REMARK    5  A    between atoms: C_7  and  C_9 
REMARK    6  A    between atoms: C_9  and  C_10 
REMARK    7  A    between atoms: C_13  and  N_16 
ROOT
HETATM    1  C   UNL     1     -40.651 -51.082  11.961  1.00  0.00     0.026 A 
HETATM    2  C   UNL     1     -39.469 -50.827  12.635  1.00  0.00     0.078 A 
HETATM    3  S   UNL     1     -39.001 -49.207  12.398  1.00  0.00    -0.064 SA
HETATM    4  C   UNL     1     -40.424 -48.924  11.491  1.00  0.00     0.155 A 
HETATM    5  N   UNL     1     -41.222 -49.965  11.357  1.00  0.00    -0.339 N 
ATOM      6  HN  UNL     1     -42.124 -49.953  10.881  1.00  0.00     0.168 HD
ENDROOT
BRANCH   1   7
HETATM    7  C   UNL     1     -41.323 -52.410  11.854  1.00  0.00     0.160 C 
BRANCH   7   8
HETATM    8  C   UNL     1     -42.710 -52.359  12.475  1.00  0.00     0.223 C 
HETATM    9  N   UNL     1     -43.507 -53.446  12.183  1.00  0.00    -0.361 N 
HETATM   10  H   UNL     1     -43.146 -54.176  11.584  1.00  0.00     0.162 HD
HETATM   11  O   UNL     1     -43.068 -51.436  13.202  1.00  0.00    -0.273 OA
BRANCH   9  12
HETATM   12  C   UNL     1     -44.844 -53.589  12.722  1.00  0.00     0.122 C 
BRANCH  12  13
HETATM   13  C   UNL     1     -44.960 -54.758  13.701  1.00  0.00     0.020 C 
BRANCH  13  14
HETATM   14  C   UNL     1     -44.240 -54.476  15.022  1.00  0.00     0.001 C 
BRANCH  14  15
HETATM   15  C   UNL     1     -43.010 -55.367  15.193  1.00  0.00    -0.004 C 
HETATM   16  C   UNL     1     -41.739 -54.537  15.278  1.00  0.00     0.005 C 
ENDBRANCH  14  15
ENDBRANCH  13  14
ENDBRANCH  12  13
ENDBRANCH   9  12
ENDBRANCH   7   8
ENDBRANCH   1   7
BRANCH   4  17
HETATM   17  N   UNL     1     -40.718 -47.656  11.035  1.00  0.00    -0.278 N 
HETATM   18  C   UNL     1     -39.982 -46.465  11.390  1.00  0.00     0.155 C 
HETATM   19  C   UNL     1     -40.518 -45.407  10.433  1.00  0.00     0.145 C 
HETATM   20  N   UNL     1     -41.757 -45.960   9.976  1.00  0.00    -0.341 N 
HETATM   21  C   UNL     1     -41.827 -47.325  10.246  1.00  0.00     0.324 C 
HETATM   22  H   UNL     1     -42.385 -45.559   9.291  1.00  0.00     0.164 HD
HETATM   23  O   UNL     1     -42.745 -48.011   9.832  1.00  0.00    -0.247 OA
ENDBRANCH   4  17
TORSDOF 7
ENDMDL
MODEL 5
REMARK VINA RESULT:      -5.4      3.320      6.426
REMARK  7 active torsions:
REMARK  status: ('A' for Active; 'I' for Inactive)
REMARK    1  A    between atoms: C_2  and  C_3 
REMARK    2  A    between atoms: C_3  and  C_4 
REMARK    3  A    between atoms: C_4  and  C_5 
REMARK    4  A    between atoms: C_5  and  N_6 
REMARK       I    between atoms: N_6  and  C_7 
REMARK    5  A    between atoms: C_7  and  C_9 
REMARK    6  A    between atoms: C_9  and  C_10 
REMARK    7  A    between atoms: C_13  and  N_16 
ROOT
HETATM    1  C   UNL     1     -41.471 -53.306  14.194  1.00  0.00     0.026 A 
HETATM    2  C   UNL     1     -40.810 -53.056  15.384  1.00  0.00     0.078 A 
HETATM    3  S   UNL     1     -39.473 -52.039  15.106  1.00  0.00    -0.064 SA
HETATM    4  C   UNL     1     -39.895 -51.929  13.452  1.00  0.00     0.155 A 
HETATM    5  N   UNL     1     -40.972 -52.604  13.100  1.00  0.00    -0.339 N 
ATOM      6  HN  UNL     1     -41.379 -52.611  12.165  1.00  0.00     0.168 HD
ENDROOT
BRANCH   1   7
HETATM    7  C   UNL     1     -42.631 -54.227  14.020  1.00  0.00     0.160 C 
BRANCH   7   8
HETATM    8  C   UNL     1     -43.753 -53.536  13.262  1.00  0.00     0.223 C 
HETATM    9  N   UNL     1     -44.952 -53.479  13.942  1.00  0.00    -0.361 N 
HETATM   10  H   UNL     1     -45.019 -53.898  14.860  1.00  0.00     0.162 HD
HETATM   11  O   UNL     1     -43.585 -53.043  12.149  1.00  0.00    -0.273 OA
BRANCH   9  12
HETATM   12  C   UNL     1     -46.121 -52.821  13.393  1.00  0.00     0.122 C 
BRANCH  12  13
HETATM   13  C   UNL     1     -46.297 -51.399  13.925  1.00  0.00     0.020 C 
BRANCH  13  14
HETATM   14  C   UNL     1     -46.120 -51.326  15.443  1.00  0.00     0.001 C 
BRANCH  14  15
HETATM   15  C   UNL     1     -47.299 -51.960  16.178  1.00  0.00    -0.004 C 
HETATM   16  C   UNL     1     -48.067 -50.923  16.983  1.00  0.00     0.005 C 
ENDBRANCH  14  15
ENDBRANCH  13  14
ENDBRANCH  12  13
ENDBRANCH   9  12
ENDBRANCH   7   8
ENDBRANCH   1   7
BRANCH   4  17
HETATM   17  N   UNL     1     -39.186 -51.102  12.605  1.00  0.00    -0.278 N 
HETATM   18  C   UNL     1     -37.760 -50.881  12.678  1.00  0.00     0.155 C 
HETATM   19  C   UNL     1     -37.443 -50.131  11.390  1.00  0.00     0.145 C 
HETATM   20  N   UNL     1     -38.715 -49.627  10.969  1.00  0.00    -0.341 N 
HETATM   21  C   UNL     1     -39.756 -50.282  11.622  1.00  0.00     0.324 C 
HETATM   22  H   UNL     1     -38.912 -49.106  10.123  1.00  0.00     0.164 HD
HETATM   23  O   UNL     1     -40.921 -50.089  11.321  1.00  0.00    -0.247 OA
ENDBRANCH   4  17
TORSDOF 7
ENDMDL
MODEL 6
REMARK VINA RESULT:      -5.2      1.696      2.914
REMARK  7 active torsions:
REMARK  status: ('A' for Active; 'I' for Inactive)
REMARK    1  A    between atoms: C_2  and  C_3 
REMARK    2  A    between atoms: C_3  and  C_4 
REMARK    3  A    between atoms: C_4  and  C_5 
REMARK    4  A    between atoms: C_5  and  N_6 
REMARK       I    between atoms: N_6  and  C_7 
REMARK    5  A    between atoms: C_7  and  C_9 
REMARK    6  A    between atoms: C_9  and  C_10 
REMARK    7  A    between atoms: C_13  and  N_16 
ROOT
HETATM    1  C   UNL     1     -41.596 -51.217  12.453  1.00  0.00     0.026 A 
HETATM    2  C   UNL     1     -40.797 -51.964  13.302  1.00  0.00     0.078 A 
HETATM    3  S   UNL     1     -41.752 -53.067  14.180  1.00  0.00    -0.064 SA
HETATM    4  C   UNL     1     -43.143 -52.548  13.329  1.00  0.00     0.155 A 
HETATM    5  N   UNL     1     -42.934 -51.603  12.433  1.00  0.00    -0.339 N 
ATOM      6  HN  UNL     1     -43.646 -51.213  11.817  1.00  0.00     0.168 HD
ENDROOT
BRANCH   1   7
HETATM    7  C   UNL     1     -41.135 -50.088  11.594  1.00  0.00     0.160 C 
BRANCH   7   8
HETATM    8  C   UNL     1     -42.146 -48.952  11.616  1.00  0.00     0.223 C 
HETATM    9  N   UNL     1     -42.457 -48.439  10.374  1.00  0.00    -0.361 N 
HETATM   10  H   UNL     1     -42.002 -48.820   9.555  1.00  0.00     0.162 HD
HETATM   11  O   UNL     1     -42.661 -48.555  12.658  1.00  0.00    -0.273 OA
BRANCH   9  12
HETATM   12  C   UNL     1     -43.432 -47.382  10.198  1.00  0.00     0.122 C 
BRANCH  12  13
HETATM   13  C   UNL     1     -42.814 -46.102   9.636  1.00  0.00     0.020 C 
BRANCH  13  14
HETATM   14  C   UNL     1     -42.052 -45.313  10.705  1.00  0.00     0.001 C 
BRANCH  14  15
HETATM   15  C   UNL     1     -40.544 -45.353  10.464  1.00  0.00    -0.004 C 
HETATM   16  C   UNL     1     -39.782 -44.852  11.681  1.00  0.00     0.005 C 
ENDBRANCH  14  15
ENDBRANCH  13  14
ENDBRANCH  12  13
ENDBRANCH   9  12
ENDBRANCH   7   8
ENDBRANCH   1   7
BRANCH   4  17
HETATM   17  N   UNL     1     -44.357 -53.170  13.533  1.00  0.00    -0.278 N 
HETATM   18  C   UNL     1     -44.517 -54.563  13.880  1.00  0.00     0.155 C 
HETATM   19  C   UNL     1     -45.989 -54.678  14.254  1.00  0.00     0.145 C 
HETATM   20  N   UNL     1     -46.579 -53.512  13.669  1.00  0.00    -0.341 N 
HETATM   21  C   UNL     1     -45.608 -52.572  13.335  1.00  0.00     0.324 C 
HETATM   22  H   UNL     1     -47.546 -53.220  13.740  1.00  0.00     0.164 HD
HETATM   23  O   UNL     1     -45.906 -51.460  12.935  1.00  0.00    -0.247 OA
ENDBRANCH   4  17
TORSDOF 7
ENDMDL
MODEL 7
REMARK VINA RESULT:      -5.1      3.962      5.070
REMARK  7 active torsions:
REMARK  status: ('A' for Active; 'I' for Inactive)
REMARK    1  A    between atoms: C_2  and  C_3 
REMARK    2  A    between atoms: C_3  and  C_4 
REMARK    3  A    between atoms: C_4  and  C_5 
REMARK    4  A    between atoms: C_5  and  N_6 
REMARK       I    between atoms: N_6  and  C_7 
REMARK    5  A    between atoms: C_7  and  C_9 
REMARK    6  A    between atoms: C_9  and  C_10 
REMARK    7  A    between atoms: C_13  and  N_16 
ROOT
HETATM    1  C   UNL     1     -41.031 -54.539  14.821  1.00  0.00     0.026 A 
HETATM    2  C   UNL     1     -41.190 -55.074  16.087  1.00  0.00     0.078 A 
HETATM    3  S   UNL     1     -42.822 -54.969  16.562  1.00  0.00    -0.064 SA
HETATM    4  C   UNL     1     -43.227 -54.299  15.040  1.00  0.00     0.155 A 
HETATM    5  N   UNL     1     -42.218 -54.152  14.205  1.00  0.00    -0.339 N 
ATOM      6  HN  UNL     1     -42.296 -53.806  13.249  1.00  0.00     0.168 HD
ENDROOT
BRANCH   1   7
HETATM    7  C   UNL     1     -39.733 -54.367  14.106  1.00  0.00     0.160 C 
BRANCH   7   8
HETATM    8  C   UNL     1     -39.559 -52.926  13.651  1.00  0.00     0.223 C 
HETATM    9  N   UNL     1     -38.637 -52.204  14.379  1.00  0.00    -0.361 N 
HETATM   10  H   UNL     1     -38.161 -52.649  15.152  1.00  0.00     0.162 HD
HETATM   11  O   UNL     1     -40.172 -52.464  12.692  1.00  0.00    -0.273 OA
BRANCH   9  12
HETATM   12  C   UNL     1     -38.310 -50.828  14.062  1.00  0.00     0.122 C 
BRANCH  12  13
HETATM   13  C   UNL     1     -37.473 -50.702  12.790  1.00  0.00     0.020 C 
BRANCH  13  14
HETATM   14  C   UNL     1     -37.956 -49.560  11.893  1.00  0.00     0.001 C 
BRANCH  14  15
HETATM   15  C   UNL     1     -39.196 -48.878  12.469  1.00  0.00    -0.004 C 
HETATM   16  C   UNL     1     -39.668 -47.747  11.569  1.00  0.00     0.005 C 
ENDBRANCH  14  15
ENDBRANCH  13  14
ENDBRANCH  12  13
ENDBRANCH   9  12
ENDBRANCH   7   8
ENDBRANCH   1   7
BRANCH   4  17
HETATM   17  N   UNL     1     -44.544 -54.039  14.722  1.00  0.00    -0.278 N 
HETATM   18  C   UNL     1     -45.595 -53.824  15.690  1.00  0.00     0.155 C 
HETATM   19  C   UNL     1     -46.762 -53.316  14.852  1.00  0.00     0.145 C 
HETATM   20  N   UNL     1     -46.421 -53.713  13.519  1.00  0.00    -0.341 N 
HETATM   21  C   UNL     1     -45.072 -54.045  13.424  1.00  0.00     0.324 C 
HETATM   22  H   UNL     1     -46.942 -53.515  12.674  1.00  0.00     0.164 HD
HETATM   23  O   UNL     1     -44.549 -54.294  12.352  1.00  0.00    -0.247 OA
ENDBRANCH   4  17
TORSDOF 7
ENDMDL
MODEL 8
REMARK VINA RESULT:      -5.0      3.134      6.462
REMARK  7 active torsions:
REMARK  status: ('A' for Active; 'I' for Inactive)
REMARK    1  A    between atoms: C_2  and  C_3 
REMARK    2  A    between atoms: C_3  and  C_4 
REMARK    3  A    between atoms: C_4  and  C_5 
REMARK    4  A    between atoms: C_5  and  N_6 
REMARK       I    between atoms: N_6  and  C_7 
REMARK    5  A    between atoms: C_7  and  C_9 
REMARK    6  A    between atoms: C_9  and  C_10 
REMARK    7  A    between atoms: C_13  and  N_16 
ROOT
HETATM    1  C   UNL     1     -40.869 -48.781  11.934  1.00  0.00     0.026 A 
HETATM    2  C   UNL     1     -39.725 -48.344  12.578  1.00  0.00     0.078 A 
HETATM    3  S   UNL     1     -39.739 -46.646  12.704  1.00  0.00    -0.064 SA
HETATM    4  C   UNL     1     -41.286 -46.600  11.976  1.00  0.00     0.155 A 
HETATM    5  N   UNL     1     -41.788 -47.774  11.647  1.00  0.00    -0.339 N 
ATOM      6  HN  UNL     1     -42.712 -47.924  11.242  1.00  0.00     0.168 HD
ENDROOT
BRANCH   1   7
HETATM    7  C   UNL     1     -41.171 -50.192  11.556  1.00  0.00     0.160 C 
BRANCH   7   8
HETATM    8  C   UNL     1     -42.143 -50.815  12.544  1.00  0.00     0.223 C 
HETATM    9  N   UNL     1     -42.699 -52.006  12.126  1.00  0.00    -0.361 N 
HETATM   10  H   UNL     1     -42.452 -52.374  11.217  1.00  0.00     0.162 HD
HETATM   11  O   UNL     1     -42.382 -50.306  13.636  1.00  0.00    -0.273 OA
BRANCH   9  12
HETATM   12  C   UNL     1     -43.615 -52.764  12.955  1.00  0.00     0.122 C 
BRANCH  12  13
HETATM   13  C   UNL     1     -45.047 -52.736  12.422  1.00  0.00     0.020 C 
BRANCH  13  14
HETATM   14  C   UNL     1     -45.845 -51.552  12.975  1.00  0.00     0.001 C 
BRANCH  14  15
HETATM   15  C   UNL     1     -45.665 -51.409  14.485  1.00  0.00    -0.004 C 
HETATM   16  C   UNL     1     -47.007 -51.415  15.200  1.00  0.00     0.005 C 
ENDBRANCH  14  15
ENDBRANCH  13  14
ENDBRANCH  12  13
ENDBRANCH   9  12
ENDBRANCH   7   8
ENDBRANCH   1   7
BRANCH   4  17
HETATM   17  N   UNL     1     -41.963 -45.404  11.852  1.00  0.00    -0.278 N 
HETATM   18  C   UNL     1     -42.243 -44.503  12.945  1.00  0.00     0.155 C 
HETATM   19  C   UNL     1     -42.747 -43.241  12.256  1.00  0.00     0.145 C 
HETATM   20  N   UNL     1     -43.116 -43.693  10.948  1.00  0.00    -0.341 N 
HETATM   21  C   UNL     1     -42.561 -44.940  10.673  1.00  0.00     0.324 C 
HETATM   22  H   UNL     1     -43.461 -43.126  10.184  1.00  0.00     0.164 HD
HETATM   23  O   UNL     1     -42.653 -45.451   9.570  1.00  0.00    -0.247 OA
ENDBRANCH   4  17
TORSDOF 7
ENDMDL
MODEL 9
REMARK VINA RESULT:      -5.0      3.107      6.222
REMARK  7 active torsions:
REMARK  status: ('A' for Active; 'I' for Inactive)
REMARK    1  A    between atoms: C_2  and  C_3 
REMARK    2  A    between atoms: C_3  and  C_4 
REMARK    3  A    between atoms: C_4  and  C_5 
REMARK    4  A    between atoms: C_5  and  N_6 
REMARK       I    between atoms: N_6  and  C_7 
REMARK    5  A    between atoms: C_7  and  C_9 
REMARK    6  A    between atoms: C_9  and  C_10 
REMARK    7  A    between atoms: C_13  and  N_16 
ROOT
HETATM    1  C   UNL     1     -39.742 -50.520  13.467  1.00  0.00     0.026 A 
HETATM    2  C   UNL     1     -39.065 -49.799  14.434  1.00  0.00     0.078 A 
HETATM    3  S   UNL     1     -38.980 -48.158  13.986  1.00  0.00    -0.064 SA
HETATM    4  C   UNL     1     -39.908 -48.487  12.587  1.00  0.00     0.155 A 
HETATM    5  N   UNL     1     -40.275 -49.745  12.439  1.00  0.00    -0.339 N 
ATOM      6  HN  UNL     1     -40.862 -50.098  11.684  1.00  0.00     0.168 HD
ENDROOT
BRANCH   1   7
HETATM    7  C   UNL     1     -39.936 -51.999  13.459  1.00  0.00     0.160 C 
BRANCH   7   8
HETATM    8  C   UNL     1     -41.136 -52.376  12.605  1.00  0.00     0.223 C 
HETATM    9  N   UNL     1     -42.216 -52.856  13.317  1.00  0.00    -0.361 N 
HETATM   10  H   UNL     1     -42.146 -52.941  14.322  1.00  0.00     0.162 HD
HETATM   11  O   UNL     1     -41.143 -52.231  11.386  1.00  0.00    -0.273 OA
BRANCH   9  12
HETATM   12  C   UNL     1     -43.461 -53.225  12.675  1.00  0.00     0.122 C 
BRANCH  12  13
HETATM   13  C   UNL     1     -44.263 -54.240  13.489  1.00  0.00     0.020 C 
BRANCH  13  14
HETATM   14  C   UNL     1     -45.720 -53.808  13.676  1.00  0.00     0.001 C 
BRANCH  14  15
HETATM   15  C   UNL     1     -46.003 -52.475  12.986  1.00  0.00    -0.004 C 
HETATM   16  C   UNL     1     -46.575 -51.461  13.964  1.00  0.00     0.005 C 
ENDBRANCH  14  15
ENDBRANCH  13  14
ENDBRANCH  12  13
ENDBRANCH   9  12
ENDBRANCH   7   8
ENDBRANCH   1   7
BRANCH   4  17
HETATM   17  N   UNL     1     -40.302 -47.460  11.755  1.00  0.00    -0.278 N 
HETATM   18  C   UNL     1     -39.859 -46.090  11.877  1.00  0.00     0.155 C 
HETATM   19  C   UNL     1     -40.347 -45.435  10.591  1.00  0.00     0.145 C 
HETATM   20  N   UNL     1     -41.356 -46.332  10.115  1.00  0.00    -0.341 N 
HETATM   21  C   UNL     1     -41.260 -47.573  10.739  1.00  0.00     0.324 C 
HETATM   22  H   UNL     1     -41.884 -46.252   9.254  1.00  0.00     0.164 HD
HETATM   23  O   UNL     1     -41.947 -48.518  10.393  1.00  0.00    -0.247 OA
ENDBRANCH   4  17
TORSDOF 7
ENDMDL
