MODEL 1
REMARK VINA RESULT:      -5.6      0.000      0.000
REMARK  3 active torsions:
REMARK  status: ('A' for Active; 'I' for Inactive)
REMARK    1  A    between atoms: C_2  and  N_4 
REMARK       I    between atoms: N_4  and  C_5 
REMARK    2  A    between atoms: C_5  and  C_7 
REMARK    3  A    between atoms: C_10  and  N_14 
ROOT
HETATM    1  C   UNL     1     -40.806 -52.675  13.180  1.00  0.00     0.047 A 
HETATM    2  C   UNL     1     -41.262 -53.791  13.866  1.00  0.00     0.022 A 
HETATM    3  C   UNL     1     -42.618 -54.118  13.811  1.00  0.00     0.049 A 
HETATM    4  C   UNL     1     -43.514 -53.339  13.075  1.00  0.00     0.103 A 
HETATM    5  N   UNL     1     -43.072 -52.223  12.451  1.00  0.00    -0.351 N 
ATOM      6  HN  UNL     1     -43.721 -51.627  11.937  1.00  0.00     0.166 HD
HETATM    7  C   UNL     1     -41.748 -51.908  12.519  1.00  0.00     0.106 A 
ENDROOT
BRANCH   1   8
HETATM    8  C   UNL     1     -39.375 -52.284  13.148  1.00  0.00     0.253 C 
HETATM    9  N   UNL     1     -39.109 -51.060  12.567  1.00  0.00    -0.353 N 
HETATM   10  H   UNL     1     -39.882 -50.425  12.416  1.00  0.00     0.163 HD
HETATM   11  O   UNL     1     -38.521 -53.011  13.640  1.00  0.00    -0.268 OA
BRANCH   9  12
HETATM   12  C   UNL     1     -37.770 -50.490  12.513  1.00  0.00     0.076 C 
HETATM   13  C   UNL     1     -37.453 -50.067  11.081  1.00  0.00     0.032 C 
HETATM   14  C   UNL     1     -37.648 -49.300  13.461  1.00  0.00     0.032 C 
ENDBRANCH   9  12
ENDBRANCH   1   8
BRANCH   4  15
HETATM   15  N   UNL     1     -44.853 -53.659  13.017  1.00  0.00    -0.363 N 
HETATM   16  C   UNL     1     -45.895 -52.669  12.716  1.00  0.00     0.150 C 
HETATM   17  C   UNL     1     -46.829 -52.471  13.921  1.00  0.00     0.187 C 
HETATM   18  O   UNL     1     -47.367 -53.716  14.389  1.00  0.00    -0.388 OA
HETATM   19  C   UNL     1     -46.297 -54.584  14.805  1.00  0.00     0.187 C 
HETATM   20  C   UNL     1     -45.343 -54.896  13.643  1.00  0.00     0.150 C 
ENDBRANCH   4  15
TORSDOF 3
ENDMDL
MODEL 2
REMARK VINA RESULT:      -5.3      4.044      7.179
REMARK  3 active torsions:
REMARK  status: ('A' for Active; 'I' for Inactive)
REMARK    1  A    between atoms: C_2  and  N_4 
REMARK       I    between atoms: N_4  and  C_5 
REMARK    2  A    between atoms: C_5  and  C_7 
REMARK    3  A    between atoms: C_10  and  N_14 
ROOT
HETATM    1  C   UNL     1     -42.910 -51.031  13.297  1.00  0.00     0.047 A 
HETATM    2  C   UNL     1     -43.454 -49.763  13.430  1.00  0.00     0.022 A 
HETATM    3  C   UNL     1     -43.059 -48.755  12.549  1.00  0.00     0.049 A 
HETATM    4  C   UNL     1     -42.128 -49.010  11.539  1.00  0.00     0.103 A 
HETATM    5  N   UNL     1     -41.563 -50.234  11.447  1.00  0.00    -0.351 N 
ATOM      6  HN  UNL     1     -40.858 -50.427  10.735  1.00  0.00     0.166 HD
HETATM    7  C   UNL     1     -41.949 -51.209  12.318  1.00  0.00     0.106 A 
ENDROOT
BRANCH   1   8
HETATM    8  C   UNL     1     -43.309 -52.169  14.161  1.00  0.00     0.253 C 
HETATM    9  N   UNL     1     -44.599 -52.628  13.976  1.00  0.00    -0.353 N 
HETATM   10  H   UNL     1     -45.095 -52.336  13.145  1.00  0.00     0.163 HD
HETATM   11  O   UNL     1     -42.512 -52.659  14.951  1.00  0.00    -0.268 OA
BRANCH   9  12
HETATM   12  C   UNL     1     -45.133 -53.780  14.689  1.00  0.00     0.076 C 
HETATM   13  C   UNL     1     -46.510 -53.439  15.251  1.00  0.00     0.032 C 
HETATM   14  C   UNL     1     -45.216 -54.996  13.771  1.00  0.00     0.032 C 
ENDBRANCH   9  12
ENDBRANCH   1   8
BRANCH   4  15
HETATM   15  N   UNL     1     -41.737 -48.018  10.667  1.00  0.00    -0.363 N 
HETATM   16  C   UNL     1     -40.695 -47.036  10.995  1.00  0.00     0.150 C 
HETATM   17  C   UNL     1     -41.281 -45.617  11.065  1.00  0.00     0.187 C 
HETATM   18  O   UNL     1     -42.004 -45.279   9.873  1.00  0.00    -0.388 OA
HETATM   19  C   UNL     1     -43.100 -46.194   9.692  1.00  0.00     0.187 C 
HETATM   20  C   UNL     1     -42.606 -47.640   9.543  1.00  0.00     0.150 C 
ENDBRANCH   4  15
TORSDOF 3
ENDMDL
MODEL 3
REMARK VINA RESULT:      -5.3      5.569      8.356
REMARK  3 active torsions:
REMARK  status: ('A' for Active; 'I' for Inactive)
REMARK    1  A    between atoms: C_2  and  N_4 
REMARK       I    between atoms: N_4  and  C_5 
REMARK    2  A    between atoms: C_5  and  C_7 
REMARK    3  A    between atoms: C_10  and  N_14 
ROOT
HETATM    1  C   UNL     1     -42.327 -47.212  10.068  1.00  0.00     0.047 A 
HETATM    2  C   UNL     1     -42.155 -48.466  10.633  1.00  0.00     0.022 A 
HETATM    3  C   UNL     1     -41.087 -48.681  11.505  1.00  0.00     0.049 A 
HETATM    4  C   UNL     1     -40.195 -47.651  11.814  1.00  0.00     0.103 A 
HETATM    5  N   UNL     1     -40.338 -46.445  11.220  1.00  0.00    -0.351 N 
ATOM      6  HN  UNL     1     -39.676 -45.692  11.410  1.00  0.00     0.166 HD
HETATM    7  C   UNL     1     -41.379 -46.249  10.362  1.00  0.00     0.106 A 
ENDROOT
BRANCH   1   8
HETATM    8  C   UNL     1     -43.462 -46.887   9.168  1.00  0.00     0.253 C 
HETATM    9  N   UNL     1     -44.519 -47.774   9.206  1.00  0.00    -0.353 N 
HETATM   10  H   UNL     1     -44.565 -48.431   9.974  1.00  0.00     0.163 HD
HETATM   11  O   UNL     1     -43.436 -45.877   8.477  1.00  0.00    -0.268 OA
BRANCH   9  12
HETATM   12  C   UNL     1     -45.742 -47.572   8.441  1.00  0.00     0.076 C 
HETATM   13  C   UNL     1     -46.372 -48.925   8.119  1.00  0.00     0.032 C 
HETATM   14  C   UNL     1     -46.725 -46.695   9.212  1.00  0.00     0.032 C 
ENDBRANCH   9  12
ENDBRANCH   1   8
BRANCH   4  15
HETATM   15  N   UNL     1     -39.141 -47.858  12.675  1.00  0.00    -0.363 N 
HETATM   16  C   UNL     1     -38.303 -49.064  12.630  1.00  0.00     0.150 C 
HETATM   17  C   UNL     1     -38.458 -49.888  13.919  1.00  0.00     0.187 C 
HETATM   18  O   UNL     1     -38.224 -49.095  15.091  1.00  0.00    -0.388 OA
HETATM   19  C   UNL     1     -39.175 -48.016  15.148  1.00  0.00     0.187 C 
HETATM   20  C   UNL     1     -39.049 -47.093  13.927  1.00  0.00     0.150 C 
ENDBRANCH   4  15
TORSDOF 3
ENDMDL
MODEL 4
REMARK VINA RESULT:      -5.2      4.351      7.339
REMARK  3 active torsions:
REMARK  status: ('A' for Active; 'I' for Inactive)
REMARK    1  A    between atoms: C_2  and  N_4 
REMARK       I    between atoms: N_4  and  C_5 
REMARK    2  A    between atoms: C_5  and  C_7 
REMARK    3  A    between atoms: C_10  and  N_14 
ROOT
HETATM    1  C   UNL     1     -41.380 -50.469  11.939  1.00  0.00     0.047 A 
HETATM    2  C   UNL     1     -42.426 -49.610  12.239  1.00  0.00     0.022 A 
HETATM    3  C   UNL     1     -42.360 -48.281  11.818  1.00  0.00     0.049 A 
HETATM    4  C   UNL     1     -41.258 -47.811  11.099  1.00  0.00     0.103 A 
HETATM    5  N   UNL     1     -40.218 -48.640  10.855  1.00  0.00    -0.351 N 
ATOM      6  HN  UNL     1     -39.392 -48.302  10.359  1.00  0.00     0.166 HD
HETATM    7  C   UNL     1     -40.289 -49.933  11.279  1.00  0.00     0.106 A 
ENDROOT
BRANCH   1   8
HETATM    8  C   UNL     1     -41.392 -51.906  12.309  1.00  0.00     0.253 C 
HETATM    9  N   UNL     1     -42.591 -52.380  12.803  1.00  0.00    -0.353 N 
HETATM   10  H   UNL     1     -43.419 -51.813  12.671  1.00  0.00     0.163 HD
HETATM   11  O   UNL     1     -40.394 -52.597  12.146  1.00  0.00    -0.268 OA
BRANCH   9  12
HETATM   12  C   UNL     1     -42.801 -53.779  13.149  1.00  0.00     0.076 C 
HETATM   13  C   UNL     1     -42.435 -54.001  14.614  1.00  0.00     0.032 C 
HETATM   14  C   UNL     1     -44.247 -54.191  12.891  1.00  0.00     0.032 C 
ENDBRANCH   9  12
ENDBRANCH   1   8
BRANCH   4  15
HETATM   15  N   UNL     1     -41.189 -46.501  10.680  1.00  0.00    -0.363 N 
HETATM   16  C   UNL     1     -39.929 -45.748  10.627  1.00  0.00     0.150 C 
HETATM   17  C   UNL     1     -39.948 -44.576  11.622  1.00  0.00     0.187 C 
HETATM   18  O   UNL     1     -41.100 -43.740  11.441  1.00  0.00    -0.388 OA
HETATM   19  C   UNL     1     -42.298 -44.509  11.651  1.00  0.00     0.187 C 
HETATM   20  C   UNL     1     -42.402 -45.670  10.652  1.00  0.00     0.150 C 
ENDBRANCH   4  15
TORSDOF 3
ENDMDL
MODEL 5
REMARK VINA RESULT:      -5.2      4.638      6.279
REMARK  3 active torsions:
REMARK  status: ('A' for Active; 'I' for Inactive)
REMARK    1  A    between atoms: C_2  and  N_4 
REMARK       I    between atoms: N_4  and  C_5 
REMARK    2  A    between atoms: C_5  and  C_7 
REMARK    3  A    between atoms: C_10  and  N_14 
ROOT
HETATM    1  C   UNL     1     -41.785 -50.639  12.693  1.00  0.00     0.047 A 
HETATM    2  C   UNL     1     -42.793 -49.704  12.872  1.00  0.00     0.022 A 
HETATM    3  C   UNL     1     -42.902 -48.639  11.978  1.00  0.00     0.049 A 
HETATM    4  C   UNL     1     -42.013 -48.505  10.909  1.00  0.00     0.103 A 
HETATM    5  N   UNL     1     -41.000 -49.391  10.770  1.00  0.00    -0.351 N 
ATOM      6  HN  UNL     1     -40.324 -49.288  10.013  1.00  0.00     0.166 HD
HETATM    7  C   UNL     1     -40.897 -50.422  11.655  1.00  0.00     0.106 A 
ENDROOT
BRANCH   1   8
HETATM    8  C   UNL     1     -41.627 -51.826  13.570  1.00  0.00     0.253 C 
HETATM    9  N   UNL     1     -40.323 -52.201  13.828  1.00  0.00    -0.353 N 
HETATM   10  H   UNL     1     -39.586 -51.544  13.612  1.00  0.00     0.163 HD
HETATM   11  O   UNL     1     -42.610 -52.388  14.036  1.00  0.00    -0.268 OA
BRANCH   9  12
HETATM   12  C   UNL     1     -39.985 -53.300  14.722  1.00  0.00     0.076 C 
HETATM   13  C   UNL     1     -39.369 -54.442  13.918  1.00  0.00     0.032 C 
HETATM   14  C   UNL     1     -39.023 -52.835  15.812  1.00  0.00     0.032 C 
ENDBRANCH   9  12
ENDBRANCH   1   8
BRANCH   4  15
HETATM   15  N   UNL     1     -42.118 -47.456  10.024  1.00  0.00    -0.363 N 
HETATM   16  C   UNL     1     -41.595 -46.114  10.315  1.00  0.00     0.150 C 
HETATM   17  C   UNL     1     -42.737 -45.088  10.405  1.00  0.00     0.187 C 
HETATM   18  O   UNL     1     -43.572 -45.116   9.239  1.00  0.00    -0.388 OA
HETATM   19  C   UNL     1     -44.168 -46.418   9.096  1.00  0.00     0.187 C 
HETATM   20  C   UNL     1     -43.100 -47.509   8.930  1.00  0.00     0.150 C 
ENDBRANCH   4  15
TORSDOF 3
ENDMDL
MODEL 6
REMARK VINA RESULT:      -5.1      1.436      1.670
REMARK  3 active torsions:
REMARK  status: ('A' for Active; 'I' for Inactive)
REMARK    1  A    between atoms: C_2  and  N_4 
REMARK       I    between atoms: N_4  and  C_5 
REMARK    2  A    between atoms: C_5  and  C_7 
REMARK    3  A    between atoms: C_10  and  N_14 
ROOT
HETATM    1  C   UNL     1     -40.692 -51.423  13.038  1.00  0.00     0.047 A 
HETATM    2  C   UNL     1     -41.491 -51.359  14.169  1.00  0.00     0.022 A 
HETATM    3  C   UNL     1     -42.779 -51.894  14.126  1.00  0.00     0.049 A 
HETATM    4  C   UNL     1     -43.268 -52.494  12.963  1.00  0.00     0.103 A 
HETATM    5  N   UNL     1     -42.503 -52.508  11.848  1.00  0.00    -0.351 N 
ATOM      6  HN  UNL     1     -42.859 -52.914  10.981  1.00  0.00     0.166 HD
HETATM    7  C   UNL     1     -41.251 -51.973  11.898  1.00  0.00     0.106 A 
ENDROOT
BRANCH   1   8
HETATM    8  C   UNL     1     -39.296 -50.920  13.012  1.00  0.00     0.253 C 
HETATM    9  N   UNL     1     -38.963 -50.049  14.031  1.00  0.00    -0.353 N 
HETATM   10  H   UNL     1     -39.582 -49.988  14.828  1.00  0.00     0.163 HD
HETATM   11  O   UNL     1     -38.516 -51.298  12.148  1.00  0.00    -0.268 OA
BRANCH   9  12
HETATM   12  C   UNL     1     -37.619 -49.513  14.198  1.00  0.00     0.076 C 
HETATM   13  C   UNL     1     -37.673 -47.988  14.189  1.00  0.00     0.032 C 
HETATM   14  C   UNL     1     -36.992 -50.019  15.494  1.00  0.00     0.032 C 
ENDBRANCH   9  12
ENDBRANCH   1   8
BRANCH   4  15
HETATM   15  N   UNL     1     -44.538 -53.026  12.917  1.00  0.00    -0.363 N 
HETATM   16  C   UNL     1     -45.744 -52.194  12.809  1.00  0.00     0.150 C 
HETATM   17  C   UNL     1     -46.615 -52.325  14.069  1.00  0.00     0.187 C 
HETATM   18  O   UNL     1     -46.912 -53.695  14.373  1.00  0.00    -0.388 OA
HETATM   19  C   UNL     1     -45.691 -54.417  14.611  1.00  0.00     0.187 C 
HETATM   20  C   UNL     1     -44.779 -54.401  13.377  1.00  0.00     0.150 C 
ENDBRANCH   4  15
TORSDOF 3
ENDMDL
MODEL 7
REMARK VINA RESULT:      -5.0      3.787      5.791
REMARK  3 active torsions:
REMARK  status: ('A' for Active; 'I' for Inactive)
REMARK    1  A    between atoms: C_2  and  N_4 
REMARK       I    between atoms: N_4  and  C_5 
REMARK    2  A    between atoms: C_5  and  C_7 
REMARK    3  A    between atoms: C_10  and  N_14 
ROOT
HETATM    1  C   UNL     1     -41.221 -49.311  11.611  1.00  0.00     0.047 A 
HETATM    2  C   UNL     1     -39.864 -49.594  11.645  1.00  0.00     0.022 A 
HETATM    3  C   UNL     1     -39.422 -50.740  12.308  1.00  0.00     0.049 A 
HETATM    4  C   UNL     1     -40.328 -51.601  12.933  1.00  0.00     0.103 A 
HETATM    5  N   UNL     1     -41.644 -51.292  12.941  1.00  0.00    -0.351 N 
ATOM      6  HN  UNL     1     -42.314 -51.894  13.421  1.00  0.00     0.166 HD
HETATM    7  C   UNL     1     -42.064 -50.166  12.299  1.00  0.00     0.106 A 
ENDROOT
BRANCH   1   8
HETATM    8  C   UNL     1     -41.778 -48.140  10.890  1.00  0.00     0.253 C 
HETATM    9  N   UNL     1     -42.586 -48.441   9.810  1.00  0.00    -0.353 N 
HETATM   10  H   UNL     1     -42.927 -49.388   9.718  1.00  0.00     0.163 HD
HETATM   11  O   UNL     1     -41.538 -47.003  11.273  1.00  0.00    -0.268 OA
BRANCH   9  12
HETATM   12  C   UNL     1     -43.270 -47.417   9.032  1.00  0.00     0.076 C 
HETATM   13  C   UNL     1     -43.382 -47.870   7.579  1.00  0.00     0.032 C 
HETATM   14  C   UNL     1     -44.652 -47.129   9.612  1.00  0.00     0.032 C 
ENDBRANCH   9  12
ENDBRANCH   1   8
BRANCH   4  15
HETATM   15  N   UNL     1     -39.896 -52.733  13.587  1.00  0.00    -0.363 N 
HETATM   16  C   UNL     1     -40.605 -54.017  13.507  1.00  0.00     0.150 C 
HETATM   17  C   UNL     1     -41.163 -54.422  14.881  1.00  0.00     0.187 C 
HETATM   18  O   UNL     1     -40.146 -54.414  15.893  1.00  0.00    -0.388 OA
HETATM   19  C   UNL     1     -39.595 -53.091  16.020  1.00  0.00     0.187 C 
HETATM   20  C   UNL     1     -38.950 -52.623  14.707  1.00  0.00     0.150 C 
ENDBRANCH   4  15
TORSDOF 3
ENDMDL
MODEL 8
REMARK VINA RESULT:      -5.0      5.499      7.787
REMARK  3 active torsions:
REMARK  status: ('A' for Active; 'I' for Inactive)
REMARK    1  A    between atoms: C_2  and  N_4 
REMARK       I    between atoms: N_4  and  C_5 
REMARK    2  A    between atoms: C_5  and  C_7 
REMARK    3  A    between atoms: C_10  and  N_14 
ROOT
HETATM    1  C   UNL     1     -41.756 -46.433  10.955  1.00  0.00     0.047 A 
HETATM    2  C   UNL     1     -42.474 -47.615  11.058  1.00  0.00     0.022 A 
HETATM    3  C   UNL     1     -41.788 -48.817  11.236  1.00  0.00     0.049 A 
HETATM    4  C   UNL     1     -40.394 -48.842  11.314  1.00  0.00     0.103 A 
HETATM    5  N   UNL     1     -39.696 -47.694  11.162  1.00  0.00    -0.351 N 
ATOM      6  HN  UNL     1     -38.676 -47.701  11.184  1.00  0.00     0.166 HD
HETATM    7  C   UNL     1     -40.376 -46.526  10.978  1.00  0.00     0.106 A 
ENDROOT
BRANCH   1   8
HETATM    8  C   UNL     1     -42.408 -45.108  10.810  1.00  0.00     0.253 C 
HETATM    9  N   UNL     1     -42.113 -44.193  11.801  1.00  0.00    -0.353 N 
HETATM   10  H   UNL     1     -41.327 -44.383  12.409  1.00  0.00     0.163 HD
HETATM   11  O   UNL     1     -43.129 -44.873   9.849  1.00  0.00    -0.268 OA
BRANCH   9  12
HETATM   12  C   UNL     1     -42.611 -42.824  11.780  1.00  0.00     0.076 C 
HETATM   13  C   UNL     1     -43.019 -42.408  13.190  1.00  0.00     0.032 C 
HETATM   14  C   UNL     1     -41.555 -41.872  11.226  1.00  0.00     0.032 C 
ENDBRANCH   9  12
ENDBRANCH   1   8
BRANCH   4  15
HETATM   15  N   UNL     1     -39.713 -50.026  11.492  1.00  0.00    -0.363 N 
HETATM   16  C   UNL     1     -40.346 -51.232  12.043  1.00  0.00     0.150 C 
HETATM   17  C   UNL     1     -39.719 -51.612  13.394  1.00  0.00     0.187 C 
HETATM   18  O   UNL     1     -38.292 -51.727  13.307  1.00  0.00    -0.388 OA
HETATM   19  C   UNL     1     -37.725 -50.467  12.903  1.00  0.00     0.187 C 
HETATM   20  C   UNL     1     -38.243 -50.035  11.525  1.00  0.00     0.150 C 
ENDBRANCH   4  15
TORSDOF 3
ENDMDL
MODEL 9
REMARK VINA RESULT:      -5.0      3.588      6.342
REMARK  3 active torsions:
REMARK  status: ('A' for Active; 'I' for Inactive)
REMARK    1  A    between atoms: C_2  and  N_4 
REMARK       I    between atoms: N_4  and  C_5 
REMARK    2  A    between atoms: C_5  and  C_7 
REMARK    3  A    between atoms: C_10  and  N_14 
ROOT
HETATM    1  C   UNL     1     -40.319 -51.779  12.918  1.00  0.00     0.047 A 
HETATM    2  C   UNL     1     -39.338 -50.803  13.009  1.00  0.00     0.022 A 
HETATM    3  C   UNL     1     -39.524 -49.586  12.353  1.00  0.00     0.049 A 
HETATM    4  C   UNL     1     -40.683 -49.340  11.612  1.00  0.00     0.103 A 
HETATM    5  N   UNL     1     -41.612 -50.314  11.485  1.00  0.00    -0.351 N 
ATOM      6  HN  UNL     1     -42.449 -50.161  10.921  1.00  0.00     0.166 HD
HETATM    7  C   UNL     1     -41.415 -51.504  12.122  1.00  0.00     0.106 A 
ENDROOT
BRANCH   1   8
HETATM    8  C   UNL     1     -40.221 -53.082  13.622  1.00  0.00     0.253 C 
HETATM    9  N   UNL     1     -41.266 -53.373  14.476  1.00  0.00    -0.353 N 
HETATM   10  H   UNL     1     -42.110 -52.822  14.402  1.00  0.00     0.163 HD
HETATM   11  O   UNL     1     -39.277 -53.833  13.410  1.00  0.00    -0.268 OA
BRANCH   9  12
HETATM   12  C   UNL     1     -41.366 -54.636  15.194  1.00  0.00     0.076 C 
HETATM   13  C   UNL     1     -40.803 -54.468  16.603  1.00  0.00     0.032 C 
HETATM   14  C   UNL     1     -42.814 -55.115  15.250  1.00  0.00     0.032 C 
ENDBRANCH   9  12
ENDBRANCH   1   8
BRANCH   4  15
HETATM   15  N   UNL     1     -40.871 -48.139  10.965  1.00  0.00    -0.363 N 
HETATM   16  C   UNL     1     -40.112 -46.928  11.300  1.00  0.00     0.150 C 
HETATM   17  C   UNL     1     -41.038 -45.838  11.865  1.00  0.00     0.187 C 
HETATM   18  O   UNL     1     -42.145 -45.574  10.992  1.00  0.00    -0.388 OA
HETATM   19  C   UNL     1     -42.930 -46.768  10.824  1.00  0.00     0.187 C 
HETATM   20  C   UNL     1     -42.103 -47.900  10.198  1.00  0.00     0.150 C 
ENDBRANCH   4  15
TORSDOF 3
ENDMDL
