MODEL 1
REMARK VINA RESULT:      -6.6      0.000      0.000
REMARK  4 active torsions:
REMARK  status: ('A' for Active; 'I' for Inactive)
REMARK    1  A    between atoms: S_2  and  C_5 
REMARK    2  A    between atoms: C_8  and  N_9 
REMARK       I    between atoms: N_9  and  C_10 
REMARK       I    between atoms: C_10  and  N_12 
REMARK    3  A    between atoms: N_12  and  C_13 
REMARK    4  A    between atoms: C_13  and  C_14 
ROOT
HETATM    1  N   UNL     1     -40.848 -50.633  10.981  1.00  0.00    -0.308 N 
HETATM    2  C   UNL     1     -41.013 -51.421  12.096  1.00  0.00     0.320 C 
HETATM    3  O   UNL     1     -41.154 -51.014  13.243  1.00  0.00    -0.247 OA
HETATM    4  N   UNL     1     -41.042 -52.761  11.812  1.00  0.00    -0.340 N 
HETATM    5  H   UNL     1     -40.986 -51.083  10.089  1.00  0.00     0.170 HD
HETATM    6  H   UNL     1     -40.736 -53.114  10.917  1.00  0.00     0.164 HD
ENDROOT
BRANCH   1   7
HETATM    7  C   UNL     1     -40.728 -49.221  10.997  1.00  0.00     0.051 A 
HETATM    8  C   UNL     1     -39.697 -48.552  11.667  1.00  0.00     0.034 A 
HETATM    9  C   UNL     1     -39.617 -47.163  11.631  1.00  0.00     0.044 A 
HETATM   10  C   UNL     1     -40.575 -46.490  10.901  1.00  0.00     0.128 A 
HETATM   11  N   UNL     1     -41.599 -47.078  10.227  1.00  0.00    -0.355 N 
HETATM   12  C   UNL     1     -41.642 -48.433  10.298  1.00  0.00     0.118 A 
ATOM     13  HN  UNL     1     -42.288 -46.538   9.704  1.00  0.00     0.166 HD
BRANCH  10  14
HETATM   14  S   UNL     1     -40.450 -44.725  10.733  1.00  0.00     0.187 S 
HETATM   15  C   UNL     1     -39.631 -44.177  12.203  1.00  0.00     0.168 C 
HETATM   16  O   UNL     1     -41.805 -44.201  10.759  1.00  0.00    -0.222 OA
HETATM   17  O   UNL     1     -39.571 -44.459   9.609  1.00  0.00    -0.222 OA
ENDBRANCH  10  14
ENDBRANCH   1   7
BRANCH   4  18
HETATM   18  C   UNL     1     -41.276 -53.735  12.871  1.00  0.00     0.156 C 
BRANCH  18  19
HETATM   19  C   UNL     1     -42.677 -53.664  13.478  1.00  0.00     0.139 C 
HETATM   20  C   UNL     1     -43.011 -54.711  14.530  1.00  0.00     0.035 C 
HETATM   21  C   UNL     1     -44.487 -54.994  14.320  1.00  0.00     0.029 C 
HETATM   22  C   UNL     1     -44.890 -54.128  13.144  1.00  0.00     0.168 C 
HETATM   23  O   UNL     1     -43.676 -53.817  12.454  1.00  0.00    -0.384 OA
ENDBRANCH  18  19
ENDBRANCH   4  18
TORSDOF 4
ENDMDL
MODEL 2
REMARK VINA RESULT:      -6.5      1.403      2.046
REMARK  4 active torsions:
REMARK  status: ('A' for Active; 'I' for Inactive)
REMARK    1  A    between atoms: S_2  and  C_5 
REMARK    2  A    between atoms: C_8  and  N_9 
REMARK       I    between atoms: N_9  and  C_10 
REMARK       I    between atoms: C_10  and  N_12 
REMARK    3  A    between atoms: N_12  and  C_13 
REMARK    4  A    between atoms: C_13  and  C_14 
ROOT
HETATM    1  N   UNL     1     -40.861 -50.382  10.950  1.00  0.00    -0.308 N 
HETATM    2  C   UNL     1     -41.498 -51.161  11.888  1.00  0.00     0.320 C 
HETATM    3  O   UNL     1     -42.143 -50.744  12.842  1.00  0.00    -0.247 OA
HETATM    4  N   UNL     1     -41.380 -52.504  11.646  1.00  0.00    -0.340 N 
HETATM    5  H   UNL     1     -40.579 -50.845  10.100  1.00  0.00     0.170 HD
HETATM    6  H   UNL     1     -40.701 -52.861  10.989  1.00  0.00     0.164 HD
ENDROOT
BRANCH   1   7
HETATM    7  C   UNL     1     -40.779 -48.969  10.992  1.00  0.00     0.051 A 
HETATM    8  C   UNL     1     -39.793 -48.283  11.711  1.00  0.00     0.034 A 
HETATM    9  C   UNL     1     -39.748 -46.892  11.699  1.00  0.00     0.044 A 
HETATM   10  C   UNL     1     -40.695 -46.233  10.943  1.00  0.00     0.128 A 
HETATM   11  N   UNL     1     -41.677 -46.836  10.221  1.00  0.00    -0.355 N 
HETATM   12  C   UNL     1     -41.686 -48.193  10.270  1.00  0.00     0.118 A 
ATOM     13  HN  UNL     1     -42.359 -46.305   9.680  1.00  0.00     0.166 HD
BRANCH  10  14
HETATM   14  S   UNL     1     -40.610 -44.463  10.807  1.00  0.00     0.187 S 
HETATM   15  C   UNL     1     -39.862 -43.918  12.315  1.00  0.00     0.168 C 
HETATM   16  O   UNL     1     -41.979 -43.975  10.789  1.00  0.00    -0.222 OA
HETATM   17  O   UNL     1     -39.697 -44.156   9.720  1.00  0.00    -0.222 OA
ENDBRANCH  10  14
ENDBRANCH   1   7
BRANCH   4  18
HETATM   18  C   UNL     1     -42.050 -53.471  12.506  1.00  0.00     0.156 C 
BRANCH  18  19
HETATM   19  C   UNL     1     -41.100 -54.260  13.407  1.00  0.00     0.139 C 
HETATM   20  C   UNL     1     -41.368 -54.181  14.903  1.00  0.00     0.035 C 
HETATM   21  C   UNL     1     -39.989 -54.235  15.533  1.00  0.00     0.029 C 
HETATM   22  C   UNL     1     -39.026 -54.298  14.365  1.00  0.00     0.168 C 
HETATM   23  O   UNL     1     -39.748 -53.799  13.236  1.00  0.00    -0.384 OA
ENDBRANCH  18  19
ENDBRANCH   4  18
TORSDOF 4
ENDMDL
MODEL 3
REMARK VINA RESULT:      -6.4      1.533      1.734
REMARK  4 active torsions:
REMARK  status: ('A' for Active; 'I' for Inactive)
REMARK    1  A    between atoms: S_2  and  C_5 
REMARK    2  A    between atoms: C_8  and  N_9 
REMARK       I    between atoms: N_9  and  C_10 
REMARK       I    between atoms: C_10  and  N_12 
REMARK    3  A    between atoms: N_12  and  C_13 
REMARK    4  A    between atoms: C_13  and  C_14 
ROOT
HETATM    1  N   UNL     1     -41.550 -49.354  10.755  1.00  0.00    -0.308 N 
HETATM    2  C   UNL     1     -41.351 -50.218  11.806  1.00  0.00     0.320 C 
HETATM    3  O   UNL     1     -41.338 -49.907  12.991  1.00  0.00    -0.247 OA
HETATM    4  N   UNL     1     -41.195 -51.521  11.414  1.00  0.00    -0.340 N 
HETATM    5  H   UNL     1     -41.774 -49.774   9.865  1.00  0.00     0.170 HD
HETATM    6  H   UNL     1     -41.010 -51.760  10.451  1.00  0.00     0.164 HD
ENDROOT
BRANCH   1   7
HETATM    7  C   UNL     1     -41.683 -47.949  10.874  1.00  0.00     0.051 A 
HETATM    8  C   UNL     1     -40.587 -47.087  11.001  1.00  0.00     0.034 A 
HETATM    9  C   UNL     1     -40.777 -45.711  11.094  1.00  0.00     0.044 A 
HETATM   10  C   UNL     1     -42.075 -45.245  11.038  1.00  0.00     0.128 A 
HETATM   11  N   UNL     1     -43.181 -46.025  10.914  1.00  0.00    -0.355 N 
HETATM   12  C   UNL     1     -42.947 -47.360  10.836  1.00  0.00     0.118 A 
ATOM     13  HN  UNL     1     -44.122 -45.634  10.881  1.00  0.00     0.166 HD
BRANCH  10  14
HETATM   14  S   UNL     1     -42.360 -43.491  11.040  1.00  0.00     0.187 S 
HETATM   15  C   UNL     1     -42.818 -43.098  12.704  1.00  0.00     0.168 C 
HETATM   16  O   UNL     1     -43.517 -43.250  10.194  1.00  0.00    -0.222 OA
HETATM   17  O   UNL     1     -41.089 -42.846  10.764  1.00  0.00    -0.222 OA
ENDBRANCH  10  14
ENDBRANCH   1   7
BRANCH   4  18
HETATM   18  C   UNL     1     -41.040 -52.577  12.406  1.00  0.00     0.156 C 
BRANCH  18  19
HETATM   19  C   UNL     1     -42.324 -52.898  13.172  1.00  0.00     0.139 C 
HETATM   20  C   UNL     1     -42.304 -54.158  14.025  1.00  0.00     0.035 C 
HETATM   21  C   UNL     1     -43.721 -54.693  13.934  1.00  0.00     0.029 C 
HETATM   22  C   UNL     1     -44.444 -53.736  13.008  1.00  0.00     0.168 C 
HETATM   23  O   UNL     1     -43.423 -53.071  12.259  1.00  0.00    -0.384 OA
ENDBRANCH  18  19
ENDBRANCH   4  18
TORSDOF 4
ENDMDL
MODEL 4
REMARK VINA RESULT:      -6.4      3.886      7.843
REMARK  4 active torsions:
REMARK  status: ('A' for Active; 'I' for Inactive)
REMARK    1  A    between atoms: S_2  and  C_5 
REMARK    2  A    between atoms: C_8  and  N_9 
REMARK       I    between atoms: N_9  and  C_10 
REMARK       I    between atoms: C_10  and  N_12 
REMARK    3  A    between atoms: N_12  and  C_13 
REMARK    4  A    between atoms: C_13  and  C_14 
ROOT
HETATM    1  N   UNL     1     -40.553 -50.845  11.350  1.00  0.00    -0.308 N 
HETATM    2  C   UNL     1     -41.237 -49.657  11.470  1.00  0.00     0.320 C 
HETATM    3  O   UNL     1     -41.761 -49.237  12.495  1.00  0.00    -0.247 OA
HETATM    4  N   UNL     1     -41.263 -48.928  10.311  1.00  0.00    -0.340 N 
HETATM    5  H   UNL     1     -39.976 -50.948  10.529  1.00  0.00     0.170 HD
HETATM    6  H   UNL     1     -41.011 -49.341   9.426  1.00  0.00     0.164 HD
ENDROOT
BRANCH   1   7
HETATM    7  C   UNL     1     -40.423 -51.812  12.376  1.00  0.00     0.051 A 
HETATM    8  C   UNL     1     -41.287 -52.905  12.508  1.00  0.00     0.034 A 
HETATM    9  C   UNL     1     -41.098 -53.837  13.524  1.00  0.00     0.044 A 
HETATM   10  C   UNL     1     -40.025 -53.645  14.369  1.00  0.00     0.128 A 
HETATM   11  N   UNL     1     -39.148 -52.610  14.296  1.00  0.00    -0.355 N 
HETATM   12  C   UNL     1     -39.377 -51.721  13.295  1.00  0.00     0.118 A 
ATOM     13  HN  UNL     1     -38.370 -52.507  14.948  1.00  0.00     0.166 HD
BRANCH  10  14
HETATM   14  S   UNL     1     -39.677 -54.868  15.612  1.00  0.00     0.187 S 
HETATM   15  C   UNL     1     -39.015 -53.963  16.980  1.00  0.00     0.168 C 
HETATM   16  O   UNL     1     -38.620 -55.715  15.086  1.00  0.00    -0.222 OA
HETATM   17  O   UNL     1     -40.948 -55.436  16.026  1.00  0.00    -0.222 OA
ENDBRANCH  10  14
ENDBRANCH   1   7
BRANCH   4  18
HETATM   18  C   UNL     1     -41.890 -47.612  10.281  1.00  0.00     0.156 C 
BRANCH  18  19
HETATM   19  C   UNL     1     -43.179 -47.561   9.461  1.00  0.00     0.139 C 
HETATM   20  C   UNL     1     -43.493 -46.238   8.779  1.00  0.00     0.035 C 
HETATM   21  C   UNL     1     -45.007 -46.145   8.823  1.00  0.00     0.029 C 
HETATM   22  C   UNL     1     -45.456 -47.391   9.558  1.00  0.00     0.168 C 
HETATM   23  O   UNL     1     -44.316 -47.841  10.296  1.00  0.00    -0.384 OA
ENDBRANCH  18  19
ENDBRANCH   4  18
TORSDOF 4
ENDMDL
MODEL 5
REMARK VINA RESULT:      -6.0      3.490      7.952
REMARK  4 active torsions:
REMARK  status: ('A' for Active; 'I' for Inactive)
REMARK    1  A    between atoms: S_2  and  C_5 
REMARK    2  A    between atoms: C_8  and  N_9 
REMARK       I    between atoms: N_9  and  C_10 
REMARK       I    between atoms: C_10  and  N_12 
REMARK    3  A    between atoms: N_12  and  C_13 
REMARK    4  A    between atoms: C_13  and  C_14 
ROOT
HETATM    1  N   UNL     1     -41.419 -50.840  11.395  1.00  0.00    -0.308 N 
HETATM    2  C   UNL     1     -41.489 -49.487  11.630  1.00  0.00     0.320 C 
HETATM    3  O   UNL     1     -41.606 -48.960  12.730  1.00  0.00    -0.247 OA
HETATM    4  N   UNL     1     -41.382 -48.734  10.491  1.00  0.00    -0.340 N 
HETATM    5  H   UNL     1     -41.086 -51.121  10.485  1.00  0.00     0.170 HD
HETATM    6  H   UNL     1     -41.482 -49.149   9.576  1.00  0.00     0.164 HD
ENDROOT
BRANCH   1   7
HETATM    7  C   UNL     1     -41.558 -51.843  12.385  1.00  0.00     0.051 A 
HETATM    8  C   UNL     1     -40.532 -52.185  13.273  1.00  0.00     0.034 A 
HETATM    9  C   UNL     1     -40.732 -53.165  14.241  1.00  0.00     0.044 A 
HETATM   10  C   UNL     1     -41.977 -53.760  14.294  1.00  0.00     0.128 A 
HETATM   11  N   UNL     1     -43.015 -53.474  13.466  1.00  0.00    -0.355 N 
HETATM   12  C   UNL     1     -42.770 -52.518  12.532  1.00  0.00     0.118 A 
ATOM     13  HN  UNL     1     -43.917 -53.944  13.540  1.00  0.00     0.166 HD
BRANCH  10  14
HETATM   14  S   UNL     1     -42.315 -54.936  15.583  1.00  0.00     0.187 S 
HETATM   15  C   UNL     1     -42.919 -53.974  16.941  1.00  0.00     0.168 C 
HETATM   16  O   UNL     1     -41.040 -55.508  15.978  1.00  0.00    -0.222 OA
HETATM   17  O   UNL     1     -43.400 -55.783  15.121  1.00  0.00    -0.222 OA
ENDBRANCH  10  14
ENDBRANCH   1   7
BRANCH   4  18
HETATM   18  C   UNL     1     -41.371 -47.278  10.567  1.00  0.00     0.156 C 
BRANCH  18  19
HETATM   19  C   UNL     1     -42.742 -46.637  10.350  1.00  0.00     0.139 C 
HETATM   20  C   UNL     1     -43.917 -47.592  10.200  1.00  0.00     0.035 C 
HETATM   21  C   UNL     1     -44.838 -46.899   9.213  1.00  0.00     0.029 C 
HETATM   22  C   UNL     1     -44.117 -45.623   8.833  1.00  0.00     0.168 C 
HETATM   23  O   UNL     1     -42.740 -45.842   9.151  1.00  0.00    -0.384 OA
ENDBRANCH  18  19
ENDBRANCH   4  18
TORSDOF 4
ENDMDL
MODEL 6
REMARK VINA RESULT:      -6.0      2.733      8.113
REMARK  4 active torsions:
REMARK  status: ('A' for Active; 'I' for Inactive)
REMARK    1  A    between atoms: S_2  and  C_5 
REMARK    2  A    between atoms: C_8  and  N_9 
REMARK       I    between atoms: N_9  and  C_10 
REMARK       I    between atoms: C_10  and  N_12 
REMARK    3  A    between atoms: N_12  and  C_13 
REMARK    4  A    between atoms: C_13  and  C_14 
ROOT
HETATM    1  N   UNL     1     -41.018 -47.746  10.506  1.00  0.00    -0.308 N 
HETATM    2  C   UNL     1     -40.456 -46.609  11.040  1.00  0.00     0.320 C 
HETATM    3  O   UNL     1     -39.996 -46.506  12.171  1.00  0.00    -0.247 OA
HETATM    4  N   UNL     1     -40.418 -45.560  10.161  1.00  0.00    -0.340 N 
HETATM    5  H   UNL     1     -41.132 -47.761   9.503  1.00  0.00     0.170 HD
HETATM    6  H   UNL     1     -40.960 -45.569   9.309  1.00  0.00     0.164 HD
ENDROOT
BRANCH   1   7
HETATM    7  C   UNL     1     -41.231 -48.954  11.214  1.00  0.00     0.051 A 
HETATM    8  C   UNL     1     -42.350 -49.175  12.024  1.00  0.00     0.034 A 
HETATM    9  C   UNL     1     -42.519 -50.391  12.680  1.00  0.00     0.044 A 
HETATM   10  C   UNL     1     -41.555 -51.358  12.481  1.00  0.00     0.128 A 
HETATM   11  N   UNL     1     -40.447 -51.210  11.707  1.00  0.00    -0.355 N 
HETATM   12  C   UNL     1     -40.321 -50.004  11.095  1.00  0.00     0.118 A 
ATOM     13  HN  UNL     1     -39.758 -51.953  11.594  1.00  0.00     0.166 HD
BRANCH  10  14
HETATM   14  S   UNL     1     -41.783 -52.964  13.207  1.00  0.00     0.187 S 
HETATM   15  C   UNL     1     -43.431 -53.440  12.773  1.00  0.00     0.168 C 
HETATM   16  O   UNL     1     -41.738 -52.786  14.649  1.00  0.00    -0.222 OA
HETATM   17  O   UNL     1     -40.867 -53.874  12.542  1.00  0.00    -0.222 OA
ENDBRANCH  10  14
ENDBRANCH   1   7
BRANCH   4  18
HETATM   18  C   UNL     1     -39.795 -44.299  10.543  1.00  0.00     0.156 C 
BRANCH  18  19
HETATM   19  C   UNL     1     -40.785 -43.248  11.045  1.00  0.00     0.139 C 
HETATM   20  C   UNL     1     -40.951 -43.145  12.554  1.00  0.00     0.035 C 
HETATM   21  C   UNL     1     -42.413 -42.785  12.745  1.00  0.00     0.029 C 
HETATM   22  C   UNL     1     -42.994 -42.748  11.346  1.00  0.00     0.168 C 
HETATM   23  O   UNL     1     -42.102 -43.514  10.532  1.00  0.00    -0.384 OA
ENDBRANCH  18  19
ENDBRANCH   4  18
TORSDOF 4
ENDMDL
MODEL 7
REMARK VINA RESULT:      -5.9      3.351      7.923
REMARK  4 active torsions:
REMARK  status: ('A' for Active; 'I' for Inactive)
REMARK    1  A    between atoms: S_2  and  C_5 
REMARK    2  A    between atoms: C_8  and  N_9 
REMARK       I    between atoms: N_9  and  C_10 
REMARK       I    between atoms: C_10  and  N_12 
REMARK    3  A    between atoms: N_12  and  C_13 
REMARK    4  A    between atoms: C_13  and  C_14 
ROOT
HETATM    1  N   UNL     1     -40.543 -50.307  11.142  1.00  0.00    -0.308 N 
HETATM    2  C   UNL     1     -41.498 -49.318  11.188  1.00  0.00     0.320 C 
HETATM    3  O   UNL     1     -42.270 -49.115  12.118  1.00  0.00    -0.247 OA
HETATM    4  N   UNL     1     -41.500 -48.516  10.078  1.00  0.00    -0.340 N 
HETATM    5  H   UNL     1     -39.829 -50.208  10.436  1.00  0.00     0.170 HD
HETATM    6  H   UNL     1     -41.014 -48.785   9.236  1.00  0.00     0.164 HD
ENDROOT
BRANCH   1   7
HETATM    7  C   UNL     1     -40.362 -51.305  12.130  1.00  0.00     0.051 A 
HETATM    8  C   UNL     1     -41.017 -52.541  12.094  1.00  0.00     0.034 A 
HETATM    9  C   UNL     1     -40.784 -53.494  13.082  1.00  0.00     0.044 A 
HETATM   10  C   UNL     1     -39.878 -53.173  14.072  1.00  0.00     0.128 A 
HETATM   11  N   UNL     1     -39.207 -51.995  14.164  1.00  0.00    -0.355 N 
HETATM   12  C   UNL     1     -39.473 -51.094  13.184  1.00  0.00     0.118 A 
ATOM     13  HN  UNL     1     -38.548 -51.801  14.918  1.00  0.00     0.166 HD
BRANCH  10  14
HETATM   14  S   UNL     1     -39.464 -54.398  15.291  1.00  0.00     0.187 S 
HETATM   15  C   UNL     1     -41.017 -54.998  15.890  1.00  0.00     0.168 C 
HETATM   16  O   UNL     1     -38.807 -53.701  16.384  1.00  0.00    -0.222 OA
HETATM   17  O   UNL     1     -38.801 -55.489  14.600  1.00  0.00    -0.222 OA
ENDBRANCH  10  14
ENDBRANCH   1   7
BRANCH   4  18
HETATM   18  C   UNL     1     -42.405 -47.376   9.993  1.00  0.00     0.156 C 
BRANCH  18  19
HETATM   19  C   UNL     1     -41.789 -46.060  10.468  1.00  0.00     0.139 C 
HETATM   20  C   UNL     1     -40.278 -46.049  10.646  1.00  0.00     0.035 C 
HETATM   21  C   UNL     1     -40.047 -45.122  11.826  1.00  0.00     0.029 C 
HETATM   22  C   UNL     1     -41.433 -44.700  12.270  1.00  0.00     0.168 C 
HETATM   23  O   UNL     1     -42.328 -45.687  11.748  1.00  0.00    -0.384 OA
ENDBRANCH  18  19
ENDBRANCH   4  18
TORSDOF 4
ENDMDL
MODEL 8
REMARK VINA RESULT:      -5.9      3.172      8.368
REMARK  4 active torsions:
REMARK  status: ('A' for Active; 'I' for Inactive)
REMARK    1  A    between atoms: S_2  and  C_5 
REMARK    2  A    between atoms: C_8  and  N_9 
REMARK       I    between atoms: N_9  and  C_10 
REMARK       I    between atoms: C_10  and  N_12 
REMARK    3  A    between atoms: N_12  and  C_13 
REMARK    4  A    between atoms: C_13  and  C_14 
ROOT
HETATM    1  N   UNL     1     -41.398 -50.851  11.485  1.00  0.00    -0.308 N 
HETATM    2  C   UNL     1     -40.893 -49.682  12.005  1.00  0.00     0.320 C 
HETATM    3  O   UNL     1     -40.824 -49.404  13.197  1.00  0.00    -0.247 OA
HETATM    4  N   UNL     1     -40.418 -48.825  11.049  1.00  0.00    -0.340 N 
HETATM    5  H   UNL     1     -41.174 -51.046  10.521  1.00  0.00     0.170 HD
HETATM    6  H   UNL     1     -40.643 -48.951  10.073  1.00  0.00     0.164 HD
ENDROOT
BRANCH   1   7
HETATM    7  C   UNL     1     -42.002 -51.882  12.245  1.00  0.00     0.051 A 
HETATM    8  C   UNL     1     -41.354 -53.086  12.545  1.00  0.00     0.034 A 
HETATM    9  C   UNL     1     -41.989 -54.057  13.315  1.00  0.00     0.044 A 
HETATM   10  C   UNL     1     -43.258 -53.772  13.775  1.00  0.00     0.128 A 
HETATM   11  N   UNL     1     -43.942 -52.625  13.523  1.00  0.00    -0.355 N 
HETATM   12  C   UNL     1     -43.287 -51.712  12.761  1.00  0.00     0.118 A 
ATOM     13  HN  UNL     1     -44.882 -52.461  13.882  1.00  0.00     0.166 HD
BRANCH  10  14
HETATM   14  S   UNL     1     -44.064 -54.933  14.854  1.00  0.00     0.187 S 
HETATM   15  C   UNL     1     -44.728 -53.957  16.172  1.00  0.00     0.168 C 
HETATM   16  O   UNL     1     -43.025 -55.782  15.411  1.00  0.00    -0.222 OA
HETATM   17  O   UNL     1     -45.177 -55.505  14.118  1.00  0.00    -0.222 OA
ENDBRANCH  10  14
ENDBRANCH   1   7
BRANCH   4  18
HETATM   18  C   UNL     1     -39.787 -47.568  11.433  1.00  0.00     0.156 C 
BRANCH  18  19
HETATM   19  C   UNL     1     -40.541 -46.327  10.955  1.00  0.00     0.139 C 
HETATM   20  C   UNL     1     -39.688 -45.140  10.532  1.00  0.00     0.035 C 
HETATM   21  C   UNL     1     -40.503 -43.928  10.946  1.00  0.00     0.029 C 
HETATM   22  C   UNL     1     -41.740 -44.495  11.611  1.00  0.00     0.168 C 
HETATM   23  O   UNL     1     -41.399 -45.829  11.998  1.00  0.00    -0.384 OA
ENDBRANCH  18  19
ENDBRANCH   4  18
TORSDOF 4
ENDMDL
MODEL 9
REMARK VINA RESULT:      -5.7      6.566      9.337
REMARK  4 active torsions:
REMARK  status: ('A' for Active; 'I' for Inactive)
REMARK    1  A    between atoms: S_2  and  C_5 
REMARK    2  A    between atoms: C_8  and  N_9 
REMARK       I    between atoms: N_9  and  C_10 
REMARK       I    between atoms: C_10  and  N_12 
REMARK    3  A    between atoms: N_12  and  C_13 
REMARK    4  A    between atoms: C_13  and  C_14 
ROOT
HETATM    1  N   UNL     1     -39.361 -54.779  16.228  1.00  0.00    -0.308 N 
HETATM    2  C   UNL     1     -38.739 -55.893  16.742  1.00  0.00     0.320 C 
HETATM    3  O   UNL     1     -39.180 -57.035  16.707  1.00  0.00    -0.247 OA
HETATM    4  N   UNL     1     -37.515 -55.623  17.294  1.00  0.00    -0.340 N 
HETATM    5  H   UNL     1     -38.786 -53.958  16.112  1.00  0.00     0.170 HD
HETATM    6  H   UNL     1     -37.231 -54.677  17.503  1.00  0.00     0.164 HD
ENDROOT
BRANCH   1   7
HETATM    7  C   UNL     1     -40.655 -54.766  15.653  1.00  0.00     0.051 A 
HETATM    8  C   UNL     1     -41.804 -55.157  16.351  1.00  0.00     0.034 A 
HETATM    9  C   UNL     1     -43.054 -55.105  15.741  1.00  0.00     0.044 A 
HETATM   10  C   UNL     1     -43.107 -54.638  14.443  1.00  0.00     0.128 A 
HETATM   11  N   UNL     1     -42.034 -54.242  13.710  1.00  0.00    -0.355 N 
HETATM   12  C   UNL     1     -40.835 -54.319  14.344  1.00  0.00     0.118 A 
ATOM     13  HN  UNL     1     -42.123 -53.909  12.751  1.00  0.00     0.166 HD
BRANCH  10  14
HETATM   14  S   UNL     1     -44.692 -54.448  13.662  1.00  0.00     0.187 S 
HETATM   15  C   UNL     1     -45.441 -53.060  14.464  1.00  0.00     0.168 C 
HETATM   16  O   UNL     1     -45.472 -55.627  13.995  1.00  0.00    -0.222 OA
HETATM   17  O   UNL     1     -44.450 -54.084  12.277  1.00  0.00    -0.222 OA
ENDBRANCH  10  14
ENDBRANCH   1   7
BRANCH   4  18
HETATM   18  C   UNL     1     -36.691 -56.701  17.825  1.00  0.00     0.156 C 
BRANCH  18  19
HETATM   19  C   UNL     1     -35.240 -56.298  18.089  1.00  0.00     0.139 C 
HETATM   20  C   UNL     1     -34.995 -54.830  18.407  1.00  0.00     0.035 C 
HETATM   21  C   UNL     1     -33.641 -54.535  17.790  1.00  0.00     0.029 C 
HETATM   22  C   UNL     1     -33.220 -55.831  17.128  1.00  0.00     0.168 C 
HETATM   23  O   UNL     1     -34.423 -56.582  16.940  1.00  0.00    -0.384 OA
ENDBRANCH  18  19
ENDBRANCH   4  18
TORSDOF 4
ENDMDL
