MODEL 1
REMARK VINA RESULT:      -6.0      0.000      0.000
REMARK  5 active torsions:
REMARK  status: ('A' for Active; 'I' for Inactive)
REMARK    1  A    between atoms: C_2  and  C_3 
REMARK    2  A    between atoms: C_2  and  N_10 
REMARK    3  A    between atoms: C_3  and  N_4 
REMARK       I    between atoms: N_10  and  C_11 
REMARK    4  A    between atoms: C_11  and  C_13 
REMARK    5  A    between atoms: C_13  and  N_14 
ROOT
HETATM    1  N   UNL     1     -42.786 -50.091  12.128  1.00  0.00    -0.354 N 
HETATM    2  C   UNL     1     -42.257 -51.176  12.804  1.00  0.00     0.235 C 
HETATM    3  O   UNL     1     -41.179 -51.144  13.392  1.00  0.00    -0.272 OA
HETATM    4  H   UNL     1     -43.414 -50.318  11.363  1.00  0.00     0.163 HD
ENDROOT
BRANCH   1   5
HETATM    5  C   UNL     1     -42.081 -48.803  12.065  1.00  0.00     0.100 C 
HETATM    6  C   UNL     1     -41.163 -48.806  10.839  1.00  0.00     0.034 C 
BRANCH   5   7
HETATM    7  C   UNL     1     -43.078 -47.626  12.029  1.00  0.00     0.172 C 
BRANCH   7   8
HETATM    8  N   UNL     1     -43.498 -47.250  10.699  1.00  0.00    -0.302 N 
HETATM    9  C   UNL     1     -43.051 -46.184   9.970  1.00  0.00     0.111 A 
HETATM   10  C   UNL     1     -43.793 -46.177   8.813  1.00  0.00     0.037 A 
HETATM   11  C   UNL     1     -44.659 -47.275   8.938  1.00  0.00     0.108 A 
HETATM   12  N   UNL     1     -44.488 -47.931  10.086  1.00  0.00    -0.310 N 
ATOM     13  HN  UNL     1     -44.988 -48.755  10.422  1.00  0.00     0.186 HD
ENDBRANCH   7   8
ENDBRANCH   5   7
ENDBRANCH   1   5
BRANCH   2  14
HETATM   14  C   UNL     1     -43.183 -52.393  12.828  1.00  0.00     0.228 C 
BRANCH  14  15
HETATM   15  N   UNL     1     -44.328 -52.285  13.720  1.00  0.00    -0.343 N 
HETATM   16  C   UNL     1     -44.091 -52.290  15.162  1.00  0.00     0.126 C 
HETATM   17  C   UNL     1     -44.518 -50.983  15.807  1.00  0.00     0.020 C 
HETATM   18  C   UNL     1     -46.004 -50.920  16.155  1.00  0.00     0.002 C 
HETATM   19  C   UNL     1     -46.948 -51.690  15.232  1.00  0.00     0.009 C 
HETATM   20  C   UNL     1     -46.669 -51.499  13.754  1.00  0.00     0.103 C 
HETATM   21  C   UNL     1     -45.578 -52.359  13.141  1.00  0.00     0.220 C 
HETATM   22  O   UNL     1     -45.751 -52.908  12.052  1.00  0.00    -0.273 OA
ENDBRANCH  14  15
ENDBRANCH   2  14
TORSDOF 5
ENDMDL
MODEL 2
REMARK VINA RESULT:      -5.9      2.324      3.848
REMARK  5 active torsions:
REMARK  status: ('A' for Active; 'I' for Inactive)
REMARK    1  A    between atoms: C_2  and  C_3 
REMARK    2  A    between atoms: C_2  and  N_10 
REMARK    3  A    between atoms: C_3  and  N_4 
REMARK       I    between atoms: N_10  and  C_11 
REMARK    4  A    between atoms: C_11  and  C_13 
REMARK    5  A    between atoms: C_13  and  N_14 
ROOT
HETATM    1  N   UNL     1     -42.099 -50.580  12.811  1.00  0.00    -0.354 N 
HETATM    2  C   UNL     1     -41.890 -51.920  12.541  1.00  0.00     0.235 C 
HETATM    3  O   UNL     1     -41.320 -52.324  11.530  1.00  0.00    -0.272 OA
HETATM    4  H   UNL     1     -42.901 -50.372  13.399  1.00  0.00     0.163 HD
ENDROOT
BRANCH   1   5
HETATM    5  C   UNL     1     -41.647 -49.527  11.890  1.00  0.00     0.100 C 
HETATM    6  C   UNL     1     -42.783 -48.518  11.702  1.00  0.00     0.034 C 
BRANCH   5   7
HETATM    7  C   UNL     1     -40.361 -48.850  12.409  1.00  0.00     0.172 C 
BRANCH   7   8
HETATM    8  N   UNL     1     -39.173 -49.659  12.274  1.00  0.00    -0.302 N 
HETATM    9  C   UNL     1     -38.520 -50.329  13.271  1.00  0.00     0.111 A 
HETATM   10  C   UNL     1     -37.405 -50.882  12.690  1.00  0.00     0.037 A 
HETATM   11  C   UNL     1     -37.471 -50.490  11.343  1.00  0.00     0.108 A 
HETATM   12  N   UNL     1     -38.544 -49.741  11.083  1.00  0.00    -0.310 N 
ATOM     13  HN  UNL     1     -38.823 -49.328  10.193  1.00  0.00     0.186 HD
ENDBRANCH   7   8
ENDBRANCH   5   7
ENDBRANCH   1   5
BRANCH   2  14
HETATM   14  C   UNL     1     -42.353 -52.850  13.663  1.00  0.00     0.228 C 
BRANCH  14  15
HETATM   15  N   UNL     1     -43.774 -52.786  13.975  1.00  0.00    -0.343 N 
HETATM   16  C   UNL     1     -44.176 -52.298  15.291  1.00  0.00     0.126 C 
HETATM   17  C   UNL     1     -44.990 -51.018  15.191  1.00  0.00     0.020 C 
HETATM   18  C   UNL     1     -46.478 -51.249  14.935  1.00  0.00     0.002 C 
HETATM   19  C   UNL     1     -46.839 -52.481  14.105  1.00  0.00     0.009 C 
HETATM   20  C   UNL     1     -45.980 -52.674  12.871  1.00  0.00     0.103 C 
HETATM   21  C   UNL     1     -44.638 -53.358  13.064  1.00  0.00     0.220 C 
HETATM   22  O   UNL     1     -44.262 -54.234  12.282  1.00  0.00    -0.273 OA
ENDBRANCH  14  15
ENDBRANCH   2  14
TORSDOF 5
ENDMDL
MODEL 3
REMARK VINA RESULT:      -5.9      3.914      5.145
REMARK  5 active torsions:
REMARK  status: ('A' for Active; 'I' for Inactive)
REMARK    1  A    between atoms: C_2  and  C_3 
REMARK    2  A    between atoms: C_2  and  N_10 
REMARK    3  A    between atoms: C_3  and  N_4 
REMARK       I    between atoms: N_10  and  C_11 
REMARK    4  A    between atoms: C_11  and  C_13 
REMARK    5  A    between atoms: C_13  and  N_14 
ROOT
HETATM    1  N   UNL     1     -41.602 -54.983  15.035  1.00  0.00    -0.354 N 
HETATM    2  C   UNL     1     -42.735 -54.306  15.449  1.00  0.00     0.235 C 
HETATM    3  O   UNL     1     -42.699 -53.270  16.107  1.00  0.00    -0.272 OA
HETATM    4  H   UNL     1     -41.718 -55.981  14.890  1.00  0.00     0.163 HD
ENDROOT
BRANCH   1   5
HETATM    5  C   UNL     1     -40.253 -54.500  15.360  1.00  0.00     0.100 C 
HETATM    6  C   UNL     1     -39.502 -55.605  16.109  1.00  0.00     0.034 C 
BRANCH   5   7
HETATM    7  C   UNL     1     -39.500 -54.058  14.088  1.00  0.00     0.172 C 
BRANCH   7   8
HETATM    8  N   UNL     1     -40.208 -53.083  13.293  1.00  0.00    -0.302 N 
HETATM    9  C   UNL     1     -40.439 -51.775  13.615  1.00  0.00     0.111 A 
HETATM   10  C   UNL     1     -41.220 -51.267  12.606  1.00  0.00     0.037 A 
HETATM   11  C   UNL     1     -41.408 -52.343  11.723  1.00  0.00     0.108 A 
HETATM   12  N   UNL     1     -40.797 -53.453  12.137  1.00  0.00    -0.310 N 
ATOM     13  HN  UNL     1     -40.780 -54.368  11.686  1.00  0.00     0.186 HD
ENDBRANCH   7   8
ENDBRANCH   5   7
ENDBRANCH   1   5
BRANCH   2  14
HETATM   14  C   UNL     1     -44.038 -54.920  14.935  1.00  0.00     0.228 C 
BRANCH  14  15
HETATM   15  N   UNL     1     -45.045 -53.964  14.498  1.00  0.00    -0.343 N 
HETATM   16  C   UNL     1     -46.175 -53.691  15.382  1.00  0.00     0.126 C 
HETATM   17  C   UNL     1     -46.194 -52.241  15.838  1.00  0.00     0.020 C 
HETATM   18  C   UNL     1     -46.869 -51.290  14.851  1.00  0.00     0.002 C 
HETATM   19  C   UNL     1     -46.742 -51.651  13.371  1.00  0.00     0.009 C 
HETATM   20  C   UNL     1     -45.348 -52.066  12.947  1.00  0.00     0.103 C 
HETATM   21  C   UNL     1     -44.951 -53.510  13.198  1.00  0.00     0.220 C 
HETATM   22  O   UNL     1     -44.364 -54.159  12.331  1.00  0.00    -0.273 OA
ENDBRANCH  14  15
ENDBRANCH   2  14
TORSDOF 5
ENDMDL
MODEL 4
REMARK VINA RESULT:      -5.7      4.153      4.910
REMARK  5 active torsions:
REMARK  status: ('A' for Active; 'I' for Inactive)
REMARK    1  A    between atoms: C_2  and  C_3 
REMARK    2  A    between atoms: C_2  and  N_10 
REMARK    3  A    between atoms: C_3  and  N_4 
REMARK       I    between atoms: N_10  and  C_11 
REMARK    4  A    between atoms: C_11  and  C_13 
REMARK    5  A    between atoms: C_13  and  N_14 
ROOT
HETATM    1  N   UNL     1     -41.771 -54.088  13.868  1.00  0.00    -0.354 N 
HETATM    2  C   UNL     1     -42.615 -54.281  14.946  1.00  0.00     0.235 C 
HETATM    3  O   UNL     1     -42.332 -53.943  16.093  1.00  0.00    -0.272 OA
HETATM    4  H   UNL     1     -41.887 -54.742  13.100  1.00  0.00     0.163 HD
ENDROOT
BRANCH   1   5
HETATM    5  C   UNL     1     -40.454 -53.455  14.022  1.00  0.00     0.100 C 
HETATM    6  C   UNL     1     -39.375 -54.540  13.944  1.00  0.00     0.034 C 
BRANCH   5   7
HETATM    7  C   UNL     1     -40.237 -52.357  12.960  1.00  0.00     0.172 C 
BRANCH   7   8
HETATM    8  N   UNL     1     -39.388 -51.274  13.397  1.00  0.00    -0.302 N 
HETATM    9  C   UNL     1     -38.251 -50.825  12.784  1.00  0.00     0.111 A 
HETATM   10  C   UNL     1     -37.739 -49.848  13.602  1.00  0.00     0.037 A 
HETATM   11  C   UNL     1     -38.634 -49.780  14.682  1.00  0.00     0.108 A 
HETATM   12  N   UNL     1     -39.639 -50.648  14.565  1.00  0.00    -0.310 N 
ATOM     13  HN  UNL     1     -40.415 -50.803  15.209  1.00  0.00     0.186 HD
ENDBRANCH   7   8
ENDBRANCH   5   7
ENDBRANCH   1   5
BRANCH   2  14
HETATM   14  C   UNL     1     -43.972 -54.873  14.564  1.00  0.00     0.228 C 
BRANCH  14  15
HETATM   15  N   UNL     1     -45.037 -53.901  14.359  1.00  0.00    -0.343 N 
HETATM   16  C   UNL     1     -46.104 -53.817  15.353  1.00  0.00     0.126 C 
HETATM   17  C   UNL     1     -46.130 -52.459  16.035  1.00  0.00     0.020 C 
HETATM   18  C   UNL     1     -46.905 -51.393  15.264  1.00  0.00     0.002 C 
HETATM   19  C   UNL     1     -46.883 -51.511  13.740  1.00  0.00     0.009 C 
HETATM   20  C   UNL     1     -45.513 -51.797  13.157  1.00  0.00     0.103 C 
HETATM   21  C   UNL     1     -45.057 -53.246  13.145  1.00  0.00     0.220 C 
HETATM   22  O   UNL     1     -44.520 -53.726  12.145  1.00  0.00    -0.273 OA
ENDBRANCH  14  15
ENDBRANCH   2  14
TORSDOF 5
ENDMDL
MODEL 5
REMARK VINA RESULT:      -5.6      2.531      3.174
REMARK  5 active torsions:
REMARK  status: ('A' for Active; 'I' for Inactive)
REMARK    1  A    between atoms: C_2  and  C_3 
REMARK    2  A    between atoms: C_2  and  N_10 
REMARK    3  A    between atoms: C_3  and  N_4 
REMARK       I    between atoms: N_10  and  C_11 
REMARK    4  A    between atoms: C_11  and  C_13 
REMARK    5  A    between atoms: C_13  and  N_14 
ROOT
HETATM    1  N   UNL     1     -40.485 -50.574  12.458  1.00  0.00    -0.354 N 
HETATM    2  C   UNL     1     -41.789 -51.035  12.469  1.00  0.00     0.235 C 
HETATM    3  O   UNL     1     -42.743 -50.351  12.832  1.00  0.00    -0.272 OA
HETATM    4  H   UNL     1     -39.769 -51.287  12.558  1.00  0.00     0.163 HD
ENDROOT
BRANCH   1   5
HETATM    5  C   UNL     1     -40.145 -49.210  12.888  1.00  0.00     0.100 C 
HETATM    6  C   UNL     1     -38.890 -49.270  13.764  1.00  0.00     0.034 C 
BRANCH   5   7
HETATM    7  C   UNL     1     -39.950 -48.278  11.673  1.00  0.00     0.172 C 
BRANCH   7   8
HETATM    8  N   UNL     1     -41.184 -47.824  11.076  1.00  0.00    -0.302 N 
HETATM    9  C   UNL     1     -42.069 -46.927  11.605  1.00  0.00     0.111 A 
HETATM   10  C   UNL     1     -43.126 -46.875  10.729  1.00  0.00     0.037 A 
HETATM   11  C   UNL     1     -42.787 -47.774   9.705  1.00  0.00     0.108 A 
HETATM   12  N   UNL     1     -41.607 -48.359   9.911  1.00  0.00    -0.310 N 
ATOM     13  HN  UNL     1     -41.135 -49.049   9.327  1.00  0.00     0.186 HD
ENDBRANCH   7   8
ENDBRANCH   5   7
ENDBRANCH   1   5
BRANCH   2  14
HETATM   14  C   UNL     1     -41.945 -52.446  11.902  1.00  0.00     0.228 C 
BRANCH  14  15
HETATM   15  N   UNL     1     -42.171 -53.491  12.891  1.00  0.00    -0.343 N 
HETATM   16  C   UNL     1     -41.012 -54.173  13.461  1.00  0.00     0.126 C 
HETATM   17  C   UNL     1     -40.901 -53.936  14.958  1.00  0.00     0.020 C 
HETATM   18  C   UNL     1     -41.747 -54.888  15.800  1.00  0.00     0.002 C 
HETATM   19  C   UNL     1     -43.056 -55.366  15.172  1.00  0.00     0.009 C 
HETATM   20  C   UNL     1     -43.866 -54.270  14.509  1.00  0.00     0.103 C 
HETATM   21  C   UNL     1     -43.478 -53.886  13.092  1.00  0.00     0.220 C 
HETATM   22  O   UNL     1     -44.342 -53.717  12.230  1.00  0.00    -0.273 OA
ENDBRANCH  14  15
ENDBRANCH   2  14
TORSDOF 5
ENDMDL
MODEL 6
REMARK VINA RESULT:      -5.6      3.466      6.736
REMARK  5 active torsions:
REMARK  status: ('A' for Active; 'I' for Inactive)
REMARK    1  A    between atoms: C_2  and  C_3 
REMARK    2  A    between atoms: C_2  and  N_10 
REMARK    3  A    between atoms: C_3  and  N_4 
REMARK       I    between atoms: N_10  and  C_11 
REMARK    4  A    between atoms: C_11  and  C_13 
REMARK    5  A    between atoms: C_13  and  N_14 
ROOT
HETATM    1  N   UNL     1     -42.573 -53.257  14.660  1.00  0.00    -0.354 N 
HETATM    2  C   UNL     1     -42.326 -52.524  13.513  1.00  0.00     0.235 C 
HETATM    3  O   UNL     1     -42.757 -52.837  12.406  1.00  0.00    -0.272 OA
HETATM    4  H   UNL     1     -41.870 -53.178  15.389  1.00  0.00     0.163 HD
ENDROOT
BRANCH   1   5
HETATM    5  C   UNL     1     -43.381 -54.484  14.631  1.00  0.00     0.100 C 
HETATM    6  C   UNL     1     -42.703 -55.539  15.510  1.00  0.00     0.034 C 
BRANCH   5   7
HETATM    7  C   UNL     1     -44.829 -54.206  15.087  1.00  0.00     0.172 C 
BRANCH   7   8
HETATM    8  N   UNL     1     -45.509 -53.199  14.306  1.00  0.00    -0.302 N 
HETATM    9  C   UNL     1     -46.030 -52.021  14.764  1.00  0.00     0.111 A 
HETATM   10  C   UNL     1     -46.652 -51.437  13.687  1.00  0.00     0.037 A 
HETATM   11  C   UNL     1     -46.454 -52.338  12.628  1.00  0.00     0.108 A 
HETATM   12  N   UNL     1     -45.762 -53.416  12.999  1.00  0.00    -0.310 N 
ATOM     13  HN  UNL     1     -45.488 -54.216  12.428  1.00  0.00     0.186 HD
ENDBRANCH   7   8
ENDBRANCH   5   7
ENDBRANCH   1   5
BRANCH   2  14
HETATM   14  C   UNL     1     -41.542 -51.236  13.767  1.00  0.00     0.228 C 
BRANCH  14  15
HETATM   15  N   UNL     1     -40.263 -51.141  13.078  1.00  0.00    -0.343 N 
HETATM   16  C   UNL     1     -40.226 -50.508  11.762  1.00  0.00     0.126 C 
HETATM   17  C   UNL     1     -39.373 -49.251  11.767  1.00  0.00     0.020 C 
HETATM   18  C   UNL     1     -37.881 -49.514  11.569  1.00  0.00     0.002 C 
HETATM   19  C   UNL     1     -37.347 -50.833  12.127  1.00  0.00     0.009 C 
HETATM   20  C   UNL     1     -37.834 -51.162  13.524  1.00  0.00     0.103 C 
HETATM   21  C   UNL     1     -39.200 -51.815  13.643  1.00  0.00     0.220 C 
HETATM   22  O   UNL     1     -39.373 -52.772  14.400  1.00  0.00    -0.273 OA
ENDBRANCH  14  15
ENDBRANCH   2  14
TORSDOF 5
ENDMDL
MODEL 7
REMARK VINA RESULT:      -5.4      3.465      6.379
REMARK  5 active torsions:
REMARK  status: ('A' for Active; 'I' for Inactive)
REMARK    1  A    between atoms: C_2  and  C_3 
REMARK    2  A    between atoms: C_2  and  N_10 
REMARK    3  A    between atoms: C_3  and  N_4 
REMARK       I    between atoms: N_10  and  C_11 
REMARK    4  A    between atoms: C_11  and  C_13 
REMARK    5  A    between atoms: C_13  and  N_14 
ROOT
HETATM    1  N   UNL     1     -42.605 -52.651  13.039  1.00  0.00    -0.354 N 
HETATM    2  C   UNL     1     -41.416 -52.285  12.433  1.00  0.00     0.235 C 
HETATM    3  O   UNL     1     -40.591 -53.097  12.020  1.00  0.00    -0.272 OA
HETATM    4  H   UNL     1     -42.988 -51.975  13.693  1.00  0.00     0.163 HD
ENDROOT
BRANCH   1   5
HETATM    5  C   UNL     1     -42.969 -54.061  13.233  1.00  0.00     0.100 C 
HETATM    6  C   UNL     1     -42.581 -54.477  14.655  1.00  0.00     0.034 C 
BRANCH   5   7
HETATM    7  C   UNL     1     -44.471 -54.289  12.962  1.00  0.00     0.172 C 
BRANCH   7   8
HETATM    8  N   UNL     1     -45.289 -53.114  13.152  1.00  0.00    -0.302 N 
HETATM    9  C   UNL     1     -45.734 -52.609  14.341  1.00  0.00     0.111 A 
HETATM   10  C   UNL     1     -46.542 -51.544  14.024  1.00  0.00     0.037 A 
HETATM   11  C   UNL     1     -46.523 -51.487  12.620  1.00  0.00     0.108 A 
HETATM   12  N   UNL     1     -45.764 -52.442  12.082  1.00  0.00    -0.310 N 
ATOM     13  HN  UNL     1     -45.586 -52.623  11.094  1.00  0.00     0.186 HD
ENDBRANCH   7   8
ENDBRANCH   5   7
ENDBRANCH   1   5
BRANCH   2  14
HETATM   14  C   UNL     1     -41.264 -50.776  12.244  1.00  0.00     0.228 C 
BRANCH  14  15
HETATM   15  N   UNL     1     -40.185 -50.160  13.003  1.00  0.00    -0.343 N 
HETATM   16  C   UNL     1     -40.047 -50.498  14.417  1.00  0.00     0.126 C 
HETATM   17  C   UNL     1     -38.729 -51.200  14.701  1.00  0.00     0.020 C 
HETATM   18  C   UNL     1     -37.555 -50.247  14.920  1.00  0.00     0.002 C 
HETATM   19  C   UNL     1     -37.597 -48.932  14.144  1.00  0.00     0.009 C 
HETATM   20  C   UNL     1     -37.986 -49.080  12.686  1.00  0.00     0.103 C 
HETATM   21  C   UNL     1     -39.470 -49.163  12.372  1.00  0.00     0.220 C 
HETATM   22  O   UNL     1     -39.949 -48.521  11.435  1.00  0.00    -0.273 OA
ENDBRANCH  14  15
ENDBRANCH   2  14
TORSDOF 5
ENDMDL
MODEL 8
REMARK VINA RESULT:      -5.4      3.234      4.437
REMARK  5 active torsions:
REMARK  status: ('A' for Active; 'I' for Inactive)
REMARK    1  A    between atoms: C_2  and  C_3 
REMARK    2  A    between atoms: C_2  and  N_10 
REMARK    3  A    between atoms: C_3  and  N_4 
REMARK       I    between atoms: N_10  and  C_11 
REMARK    4  A    between atoms: C_11  and  C_13 
REMARK    5  A    between atoms: C_13  and  N_14 
ROOT
HETATM    1  N   UNL     1     -40.167 -50.514  13.080  1.00  0.00    -0.354 N 
HETATM    2  C   UNL     1     -41.265 -51.249  12.670  1.00  0.00     0.235 C 
HETATM    3  O   UNL     1     -42.324 -50.739  12.314  1.00  0.00    -0.272 OA
HETATM    4  H   UNL     1     -39.540 -50.987  13.724  1.00  0.00     0.163 HD
ENDROOT
BRANCH   1   5
HETATM    5  C   UNL     1     -40.194 -49.045  13.119  1.00  0.00     0.100 C 
HETATM    6  C   UNL     1     -39.310 -48.569  14.276  1.00  0.00     0.034 C 
BRANCH   5   7
HETATM    7  C   UNL     1     -39.741 -48.446  11.771  1.00  0.00     0.172 C 
BRANCH   7   8
HETATM    8  N   UNL     1     -40.810 -47.853  11.002  1.00  0.00    -0.302 N 
HETATM    9  C   UNL     1     -41.218 -46.548  11.035  1.00  0.00     0.111 A 
HETATM   10  C   UNL     1     -42.313 -46.471  10.210  1.00  0.00     0.037 A 
HETATM   11  C   UNL     1     -42.489 -47.777   9.725  1.00  0.00     0.108 A 
HETATM   12  N   UNL     1     -41.579 -48.625  10.206  1.00  0.00    -0.310 N 
ATOM     13  HN  UNL     1     -41.487 -49.624  10.018  1.00  0.00     0.186 HD
ENDBRANCH   7   8
ENDBRANCH   5   7
ENDBRANCH   1   5
BRANCH   2  14
HETATM   14  C   UNL     1     -41.007 -52.755  12.615  1.00  0.00     0.228 C 
BRANCH  14  15
HETATM   15  N   UNL     1     -40.718 -53.383  13.896  1.00  0.00    -0.343 N 
HETATM   16  C   UNL     1     -41.771 -53.417  14.908  1.00  0.00     0.126 C 
HETATM   17  C   UNL     1     -42.182 -54.841  15.245  1.00  0.00     0.020 C 
HETATM   18  C   UNL     1     -41.295 -55.510  16.293  1.00  0.00     0.002 C 
HETATM   19  C   UNL     1     -39.826 -55.088  16.305  1.00  0.00     0.009 C 
HETATM   20  C   UNL     1     -39.186 -55.019  14.933  1.00  0.00     0.103 C 
HETATM   21  C   UNL     1     -39.409 -53.749  14.130  1.00  0.00     0.220 C 
HETATM   22  O   UNL     1     -38.474 -53.214  13.531  1.00  0.00    -0.273 OA
ENDBRANCH  14  15
ENDBRANCH   2  14
TORSDOF 5
ENDMDL
MODEL 9
REMARK VINA RESULT:      -5.4      3.398      6.440
REMARK  5 active torsions:
REMARK  status: ('A' for Active; 'I' for Inactive)
REMARK    1  A    between atoms: C_2  and  C_3 
REMARK    2  A    between atoms: C_2  and  N_10 
REMARK    3  A    between atoms: C_3  and  N_4 
REMARK       I    between atoms: N_10  and  C_11 
REMARK    4  A    between atoms: C_11  and  C_13 
REMARK    5  A    between atoms: C_13  and  N_14 
ROOT
HETATM    1  N   UNL     1     -41.630 -53.413  14.502  1.00  0.00    -0.354 N 
HETATM    2  C   UNL     1     -40.295 -53.312  14.153  1.00  0.00     0.235 C 
HETATM    3  O   UNL     1     -39.757 -54.043  13.326  1.00  0.00    -0.272 OA
HETATM    4  H   UNL     1     -41.863 -53.090  15.436  1.00  0.00     0.163 HD
ENDROOT
BRANCH   1   5
HETATM    5  C   UNL     1     -42.512 -54.419  13.895  1.00  0.00     0.100 C 
HETATM    6  C   UNL     1     -43.470 -54.943  14.968  1.00  0.00     0.034 C 
BRANCH   5   7
HETATM    7  C   UNL     1     -43.272 -53.835  12.686  1.00  0.00     0.172 C 
BRANCH   7   8
HETATM    8  N   UNL     1     -44.178 -52.761  13.023  1.00  0.00    -0.302 N 
HETATM    9  C   UNL     1     -45.509 -52.873  13.316  1.00  0.00     0.111 A 
HETATM   10  C   UNL     1     -45.970 -51.590  13.483  1.00  0.00     0.037 A 
HETATM   11  C   UNL     1     -44.846 -50.775  13.271  1.00  0.00     0.108 A 
HETATM   12  N   UNL     1     -43.751 -51.482  12.987  1.00  0.00    -0.310 N 
ATOM     13  HN  UNL     1     -42.812 -51.136  12.788  1.00  0.00     0.186 HD
ENDBRANCH   7   8
ENDBRANCH   5   7
ENDBRANCH   1   5
BRANCH   2  14
HETATM   14  C   UNL     1     -39.572 -52.147  14.829  1.00  0.00     0.228 C 
BRANCH  14  15
HETATM   15  N   UNL     1     -39.184 -51.059  13.942  1.00  0.00    -0.343 N 
HETATM   16  C   UNL     1     -37.762 -50.764  13.783  1.00  0.00     0.126 C 
HETATM   17  C   UNL     1     -37.300 -50.985  12.352  1.00  0.00     0.020 C 
HETATM   18  C   UNL     1     -37.546 -49.793  11.430  1.00  0.00     0.002 C 
HETATM   19  C   UNL     1     -38.778 -48.942  11.738  1.00  0.00     0.009 C 
HETATM   20  C   UNL     1     -40.031 -49.743  12.032  1.00  0.00     0.103 C 
HETATM   21  C   UNL     1     -40.199 -50.267  13.447  1.00  0.00     0.220 C 
HETATM   22  O   UNL     1     -41.285 -50.176  14.024  1.00  0.00    -0.273 OA
ENDBRANCH  14  15
ENDBRANCH   2  14
TORSDOF 5
ENDMDL
