MODEL 1
REMARK VINA RESULT:      -6.8      0.000      0.000
REMARK  8 active torsions:
REMARK  status: ('A' for Active; 'I' for Inactive)
REMARK    1  A    between atoms: N_2  and  C_13 
REMARK    2  A    between atoms: C_6  and  N_8 
REMARK    3  A    between atoms: C_13  and  C_14 
REMARK    4  A    between atoms: C_14  and  O_24 
REMARK    5  A    between atoms: C_20  and  N_21 
REMARK    6  A    between atoms: N_21  and  C_28 
REMARK    7  A    between atoms: O_26  and  C_30 
REMARK    8  A    between atoms: C_28  and  C_30 
ROOT
HETATM    1  C   UNL     1     -41.889 -49.879  12.134  1.00  0.00     0.117 A 
HETATM    2  N   UNL     1     -42.363 -47.976  11.175  1.00  0.00    -0.324 N 
HETATM    3  C   UNL     1     -41.344 -48.867  11.358  1.00  0.00     0.140 A 
HETATM    4  N   UNL     1     -43.197 -49.577  12.466  1.00  0.00    -0.346 N 
ATOM      5  HN  UNL     1     -43.827 -50.117  13.059  1.00  0.00     0.167 HD
HETATM    6  C   UNL     1     -41.067 -50.991  12.416  1.00  0.00     0.114 A 
HETATM    7  C   UNL     1     -43.455 -48.443  11.853  1.00  0.00     0.185 A 
HETATM    8  N   UNL     1     -40.095 -48.797  10.873  1.00  0.00    -0.336 N 
ATOM      9  HN  UNL     1     -39.724 -48.014  10.334  1.00  0.00     0.168 HD
HETATM   10  N   UNL     1     -39.803 -50.981  11.906  1.00  0.00    -0.341 N 
ATOM     11  HN  UNL     1     -39.175 -51.770  12.056  1.00  0.00     0.167 HD
HETATM   12  C   UNL     1     -39.396 -49.904  11.197  1.00  0.00     0.183 A 
ENDROOT
BRANCH   6  13
HETATM   13  N   UNL     1     -41.540 -52.072  13.173  1.00  0.00    -0.267 NA
HETATM   14  C   UNL     1     -41.803 -51.781  14.580  1.00  0.00     0.099 C 
HETATM   15  C   UNL     1     -42.075 -53.111  15.296  1.00  0.00     0.050 C 
HETATM   16  C   UNL     1     -43.286 -53.854  14.676  1.00  0.00     0.224 C 
HETATM   17  C   UNL     1     -42.947 -54.057  13.180  1.00  0.00     0.050 C 
HETATM   18  C   UNL     1     -42.662 -52.726  12.486  1.00  0.00     0.099 C 
BRANCH  16  19
HETATM   19  N   UNL     1     -44.572 -53.142  14.899  1.00  0.00     0.090 N 
HETATM   20  C   UNL     1     -44.997 -53.150  16.301  1.00  0.00     0.310 C 
BRANCH  19  21
HETATM   21  C   UNL     1     -45.685 -53.572  14.027  1.00  0.00     0.298 C 
BRANCH  21  22
HETATM   22  C   UNL     1     -46.384 -52.488  13.191  1.00  0.00     0.194 C 
BRANCH  22  23
HETATM   23  O   UNL     1     -46.176 -52.751  11.804  1.00  0.00    -0.399 OA
HETATM   24  H   UNL     1     -46.712 -53.531  11.578  1.00  0.00     0.209 HD
ENDBRANCH  22  23
ENDBRANCH  21  22
ENDBRANCH  19  21
ENDBRANCH  16  19
ENDBRANCH   6  13
BRANCH   2  25
HETATM   25  C   UNL     1     -42.346 -46.825  10.290  1.00  0.00     0.171 C 
BRANCH  25  26
HETATM   26  C   UNL     1     -43.452 -46.810   9.232  1.00  0.00     0.097 C 
HETATM   27  C   UNL     1     -44.819 -47.278   9.693  1.00  0.00     0.068 C 
HETATM   28  C   UNL     1     -45.452 -47.824   8.424  1.00  0.00     0.170 C 
HETATM   29  O   UNL     1     -44.393 -48.221   7.545  1.00  0.00    -0.388 OA
HETATM   30  C   UNL     1     -43.142 -47.831   8.133  1.00  0.00     0.207 C 
BRANCH  26  31
HETATM   31  O   UNL     1     -43.580 -45.517   8.625  1.00  0.00    -0.386 OA
HETATM   32  H   UNL     1     -44.524 -45.292   8.527  1.00  0.00     0.210 HD
ENDBRANCH  26  31
ENDBRANCH  25  26
ENDBRANCH   2  25
TORSDOF 8
ENDMDL
MODEL 2
REMARK VINA RESULT:      -6.8      1.903      2.497
REMARK  8 active torsions:
REMARK  status: ('A' for Active; 'I' for Inactive)
REMARK    1  A    between atoms: N_2  and  C_13 
REMARK    2  A    between atoms: C_6  and  N_8 
REMARK    3  A    between atoms: C_13  and  C_14 
REMARK    4  A    between atoms: C_14  and  O_24 
REMARK    5  A    between atoms: C_20  and  N_21 
REMARK    6  A    between atoms: N_21  and  C_28 
REMARK    7  A    between atoms: O_26  and  C_30 
REMARK    8  A    between atoms: C_28  and  C_30 
ROOT
HETATM    1  C   UNL     1     -41.759 -49.926  12.144  1.00  0.00     0.117 A 
HETATM    2  N   UNL     1     -42.019 -47.980  11.190  1.00  0.00    -0.324 N 
HETATM    3  C   UNL     1     -41.076 -48.931  11.462  1.00  0.00     0.140 A 
HETATM    4  N   UNL     1     -43.079 -49.559  12.335  1.00  0.00    -0.346 N 
ATOM      5  HN  UNL     1     -43.799 -50.075  12.839  1.00  0.00     0.167 HD
HETATM    6  C   UNL     1     -41.034 -51.089  12.486  1.00  0.00     0.114 A 
HETATM    7  C   UNL     1     -43.204 -48.399  11.728  1.00  0.00     0.185 A 
HETATM    8  N   UNL     1     -39.778 -48.920  11.122  1.00  0.00    -0.336 N 
ATOM      9  HN  UNL     1     -39.308 -48.148  10.649  1.00  0.00     0.168 HD
HETATM   10  N   UNL     1     -39.722 -51.138  12.122  1.00  0.00    -0.341 N 
ATOM     11  HN  UNL     1     -39.158 -51.964  12.320  1.00  0.00     0.167 HD
HETATM   12  C   UNL     1     -39.181 -50.071  11.493  1.00  0.00     0.183 A 
ENDROOT
BRANCH   6  13
HETATM   13  N   UNL     1     -41.647 -52.157  13.156  1.00  0.00    -0.267 NA
HETATM   14  C   UNL     1     -41.907 -51.937  14.576  1.00  0.00     0.099 C 
HETATM   15  C   UNL     1     -42.348 -53.272  15.189  1.00  0.00     0.050 C 
HETATM   16  C   UNL     1     -43.622 -53.823  14.499  1.00  0.00     0.224 C 
HETATM   17  C   UNL     1     -43.274 -53.959  12.998  1.00  0.00     0.050 C 
HETATM   18  C   UNL     1     -42.821 -52.625  12.406  1.00  0.00     0.099 C 
BRANCH  16  19
HETATM   19  N   UNL     1     -44.822 -52.983  14.753  1.00  0.00     0.090 N 
HETATM   20  C   UNL     1     -45.198 -52.933  16.169  1.00  0.00     0.310 C 
BRANCH  19  21
HETATM   21  C   UNL     1     -46.002 -53.308  13.924  1.00  0.00     0.298 C 
BRANCH  21  22
HETATM   22  C   UNL     1     -46.530 -52.208  12.989  1.00  0.00     0.194 C 
BRANCH  22  23
HETATM   23  O   UNL     1     -46.394 -52.632  11.634  1.00  0.00    -0.399 OA
HETATM   24  H   UNL     1     -47.274 -52.568  11.225  1.00  0.00     0.209 HD
ENDBRANCH  22  23
ENDBRANCH  21  22
ENDBRANCH  19  21
ENDBRANCH  16  19
ENDBRANCH   6  13
BRANCH   2  25
HETATM   25  C   UNL     1     -41.840 -46.814  10.344  1.00  0.00     0.171 C 
BRANCH  25  26
HETATM   26  C   UNL     1     -41.275 -45.582  11.057  1.00  0.00     0.097 C 
HETATM   27  C   UNL     1     -42.233 -44.419  11.233  1.00  0.00     0.068 C 
HETATM   28  C   UNL     1     -41.315 -43.208  11.270  1.00  0.00     0.170 C 
HETATM   29  O   UNL     1     -40.117 -43.548  10.561  1.00  0.00    -0.388 OA
HETATM   30  C   UNL     1     -40.178 -44.938  10.204  1.00  0.00     0.207 C 
BRANCH  26  31
HETATM   31  O   UNL     1     -40.715 -45.924  12.332  1.00  0.00    -0.386 OA
HETATM   32  H   UNL     1     -40.007 -46.584  12.212  1.00  0.00     0.210 HD
ENDBRANCH  26  31
ENDBRANCH  25  26
ENDBRANCH   2  25
TORSDOF 8
ENDMDL
MODEL 3
REMARK VINA RESULT:      -6.6      2.293      3.188
REMARK  8 active torsions:
REMARK  status: ('A' for Active; 'I' for Inactive)
REMARK    1  A    between atoms: N_2  and  C_13 
REMARK    2  A    between atoms: C_6  and  N_8 
REMARK    3  A    between atoms: C_13  and  C_14 
REMARK    4  A    between atoms: C_14  and  O_24 
REMARK    5  A    between atoms: C_20  and  N_21 
REMARK    6  A    between atoms: N_21  and  C_28 
REMARK    7  A    between atoms: O_26  and  C_30 
REMARK    8  A    between atoms: C_28  and  C_30 
ROOT
HETATM    1  C   UNL     1     -41.071 -49.346  12.057  1.00  0.00     0.117 A 
HETATM    2  N   UNL     1     -40.799 -47.339  11.242  1.00  0.00    -0.324 N 
HETATM    3  C   UNL     1     -40.465 -48.125  12.309  1.00  0.00     0.140 A 
HETATM    4  N   UNL     1     -41.808 -49.284  10.889  1.00  0.00    -0.346 N 
ATOM      5  HN  UNL     1     -42.389 -50.018  10.482  1.00  0.00     0.167 HD
HETATM    6  C   UNL     1     -40.824 -50.391  12.974  1.00  0.00     0.114 A 
HETATM    7  C   UNL     1     -41.601 -48.075  10.415  1.00  0.00     0.185 A 
HETATM    8  N   UNL     1     -39.697 -47.798  13.360  1.00  0.00    -0.336 N 
ATOM      9  HN  UNL     1     -39.299 -46.873  13.523  1.00  0.00     0.168 HD
HETATM   10  N   UNL     1     -40.014 -50.115  14.035  1.00  0.00    -0.341 N 
ATOM     11  HN  UNL     1     -39.781 -50.839  14.713  1.00  0.00     0.167 HD
HETATM   12  C   UNL     1     -39.525 -48.862  14.171  1.00  0.00     0.183 A 
ENDROOT
BRANCH   6  13
HETATM   13  N   UNL     1     -41.375 -51.667  12.789  1.00  0.00    -0.267 NA
HETATM   14  C   UNL     1     -40.766 -52.731  13.583  1.00  0.00     0.099 C 
HETATM   15  C   UNL     1     -41.320 -54.071  13.082  1.00  0.00     0.050 C 
HETATM   16  C   UNL     1     -42.863 -54.134  13.210  1.00  0.00     0.224 C 
HETATM   17  C   UNL     1     -43.412 -52.938  12.398  1.00  0.00     0.050 C 
HETATM   18  C   UNL     1     -42.840 -51.612  12.897  1.00  0.00     0.099 C 
BRANCH  16  19
HETATM   19  N   UNL     1     -43.322 -54.148  14.624  1.00  0.00     0.090 N 
HETATM   20  C   UNL     1     -42.704 -55.215  15.417  1.00  0.00     0.310 C 
BRANCH  19  21
HETATM   21  C   UNL     1     -44.788 -54.161  14.807  1.00  0.00     0.298 C 
BRANCH  21  22
HETATM   22  C   UNL     1     -45.590 -55.194  14.000  1.00  0.00     0.194 C 
BRANCH  22  23
HETATM   23  O   UNL     1     -46.900 -55.312  14.551  1.00  0.00    -0.399 OA
HETATM   24  H   UNL     1     -47.262 -56.163  14.248  1.00  0.00     0.209 HD
ENDBRANCH  22  23
ENDBRANCH  21  22
ENDBRANCH  19  21
ENDBRANCH  16  19
ENDBRANCH   6  13
BRANCH   2  25
HETATM   25  C   UNL     1     -40.270 -46.019  10.952  1.00  0.00     0.171 C 
BRANCH  25  26
HETATM   26  C   UNL     1     -41.294 -44.883  11.031  1.00  0.00     0.097 C 
HETATM   27  C   UNL     1     -40.727 -43.488  11.209  1.00  0.00     0.068 C 
HETATM   28  C   UNL     1     -41.836 -42.746  11.937  1.00  0.00     0.170 C 
HETATM   29  O   UNL     1     -42.614 -43.716  12.650  1.00  0.00    -0.388 OA
HETATM   30  C   UNL     1     -42.139 -45.026  12.301  1.00  0.00     0.207 C 
BRANCH  26  31
HETATM   31  O   UNL     1     -42.174 -44.891   9.899  1.00  0.00    -0.386 OA
HETATM   32  H   UNL     1     -41.935 -45.624   9.303  1.00  0.00     0.210 HD
ENDBRANCH  26  31
ENDBRANCH  25  26
ENDBRANCH   2  25
TORSDOF 8
ENDMDL
MODEL 4
REMARK VINA RESULT:      -6.6      1.757      2.156
REMARK  8 active torsions:
REMARK  status: ('A' for Active; 'I' for Inactive)
REMARK    1  A    between atoms: N_2  and  C_13 
REMARK    2  A    between atoms: C_6  and  N_8 
REMARK    3  A    between atoms: C_13  and  C_14 
REMARK    4  A    between atoms: C_14  and  O_24 
REMARK    5  A    between atoms: C_20  and  N_21 
REMARK    6  A    between atoms: N_21  and  C_28 
REMARK    7  A    between atoms: O_26  and  C_30 
REMARK    8  A    between atoms: C_28  and  C_30 
ROOT
HETATM    1  C   UNL     1     -40.387 -49.998  12.721  1.00  0.00     0.117 A 
HETATM    2  N   UNL     1     -41.191 -48.018  12.275  1.00  0.00    -0.324 N 
HETATM    3  C   UNL     1     -40.095 -48.807  12.073  1.00  0.00     0.140 A 
HETATM    4  N   UNL     1     -41.613 -49.910  13.356  1.00  0.00    -0.346 N 
ATOM      5  HN  UNL     1     -42.061 -50.617  13.939  1.00  0.00     0.167 HD
HETATM    6  C   UNL     1     -39.446 -51.044  12.607  1.00  0.00     0.114 A 
HETATM    7  C   UNL     1     -42.077 -48.720  13.045  1.00  0.00     0.185 A 
HETATM    8  N   UNL     1     -38.986 -48.510  11.378  1.00  0.00    -0.336 N 
ATOM      9  HN  UNL     1     -38.797 -47.606  10.945  1.00  0.00     0.168 HD
HETATM   10  N   UNL     1     -38.324 -50.799  11.873  1.00  0.00    -0.341 N 
ATOM     11  HN  UNL     1     -37.623 -51.526  11.736  1.00  0.00     0.167 HD
HETATM   12  C   UNL     1     -38.157 -49.572  11.330  1.00  0.00     0.183 A 
ENDROOT
BRANCH   6  13
HETATM   13  N   UNL     1     -39.667 -52.290  13.209  1.00  0.00    -0.267 NA
HETATM   14  C   UNL     1     -39.713 -52.280  14.669  1.00  0.00     0.099 C 
HETATM   15  C   UNL     1     -39.719 -53.735  15.153  1.00  0.00     0.050 C 
HETATM   16  C   UNL     1     -40.934 -54.517  14.593  1.00  0.00     0.224 C 
HETATM   17  C   UNL     1     -40.837 -54.417  13.052  1.00  0.00     0.050 C 
HETATM   18  C   UNL     1     -40.816 -52.962  12.586  1.00  0.00     0.099 C 
BRANCH  16  19
HETATM   19  N   UNL     1     -42.230 -54.032  15.136  1.00  0.00     0.090 N 
HETATM   20  C   UNL     1     -42.273 -54.029  16.601  1.00  0.00     0.310 C 
BRANCH  19  21
HETATM   21  C   UNL     1     -43.428 -54.704  14.592  1.00  0.00     0.298 C 
BRANCH  21  22
HETATM   22  C   UNL     1     -44.426 -53.838  13.805  1.00  0.00     0.194 C 
BRANCH  22  23
HETATM   23  O   UNL     1     -45.127 -54.655  12.870  1.00  0.00    -0.399 OA
HETATM   24  H   UNL     1     -46.077 -54.530  13.038  1.00  0.00     0.209 HD
ENDBRANCH  22  23
ENDBRANCH  21  22
ENDBRANCH  19  21
ENDBRANCH  16  19
ENDBRANCH   6  13
BRANCH   2  25
HETATM   25  C   UNL     1     -41.447 -46.730  11.654  1.00  0.00     0.171 C 
BRANCH  25  26
HETATM   26  C   UNL     1     -42.651 -46.699  10.709  1.00  0.00     0.097 C 
HETATM   27  C   UNL     1     -42.682 -47.772   9.637  1.00  0.00     0.068 C 
HETATM   28  C   UNL     1     -43.474 -47.124   8.513  1.00  0.00     0.170 C 
HETATM   29  O   UNL     1     -43.333 -45.704   8.644  1.00  0.00    -0.388 OA
HETATM   30  C   UNL     1     -42.617 -45.427   9.857  1.00  0.00     0.207 C 
BRANCH  26  31
HETATM   31  O   UNL     1     -43.887 -46.725  11.434  1.00  0.00    -0.386 OA
HETATM   32  H   UNL     1     -44.614 -46.429  10.855  1.00  0.00     0.210 HD
ENDBRANCH  26  31
ENDBRANCH  25  26
ENDBRANCH   2  25
TORSDOF 8
ENDMDL
MODEL 5
REMARK VINA RESULT:      -6.6      2.683      3.875
REMARK  8 active torsions:
REMARK  status: ('A' for Active; 'I' for Inactive)
REMARK    1  A    between atoms: N_2  and  C_13 
REMARK    2  A    between atoms: C_6  and  N_8 
REMARK    3  A    between atoms: C_13  and  C_14 
REMARK    4  A    between atoms: C_14  and  O_24 
REMARK    5  A    between atoms: C_20  and  N_21 
REMARK    6  A    between atoms: N_21  and  C_28 
REMARK    7  A    between atoms: O_26  and  C_30 
REMARK    8  A    between atoms: C_28  and  C_30 
ROOT
HETATM    1  C   UNL     1     -40.694 -47.466  11.906  1.00  0.00     0.117 A 
HETATM    2  N   UNL     1     -40.499 -45.339  11.458  1.00  0.00    -0.324 N 
HETATM    3  C   UNL     1     -41.095 -46.484  11.013  1.00  0.00     0.140 A 
HETATM    4  N   UNL     1     -39.822 -46.937  12.841  1.00  0.00    -0.346 N 
ATOM      5  HN  UNL     1     -39.340 -47.434  13.590  1.00  0.00     0.167 HD
HETATM    6  C   UNL     1     -41.234 -48.759  11.731  1.00  0.00     0.114 A 
HETATM    7  C   UNL     1     -39.749 -45.656  12.557  1.00  0.00     0.185 A 
HETATM    8  N   UNL     1     -41.911 -46.628   9.958  1.00  0.00    -0.336 N 
ATOM      9  HN  UNL     1     -42.153 -45.883   9.304  1.00  0.00     0.168 HD
HETATM   10  N   UNL     1     -42.103 -48.939  10.696  1.00  0.00    -0.341 N 
ATOM     11  HN  UNL     1     -42.543 -49.845  10.539  1.00  0.00     0.167 HD
HETATM   12  C   UNL     1     -42.370 -47.894   9.882  1.00  0.00     0.183 A 
ENDROOT
BRANCH   6  13
HETATM   13  N   UNL     1     -40.905 -49.809  12.600  1.00  0.00    -0.267 NA
HETATM   14  C   UNL     1     -41.486 -49.718  13.937  1.00  0.00     0.099 C 
HETATM   15  C   UNL     1     -40.836 -50.799  14.810  1.00  0.00     0.050 C 
HETATM   16  C   UNL     1     -41.069 -52.217  14.229  1.00  0.00     0.224 C 
HETATM   17  C   UNL     1     -40.485 -52.197  12.796  1.00  0.00     0.050 C 
HETATM   18  C   UNL     1     -41.130 -51.105  11.944  1.00  0.00     0.099 C 
BRANCH  16  19
HETATM   19  N   UNL     1     -42.496 -52.631  14.278  1.00  0.00     0.090 N 
HETATM   20  C   UNL     1     -43.053 -52.611  15.634  1.00  0.00     0.310 C 
BRANCH  19  21
HETATM   21  C   UNL     1     -42.798 -53.921  13.623  1.00  0.00     0.298 C 
BRANCH  21  22
HETATM   22  C   UNL     1     -44.166 -54.060  12.936  1.00  0.00     0.194 C 
BRANCH  22  23
HETATM   23  O   UNL     1     -44.157 -53.332  11.710  1.00  0.00    -0.399 OA
HETATM   24  H   UNL     1     -43.399 -53.653  11.193  1.00  0.00     0.209 HD
ENDBRANCH  22  23
ENDBRANCH  21  22
ENDBRANCH  19  21
ENDBRANCH  16  19
ENDBRANCH   6  13
BRANCH   2  25
HETATM   25  C   UNL     1     -40.741 -43.997  10.959  1.00  0.00     0.171 C 
BRANCH  25  26
HETATM   26  C   UNL     1     -42.124 -43.428  11.286  1.00  0.00     0.097 C 
HETATM   27  C   UNL     1     -42.249 -41.917  11.240  1.00  0.00     0.068 C 
HETATM   28  C   UNL     1     -43.367 -41.625  12.227  1.00  0.00     0.170 C 
HETATM   29  O   UNL     1     -43.407 -42.703  13.171  1.00  0.00    -0.388 OA
HETATM   30  C   UNL     1     -42.475 -43.711  12.751  1.00  0.00     0.207 C 
BRANCH  26  31
HETATM   31  O   UNL     1     -43.140 -44.008  10.458  1.00  0.00    -0.386 OA
HETATM   32  H   UNL     1     -43.948 -43.465  10.499  1.00  0.00     0.210 HD
ENDBRANCH  26  31
ENDBRANCH  25  26
ENDBRANCH   2  25
TORSDOF 8
ENDMDL
MODEL 6
REMARK VINA RESULT:      -6.4      3.988      7.303
REMARK  8 active torsions:
REMARK  status: ('A' for Active; 'I' for Inactive)
REMARK    1  A    between atoms: N_2  and  C_13 
REMARK    2  A    between atoms: C_6  and  N_8 
REMARK    3  A    between atoms: C_13  and  C_14 
REMARK    4  A    between atoms: C_14  and  O_24 
REMARK    5  A    between atoms: C_20  and  N_21 
REMARK    6  A    between atoms: N_21  and  C_28 
REMARK    7  A    between atoms: O_26  and  C_30 
REMARK    8  A    between atoms: C_28  and  C_30 
ROOT
HETATM    1  C   UNL     1     -42.047 -53.182  13.022  1.00  0.00     0.117 A 
HETATM    2  N   UNL     1     -43.948 -54.240  13.204  1.00  0.00    -0.324 N 
HETATM    3  C   UNL     1     -42.700 -54.164  13.752  1.00  0.00     0.140 A 
HETATM    4  N   UNL     1     -42.866 -52.713  12.010  1.00  0.00    -0.346 N 
ATOM      5  HN  UNL     1     -42.636 -52.022  11.296  1.00  0.00     0.167 HD
HETATM    6  C   UNL     1     -40.741 -52.833  13.429  1.00  0.00     0.114 A 
HETATM    7  C   UNL     1     -44.005 -53.351  12.167  1.00  0.00     0.185 A 
HETATM    8  N   UNL     1     -42.214 -54.865  14.788  1.00  0.00    -0.336 N 
ATOM      9  HN  UNL     1     -42.718 -55.606  15.276  1.00  0.00     0.168 HD
HETATM   10  N   UNL     1     -40.225 -53.492  14.505  1.00  0.00    -0.341 N 
ATOM     11  HN  UNL     1     -39.297 -53.262  14.858  1.00  0.00     0.167 HD
HETATM   12  C   UNL     1     -40.966 -54.456  15.095  1.00  0.00     0.183 A 
ENDROOT
BRANCH   6  13
HETATM   13  N   UNL     1     -40.014 -51.836  12.765  1.00  0.00    -0.267 NA
HETATM   14  C   UNL     1     -40.766 -50.625  12.443  1.00  0.00     0.099 C 
HETATM   15  C   UNL     1     -39.897 -49.759  11.522  1.00  0.00     0.050 C 
HETATM   16  C   UNL     1     -38.553 -49.382  12.195  1.00  0.00     0.224 C 
HETATM   17  C   UNL     1     -37.863 -50.718  12.559  1.00  0.00     0.050 C 
HETATM   18  C   UNL     1     -38.747 -51.576  13.463  1.00  0.00     0.099 C 
BRANCH  16  19
HETATM   19  N   UNL     1     -38.728 -48.472  13.358  1.00  0.00     0.090 N 
HETATM   20  C   UNL     1     -39.426 -47.230  13.015  1.00  0.00     0.310 C 
BRANCH  19  21
HETATM   21  C   UNL     1     -37.493 -48.172  14.111  1.00  0.00     0.298 C 
BRANCH  21  22
HETATM   22  C   UNL     1     -37.586 -48.165  15.645  1.00  0.00     0.194 C 
BRANCH  22  23
HETATM   23  O   UNL     1     -38.483 -49.189  16.070  1.00  0.00    -0.399 OA
HETATM   24  H   UNL     1     -39.002 -48.826  16.809  1.00  0.00     0.209 HD
ENDBRANCH  22  23
ENDBRANCH  21  22
ENDBRANCH  19  21
ENDBRANCH  16  19
ENDBRANCH   6  13
BRANCH   2  25
HETATM   25  C   UNL     1     -45.068 -55.004  13.725  1.00  0.00     0.171 C 
BRANCH  25  26
HETATM   26  C   UNL     1     -46.089 -54.187  14.522  1.00  0.00     0.097 C 
HETATM   27  C   UNL     1     -46.444 -52.828  13.950  1.00  0.00     0.068 C 
HETATM   28  C   UNL     1     -46.835 -52.020  15.177  1.00  0.00     0.170 C 
HETATM   29  O   UNL     1     -46.171 -52.597  16.308  1.00  0.00    -0.388 OA
HETATM   30  C   UNL     1     -45.502 -53.794  15.882  1.00  0.00     0.207 C 
BRANCH  26  31
HETATM   31  O   UNL     1     -47.294 -54.930  14.748  1.00  0.00    -0.386 OA
HETATM   32  H   UNL     1     -47.519 -55.440  13.948  1.00  0.00     0.210 HD
ENDBRANCH  26  31
ENDBRANCH  25  26
ENDBRANCH   2  25
TORSDOF 8
ENDMDL
MODEL 7
REMARK VINA RESULT:      -6.3      2.021      7.233
REMARK  8 active torsions:
REMARK  status: ('A' for Active; 'I' for Inactive)
REMARK    1  A    between atoms: N_2  and  C_13 
REMARK    2  A    between atoms: C_6  and  N_8 
REMARK    3  A    between atoms: C_13  and  C_14 
REMARK    4  A    between atoms: C_14  and  O_24 
REMARK    5  A    between atoms: C_20  and  N_21 
REMARK    6  A    between atoms: N_21  and  C_28 
REMARK    7  A    between atoms: O_26  and  C_30 
REMARK    8  A    between atoms: C_28  and  C_30 
ROOT
HETATM    1  C   UNL     1     -42.933 -51.118  12.701  1.00  0.00     0.117 A 
HETATM    2  N   UNL     1     -44.361 -52.769  12.683  1.00  0.00    -0.324 N 
HETATM    3  C   UNL     1     -43.037 -52.486  12.503  1.00  0.00     0.140 A 
HETATM    4  N   UNL     1     -44.181 -50.571  12.938  1.00  0.00    -0.346 N 
ATOM      5  HN  UNL     1     -44.411 -49.587  13.077  1.00  0.00     0.167 HD
HETATM    6  C   UNL     1     -41.639 -50.554  12.653  1.00  0.00     0.114 A 
HETATM    7  C   UNL     1     -45.008 -51.593  12.946  1.00  0.00     0.185 A 
HETATM    8  N   UNL     1     -42.046 -53.346  12.221  1.00  0.00    -0.336 N 
ATOM      9  HN  UNL     1     -42.173 -54.343  12.048  1.00  0.00     0.168 HD
HETATM   10  N   UNL     1     -40.597 -51.400  12.412  1.00  0.00    -0.341 N 
ATOM     11  HN  UNL     1     -39.640 -51.051  12.392  1.00  0.00     0.167 HD
HETATM   12  C   UNL     1     -40.857 -52.709  12.199  1.00  0.00     0.183 A 
ENDROOT
BRANCH   6  13
HETATM   13  N   UNL     1     -41.434 -49.184  12.865  1.00  0.00    -0.267 NA
HETATM   14  C   UNL     1     -40.151 -48.665  12.397  1.00  0.00     0.099 C 
HETATM   15  C   UNL     1     -40.002 -47.231  12.920  1.00  0.00     0.050 C 
HETATM   16  C   UNL     1     -41.152 -46.320  12.422  1.00  0.00     0.224 C 
HETATM   17  C   UNL     1     -42.465 -46.981  12.904  1.00  0.00     0.050 C 
HETATM   18  C   UNL     1     -42.592 -48.414  12.389  1.00  0.00     0.099 C 
BRANCH  16  19
HETATM   19  N   UNL     1     -41.110 -46.093  10.953  1.00  0.00     0.090 N 
HETATM   20  C   UNL     1     -39.907 -45.380  10.517  1.00  0.00     0.310 C 
BRANCH  19  21
HETATM   21  C   UNL     1     -42.315 -45.455  10.383  1.00  0.00     0.298 C 
BRANCH  21  22
HETATM   22  C   UNL     1     -43.120 -46.265   9.353  1.00  0.00     0.194 C 
BRANCH  22  23
HETATM   23  O   UNL     1     -42.683 -45.928   8.038  1.00  0.00    -0.399 OA
HETATM   24  H   UNL     1     -42.717 -46.742   7.509  1.00  0.00     0.209 HD
ENDBRANCH  22  23
ENDBRANCH  21  22
ENDBRANCH  19  21
ENDBRANCH  16  19
ENDBRANCH   6  13
BRANCH   2  25
HETATM   25  C   UNL     1     -44.955 -54.092  12.748  1.00  0.00     0.171 C 
BRANCH  25  26
HETATM   26  C   UNL     1     -45.405 -54.529  14.145  1.00  0.00     0.097 C 
HETATM   27  C   UNL     1     -46.171 -53.495  14.949  1.00  0.00     0.068 C 
HETATM   28  C   UNL     1     -45.862 -53.869  16.389  1.00  0.00     0.170 C 
HETATM   29  O   UNL     1     -44.607 -54.561  16.400  1.00  0.00    -0.388 OA
HETATM   30  C   UNL     1     -44.185 -54.760  15.042  1.00  0.00     0.207 C 
BRANCH  26  31
HETATM   31  O   UNL     1     -46.166 -55.742  14.095  1.00  0.00    -0.386 OA
HETATM   32  H   UNL     1     -46.643 -55.865  14.937  1.00  0.00     0.210 HD
ENDBRANCH  26  31
ENDBRANCH  25  26
ENDBRANCH   2  25
TORSDOF 8
ENDMDL
MODEL 8
REMARK VINA RESULT:      -6.3      3.430      8.035
REMARK  8 active torsions:
REMARK  status: ('A' for Active; 'I' for Inactive)
REMARK    1  A    between atoms: N_2  and  C_13 
REMARK    2  A    between atoms: C_6  and  N_8 
REMARK    3  A    between atoms: C_13  and  C_14 
REMARK    4  A    between atoms: C_14  and  O_24 
REMARK    5  A    between atoms: C_20  and  N_21 
REMARK    6  A    between atoms: N_21  and  C_28 
REMARK    7  A    between atoms: O_26  and  C_30 
REMARK    8  A    between atoms: C_28  and  C_30 
ROOT
HETATM    1  C   UNL     1     -41.221 -49.831  12.019  1.00  0.00     0.117 A 
HETATM    2  N   UNL     1     -41.123 -51.991  12.318  1.00  0.00    -0.324 N 
HETATM    3  C   UNL     1     -40.360 -50.916  11.961  1.00  0.00     0.140 A 
HETATM    4  N   UNL     1     -42.498 -50.250  12.346  1.00  0.00    -0.346 N 
ATOM      5  HN  UNL     1     -43.339 -49.676  12.419  1.00  0.00     0.167 HD
HETATM    6  C   UNL     1     -40.671 -48.555  11.770  1.00  0.00     0.114 A 
HETATM    7  C   UNL     1     -42.396 -51.545  12.543  1.00  0.00     0.185 A 
HETATM    8  N   UNL     1     -39.055 -50.904  11.648  1.00  0.00    -0.336 N 
ATOM      9  HN  UNL     1     -38.465 -51.734  11.584  1.00  0.00     0.168 HD
HETATM   10  N   UNL     1     -39.338 -48.492  11.490  1.00  0.00    -0.341 N 
ATOM     11  HN  UNL     1     -38.883 -47.594  11.328  1.00  0.00     0.167 HD
HETATM   12  C   UNL     1     -38.631 -49.642  11.430  1.00  0.00     0.183 A 
ENDROOT
BRANCH   6  13
HETATM   13  N   UNL     1     -41.460 -47.398  11.829  1.00  0.00    -0.267 NA
HETATM   14  C   UNL     1     -41.700 -46.875  13.171  1.00  0.00     0.099 C 
HETATM   15  C   UNL     1     -42.762 -45.772  13.066  1.00  0.00     0.050 C 
HETATM   16  C   UNL     1     -42.303 -44.627  12.128  1.00  0.00     0.224 C 
HETATM   17  C   UNL     1     -42.009 -45.284  10.758  1.00  0.00     0.050 C 
HETATM   18  C   UNL     1     -40.963 -46.391  10.882  1.00  0.00     0.099 C 
BRANCH  16  19
HETATM   19  N   UNL     1     -41.152 -43.862  12.675  1.00  0.00     0.090 N 
HETATM   20  C   UNL     1     -41.469 -43.160  13.922  1.00  0.00     0.310 C 
BRANCH  19  21
HETATM   21  C   UNL     1     -40.503 -42.938  11.722  1.00  0.00     0.298 C 
BRANCH  21  22
HETATM   22  C   UNL     1     -41.122 -41.541  11.561  1.00  0.00     0.194 C 
BRANCH  22  23
HETATM   23  O   UNL     1     -41.667 -41.411  10.249  1.00  0.00    -0.399 OA
HETATM   24  H   UNL     1     -41.416 -40.531   9.922  1.00  0.00     0.209 HD
ENDBRANCH  22  23
ENDBRANCH  21  22
ENDBRANCH  19  21
ENDBRANCH  16  19
ENDBRANCH   6  13
BRANCH   2  25
HETATM   25  C   UNL     1     -40.641 -53.337  12.573  1.00  0.00     0.171 C 
BRANCH  25  26
HETATM   26  C   UNL     1     -39.788 -53.488  13.836  1.00  0.00     0.097 C 
HETATM   27  C   UNL     1     -39.397 -54.905  14.208  1.00  0.00     0.068 C 
HETATM   28  C   UNL     1     -39.233 -54.841  15.718  1.00  0.00     0.170 C 
HETATM   29  O   UNL     1     -40.045 -53.763  16.198  1.00  0.00    -0.388 OA
HETATM   30  C   UNL     1     -40.596 -53.068  15.068  1.00  0.00     0.207 C 
BRANCH  26  31
HETATM   31  O   UNL     1     -38.608 -52.677  13.770  1.00  0.00    -0.386 OA
HETATM   32  H   UNL     1     -38.702 -51.911  14.367  1.00  0.00     0.210 HD
ENDBRANCH  26  31
ENDBRANCH  25  26
ENDBRANCH   2  25
TORSDOF 8
ENDMDL
MODEL 9
REMARK VINA RESULT:      -6.2      3.668      7.905
REMARK  8 active torsions:
REMARK  status: ('A' for Active; 'I' for Inactive)
REMARK    1  A    between atoms: N_2  and  C_13 
REMARK    2  A    between atoms: C_6  and  N_8 
REMARK    3  A    between atoms: C_13  and  C_14 
REMARK    4  A    between atoms: C_14  and  O_24 
REMARK    5  A    between atoms: C_20  and  N_21 
REMARK    6  A    between atoms: N_21  and  C_28 
REMARK    7  A    between atoms: O_26  and  C_30 
REMARK    8  A    between atoms: C_28  and  C_30 
ROOT
HETATM    1  C   UNL     1     -39.692 -48.438  12.863  1.00  0.00     0.117 A 
HETATM    2  N   UNL     1     -39.503 -50.613  12.860  1.00  0.00    -0.324 N 
HETATM    3  C   UNL     1     -39.846 -49.561  13.661  1.00  0.00     0.140 A 
HETATM    4  N   UNL     1     -39.207 -48.797  11.618  1.00  0.00    -0.346 N 
ATOM      5  HN  UNL     1     -38.961 -48.177  10.846  1.00  0.00     0.167 HD
HETATM    6  C   UNL     1     -40.059 -47.194  13.420  1.00  0.00     0.114 A 
HETATM    7  C   UNL     1     -39.131 -50.109  11.644  1.00  0.00     0.185 A 
HETATM    8  N   UNL     1     -40.265 -49.603  14.935  1.00  0.00    -0.336 N 
ATOM      9  HN  UNL     1     -40.330 -50.451  15.498  1.00  0.00     0.168 HD
HETATM   10  N   UNL     1     -40.532 -47.196  14.698  1.00  0.00    -0.341 N 
ATOM     11  HN  UNL     1     -40.836 -46.329  15.141  1.00  0.00     0.167 HD
HETATM   12  C   UNL     1     -40.589 -48.368  15.369  1.00  0.00     0.183 A 
ENDROOT
BRANCH   6  13
HETATM   13  N   UNL     1     -39.961 -46.008  12.679  1.00  0.00    -0.267 NA
HETATM   14  C   UNL     1     -40.939 -45.860  11.604  1.00  0.00     0.099 C 
HETATM   15  C   UNL     1     -40.536 -44.643  10.762  1.00  0.00     0.050 C 
HETATM   16  C   UNL     1     -40.490 -43.349  11.615  1.00  0.00     0.224 C 
HETATM   17  C   UNL     1     -39.485 -43.623  12.759  1.00  0.00     0.050 C 
HETATM   18  C   UNL     1     -39.891 -44.847  13.578  1.00  0.00     0.099 C 
BRANCH  16  19
HETATM   19  N   UNL     1     -41.833 -42.930  12.096  1.00  0.00     0.090 N 
HETATM   20  C   UNL     1     -42.780 -42.677  11.007  1.00  0.00     0.310 C 
BRANCH  19  21
HETATM   21  C   UNL     1     -41.833 -41.798  13.045  1.00  0.00     0.298 C 
BRANCH  21  22
HETATM   22  C   UNL     1     -42.397 -42.056  14.451  1.00  0.00     0.194 C 
BRANCH  22  23
HETATM   23  O   UNL     1     -43.332 -43.132  14.397  1.00  0.00    -0.399 OA
HETATM   24  H   UNL     1     -44.029 -42.938  15.047  1.00  0.00     0.209 HD
ENDBRANCH  22  23
ENDBRANCH  21  22
ENDBRANCH  19  21
ENDBRANCH  16  19
ENDBRANCH   6  13
BRANCH   2  25
HETATM   25  C   UNL     1     -39.658 -52.021  13.180  1.00  0.00     0.171 C 
BRANCH  25  26
HETATM   26  C   UNL     1     -40.889 -52.690  12.560  1.00  0.00     0.097 C 
HETATM   27  C   UNL     1     -42.144 -51.842  12.496  1.00  0.00     0.068 C 
HETATM   28  C   UNL     1     -43.265 -52.867  12.543  1.00  0.00     0.170 C 
HETATM   29  O   UNL     1     -42.760 -54.035  13.202  1.00  0.00    -0.388 OA
HETATM   30  C   UNL     1     -41.357 -53.849  13.445  1.00  0.00     0.207 C 
BRANCH  26  31
HETATM   31  O   UNL     1     -40.603 -53.205  11.253  1.00  0.00    -0.386 OA
HETATM   32  H   UNL     1     -39.642 -53.340  11.157  1.00  0.00     0.210 HD
ENDBRANCH  26  31
ENDBRANCH  25  26
ENDBRANCH   2  25
TORSDOF 8
ENDMDL
