MODEL 1
REMARK VINA RESULT:      -4.8      0.000      0.000
REMARK  4 active torsions:
REMARK  status: ('A' for Active; 'I' for Inactive)
REMARK    1  A    between atoms: N_1  and  C_2 
REMARK    2  A    between atoms: C_2  and  C_3 
REMARK    3  A    between atoms: C_3  and  O_4 
REMARK    4  A    between atoms: C_3  and  C_5 
ROOT
HETATM    1  C   UNL     1     -44.130 -47.395   9.087  1.00  0.00    -0.013 A 
HETATM    2  C   UNL     1     -45.388 -47.524   9.683  1.00  0.00     0.012 A 
HETATM    3  C   UNL     1     -46.413 -48.180   9.008  1.00  0.00     0.018 A 
HETATM    4  C   UNL     1     -46.151 -48.679   7.745  1.00  0.00     0.087 A 
HETATM    5  N   UNL     1     -44.956 -48.565   7.125  1.00  0.00    -0.375 N 
ATOM      6  HN  UNL     1     -44.800 -48.938   6.188  1.00  0.00     0.164 HD
HETATM    7  C   UNL     1     -43.978 -47.932   7.812  1.00  0.00     0.097 A 
ENDROOT
BRANCH   1   8
HETATM    8  C   UNL     1     -42.984 -46.686   9.756  1.00  0.00     0.180 C 
BRANCH   8   9
HETATM    9  C   UNL     1     -41.969 -47.676  10.372  1.00  0.00     0.303 C 
BRANCH   9  10
HETATM   10  N   UNL     1     -40.646 -47.039  10.511  1.00  0.00     0.081 N 
HETATM   11  H   UNL     1     -40.751 -46.191  11.073  1.00  0.00     0.312 HD
HETATM   12  H   UNL     1     -40.327 -46.720   9.594  1.00  0.00     0.312 HD
ENDBRANCH   9  10
ENDBRANCH   8   9
BRANCH   8  13
HETATM   13  O   UNL     1     -42.294 -45.851   8.818  1.00  0.00    -0.389 OA
HETATM   14  H   UNL     1     -41.751 -46.472   8.291  1.00  0.00     0.210 HD
ENDBRANCH   8  13
ENDBRANCH   1   8
TORSDOF 4
ENDMDL
MODEL 2
REMARK VINA RESULT:      -4.3      7.919      8.862
REMARK  4 active torsions:
REMARK  status: ('A' for Active; 'I' for Inactive)
REMARK    1  A    between atoms: N_1  and  C_2 
REMARK    2  A    between atoms: C_2  and  C_3 
REMARK    3  A    between atoms: C_3  and  O_4 
REMARK    4  A    between atoms: C_3  and  C_5 
ROOT
HETATM    1  C   UNL     1     -43.072 -53.990  13.638  1.00  0.00    -0.013 A 
HETATM    2  C   UNL     1     -41.705 -54.223  13.814  1.00  0.00     0.012 A 
HETATM    3  C   UNL     1     -40.781 -53.600  12.980  1.00  0.00     0.018 A 
HETATM    4  C   UNL     1     -41.255 -52.768  11.982  1.00  0.00     0.087 A 
HETATM    5  N   UNL     1     -42.566 -52.525  11.767  1.00  0.00    -0.375 N 
ATOM      6  HN  UNL     1     -42.882 -51.911  11.016  1.00  0.00     0.164 HD
HETATM    7  C   UNL     1     -43.438 -53.137  12.601  1.00  0.00     0.097 A 
ENDROOT
BRANCH   1   8
HETATM    8  C   UNL     1     -44.123 -54.642  14.494  1.00  0.00     0.180 C 
BRANCH   8   9
HETATM    9  C   UNL     1     -45.365 -55.058  13.674  1.00  0.00     0.303 C 
BRANCH   9  10
HETATM   10  N   UNL     1     -46.600 -54.789  14.434  1.00  0.00     0.081 N 
HETATM   11  H   UNL     1     -46.500 -53.890  14.909  1.00  0.00     0.312 HD
HETATM   12  H   UNL     1     -46.694 -55.482  15.180  1.00  0.00     0.312 HD
ENDBRANCH   9  10
ENDBRANCH   8   9
BRANCH   8  13
HETATM   13  O   UNL     1     -43.593 -55.806  15.141  1.00  0.00    -0.389 OA
HETATM   14  H   UNL     1     -43.168 -56.313  14.420  1.00  0.00     0.210 HD
ENDBRANCH   8  13
ENDBRANCH   1   8
TORSDOF 4
ENDMDL
MODEL 3
REMARK VINA RESULT:      -4.3     22.504     23.331
REMARK  4 active torsions:
REMARK  status: ('A' for Active; 'I' for Inactive)
REMARK    1  A    between atoms: N_1  and  C_2 
REMARK    2  A    between atoms: C_2  and  C_3 
REMARK    3  A    between atoms: C_3  and  O_4 
REMARK    4  A    between atoms: C_3  and  C_5 
ROOT
HETATM    1  C   UNL     1     -26.721 -62.129  15.572  1.00  0.00    -0.013 A 
HETATM    2  C   UNL     1     -28.005 -61.584  15.645  1.00  0.00     0.012 A 
HETATM    3  C   UNL     1     -29.119 -62.412  15.550  1.00  0.00     0.018 A 
HETATM    4  C   UNL     1     -28.914 -63.769  15.373  1.00  0.00     0.087 A 
HETATM    5  N   UNL     1     -27.692 -64.338  15.284  1.00  0.00    -0.375 N 
ATOM      6  HN  UNL     1     -27.576 -65.342  15.144  1.00  0.00     0.164 HD
HETATM    7  C   UNL     1     -26.630 -63.507  15.389  1.00  0.00     0.097 A 
ENDROOT
BRANCH   1   8
HETATM    8  C   UNL     1     -25.476 -61.289  15.653  1.00  0.00     0.180 C 
BRANCH   8   9
HETATM    9  C   UNL     1     -25.355 -60.313  14.460  1.00  0.00     0.303 C 
BRANCH   9  10
HETATM   10  N   UNL     1     -24.346 -59.275  14.742  1.00  0.00     0.081 N 
HETATM   11  H   UNL     1     -24.643 -58.404  14.297  1.00  0.00     0.312 HD
HETATM   12  H   UNL     1     -23.467 -59.527  14.287  1.00  0.00     0.312 HD
ENDBRANCH   9  10
ENDBRANCH   8   9
BRANCH   8  13
HETATM   13  O   UNL     1     -25.462 -60.528  16.867  1.00  0.00    -0.389 OA
HETATM   14  H   UNL     1     -24.547 -60.184  16.929  1.00  0.00     0.210 HD
ENDBRANCH   8  13
ENDBRANCH   1   8
TORSDOF 4
ENDMDL
MODEL 4
REMARK VINA RESULT:      -4.3      7.587      8.054
REMARK  4 active torsions:
REMARK  status: ('A' for Active; 'I' for Inactive)
REMARK    1  A    between atoms: N_1  and  C_2 
REMARK    2  A    between atoms: C_2  and  C_3 
REMARK    3  A    between atoms: C_3  and  O_4 
REMARK    4  A    between atoms: C_3  and  C_5 
ROOT
HETATM    1  C   UNL     1     -42.381 -53.723  13.268  1.00  0.00    -0.013 A 
HETATM    2  C   UNL     1     -42.877 -54.594  14.241  1.00  0.00     0.012 A 
HETATM    3  C   UNL     1     -44.246 -54.823  14.338  1.00  0.00     0.018 A 
HETATM    4  C   UNL     1     -45.085 -54.160  13.460  1.00  0.00     0.087 A 
HETATM    5  N   UNL     1     -44.652 -53.299  12.513  1.00  0.00    -0.375 N 
ATOM      6  HN  UNL     1     -45.299 -52.820  11.886  1.00  0.00     0.164 HD
HETATM    7  C   UNL     1     -43.314 -53.106  12.438  1.00  0.00     0.097 A 
ENDROOT
BRANCH   1   8
HETATM    8  C   UNL     1     -40.915 -53.421  13.119  1.00  0.00     0.180 C 
BRANCH   8   9
HETATM    9  C   UNL     1     -40.058 -54.173  14.162  1.00  0.00     0.303 C 
BRANCH   9  10
HETATM   10  N   UNL     1     -38.945 -54.880  13.503  1.00  0.00     0.081 N 
HETATM   11  H   UNL     1     -39.018 -55.876  13.720  1.00  0.00     0.312 HD
HETATM   12  H   UNL     1     -38.061 -54.576  13.914  1.00  0.00     0.312 HD
ENDBRANCH   9  10
ENDBRANCH   8   9
BRANCH   8  13
HETATM   13  O   UNL     1     -40.458 -53.781  11.809  1.00  0.00    -0.389 OA
HETATM   14  H   UNL     1     -41.252 -54.142  11.364  1.00  0.00     0.210 HD
ENDBRANCH   8  13
ENDBRANCH   1   8
TORSDOF 4
ENDMDL
MODEL 5
REMARK VINA RESULT:      -4.2      6.761      7.090
REMARK  4 active torsions:
REMARK  status: ('A' for Active; 'I' for Inactive)
REMARK    1  A    between atoms: N_1  and  C_2 
REMARK    2  A    between atoms: C_2  and  C_3 
REMARK    3  A    between atoms: C_3  and  O_4 
REMARK    4  A    between atoms: C_3  and  C_5 
ROOT
HETATM    1  C   UNL     1     -43.981 -52.636  13.238  1.00  0.00    -0.013 A 
HETATM    2  C   UNL     1     -44.608 -51.445  13.615  1.00  0.00     0.012 A 
HETATM    3  C   UNL     1     -45.961 -51.446  13.943  1.00  0.00     0.018 A 
HETATM    4  C   UNL     1     -46.652 -52.643  13.873  1.00  0.00     0.087 A 
HETATM    5  N   UNL     1     -46.089 -53.814  13.501  1.00  0.00    -0.375 N 
ATOM      6  HN  UNL     1     -46.631 -54.677  13.452  1.00  0.00     0.164 HD
HETATM    7  C   UNL     1     -44.771 -53.781  13.198  1.00  0.00     0.097 A 
ENDROOT
BRANCH   1   8
HETATM    8  C   UNL     1     -42.527 -52.702  12.858  1.00  0.00     0.180 C 
BRANCH   8   9
HETATM    9  C   UNL     1     -41.877 -54.041  13.276  1.00  0.00     0.303 C 
BRANCH   9  10
HETATM   10  N   UNL     1     -40.817 -54.420  12.323  1.00  0.00     0.081 N 
HETATM   11  H   UNL     1     -40.966 -53.908  11.451  1.00  0.00     0.312 HD
HETATM   12  H   UNL     1     -40.918 -55.407  12.081  1.00  0.00     0.312 HD
ENDBRANCH   9  10
ENDBRANCH   8   9
BRANCH   8  13
HETATM   13  O   UNL     1     -42.370 -52.541  11.442  1.00  0.00    -0.389 OA
HETATM   14  H   UNL     1     -41.434 -52.773  11.272  1.00  0.00     0.210 HD
ENDBRANCH   8  13
ENDBRANCH   1   8
TORSDOF 4
ENDMDL
MODEL 6
REMARK VINA RESULT:      -4.1      6.937      7.541
REMARK  4 active torsions:
REMARK  status: ('A' for Active; 'I' for Inactive)
REMARK    1  A    between atoms: N_1  and  C_2 
REMARK    2  A    between atoms: C_2  and  C_3 
REMARK    3  A    between atoms: C_3  and  O_4 
REMARK    4  A    between atoms: C_3  and  C_5 
ROOT
HETATM    1  C   UNL     1     -42.490 -53.389  12.837  1.00  0.00    -0.013 A 
HETATM    2  C   UNL     1     -42.082 -54.121  13.955  1.00  0.00     0.012 A 
HETATM    3  C   UNL     1     -43.019 -54.832  14.700  1.00  0.00     0.018 A 
HETATM    4  C   UNL     1     -44.345 -54.779  14.309  1.00  0.00     0.087 A 
HETATM    5  N   UNL     1     -44.786 -54.073  13.245  1.00  0.00    -0.375 N 
ATOM      6  HN  UNL     1     -45.773 -54.049  12.989  1.00  0.00     0.164 HD
HETATM    7  C   UNL     1     -43.849 -53.401  12.535  1.00  0.00     0.097 A 
ENDROOT
BRANCH   1   8
HETATM    8  C   UNL     1     -41.533 -52.588  11.998  1.00  0.00     0.180 C 
BRANCH   8   9
HETATM    9  C   UNL     1     -40.713 -51.589  12.845  1.00  0.00     0.303 C 
BRANCH   9  10
HETATM   10  N   UNL     1     -39.583 -51.054  12.063  1.00  0.00     0.081 N 
HETATM   11  H   UNL     1     -38.793 -50.904  12.694  1.00  0.00     0.312 HD
HETATM   12  H   UNL     1     -39.827 -50.127  11.708  1.00  0.00     0.312 HD
ENDBRANCH   9  10
ENDBRANCH   8   9
BRANCH   8  13
HETATM   13  O   UNL     1     -40.623 -53.455  11.308  1.00  0.00    -0.389 OA
HETATM   14  H   UNL     1     -39.914 -53.633  11.960  1.00  0.00     0.210 HD
ENDBRANCH   8  13
ENDBRANCH   1   8
TORSDOF 4
ENDMDL
MODEL 7
REMARK VINA RESULT:      -4.0      6.025      7.150
REMARK  4 active torsions:
REMARK  status: ('A' for Active; 'I' for Inactive)
REMARK    1  A    between atoms: N_1  and  C_2 
REMARK    2  A    between atoms: C_2  and  C_3 
REMARK    3  A    between atoms: C_3  and  O_4 
REMARK    4  A    between atoms: C_3  and  C_5 
ROOT
HETATM    1  C   UNL     1     -40.022 -51.321  12.401  1.00  0.00    -0.013 A 
HETATM    2  C   UNL     1     -40.977 -52.269  12.025  1.00  0.00     0.012 A 
HETATM    3  C   UNL     1     -41.053 -53.485  12.699  1.00  0.00     0.018 A 
HETATM    4  C   UNL     1     -40.158 -53.721  13.728  1.00  0.00     0.087 A 
HETATM    5  N   UNL     1     -39.210 -52.839  14.115  1.00  0.00    -0.375 N 
ATOM      6  HN  UNL     1     -38.560 -53.049  14.873  1.00  0.00     0.164 HD
HETATM    7  C   UNL     1     -39.170 -51.663  13.447  1.00  0.00     0.097 A 
ENDROOT
BRANCH   1   8
HETATM    8  C   UNL     1     -39.878 -49.994  11.706  1.00  0.00     0.180 C 
BRANCH   8   9
HETATM    9  C   UNL     1     -38.417 -49.490  11.716  1.00  0.00     0.303 C 
BRANCH   9  10
HETATM   10  N   UNL     1     -37.683 -50.013  10.548  1.00  0.00     0.081 N 
HETATM   11  H   UNL     1     -38.339 -50.114   9.771  1.00  0.00     0.312 HD
HETATM   12  H   UNL     1     -37.354 -50.958  10.753  1.00  0.00     0.312 HD
ENDBRANCH   9  10
ENDBRANCH   8   9
BRANCH   8  13
HETATM   13  O   UNL     1     -40.318 -50.090  10.346  1.00  0.00    -0.389 OA
HETATM   14  H   UNL     1     -41.142 -49.562  10.318  1.00  0.00     0.210 HD
ENDBRANCH   8  13
ENDBRANCH   1   8
TORSDOF 4
ENDMDL
MODEL 8
REMARK VINA RESULT:      -4.0     22.914     24.612
REMARK  4 active torsions:
REMARK  status: ('A' for Active; 'I' for Inactive)
REMARK    1  A    between atoms: N_1  and  C_2 
REMARK    2  A    between atoms: C_2  and  C_3 
REMARK    3  A    between atoms: C_3  and  O_4 
REMARK    4  A    between atoms: C_3  and  C_5 
ROOT
HETATM    1  C   UNL     1     -26.561 -63.700  15.398  1.00  0.00    -0.013 A 
HETATM    2  C   UNL     1     -27.955 -63.791  15.396  1.00  0.00     0.012 A 
HETATM    3  C   UNL     1     -28.727 -62.636  15.485  1.00  0.00     0.018 A 
HETATM    4  C   UNL     1     -28.077 -61.419  15.584  1.00  0.00     0.087 A 
HETATM    5  N   UNL     1     -26.732 -61.285  15.603  1.00  0.00    -0.375 N 
ATOM      6  HN  UNL     1     -26.285 -60.372  15.686  1.00  0.00     0.164 HD
HETATM    7  C   UNL     1     -26.011 -62.426  15.505  1.00  0.00     0.097 A 
ENDROOT
BRANCH   1   8
HETATM    8  C   UNL     1     -25.669 -64.909  15.319  1.00  0.00     0.180 C 
BRANCH   8   9
HETATM    9  C   UNL     1     -25.206 -65.197  13.873  1.00  0.00     0.303 C 
BRANCH   9  10
HETATM   10  N   UNL     1     -26.157 -66.100  13.197  1.00  0.00     0.081 N 
HETATM   11  H   UNL     1     -25.942 -66.109  12.198  1.00  0.00     0.312 HD
HETATM   12  H   UNL     1     -27.100 -65.713  13.270  1.00  0.00     0.312 HD
ENDBRANCH   9  10
ENDBRANCH   8   9
BRANCH   8  13
HETATM   13  O   UNL     1     -24.508 -64.731  16.142  1.00  0.00    -0.389 OA
HETATM   14  H   UNL     1     -24.066 -65.605  16.133  1.00  0.00     0.210 HD
ENDBRANCH   8  13
ENDBRANCH   1   8
TORSDOF 4
ENDMDL
MODEL 9
REMARK VINA RESULT:      -3.9      2.404      4.420
REMARK  4 active torsions:
REMARK  status: ('A' for Active; 'I' for Inactive)
REMARK    1  A    between atoms: N_1  and  C_2 
REMARK    2  A    between atoms: C_2  and  C_3 
REMARK    3  A    between atoms: C_3  and  O_4 
REMARK    4  A    between atoms: C_3  and  C_5 
ROOT
HETATM    1  C   UNL     1     -42.910 -46.740  10.883  1.00  0.00    -0.013 A 
HETATM    2  C   UNL     1     -42.974 -47.107  12.230  1.00  0.00     0.012 A 
HETATM    3  C   UNL     1     -42.846 -46.138  13.221  1.00  0.00     0.018 A 
HETATM    4  C   UNL     1     -42.646 -44.826  12.834  1.00  0.00     0.087 A 
HETATM    5  N   UNL     1     -42.564 -44.428  11.545  1.00  0.00    -0.375 N 
ATOM      6  HN  UNL     1     -42.407 -43.451  11.294  1.00  0.00     0.164 HD
HETATM    7  C   UNL     1     -42.702 -45.392  10.605  1.00  0.00     0.097 A 
ENDROOT
BRANCH   1   8
HETATM    8  C   UNL     1     -43.026 -47.738   9.763  1.00  0.00     0.180 C 
BRANCH   8   9
HETATM    9  C   UNL     1     -43.462 -47.074   8.437  1.00  0.00     0.303 C 
BRANCH   9  10
HETATM   10  N   UNL     1     -43.074 -47.913   7.288  1.00  0.00     0.081 N 
HETATM   11  H   UNL     1     -42.703 -47.307   6.554  1.00  0.00     0.312 HD
HETATM   12  H   UNL     1     -43.909 -48.345   6.889  1.00  0.00     0.312 HD
ENDBRANCH   9  10
ENDBRANCH   8   9
BRANCH   8  13
HETATM   13  O   UNL     1     -41.774 -48.401   9.550  1.00  0.00    -0.389 OA
HETATM   14  H   UNL     1     -41.103 -47.694   9.645  1.00  0.00     0.210 HD
ENDBRANCH   8  13
ENDBRANCH   1   8
TORSDOF 4
ENDMDL
