MODEL 1
REMARK VINA RESULT:      -5.8      0.000      0.000
REMARK  5 active torsions:
REMARK  status: ('A' for Active; 'I' for Inactive)
REMARK       I    between atoms: N_6  and  C_8 
REMARK    1  A    between atoms: C_8  and  C_10 
REMARK    2  A    between atoms: C_10  and  N_11 
REMARK    3  A    between atoms: N_11  and  C_12 
REMARK    4  A    between atoms: C_12  and  C_13 
REMARK    5  A    between atoms: C_13  and  N_14 
ROOT
HETATM    1  C   UNL     1     -42.453 -53.327  12.893  1.00  0.00     0.372 C 
ENDROOT
BRANCH   1   2
HETATM    2  C   UNL     1     -43.924 -53.703  13.096  1.00  0.00     0.247 C 
HETATM    3  N   UNL     1     -44.506 -53.276  14.288  1.00  0.00    -0.350 N 
HETATM    4  C   UNL     1     -43.866 -52.425  15.294  1.00  0.00     0.126 C 
HETATM    5  C   UNL     1     -45.934 -53.495  14.494  1.00  0.00     0.130 C 
HETATM    6  C   UNL     1     -44.548 -51.060  15.357  1.00  0.00     0.020 C 
HETATM    7  C   UNL     1     -46.061 -51.203  15.532  1.00  0.00     0.007 C 
HETATM    8  C   UNL     1     -46.688 -52.156  14.498  1.00  0.00    -0.001 C 
HETATM    9  C   UNL     1     -46.717 -51.529  13.100  1.00  0.00     0.011 C 
HETATM   10  O   UNL     1     -44.559 -54.321  12.238  1.00  0.00    -0.271 OA
ENDBRANCH   1   2
BRANCH   1  11
HETATM   11  N   UNL     1     -42.297 -52.253  11.895  1.00  0.00     0.093 N 
HETATM   12  H   UNL     1     -43.125 -52.258  11.294  1.00  0.00     0.316 HD
BRANCH  11  13
HETATM   13  C   UNL     1     -42.125 -50.942  12.532  1.00  0.00     0.291 C 
BRANCH  13  14
HETATM   14  C   UNL     1     -41.216 -50.012  11.722  1.00  0.00     0.178 C 
BRANCH  14  15
HETATM   15  N   UNL     1     -41.942 -48.894  11.161  1.00  0.00    -0.302 N 
HETATM   16  C   UNL     1     -42.946 -48.188  11.758  1.00  0.00     0.111 A 
HETATM   17  C   UNL     1     -43.386 -47.290  10.813  1.00  0.00     0.037 A 
HETATM   18  C   UNL     1     -42.584 -47.537   9.683  1.00  0.00     0.108 A 
HETATM   19  N   UNL     1     -41.696 -48.510   9.894  1.00  0.00    -0.310 N 
ATOM     20  HN  UNL     1     -40.997 -48.877   9.247  1.00  0.00     0.186 HD
ENDBRANCH  14  15
ENDBRANCH  13  14
ENDBRANCH  11  13
ENDBRANCH   1  11
TORSDOF 5
ENDMDL
MODEL 2
REMARK VINA RESULT:      -5.8      2.151      2.775
REMARK  5 active torsions:
REMARK  status: ('A' for Active; 'I' for Inactive)
REMARK       I    between atoms: N_6  and  C_8 
REMARK    1  A    between atoms: C_8  and  C_10 
REMARK    2  A    between atoms: C_10  and  N_11 
REMARK    3  A    between atoms: N_11  and  C_12 
REMARK    4  A    between atoms: C_12  and  C_13 
REMARK    5  A    between atoms: C_13  and  N_14 
ROOT
HETATM    1  C   UNL     1     -42.795 -53.878  13.203  1.00  0.00     0.372 C 
ENDROOT
BRANCH   1   2
HETATM    2  C   UNL     1     -44.296 -54.026  13.476  1.00  0.00     0.247 C 
HETATM    3  N   UNL     1     -44.767 -53.435  14.647  1.00  0.00    -0.350 N 
HETATM    4  C   UNL     1     -43.976 -52.611  15.565  1.00  0.00     0.126 C 
HETATM    5  C   UNL     1     -46.202 -53.433  14.908  1.00  0.00     0.130 C 
HETATM    6  C   UNL     1     -44.458 -51.162  15.540  1.00  0.00     0.020 C 
HETATM    7  C   UNL     1     -45.969 -51.077  15.767  1.00  0.00     0.007 C 
HETATM    8  C   UNL     1     -46.761 -52.005  14.828  1.00  0.00    -0.001 C 
HETATM    9  C   UNL     1     -46.757 -51.484  13.387  1.00  0.00     0.011 C 
HETATM   10  O   UNL     1     -45.043 -54.609  12.686  1.00  0.00    -0.271 OA
ENDBRANCH   1   2
BRANCH   1  11
HETATM   11  N   UNL     1     -42.534 -52.998  12.050  1.00  0.00     0.093 N 
HETATM   12  H   UNL     1     -43.122 -52.165  12.148  1.00  0.00     0.316 HD
BRANCH  11  13
HETATM   13  C   UNL     1     -41.117 -52.627  11.961  1.00  0.00     0.291 C 
BRANCH  13  14
HETATM   14  C   UNL     1     -40.904 -51.111  12.014  1.00  0.00     0.178 C 
BRANCH  14  15
HETATM   15  N   UNL     1     -39.502 -50.759  12.036  1.00  0.00    -0.302 N 
HETATM   16  C   UNL     1     -38.608 -51.015  13.036  1.00  0.00     0.111 A 
HETATM   17  C   UNL     1     -37.432 -50.416  12.651  1.00  0.00     0.037 A 
HETATM   18  C   UNL     1     -37.721 -49.824  11.408  1.00  0.00     0.108 A 
HETATM   19  N   UNL     1     -38.981 -50.037  11.025  1.00  0.00    -0.310 N 
ATOM     20  HN  UNL     1     -39.442 -49.727  10.169  1.00  0.00     0.186 HD
ENDBRANCH  14  15
ENDBRANCH  13  14
ENDBRANCH  11  13
ENDBRANCH   1  11
TORSDOF 5
ENDMDL
MODEL 3
REMARK VINA RESULT:      -5.2      1.940      2.765
REMARK  5 active torsions:
REMARK  status: ('A' for Active; 'I' for Inactive)
REMARK       I    between atoms: N_6  and  C_8 
REMARK    1  A    between atoms: C_8  and  C_10 
REMARK    2  A    between atoms: C_10  and  N_11 
REMARK    3  A    between atoms: N_11  and  C_12 
REMARK    4  A    between atoms: C_12  and  C_13 
REMARK    5  A    between atoms: C_13  and  N_14 
ROOT
HETATM    1  C   UNL     1     -41.500 -50.506  12.432  1.00  0.00     0.372 C 
ENDROOT
BRANCH   1   2
HETATM    2  C   UNL     1     -41.506 -52.029  12.604  1.00  0.00     0.247 C 
HETATM    3  N   UNL     1     -41.970 -52.505  13.830  1.00  0.00    -0.350 N 
HETATM    4  C   UNL     1     -42.536 -51.686  14.904  1.00  0.00     0.126 C 
HETATM    5  C   UNL     1     -42.116 -53.944  14.018  1.00  0.00     0.130 C 
HETATM    6  C   UNL     1     -44.022 -51.989  15.086  1.00  0.00     0.020 C 
HETATM    7  C   UNL     1     -44.266 -53.491  15.250  1.00  0.00     0.007 C 
HETATM    8  C   UNL     1     -43.600 -54.322  14.138  1.00  0.00    -0.001 C 
HETATM    9  C   UNL     1     -44.328 -54.157  12.800  1.00  0.00     0.011 C 
HETATM   10  O   UNL     1     -41.150 -52.785  11.697  1.00  0.00    -0.271 OA
ENDBRANCH   1   2
BRANCH   1  11
HETATM   11  N   UNL     1     -40.906 -50.105  11.144  1.00  0.00     0.093 N 
HETATM   12  H   UNL     1     -41.378 -50.629  10.402  1.00  0.00     0.316 HD
BRANCH  11  13
HETATM   13  C   UNL     1     -41.027 -48.660  10.918  1.00  0.00     0.291 C 
BRANCH  13  14
HETATM   14  C   UNL     1     -42.421 -48.127  11.263  1.00  0.00     0.178 C 
BRANCH  14  15
HETATM   15  N   UNL     1     -43.196 -47.825  10.079  1.00  0.00    -0.302 N 
HETATM   16  C   UNL     1     -44.518 -47.489  10.029  1.00  0.00     0.111 A 
HETATM   17  C   UNL     1     -44.830 -47.388   8.694  1.00  0.00     0.037 A 
HETATM   18  C   UNL     1     -43.629 -47.682   8.022  1.00  0.00     0.108 A 
HETATM   19  N   UNL     1     -42.627 -47.943   8.864  1.00  0.00    -0.310 N 
ATOM     20  HN  UNL     1     -41.659 -48.176   8.640  1.00  0.00     0.186 HD
ENDBRANCH  14  15
ENDBRANCH  13  14
ENDBRANCH  11  13
ENDBRANCH   1  11
TORSDOF 5
ENDMDL
MODEL 4
REMARK VINA RESULT:      -5.1      1.364      1.934
REMARK  5 active torsions:
REMARK  status: ('A' for Active; 'I' for Inactive)
REMARK       I    between atoms: N_6  and  C_8 
REMARK    1  A    between atoms: C_8  and  C_10 
REMARK    2  A    between atoms: C_10  and  N_11 
REMARK    3  A    between atoms: N_11  and  C_12 
REMARK    4  A    between atoms: C_12  and  C_13 
REMARK    5  A    between atoms: C_13  and  N_14 
ROOT
HETATM    1  C   UNL     1     -42.048 -52.380  12.008  1.00  0.00     0.372 C 
ENDROOT
BRANCH   1   2
HETATM    2  C   UNL     1     -42.543 -53.008  13.316  1.00  0.00     0.247 C 
HETATM    3  N   UNL     1     -43.598 -52.353  13.948  1.00  0.00    -0.350 N 
HETATM    4  C   UNL     1     -44.325 -51.197  13.419  1.00  0.00     0.126 C 
HETATM    5  C   UNL     1     -44.197 -52.962  15.131  1.00  0.00     0.130 C 
HETATM    6  C   UNL     1     -45.764 -51.575  13.077  1.00  0.00     0.020 C 
HETATM    7  C   UNL     1     -46.454 -52.259  14.260  1.00  0.00     0.007 C 
HETATM    8  C   UNL     1     -45.629 -53.428  14.829  1.00  0.00    -0.001 C 
HETATM    9  C   UNL     1     -45.635 -54.634  13.883  1.00  0.00     0.011 C 
HETATM   10  O   UNL     1     -42.052 -54.048  13.761  1.00  0.00    -0.271 OA
ENDBRANCH   1   2
BRANCH   1  11
HETATM   11  N   UNL     1     -40.624 -52.010  12.085  1.00  0.00     0.093 N 
HETATM   12  H   UNL     1     -40.180 -52.271  11.200  1.00  0.00     0.316 HD
BRANCH  11  13
HETATM   13  C   UNL     1     -40.449 -50.577  12.350  1.00  0.00     0.291 C 
BRANCH  13  14
HETATM   14  C   UNL     1     -40.339 -49.752  11.064  1.00  0.00     0.178 C 
BRANCH  14  15
HETATM   15  N   UNL     1     -41.285 -48.659  11.036  1.00  0.00    -0.302 N 
HETATM   16  C   UNL     1     -40.995 -47.325  11.020  1.00  0.00     0.111 A 
HETATM   17  C   UNL     1     -42.205 -46.676  11.089  1.00  0.00     0.037 A 
HETATM   18  C   UNL     1     -43.161 -47.707  11.146  1.00  0.00     0.108 A 
HETATM   19  N   UNL     1     -42.604 -48.919  11.106  1.00  0.00    -0.310 N 
ATOM     20  HN  UNL     1     -43.068 -49.828  11.124  1.00  0.00     0.186 HD
ENDBRANCH  14  15
ENDBRANCH  13  14
ENDBRANCH  11  13
ENDBRANCH   1  11
TORSDOF 5
ENDMDL
MODEL 5
REMARK VINA RESULT:      -5.1      2.796      3.625
REMARK  5 active torsions:
REMARK  status: ('A' for Active; 'I' for Inactive)
REMARK       I    between atoms: N_6  and  C_8 
REMARK    1  A    between atoms: C_8  and  C_10 
REMARK    2  A    between atoms: C_10  and  N_11 
REMARK    3  A    between atoms: N_11  and  C_12 
REMARK    4  A    between atoms: C_12  and  C_13 
REMARK    5  A    between atoms: C_13  and  N_14 
ROOT
HETATM    1  C   UNL     1     -41.521 -53.696  14.210  1.00  0.00     0.372 C 
ENDROOT
BRANCH   1   2
HETATM    2  C   UNL     1     -42.579 -53.169  13.234  1.00  0.00     0.247 C 
HETATM    3  N   UNL     1     -43.844 -53.745  13.334  1.00  0.00    -0.350 N 
HETATM    4  C   UNL     1     -44.261 -54.721  14.344  1.00  0.00     0.126 C 
HETATM    5  C   UNL     1     -44.929 -53.208  12.519  1.00  0.00     0.130 C 
HETATM    6  C   UNL     1     -45.299 -54.112  15.285  1.00  0.00     0.020 C 
HETATM    7  C   UNL     1     -46.457 -53.488  14.503  1.00  0.00     0.007 C 
HETATM    8  C   UNL     1     -45.976 -52.519  13.407  1.00  0.00    -0.001 C 
HETATM    9  C   UNL     1     -45.430 -51.218  14.006  1.00  0.00     0.011 C 
HETATM   10  O   UNL     1     -42.328 -52.266  12.432  1.00  0.00    -0.271 OA
ENDBRANCH   1   2
BRANCH   1  11
HETATM   11  N   UNL     1     -40.338 -54.217  13.501  1.00  0.00     0.093 N 
HETATM   12  H   UNL     1     -40.419 -53.955  12.515  1.00  0.00     0.316 HD
BRANCH  11  13
HETATM   13  C   UNL     1     -39.090 -53.700  14.075  1.00  0.00     0.291 C 
BRANCH  13  14
HETATM   14  C   UNL     1     -39.173 -52.206  14.407  1.00  0.00     0.178 C 
BRANCH  14  15
HETATM   15  N   UNL     1     -38.759 -51.378  13.296  1.00  0.00    -0.302 N 
HETATM   16  C   UNL     1     -37.479 -51.082  12.927  1.00  0.00     0.111 A 
HETATM   17  C   UNL     1     -37.584 -50.195  11.881  1.00  0.00     0.037 A 
HETATM   18  C   UNL     1     -38.969 -50.021  11.698  1.00  0.00     0.108 A 
HETATM   19  N   UNL     1     -39.690 -50.747  12.554  1.00  0.00    -0.310 N 
ATOM     20  HN  UNL     1     -40.706 -50.809  12.630  1.00  0.00     0.186 HD
ENDBRANCH  14  15
ENDBRANCH  13  14
ENDBRANCH  11  13
ENDBRANCH   1  11
TORSDOF 5
ENDMDL
MODEL 6
REMARK VINA RESULT:      -5.0      1.800      2.171
REMARK  5 active torsions:
REMARK  status: ('A' for Active; 'I' for Inactive)
REMARK       I    between atoms: N_6  and  C_8 
REMARK    1  A    between atoms: C_8  and  C_10 
REMARK    2  A    between atoms: C_10  and  N_11 
REMARK    3  A    between atoms: N_11  and  C_12 
REMARK    4  A    between atoms: C_12  and  C_13 
REMARK    5  A    between atoms: C_13  and  N_14 
ROOT
HETATM    1  C   UNL     1     -42.807 -54.141  13.642  1.00  0.00     0.372 C 
ENDROOT
BRANCH   1   2
HETATM    2  C   UNL     1     -44.340 -54.162  13.623  1.00  0.00     0.247 C 
HETATM    3  N   UNL     1     -44.973 -53.598  14.729  1.00  0.00    -0.350 N 
HETATM    4  C   UNL     1     -44.305 -52.907  15.835  1.00  0.00     0.126 C 
HETATM    5  C   UNL     1     -46.427 -53.476  14.722  1.00  0.00     0.130 C 
HETATM    6  C   UNL     1     -44.653 -51.420  15.831  1.00  0.00     0.020 C 
HETATM    7  C   UNL     1     -46.168 -51.205  15.783  1.00  0.00     0.007 C 
HETATM    8  C   UNL     1     -46.841 -51.998  14.648  1.00  0.00    -0.001 C 
HETATM    9  C   UNL     1     -46.522 -51.397  13.275  1.00  0.00     0.011 C 
HETATM   10  O   UNL     1     -44.969 -54.625  12.669  1.00  0.00    -0.271 OA
ENDBRANCH   1   2
BRANCH   1  11
HETATM   11  N   UNL     1     -42.252 -53.659  12.364  1.00  0.00     0.093 N 
HETATM   12  H   UNL     1     -42.934 -53.022  11.943  1.00  0.00     0.316 HD
BRANCH  11  13
HETATM   13  C   UNL     1     -40.961 -52.987  12.552  1.00  0.00     0.291 C 
BRANCH  13  14
HETATM   14  C   UNL     1     -40.950 -51.568  11.975  1.00  0.00     0.178 C 
BRANCH  14  15
HETATM   15  N   UNL     1     -41.579 -50.615  12.862  1.00  0.00    -0.302 N 
HETATM   16  C   UNL     1     -42.707 -49.886  12.616  1.00  0.00     0.111 A 
HETATM   17  C   UNL     1     -42.864 -49.057  13.702  1.00  0.00     0.037 A 
HETATM   18  C   UNL     1     -41.779 -49.362  14.545  1.00  0.00     0.108 A 
HETATM   19  N   UNL     1     -40.996 -50.318  14.040  1.00  0.00    -0.310 N 
ATOM     20  HN  UNL     1     -40.155 -50.726  14.449  1.00  0.00     0.186 HD
ENDBRANCH  14  15
ENDBRANCH  13  14
ENDBRANCH  11  13
ENDBRANCH   1  11
TORSDOF 5
ENDMDL
MODEL 7
REMARK VINA RESULT:      -4.7      2.794      6.294
REMARK  5 active torsions:
REMARK  status: ('A' for Active; 'I' for Inactive)
REMARK       I    between atoms: N_6  and  C_8 
REMARK    1  A    between atoms: C_8  and  C_10 
REMARK    2  A    between atoms: C_10  and  N_11 
REMARK    3  A    between atoms: N_11  and  C_12 
REMARK    4  A    between atoms: C_12  and  C_13 
REMARK    5  A    between atoms: C_13  and  N_14 
ROOT
HETATM    1  C   UNL     1     -41.357 -52.613  13.438  1.00  0.00     0.372 C 
ENDROOT
BRANCH   1   2
HETATM    2  C   UNL     1     -39.864 -52.347  13.216  1.00  0.00     0.247 C 
HETATM    3  N   UNL     1     -39.544 -51.149  12.579  1.00  0.00    -0.350 N 
HETATM    4  C   UNL     1     -40.495 -50.100  12.206  1.00  0.00     0.126 C 
HETATM    5  C   UNL     1     -38.139 -50.777  12.443  1.00  0.00     0.130 C 
HETATM    6  C   UNL     1     -40.260 -48.840  13.036  1.00  0.00     0.020 C 
HETATM    7  C   UNL     1     -38.794 -48.404  12.979  1.00  0.00     0.007 C 
HETATM    8  C   UNL     1     -37.823 -49.551  13.313  1.00  0.00    -0.001 C 
HETATM    9  C   UNL     1     -37.858 -49.902  14.804  1.00  0.00     0.011 C 
HETATM   10  O   UNL     1     -39.000 -53.136  13.608  1.00  0.00    -0.271 OA
ENDBRANCH   1   2
BRANCH   1  11
HETATM   11  N   UNL     1     -41.636 -54.050  13.604  1.00  0.00     0.093 N 
HETATM   12  H   UNL     1     -41.079 -54.392  14.391  1.00  0.00     0.316 HD
BRANCH  11  13
HETATM   13  C   UNL     1     -43.064 -54.303  13.830  1.00  0.00     0.291 C 
BRANCH  13  14
HETATM   14  C   UNL     1     -43.947 -53.701  12.733  1.00  0.00     0.178 C 
BRANCH  14  15
HETATM   15  N   UNL     1     -45.096 -53.011  13.276  1.00  0.00    -0.302 N 
HETATM   16  C   UNL     1     -45.277 -51.661  13.360  1.00  0.00     0.111 A 
HETATM   17  C   UNL     1     -46.466 -51.481  14.027  1.00  0.00     0.037 A 
HETATM   18  C   UNL     1     -46.922 -52.784  14.303  1.00  0.00     0.108 A 
HETATM   19  N   UNL     1     -46.093 -53.721  13.840  1.00  0.00    -0.310 N 
ATOM     20  HN  UNL     1     -46.190 -54.735  13.900  1.00  0.00     0.186 HD
ENDBRANCH  14  15
ENDBRANCH  13  14
ENDBRANCH  11  13
ENDBRANCH   1  11
TORSDOF 5
ENDMDL
MODEL 8
REMARK VINA RESULT:      -4.6      2.440      3.774
REMARK  5 active torsions:
REMARK  status: ('A' for Active; 'I' for Inactive)
REMARK       I    between atoms: N_6  and  C_8 
REMARK    1  A    between atoms: C_8  and  C_10 
REMARK    2  A    between atoms: C_10  and  N_11 
REMARK    3  A    between atoms: N_11  and  C_12 
REMARK    4  A    between atoms: C_12  and  C_13 
REMARK    5  A    between atoms: C_13  and  N_14 
ROOT
HETATM    1  C   UNL     1     -42.741 -51.055  14.374  1.00  0.00     0.372 C 
ENDROOT
BRANCH   1   2
HETATM    2  C   UNL     1     -44.240 -51.247  14.629  1.00  0.00     0.247 C 
HETATM    3  N   UNL     1     -44.863 -52.250  13.888  1.00  0.00    -0.350 N 
HETATM    4  C   UNL     1     -44.191 -53.185  12.982  1.00  0.00     0.126 C 
HETATM    5  C   UNL     1     -46.260 -52.568  14.167  1.00  0.00     0.130 C 
HETATM    6  C   UNL     1     -44.250 -54.608  13.534  1.00  0.00     0.020 C 
HETATM    7  C   UNL     1     -45.685 -55.005  13.891  1.00  0.00     0.007 C 
HETATM    8  C   UNL     1     -46.379 -53.967  14.791  1.00  0.00    -0.001 C 
HETATM    9  C   UNL     1     -45.816 -53.991  16.216  1.00  0.00     0.011 C 
HETATM   10  O   UNL     1     -44.847 -50.571  15.463  1.00  0.00    -0.271 OA
ENDBRANCH   1   2
BRANCH   1  11
HETATM   11  N   UNL     1     -42.479 -49.885  13.518  1.00  0.00     0.093 N 
HETATM   12  H   UNL     1     -41.872 -49.243  14.036  1.00  0.00     0.316 HD
BRANCH  11  13
HETATM   13  C   UNL     1     -41.858 -50.271  12.245  1.00  0.00     0.291 C 
BRANCH  13  14
HETATM   14  C   UNL     1     -40.947 -51.495  12.386  1.00  0.00     0.178 C 
BRANCH  14  15
HETATM   15  N   UNL     1     -39.547 -51.131  12.403  1.00  0.00    -0.302 N 
HETATM   16  C   UNL     1     -38.664 -51.316  13.427  1.00  0.00     0.111 A 
HETATM   17  C   UNL     1     -37.487 -50.733  13.020  1.00  0.00     0.037 A 
HETATM   18  C   UNL     1     -37.765 -50.223  11.738  1.00  0.00     0.108 A 
HETATM   19  N   UNL     1     -39.019 -50.470  11.354  1.00  0.00    -0.310 N 
ATOM     20  HN  UNL     1     -39.471 -50.218  10.475  1.00  0.00     0.186 HD
ENDBRANCH  14  15
ENDBRANCH  13  14
ENDBRANCH  11  13
ENDBRANCH   1  11
TORSDOF 5
ENDMDL
MODEL 9
REMARK VINA RESULT:      -4.6      3.124      4.630
REMARK  5 active torsions:
REMARK  status: ('A' for Active; 'I' for Inactive)
REMARK       I    between atoms: N_6  and  C_8 
REMARK    1  A    between atoms: C_8  and  C_10 
REMARK    2  A    between atoms: C_10  and  N_11 
REMARK    3  A    between atoms: N_11  and  C_12 
REMARK    4  A    between atoms: C_12  and  C_13 
REMARK    5  A    between atoms: C_13  and  N_14 
ROOT
HETATM    1  C   UNL     1     -46.573 -54.397  14.921  1.00  0.00     0.372 C 
ENDROOT
BRANCH   1   2
HETATM    2  C   UNL     1     -45.697 -53.805  16.030  1.00  0.00     0.247 C 
HETATM    3  N   UNL     1     -45.902 -52.456  16.316  1.00  0.00    -0.350 N 
HETATM    4  C   UNL     1     -46.938 -51.606  15.726  1.00  0.00     0.126 C 
HETATM    5  C   UNL     1     -45.188 -51.858  17.440  1.00  0.00     0.130 C 
HETATM    6  C   UNL     1     -47.969 -51.203  16.779  1.00  0.00     0.020 C 
HETATM    7  C   UNL     1     -47.294 -50.601  18.014  1.00  0.00     0.007 C 
HETATM    8  C   UNL     1     -46.168 -51.493  18.565  1.00  0.00    -0.001 C 
HETATM    9  C   UNL     1     -46.725 -52.747  19.247  1.00  0.00     0.011 C 
HETATM   10  O   UNL     1     -44.882 -54.493  16.649  1.00  0.00    -0.271 OA
ENDBRANCH   1   2
BRANCH   1  11
HETATM   11  N   UNL     1     -46.166 -53.917  13.588  1.00  0.00     0.093 N 
HETATM   12  H   UNL     1     -46.306 -52.903  13.561  1.00  0.00     0.316 HD
BRANCH  11  13
HETATM   13  C   UNL     1     -44.769 -54.257  13.292  1.00  0.00     0.291 C 
BRANCH  13  14
HETATM   14  C   UNL     1     -44.127 -53.284  12.299  1.00  0.00     0.178 C 
BRANCH  14  15
HETATM   15  N   UNL     1     -42.708 -53.130  12.528  1.00  0.00    -0.302 N 
HETATM   16  C   UNL     1     -41.963 -52.004  12.326  1.00  0.00     0.111 A 
HETATM   17  C   UNL     1     -40.661 -52.362  12.591  1.00  0.00     0.037 A 
HETATM   18  C   UNL     1     -40.729 -53.723  12.942  1.00  0.00     0.108 A 
HETATM   19  N   UNL     1     -41.977 -54.194  12.912  1.00  0.00    -0.310 N 
ATOM     20  HN  UNL     1     -42.301 -55.137  13.129  1.00  0.00     0.186 HD
ENDBRANCH  14  15
ENDBRANCH  13  14
ENDBRANCH  11  13
ENDBRANCH   1  11
TORSDOF 5
ENDMDL
