MODEL 1
REMARK VINA RESULT:      -6.4      0.000      0.000
REMARK  6 active torsions:
REMARK  status: ('A' for Active; 'I' for Inactive)
REMARK    1  A    between atoms: C_2  and  C_3 
REMARK       I    between atoms: C_2  and  N_13 
REMARK    2  A    between atoms: C_3  and  N_4 
REMARK    3  A    between atoms: N_4  and  C_5 
REMARK    4  A    between atoms: C_5  and  C_6 
REMARK    5  A    between atoms: C_6  and  N_7 
REMARK    6  A    between atoms: N_13  and  C_14 
ROOT
HETATM    1  C   UNL     1     -44.262 -52.501  13.938  1.00  0.00     0.122 C 
HETATM    2  C   UNL     1     -45.228 -51.325  13.636  1.00  0.00     0.046 C 
HETATM    3  C   UNL     1     -46.689 -51.519  14.053  1.00  0.00     0.004 C 
HETATM    4  C   UNL     1     -47.021 -51.255  15.518  1.00  0.00     0.000 C 
HETATM    5  C   UNL     1     -45.936 -51.502  16.558  1.00  0.00     0.000 C 
HETATM    6  C   UNL     1     -45.137 -52.788  16.381  1.00  0.00     0.004 C 
HETATM    7  C   UNL     1     -43.933 -52.630  15.442  1.00  0.00     0.046 C 
HETATM    8  C   UNL     1     -44.867 -53.787  13.466  1.00  0.00     0.091 C 
HETATM    9  N   UNL     1     -45.292 -54.792  13.070  1.00  0.00    -0.195 NA
ENDROOT
BRANCH   1  10
HETATM   10  N   UNL     1     -43.009 -52.341  13.157  1.00  0.00    -0.338 N 
HETATM   11  C   UNL     1     -41.912 -53.169  13.225  1.00  0.00     0.247 C 
HETATM   12  O   UNL     1     -41.838 -54.147  13.962  1.00  0.00    -0.272 OA
HETATM   13  H   UNL     1     -43.015 -51.627  12.437  1.00  0.00     0.164 HD
BRANCH  11  14
HETATM   14  C   UNL     1     -40.758 -52.746  12.300  1.00  0.00     0.371 C 
BRANCH  14  15
HETATM   15  N   UNL     1     -41.169 -51.713  11.331  1.00  0.00     0.093 N 
HETATM   16  H   UNL     1     -42.159 -51.517  11.510  1.00  0.00     0.316 HD
BRANCH  15  17
HETATM   17  C   UNL     1     -40.435 -50.442  11.482  1.00  0.00     0.291 C 
BRANCH  17  18
HETATM   18  C   UNL     1     -41.210 -49.342  12.210  1.00  0.00     0.178 C 
BRANCH  18  19
HETATM   19  N   UNL     1     -42.055 -48.597  11.298  1.00  0.00    -0.302 N 
HETATM   20  C   UNL     1     -43.271 -48.042  11.570  1.00  0.00     0.111 A 
HETATM   21  C   UNL     1     -43.695 -47.470  10.393  1.00  0.00     0.037 A 
HETATM   22  C   UNL     1     -42.667 -47.739   9.472  1.00  0.00     0.108 A 
HETATM   23  N   UNL     1     -41.662 -48.428  10.019  1.00  0.00    -0.310 N 
ATOM     24  HN  UNL     1     -40.802 -48.750   9.576  1.00  0.00     0.186 HD
ENDBRANCH  18  19
ENDBRANCH  17  18
ENDBRANCH  15  17
ENDBRANCH  14  15
ENDBRANCH  11  14
ENDBRANCH   1  10
TORSDOF 6
ENDMDL
MODEL 2
REMARK VINA RESULT:      -6.2      2.336      3.334
REMARK  6 active torsions:
REMARK  status: ('A' for Active; 'I' for Inactive)
REMARK    1  A    between atoms: C_2  and  C_3 
REMARK       I    between atoms: C_2  and  N_13 
REMARK    2  A    between atoms: C_3  and  N_4 
REMARK    3  A    between atoms: N_4  and  C_5 
REMARK    4  A    between atoms: C_5  and  C_6 
REMARK    5  A    between atoms: C_6  and  N_7 
REMARK    6  A    between atoms: N_13  and  C_14 
ROOT
HETATM    1  C   UNL     1     -45.162 -51.822  13.056  1.00  0.00     0.122 C 
HETATM    2  C   UNL     1     -45.698 -51.722  14.508  1.00  0.00     0.046 C 
HETATM    3  C   UNL     1     -46.755 -52.754  14.915  1.00  0.00     0.004 C 
HETATM    4  C   UNL     1     -46.242 -54.129  15.328  1.00  0.00     0.000 C 
HETATM    5  C   UNL     1     -44.947 -54.633  14.703  1.00  0.00     0.000 C 
HETATM    6  C   UNL     1     -44.812 -54.404  13.202  1.00  0.00     0.004 C 
HETATM    7  C   UNL     1     -44.223 -53.031  12.848  1.00  0.00     0.046 C 
HETATM    8  C   UNL     1     -46.308 -51.933  12.098  1.00  0.00     0.091 C 
HETATM    9  N   UNL     1     -47.178 -51.976  11.332  1.00  0.00    -0.195 NA
ENDROOT
BRANCH   1  10
HETATM   10  N   UNL     1     -44.458 -50.566  12.687  1.00  0.00    -0.338 N 
HETATM   11  C   UNL     1     -43.215 -50.183  13.135  1.00  0.00     0.247 C 
HETATM   12  O   UNL     1     -42.536 -50.844  13.915  1.00  0.00    -0.272 OA
HETATM   13  H   UNL     1     -44.890 -50.005  11.960  1.00  0.00     0.164 HD
BRANCH  11  14
HETATM   14  C   UNL     1     -42.750 -48.824  12.585  1.00  0.00     0.371 C 
BRANCH  14  15
HETATM   15  N   UNL     1     -42.555 -48.850  11.123  1.00  0.00     0.093 N 
HETATM   16  H   UNL     1     -43.261 -49.489  10.742  1.00  0.00     0.316 HD
BRANCH  15  17
HETATM   17  C   UNL     1     -42.758 -47.538  10.481  1.00  0.00     0.291 C 
BRANCH  17  18
HETATM   18  C   UNL     1     -43.290 -47.607   9.048  1.00  0.00     0.178 C 
BRANCH  18  19
HETATM   19  N   UNL     1     -44.724 -47.394   9.005  1.00  0.00    -0.302 N 
HETATM   20  C   UNL     1     -45.377 -46.199   8.931  1.00  0.00     0.111 A 
HETATM   21  C   UNL     1     -46.719 -46.501   8.945  1.00  0.00     0.037 A 
HETATM   22  C   UNL     1     -46.769 -47.905   9.035  1.00  0.00     0.108 A 
HETATM   23  N   UNL     1     -45.553 -48.455   9.071  1.00  0.00    -0.310 N 
ATOM     24  HN  UNL     1     -45.309 -49.444   9.134  1.00  0.00     0.186 HD
ENDBRANCH  18  19
ENDBRANCH  17  18
ENDBRANCH  15  17
ENDBRANCH  14  15
ENDBRANCH  11  14
ENDBRANCH   1  10
TORSDOF 6
ENDMDL
MODEL 3
REMARK VINA RESULT:      -6.1      1.731      2.182
REMARK  6 active torsions:
REMARK  status: ('A' for Active; 'I' for Inactive)
REMARK    1  A    between atoms: C_2  and  C_3 
REMARK       I    between atoms: C_2  and  N_13 
REMARK    2  A    between atoms: C_3  and  N_4 
REMARK    3  A    between atoms: N_4  and  C_5 
REMARK    4  A    between atoms: C_5  and  C_6 
REMARK    5  A    between atoms: C_6  and  N_7 
REMARK    6  A    between atoms: N_13  and  C_14 
ROOT
HETATM    1  C   UNL     1     -44.165 -51.917  13.473  1.00  0.00     0.122 C 
HETATM    2  C   UNL     1     -45.409 -51.005  13.309  1.00  0.00     0.046 C 
HETATM    3  C   UNL     1     -46.745 -51.584  13.785  1.00  0.00     0.004 C 
HETATM    4  C   UNL     1     -47.032 -51.500  15.280  1.00  0.00     0.000 C 
HETATM    5  C   UNL     1     -45.851 -51.530  16.243  1.00  0.00     0.000 C 
HETATM    6  C   UNL     1     -44.774 -52.562  15.928  1.00  0.00     0.004 C 
HETATM    7  C   UNL     1     -43.713 -52.051  14.944  1.00  0.00     0.046 C 
HETATM    8  C   UNL     1     -44.465 -53.284  12.936  1.00  0.00     0.091 C 
HETATM    9  N   UNL     1     -44.656 -54.336  12.488  1.00  0.00    -0.195 NA
ENDROOT
BRANCH   1  10
HETATM   10  N   UNL     1     -43.046 -51.402  12.643  1.00  0.00    -0.338 N 
HETATM   11  C   UNL     1     -42.449 -50.171  12.779  1.00  0.00     0.247 C 
HETATM   12  O   UNL     1     -42.788 -49.334  13.611  1.00  0.00    -0.272 OA
HETATM   13  H   UNL     1     -42.621 -52.063  12.001  1.00  0.00     0.164 HD
BRANCH  11  14
HETATM   14  C   UNL     1     -41.317 -49.916  11.769  1.00  0.00     0.371 C 
BRANCH  14  15
HETATM   15  N   UNL     1     -40.746 -48.562  11.899  1.00  0.00     0.093 N 
HETATM   16  H   UNL     1     -39.727 -48.666  11.861  1.00  0.00     0.316 HD
BRANCH  15  17
HETATM   17  C   UNL     1     -41.137 -47.652  10.806  1.00  0.00     0.291 C 
BRANCH  17  18
HETATM   18  C   UNL     1     -42.550 -47.079  10.929  1.00  0.00     0.178 C 
BRANCH  18  19
HETATM   19  N   UNL     1     -43.354 -47.398   9.766  1.00  0.00    -0.302 N 
HETATM   20  C   UNL     1     -44.714 -47.359   9.671  1.00  0.00     0.111 A 
HETATM   21  C   UNL     1     -45.014 -47.771   8.393  1.00  0.00     0.037 A 
HETATM   22  C   UNL     1     -43.766 -48.040   7.801  1.00  0.00     0.108 A 
HETATM   23  N   UNL     1     -42.749 -47.814   8.636  1.00  0.00    -0.310 N 
ATOM     24  HN  UNL     1     -41.750 -47.928   8.460  1.00  0.00     0.186 HD
ENDBRANCH  18  19
ENDBRANCH  17  18
ENDBRANCH  15  17
ENDBRANCH  14  15
ENDBRANCH  11  14
ENDBRANCH   1  10
TORSDOF 6
ENDMDL
MODEL 4
REMARK VINA RESULT:      -6.0      1.860      2.181
REMARK  6 active torsions:
REMARK  status: ('A' for Active; 'I' for Inactive)
REMARK    1  A    between atoms: C_2  and  C_3 
REMARK       I    between atoms: C_2  and  N_13 
REMARK    2  A    between atoms: C_3  and  N_4 
REMARK    3  A    between atoms: N_4  and  C_5 
REMARK    4  A    between atoms: C_5  and  C_6 
REMARK    5  A    between atoms: C_6  and  N_7 
REMARK    6  A    between atoms: N_13  and  C_14 
ROOT
HETATM    1  C   UNL     1     -44.950 -52.615  13.167  1.00  0.00     0.122 C 
HETATM    2  C   UNL     1     -45.008 -51.496  14.241  1.00  0.00     0.046 C 
HETATM    3  C   UNL     1     -46.374 -51.241  14.885  1.00  0.00     0.004 C 
HETATM    4  C   UNL     1     -46.781 -52.179  16.016  1.00  0.00     0.000 C 
HETATM    5  C   UNL     1     -46.251 -53.608  15.993  1.00  0.00     0.000 C 
HETATM    6  C   UNL     1     -46.295 -54.302  14.637  1.00  0.00     0.004 C 
HETATM    7  C   UNL     1     -45.053 -54.031  13.776  1.00  0.00     0.046 C 
HETATM    8  C   UNL     1     -46.065 -52.432  12.184  1.00  0.00     0.091 C 
HETATM    9  N   UNL     1     -46.892 -52.288  11.383  1.00  0.00    -0.195 NA
ENDROOT
BRANCH   1  10
HETATM   10  N   UNL     1     -43.698 -52.493  12.375  1.00  0.00    -0.338 N 
HETATM   11  C   UNL     1     -42.423 -52.658  12.863  1.00  0.00     0.247 C 
HETATM   12  O   UNL     1     -42.166 -52.918  14.035  1.00  0.00    -0.272 OA
HETATM   13  H   UNL     1     -43.809 -52.391  11.372  1.00  0.00     0.164 HD
BRANCH  11  14
HETATM   14  C   UNL     1     -41.325 -52.463  11.804  1.00  0.00     0.371 C 
BRANCH  14  15
HETATM   15  N   UNL     1     -41.198 -51.055  11.383  1.00  0.00     0.093 N 
HETATM   16  H   UNL     1     -42.149 -50.679  11.317  1.00  0.00     0.316 HD
BRANCH  15  17
HETATM   17  C   UNL     1     -40.461 -50.218  12.349  1.00  0.00     0.291 C 
BRANCH  17  18
HETATM   18  C   UNL     1     -39.370 -49.342  11.730  1.00  0.00     0.178 C 
BRANCH  18  19
HETATM   19  N   UNL     1     -39.747 -47.943  11.737  1.00  0.00    -0.302 N 
HETATM   20  C   UNL     1     -39.596 -47.055  12.761  1.00  0.00     0.111 A 
HETATM   21  C   UNL     1     -40.124 -45.867  12.311  1.00  0.00     0.037 A 
HETATM   22  C   UNL     1     -40.572 -46.145  11.006  1.00  0.00     0.108 A 
HETATM   23  N   UNL     1     -40.344 -47.412  10.651  1.00  0.00    -0.310 N 
ATOM     24  HN  UNL     1     -40.568 -47.870   9.767  1.00  0.00     0.186 HD
ENDBRANCH  18  19
ENDBRANCH  17  18
ENDBRANCH  15  17
ENDBRANCH  14  15
ENDBRANCH  11  14
ENDBRANCH   1  10
TORSDOF 6
ENDMDL
MODEL 5
REMARK VINA RESULT:      -5.9      1.874      2.645
REMARK  6 active torsions:
REMARK  status: ('A' for Active; 'I' for Inactive)
REMARK    1  A    between atoms: C_2  and  C_3 
REMARK       I    between atoms: C_2  and  N_13 
REMARK    2  A    between atoms: C_3  and  N_4 
REMARK    3  A    between atoms: N_4  and  C_5 
REMARK    4  A    between atoms: C_5  and  C_6 
REMARK    5  A    between atoms: C_6  and  N_7 
REMARK    6  A    between atoms: N_13  and  C_14 
ROOT
HETATM    1  C   UNL     1     -43.422 -51.988  13.223  1.00  0.00     0.122 C 
HETATM    2  C   UNL     1     -44.404 -52.942  12.493  1.00  0.00     0.046 C 
HETATM    3  C   UNL     1     -45.300 -53.808  13.385  1.00  0.00     0.004 C 
HETATM    4  C   UNL     1     -46.553 -53.143  13.945  1.00  0.00     0.000 C 
HETATM    5  C   UNL     1     -46.518 -51.642  14.200  1.00  0.00     0.000 C 
HETATM    6  C   UNL     1     -45.252 -51.119  14.869  1.00  0.00     0.004 C 
HETATM    7  C   UNL     1     -44.135 -50.781  13.872  1.00  0.00     0.046 C 
HETATM    8  C   UNL     1     -42.682 -52.739  14.287  1.00  0.00     0.091 C 
HETATM    9  N   UNL     1     -42.064 -53.306  15.088  1.00  0.00    -0.195 NA
ENDROOT
BRANCH   1  10
HETATM   10  N   UNL     1     -42.380 -51.512  12.276  1.00  0.00    -0.338 N 
HETATM   11  C   UNL     1     -41.308 -50.714  12.600  1.00  0.00     0.247 C 
HETATM   12  O   UNL     1     -41.092 -50.285  13.730  1.00  0.00    -0.272 OA
HETATM   13  H   UNL     1     -42.409 -51.904  11.341  1.00  0.00     0.164 HD
BRANCH  11  14
HETATM   14  C   UNL     1     -40.401 -50.379  11.405  1.00  0.00     0.371 C 
BRANCH  14  15
HETATM   15  N   UNL     1     -41.000 -49.367  10.515  1.00  0.00     0.093 N 
HETATM   16  H   UNL     1     -41.807 -49.810  10.064  1.00  0.00     0.316 HD
BRANCH  15  17
HETATM   17  C   UNL     1     -41.495 -48.176  11.231  1.00  0.00     0.291 C 
BRANCH  17  18
HETATM   18  C   UNL     1     -41.783 -46.970  10.335  1.00  0.00     0.178 C 
BRANCH  18  19
HETATM   19  N   UNL     1     -43.154 -46.977   9.861  1.00  0.00    -0.302 N 
HETATM   20  C   UNL     1     -43.710 -46.140   8.940  1.00  0.00     0.111 A 
HETATM   21  C   UNL     1     -45.031 -46.513   8.841  1.00  0.00     0.037 A 
HETATM   22  C   UNL     1     -45.170 -47.581   9.747  1.00  0.00     0.108 A 
HETATM   23  N   UNL     1     -44.026 -47.868  10.373  1.00  0.00    -0.310 N 
ATOM     24  HN  UNL     1     -43.854 -48.591  11.072  1.00  0.00     0.186 HD
ENDBRANCH  18  19
ENDBRANCH  17  18
ENDBRANCH  15  17
ENDBRANCH  14  15
ENDBRANCH  11  14
ENDBRANCH   1  10
TORSDOF 6
ENDMDL
MODEL 6
REMARK VINA RESULT:      -5.6      2.413      2.594
REMARK  6 active torsions:
REMARK  status: ('A' for Active; 'I' for Inactive)
REMARK    1  A    between atoms: C_2  and  C_3 
REMARK       I    between atoms: C_2  and  N_13 
REMARK    2  A    between atoms: C_3  and  N_4 
REMARK    3  A    between atoms: N_4  and  C_5 
REMARK    4  A    between atoms: C_5  and  C_6 
REMARK    5  A    between atoms: C_6  and  N_7 
REMARK    6  A    between atoms: N_13  and  C_14 
ROOT
HETATM    1  C   UNL     1     -44.087 -51.926  13.383  1.00  0.00     0.122 C 
HETATM    2  C   UNL     1     -45.321 -51.000  13.218  1.00  0.00     0.046 C 
HETATM    3  C   UNL     1     -46.659 -51.556  13.715  1.00  0.00     0.004 C 
HETATM    4  C   UNL     1     -46.930 -51.448  15.211  1.00  0.00     0.000 C 
HETATM    5  C   UNL     1     -45.740 -51.479  16.163  1.00  0.00     0.000 C 
HETATM    6  C   UNL     1     -44.679 -52.528  15.853  1.00  0.00     0.004 C 
HETATM    7  C   UNL     1     -43.621 -52.044  14.851  1.00  0.00     0.046 C 
HETATM    8  C   UNL     1     -44.408 -53.296  12.869  1.00  0.00     0.091 C 
HETATM    9  N   UNL     1     -44.616 -54.352  12.437  1.00  0.00    -0.195 NA
ENDROOT
BRANCH   1  10
HETATM   10  N   UNL     1     -42.969 -51.436  12.535  1.00  0.00    -0.338 N 
HETATM   11  C   UNL     1     -42.295 -50.250  12.706  1.00  0.00     0.247 C 
HETATM   12  O   UNL     1     -42.552 -49.437  13.589  1.00  0.00    -0.272 OA
HETATM   13  H   UNL     1     -42.608 -52.088  11.847  1.00  0.00     0.164 HD
BRANCH  11  14
HETATM   14  C   UNL     1     -41.187 -50.011  11.665  1.00  0.00     0.371 C 
BRANCH  14  15
HETATM   15  N   UNL     1     -39.843 -50.014  12.270  1.00  0.00     0.093 N 
HETATM   16  H   UNL     1     -39.295 -50.724  11.772  1.00  0.00     0.316 HD
BRANCH  15  17
HETATM   17  C   UNL     1     -39.131 -48.730  12.126  1.00  0.00     0.291 C 
BRANCH  17  18
HETATM   18  C   UNL     1     -39.828 -47.539  12.786  1.00  0.00     0.178 C 
BRANCH  18  19
HETATM   19  N   UNL     1     -39.809 -46.372  11.927  1.00  0.00    -0.302 N 
HETATM   20  C   UNL     1     -39.681 -45.069  12.311  1.00  0.00     0.111 A 
HETATM   21  C   UNL     1     -39.748 -44.327  11.154  1.00  0.00     0.037 A 
HETATM   22  C   UNL     1     -39.923 -45.276  10.130  1.00  0.00     0.108 A 
HETATM   23  N   UNL     1     -39.962 -46.526  10.596  1.00  0.00    -0.310 N 
ATOM     24  HN  UNL     1     -40.078 -47.393  10.071  1.00  0.00     0.186 HD
ENDBRANCH  18  19
ENDBRANCH  17  18
ENDBRANCH  15  17
ENDBRANCH  14  15
ENDBRANCH  11  14
ENDBRANCH   1  10
TORSDOF 6
ENDMDL
MODEL 7
REMARK VINA RESULT:      -5.5      2.629      3.158
REMARK  6 active torsions:
REMARK  status: ('A' for Active; 'I' for Inactive)
REMARK    1  A    between atoms: C_2  and  C_3 
REMARK       I    between atoms: C_2  and  N_13 
REMARK    2  A    between atoms: C_3  and  N_4 
REMARK    3  A    between atoms: N_4  and  C_5 
REMARK    4  A    between atoms: C_5  and  C_6 
REMARK    5  A    between atoms: C_6  and  N_7 
REMARK    6  A    between atoms: N_13  and  C_14 
ROOT
HETATM    1  C   UNL     1     -44.975 -53.114  15.429  1.00  0.00     0.122 C 
HETATM    2  C   UNL     1     -45.557 -51.752  14.966  1.00  0.00     0.046 C 
HETATM    3  C   UNL     1     -47.060 -51.547  15.177  1.00  0.00     0.004 C 
HETATM    4  C   UNL     1     -47.501 -51.123  16.574  1.00  0.00     0.000 C 
HETATM    5  C   UNL     1     -46.662 -51.575  17.762  1.00  0.00     0.000 C 
HETATM    6  C   UNL     1     -46.206 -53.029  17.729  1.00  0.00     0.004 C 
HETATM    7  C   UNL     1     -44.890 -53.235  16.966  1.00  0.00     0.046 C 
HETATM    8  C   UNL     1     -45.824 -54.231  14.905  1.00  0.00     0.091 C 
HETATM    9  N   UNL     1     -46.438 -55.117  14.476  1.00  0.00    -0.195 NA
ENDROOT
BRANCH   1  10
HETATM   10  N   UNL     1     -43.632 -53.321  14.829  1.00  0.00    -0.338 N 
HETATM   11  C   UNL     1     -42.894 -54.481  14.898  1.00  0.00     0.247 C 
HETATM   12  O   UNL     1     -43.265 -55.493  15.485  1.00  0.00    -0.272 OA
HETATM   13  H   UNL     1     -43.287 -52.581  14.228  1.00  0.00     0.164 HD
BRANCH  11  14
HETATM   14  C   UNL     1     -41.534 -54.393  14.186  1.00  0.00     0.371 C 
BRANCH  14  15
HETATM   15  N   UNL     1     -41.676 -54.148  12.739  1.00  0.00     0.093 N 
HETATM   16  H   UNL     1     -42.676 -54.012  12.558  1.00  0.00     0.316 HD
BRANCH  15  17
HETATM   17  C   UNL     1     -40.977 -52.934  12.277  1.00  0.00     0.291 C 
BRANCH  17  18
HETATM   18  C   UNL     1     -40.110 -52.256  13.340  1.00  0.00     0.178 C 
BRANCH  18  19
HETATM   19  N   UNL     1     -39.243 -51.253  12.755  1.00  0.00    -0.302 N 
HETATM   20  C   UNL     1     -38.013 -50.867  13.201  1.00  0.00     0.111 A 
HETATM   21  C   UNL     1     -37.597 -49.874  12.346  1.00  0.00     0.037 A 
HETATM   22  C   UNL     1     -38.649 -49.732  11.422  1.00  0.00     0.108 A 
HETATM   23  N   UNL     1     -39.657 -50.572  11.668  1.00  0.00    -0.310 N 
ATOM     24  HN  UNL     1     -40.533 -50.674  11.155  1.00  0.00     0.186 HD
ENDBRANCH  18  19
ENDBRANCH  17  18
ENDBRANCH  15  17
ENDBRANCH  14  15
ENDBRANCH  11  14
ENDBRANCH   1  10
TORSDOF 6
ENDMDL
MODEL 8
REMARK VINA RESULT:      -5.4      2.262      2.913
REMARK  6 active torsions:
REMARK  status: ('A' for Active; 'I' for Inactive)
REMARK    1  A    between atoms: C_2  and  C_3 
REMARK       I    between atoms: C_2  and  N_13 
REMARK    2  A    between atoms: C_3  and  N_4 
REMARK    3  A    between atoms: N_4  and  C_5 
REMARK    4  A    between atoms: C_5  and  C_6 
REMARK    5  A    between atoms: C_6  and  N_7 
REMARK    6  A    between atoms: N_13  and  C_14 
ROOT
HETATM    1  C   UNL     1     -44.389 -52.868  14.135  1.00  0.00     0.122 C 
HETATM    2  C   UNL     1     -45.410 -51.827  13.607  1.00  0.00     0.046 C 
HETATM    3  C   UNL     1     -46.836 -51.933  14.157  1.00  0.00     0.004 C 
HETATM    4  C   UNL     1     -47.088 -51.306  15.524  1.00  0.00     0.000 C 
HETATM    5  C   UNL     1     -45.934 -51.258  16.518  1.00  0.00     0.000 C 
HETATM    6  C   UNL     1     -45.105 -52.533  16.622  1.00  0.00     0.004 C 
HETATM    7  C   UNL     1     -43.965 -52.601  15.596  1.00  0.00     0.046 C 
HETATM    8  C   UNL     1     -44.977 -54.244  14.049  1.00  0.00     0.091 C 
HETATM    9  N   UNL     1     -45.391 -55.323  13.952  1.00  0.00    -0.195 NA
ENDROOT
BRANCH   1  10
HETATM   10  N   UNL     1     -43.190 -52.894  13.256  1.00  0.00    -0.338 N 
HETATM   11  C   UNL     1     -42.424 -51.804  12.916  1.00  0.00     0.247 C 
HETATM   12  O   UNL     1     -42.653 -50.660  13.297  1.00  0.00    -0.272 OA
HETATM   13  H   UNL     1     -42.854 -53.810  12.981  1.00  0.00     0.164 HD
BRANCH  11  14
HETATM   14  C   UNL     1     -41.248 -52.141  11.983  1.00  0.00     0.371 C 
BRANCH  14  15
HETATM   15  N   UNL     1     -40.816 -50.977  11.187  1.00  0.00     0.093 N 
HETATM   16  H   UNL     1     -41.601 -50.318  11.175  1.00  0.00     0.316 HD
BRANCH  15  17
HETATM   17  C   UNL     1     -39.657 -50.268  11.765  1.00  0.00     0.291 C 
BRANCH  17  18
HETATM   18  C   UNL     1     -39.797 -48.746  11.803  1.00  0.00     0.178 C 
BRANCH  18  19
HETATM   19  N   UNL     1     -39.022 -48.170  12.885  1.00  0.00    -0.302 N 
HETATM   20  C   UNL     1     -39.233 -46.972  13.501  1.00  0.00     0.111 A 
HETATM   21  C   UNL     1     -38.231 -46.848  14.436  1.00  0.00     0.037 A 
HETATM   22  C   UNL     1     -37.467 -48.022  14.300  1.00  0.00     0.108 A 
HETATM   23  N   UNL     1     -37.946 -48.833  13.354  1.00  0.00    -0.310 N 
ATOM     24  HN  UNL     1     -37.583 -49.739  13.056  1.00  0.00     0.186 HD
ENDBRANCH  18  19
ENDBRANCH  17  18
ENDBRANCH  15  17
ENDBRANCH  14  15
ENDBRANCH  11  14
ENDBRANCH   1  10
TORSDOF 6
ENDMDL
MODEL 9
REMARK VINA RESULT:      -5.3      1.776      2.389
REMARK  6 active torsions:
REMARK  status: ('A' for Active; 'I' for Inactive)
REMARK    1  A    between atoms: C_2  and  C_3 
REMARK       I    between atoms: C_2  and  N_13 
REMARK    2  A    between atoms: C_3  and  N_4 
REMARK    3  A    between atoms: N_4  and  C_5 
REMARK    4  A    between atoms: C_5  and  C_6 
REMARK    5  A    between atoms: C_6  and  N_7 
REMARK    6  A    between atoms: N_13  and  C_14 
ROOT
HETATM    1  C   UNL     1     -42.661 -51.964  13.849  1.00  0.00     0.122 C 
HETATM    2  C   UNL     1     -43.125 -52.546  12.488  1.00  0.00     0.046 C 
HETATM    3  C   UNL     1     -44.348 -53.468  12.523  1.00  0.00     0.004 C 
HETATM    4  C   UNL     1     -45.713 -52.789  12.561  1.00  0.00     0.000 C 
HETATM    5  C   UNL     1     -45.821 -51.424  13.229  1.00  0.00     0.000 C 
HETATM    6  C   UNL     1     -45.080 -51.282  14.554  1.00  0.00     0.004 C 
HETATM    7  C   UNL     1     -43.611 -50.870  14.386  1.00  0.00     0.046 C 
HETATM    8  C   UNL     1     -42.570 -53.062  14.865  1.00  0.00     0.091 C 
HETATM    9  N   UNL     1     -42.448 -53.899  15.659  1.00  0.00    -0.195 NA
ENDROOT
BRANCH   1  10
HETATM   10  N   UNL     1     -41.283 -51.423  13.726  1.00  0.00    -0.338 N 
HETATM   11  C   UNL     1     -40.202 -52.094  13.203  1.00  0.00     0.247 C 
HETATM   12  O   UNL     1     -40.252 -53.245  12.779  1.00  0.00    -0.272 OA
HETATM   13  H   UNL     1     -41.164 -50.440  13.946  1.00  0.00     0.164 HD
BRANCH  11  14
HETATM   14  C   UNL     1     -38.900 -51.276  13.213  1.00  0.00     0.371 C 
BRANCH  14  15
HETATM   15  N   UNL     1     -39.151 -49.826  13.124  1.00  0.00     0.093 N 
HETATM   16  H   UNL     1     -38.292 -49.358  13.433  1.00  0.00     0.316 HD
BRANCH  15  17
HETATM   17  C   UNL     1     -39.435 -49.362  11.753  1.00  0.00     0.291 C 
BRANCH  17  18
HETATM   18  C   UNL     1     -39.838 -47.890  11.649  1.00  0.00     0.178 C 
BRANCH  18  19
HETATM   19  N   UNL     1     -41.213 -47.747  11.214  1.00  0.00    -0.302 N 
HETATM   20  C   UNL     1     -42.265 -47.283  11.948  1.00  0.00     0.111 A 
HETATM   21  C   UNL     1     -43.363 -47.359  11.123  1.00  0.00     0.037 A 
HETATM   22  C   UNL     1     -42.869 -47.886   9.916  1.00  0.00     0.108 A 
HETATM   23  N   UNL     1     -41.556 -48.125   9.966  1.00  0.00    -0.310 N 
ATOM     24  HN  UNL     1     -40.955 -48.504   9.234  1.00  0.00     0.186 HD
ENDBRANCH  18  19
ENDBRANCH  17  18
ENDBRANCH  15  17
ENDBRANCH  14  15
ENDBRANCH  11  14
ENDBRANCH   1  10
TORSDOF 6
ENDMDL
