MODEL 1
REMARK VINA RESULT:      -6.0      0.000      0.000
REMARK  5 active torsions:
REMARK  status: ('A' for Active; 'I' for Inactive)
REMARK    1  A    between atoms: C_2  and  C_3 
REMARK    2  A    between atoms: C_2  and  C_14 
REMARK       I    between atoms: C_3  and  N_5 
REMARK    3  A    between atoms: N_5  and  C_6 
REMARK    4  A    between atoms: C_9  and  C_11 
REMARK    5  A    between atoms: C_11  and  O_13 
ROOT
HETATM    1  C   UNL     1     -42.206 -51.901  13.536  1.00  0.00     0.226 C 
HETATM    2  O   UNL     1     -42.169 -52.351  12.393  1.00  0.00    -0.273 OA
HETATM    3  N   UNL     1     -41.105 -51.369  14.172  1.00  0.00    -0.356 N 
HETATM    4  H   UNL     1     -41.194 -51.099  15.142  1.00  0.00     0.162 HD
ENDROOT
BRANCH   1   5
HETATM    5  C   UNL     1     -43.512 -51.889  14.339  1.00  0.00     0.111 C 
HETATM    6  C   UNL     1     -43.274 -51.427  15.775  1.00  0.00     0.025 C 
BRANCH   5   7
HETATM    7  C   UNL     1     -44.247 -53.193  14.206  1.00  0.00     0.010 A 
HETATM    8  C   UNL     1     -45.537 -53.388  13.617  1.00  0.00     0.038 A 
HETATM    9  C   UNL     1     -46.451 -52.399  12.995  1.00  0.00     0.071 C 
HETATM   10  N   UNL     1     -45.913 -54.669  13.670  1.00  0.00    -0.265 N 
HETATM   11  O   UNL     1     -44.880 -55.341  14.279  1.00  0.00    -0.242 OA
ATOM     12  HN  UNL     1     -46.788 -55.067  13.328  1.00  0.00     0.194 HD
HETATM   13  C   UNL     1     -43.886 -54.471  14.594  1.00  0.00     0.081 A 
HETATM   14  C   UNL     1     -42.709 -55.077  15.249  1.00  0.00     0.079 C 
ENDBRANCH   5   7
ENDBRANCH   1   5
BRANCH   3  15
HETATM   15  C   UNL     1     -39.775 -51.297  13.596  1.00  0.00     0.085 C 
HETATM   16  C   UNL     1     -38.637 -51.433  14.612  1.00  0.00     0.026 C 
HETATM   17  C   UNL     1     -37.532 -50.474  14.162  1.00  0.00     0.017 C 
HETATM   18  C   UNL     1     -37.966 -49.908  12.813  1.00  0.00     0.085 C 
HETATM   19  C   UNL     1     -39.489 -50.008  12.821  1.00  0.00     0.040 C 
BRANCH  18  20
HETATM   20  C   UNL     1     -37.344 -50.692  11.674  1.00  0.00     0.143 C 
HETATM   21  O   UNL     1     -36.725 -51.737  11.803  1.00  0.00    -0.650 OA
BRANCH  20  22
HETATM   22  O   UNL     1     -37.507 -50.095  10.471  1.00  0.00    -0.776 OA
HETATM   23  H   UNL     1     -38.312 -49.549  10.399  1.00  0.00     0.167 HD
ENDBRANCH  20  22
ENDBRANCH  18  20
ENDBRANCH   3  15
TORSDOF 5
ENDMDL
MODEL 2
REMARK VINA RESULT:      -5.8      0.713      1.901
REMARK  5 active torsions:
REMARK  status: ('A' for Active; 'I' for Inactive)
REMARK    1  A    between atoms: C_2  and  C_3 
REMARK    2  A    between atoms: C_2  and  C_14 
REMARK       I    between atoms: C_3  and  N_5 
REMARK    3  A    between atoms: N_5  and  C_6 
REMARK    4  A    between atoms: C_9  and  C_11 
REMARK    5  A    between atoms: C_11  and  O_13 
ROOT
HETATM    1  C   UNL     1     -42.154 -51.603  13.128  1.00  0.00     0.226 C 
HETATM    2  O   UNL     1     -42.058 -52.169  12.040  1.00  0.00    -0.273 OA
HETATM    3  N   UNL     1     -41.086 -51.009  13.765  1.00  0.00    -0.356 N 
HETATM    4  H   UNL     1     -41.226 -50.641  14.696  1.00  0.00     0.162 HD
ENDROOT
BRANCH   1   5
HETATM    5  C   UNL     1     -43.502 -51.509  13.853  1.00  0.00     0.111 C 
HETATM    6  C   UNL     1     -43.318 -51.075  15.305  1.00  0.00     0.025 C 
BRANCH   5   7
HETATM    7  C   UNL     1     -44.315 -52.758  13.661  1.00  0.00     0.010 A 
HETATM    8  C   UNL     1     -43.975 -54.074  14.109  1.00  0.00     0.038 A 
HETATM    9  C   UNL     1     -42.784 -54.538  14.861  1.00  0.00     0.071 C 
HETATM   10  N   UNL     1     -44.908 -54.966  13.763  1.00  0.00    -0.265 N 
HETATM   11  O   UNL     1     -45.880 -54.258  13.098  1.00  0.00    -0.242 OA
ATOM     12  HN  UNL     1     -44.900 -55.968  13.955  1.00  0.00     0.194 HD
HETATM   13  C   UNL     1     -45.537 -52.946  13.039  1.00  0.00     0.081 A 
HETATM   14  C   UNL     1     -46.511 -52.075  12.352  1.00  0.00     0.079 C 
ENDBRANCH   5   7
ENDBRANCH   1   5
BRANCH   3  15
HETATM   15  C   UNL     1     -39.726 -50.997  13.258  1.00  0.00     0.085 C 
HETATM   16  C   UNL     1     -38.647 -50.965  14.344  1.00  0.00     0.026 C 
HETATM   17  C   UNL     1     -37.528 -50.060  13.820  1.00  0.00     0.017 C 
HETATM   18  C   UNL     1     -37.890 -49.704  12.382  1.00  0.00     0.085 C 
HETATM   19  C   UNL     1     -39.410 -49.829  12.321  1.00  0.00     0.040 C 
BRANCH  18  20
HETATM   20  C   UNL     1     -37.196 -50.632  11.404  1.00  0.00     0.143 C 
HETATM   21  O   UNL     1     -36.694 -51.705  11.699  1.00  0.00    -0.650 OA
BRANCH  20  22
HETATM   22  O   UNL     1     -37.149 -50.136  10.147  1.00  0.00    -0.776 OA
HETATM   23  H   UNL     1     -36.420 -49.505   9.991  1.00  0.00     0.167 HD
ENDBRANCH  20  22
ENDBRANCH  18  20
ENDBRANCH   3  15
TORSDOF 5
ENDMDL
MODEL 3
REMARK VINA RESULT:      -5.7      3.001      7.460
REMARK  5 active torsions:
REMARK  status: ('A' for Active; 'I' for Inactive)
REMARK    1  A    between atoms: C_2  and  C_3 
REMARK    2  A    between atoms: C_2  and  C_14 
REMARK       I    between atoms: C_3  and  N_5 
REMARK    3  A    between atoms: N_5  and  C_6 
REMARK    4  A    between atoms: C_9  and  C_11 
REMARK    5  A    between atoms: C_11  and  O_13 
ROOT
HETATM    1  C   UNL     1     -42.718 -50.058  13.173  1.00  0.00     0.226 C 
HETATM    2  O   UNL     1     -42.166 -50.860  12.422  1.00  0.00    -0.273 OA
HETATM    3  N   UNL     1     -43.904 -50.326  13.823  1.00  0.00    -0.356 N 
HETATM    4  H   UNL     1     -44.340 -49.585  14.354  1.00  0.00     0.162 HD
ENDROOT
BRANCH   1   5
HETATM    5  C   UNL     1     -42.101 -48.683  13.451  1.00  0.00     0.111 C 
HETATM    6  C   UNL     1     -43.002 -47.845  14.355  1.00  0.00     0.025 C 
BRANCH   5   7
HETATM    7  C   UNL     1     -41.673 -48.008  12.178  1.00  0.00     0.010 A 
HETATM    8  C   UNL     1     -40.336 -47.663  11.803  1.00  0.00     0.038 A 
HETATM    9  C   UNL     1     -39.063 -47.880  12.535  1.00  0.00     0.071 C 
HETATM   10  N   UNL     1     -40.300 -47.058  10.612  1.00  0.00    -0.265 N 
HETATM   11  O   UNL     1     -41.602 -47.006  10.176  1.00  0.00    -0.242 OA
ATOM     12  HN  UNL     1     -39.474 -46.708  10.126  1.00  0.00     0.194 HD
HETATM   13  C   UNL     1     -42.421 -47.573  11.098  1.00  0.00     0.081 A 
HETATM   14  C   UNL     1     -43.853 -47.586  10.739  1.00  0.00     0.079 C 
ENDBRANCH   5   7
ENDBRANCH   1   5
BRANCH   3  15
HETATM   15  C   UNL     1     -44.657 -51.560  13.687  1.00  0.00     0.085 C 
HETATM   16  C   UNL     1     -46.176 -51.385  13.774  1.00  0.00     0.026 C 
HETATM   17  C   UNL     1     -46.712 -52.600  14.536  1.00  0.00     0.017 C 
HETATM   18  C   UNL     1     -45.530 -53.541  14.748  1.00  0.00     0.085 C 
HETATM   19  C   UNL     1     -44.302 -52.635  14.716  1.00  0.00     0.040 C 
BRANCH  18  20
HETATM   20  C   UNL     1     -45.488 -54.606  13.669  1.00  0.00     0.143 C 
HETATM   21  O   UNL     1     -44.884 -54.505  12.613  1.00  0.00    -0.650 OA
BRANCH  20  22
HETATM   22  O   UNL     1     -46.231 -55.695  13.973  1.00  0.00    -0.776 OA
HETATM   23  H   UNL     1     -46.505 -55.746  14.908  1.00  0.00     0.167 HD
ENDBRANCH  20  22
ENDBRANCH  18  20
ENDBRANCH   3  15
TORSDOF 5
ENDMDL
MODEL 4
REMARK VINA RESULT:      -5.6      4.533      5.875
REMARK  5 active torsions:
REMARK  status: ('A' for Active; 'I' for Inactive)
REMARK    1  A    between atoms: C_2  and  C_3 
REMARK    2  A    between atoms: C_2  and  C_14 
REMARK       I    between atoms: C_3  and  N_5 
REMARK    3  A    between atoms: N_5  and  C_6 
REMARK    4  A    between atoms: C_9  and  C_11 
REMARK    5  A    between atoms: C_11  and  O_13 
ROOT
HETATM    1  C   UNL     1     -43.101 -49.059  13.235  1.00  0.00     0.226 C 
HETATM    2  O   UNL     1     -42.782 -48.077  13.903  1.00  0.00    -0.273 OA
HETATM    3  N   UNL     1     -43.500 -48.976  11.918  1.00  0.00    -0.356 N 
HETATM    4  H   UNL     1     -43.830 -49.816  11.462  1.00  0.00     0.162 HD
ENDROOT
BRANCH   1   5
HETATM    5  C   UNL     1     -43.061 -50.470  13.833  1.00  0.00     0.111 C 
HETATM    6  C   UNL     1     -42.818 -50.425  15.340  1.00  0.00     0.025 C 
BRANCH   5   7
HETATM    7  C   UNL     1     -42.128 -51.363  13.065  1.00  0.00     0.010 A 
HETATM    8  C   UNL     1     -42.466 -52.594  12.418  1.00  0.00     0.038 A 
HETATM    9  C   UNL     1     -43.775 -53.285  12.326  1.00  0.00     0.071 C 
HETATM   10  N   UNL     1     -41.400 -53.151  11.835  1.00  0.00    -0.265 N 
HETATM   11  O   UNL     1     -40.350 -52.297  12.073  1.00  0.00    -0.242 OA
ATOM     12  HN  UNL     1     -41.373 -54.030  11.318  1.00  0.00     0.194 HD
HETATM   13  C   UNL     1     -40.776 -51.230  12.797  1.00  0.00     0.081 A 
HETATM   14  C   UNL     1     -39.736 -50.231  13.112  1.00  0.00     0.079 C 
ENDBRANCH   5   7
ENDBRANCH   1   5
BRANCH   3  15
HETATM   15  C   UNL     1     -43.619 -47.739  11.169  1.00  0.00     0.085 C 
HETATM   16  C   UNL     1     -44.738 -47.738  10.124  1.00  0.00     0.026 C 
HETATM   17  C   UNL     1     -44.205 -46.965   8.913  1.00  0.00     0.017 C 
HETATM   18  C   UNL     1     -42.851 -46.393   9.322  1.00  0.00     0.085 C 
HETATM   19  C   UNL     1     -42.349 -47.327  10.420  1.00  0.00     0.040 C 
BRANCH  18  20
HETATM   20  C   UNL     1     -42.992 -44.962   9.802  1.00  0.00     0.143 C 
HETATM   21  O   UNL     1     -42.205 -44.395  10.543  1.00  0.00    -0.650 OA
BRANCH  20  22
HETATM   22  O   UNL     1     -44.119 -44.363   9.354  1.00  0.00    -0.776 OA
HETATM   23  H   UNL     1     -44.934 -44.882   9.496  1.00  0.00     0.167 HD
ENDBRANCH  20  22
ENDBRANCH  18  20
ENDBRANCH   3  15
TORSDOF 5
ENDMDL
MODEL 5
REMARK VINA RESULT:      -5.6      4.206      5.187
REMARK  5 active torsions:
REMARK  status: ('A' for Active; 'I' for Inactive)
REMARK    1  A    between atoms: C_2  and  C_3 
REMARK    2  A    between atoms: C_2  and  C_14 
REMARK       I    between atoms: C_3  and  N_5 
REMARK    3  A    between atoms: N_5  and  C_6 
REMARK    4  A    between atoms: C_9  and  C_11 
REMARK    5  A    between atoms: C_11  and  O_13 
ROOT
HETATM    1  C   UNL     1     -42.906 -49.218  13.386  1.00  0.00     0.226 C 
HETATM    2  O   UNL     1     -42.068 -48.429  13.819  1.00  0.00    -0.273 OA
HETATM    3  N   UNL     1     -43.454 -49.119  12.125  1.00  0.00    -0.356 N 
HETATM    4  H   UNL     1     -44.200 -49.752  11.874  1.00  0.00     0.162 HD
ENDROOT
BRANCH   1   5
HETATM    5  C   UNL     1     -43.395 -50.396  14.236  1.00  0.00     0.111 C 
HETATM    6  C   UNL     1     -42.363 -50.783  15.292  1.00  0.00     0.025 C 
BRANCH   5   7
HETATM    7  C   UNL     1     -43.877 -51.529  13.374  1.00  0.00     0.010 A 
HETATM    8  C   UNL     1     -43.065 -52.407  12.588  1.00  0.00     0.038 A 
HETATM    9  C   UNL     1     -41.591 -52.441  12.428  1.00  0.00     0.071 C 
HETATM   10  N   UNL     1     -43.806 -53.300  11.925  1.00  0.00    -0.265 N 
HETATM   11  O   UNL     1     -45.111 -53.038  12.270  1.00  0.00    -0.242 OA
ATOM     12  HN  UNL     1     -43.472 -54.028  11.293  1.00  0.00     0.194 HD
HETATM   13  C   UNL     1     -45.159 -51.992  13.134  1.00  0.00     0.081 A 
HETATM   14  C   UNL     1     -46.513 -51.617  13.588  1.00  0.00     0.079 C 
ENDBRANCH   5   7
ENDBRANCH   1   5
BRANCH   3  15
HETATM   15  C   UNL     1     -43.139 -48.073  11.169  1.00  0.00     0.085 C 
HETATM   16  C   UNL     1     -41.714 -48.132  10.613  1.00  0.00     0.026 C 
HETATM   17  C   UNL     1     -41.239 -46.683  10.473  1.00  0.00     0.017 C 
HETATM   18  C   UNL     1     -42.437 -45.797  10.797  1.00  0.00     0.085 C 
HETATM   19  C   UNL     1     -43.318 -46.650  11.704  1.00  0.00     0.040 C 
BRANCH  18  20
HETATM   20  C   UNL     1     -43.154 -45.374   9.530  1.00  0.00     0.143 C 
HETATM   21  O   UNL     1     -43.080 -45.958   8.460  1.00  0.00    -0.650 OA
BRANCH  20  22
HETATM   22  O   UNL     1     -43.874 -44.239   9.683  1.00  0.00    -0.776 OA
HETATM   23  H   UNL     1     -44.839 -44.362   9.600  1.00  0.00     0.167 HD
ENDBRANCH  20  22
ENDBRANCH  18  20
ENDBRANCH   3  15
TORSDOF 5
ENDMDL
MODEL 6
REMARK VINA RESULT:      -5.6      2.225      3.256
REMARK  5 active torsions:
REMARK  status: ('A' for Active; 'I' for Inactive)
REMARK    1  A    between atoms: C_2  and  C_3 
REMARK    2  A    between atoms: C_2  and  C_14 
REMARK       I    between atoms: C_3  and  N_5 
REMARK    3  A    between atoms: N_5  and  C_6 
REMARK    4  A    between atoms: C_9  and  C_11 
REMARK    5  A    between atoms: C_11  and  O_13 
ROOT
HETATM    1  C   UNL     1     -43.734 -53.630  13.554  1.00  0.00     0.226 C 
HETATM    2  O   UNL     1     -43.775 -53.748  12.332  1.00  0.00    -0.273 OA
HETATM    3  N   UNL     1     -42.675 -53.052  14.221  1.00  0.00    -0.356 N 
HETATM    4  H   UNL     1     -42.675 -53.070  15.232  1.00  0.00     0.162 HD
ENDROOT
BRANCH   1   5
HETATM    5  C   UNL     1     -44.891 -54.116  14.435  1.00  0.00     0.111 C 
HETATM    6  C   UNL     1     -45.612 -55.301  13.797  1.00  0.00     0.025 C 
BRANCH   5   7
HETATM    7  C   UNL     1     -45.782 -52.977  14.846  1.00  0.00     0.010 A 
HETATM    8  C   UNL     1     -46.154 -52.625  16.182  1.00  0.00     0.038 A 
HETATM    9  C   UNL     1     -45.767 -53.255  17.468  1.00  0.00     0.071 C 
HETATM   10  N   UNL     1     -46.970 -51.567  16.202  1.00  0.00    -0.265 N 
HETATM   11  O   UNL     1     -47.141 -51.197  14.889  1.00  0.00    -0.242 OA
ATOM     12  HN  UNL     1     -47.382 -51.125  17.024  1.00  0.00     0.194 HD
HETATM   13  C   UNL     1     -46.433 -52.026  14.080  1.00  0.00     0.081 A 
HETATM   14  C   UNL     1     -46.528 -51.724  12.638  1.00  0.00     0.079 C 
ENDBRANCH   5   7
ENDBRANCH   1   5
BRANCH   3  15
HETATM   15  C   UNL     1     -41.477 -52.541  13.580  1.00  0.00     0.085 C 
HETATM   16  C   UNL     1     -40.207 -53.340  13.883  1.00  0.00     0.026 C 
HETATM   17  C   UNL     1     -39.070 -52.322  14.011  1.00  0.00     0.017 C 
HETATM   18  C   UNL     1     -39.654 -50.965  13.630  1.00  0.00     0.085 C 
HETATM   19  C   UNL     1     -41.147 -51.087  13.923  1.00  0.00     0.040 C 
BRANCH  18  20
HETATM   20  C   UNL     1     -39.377 -50.648  12.173  1.00  0.00     0.143 C 
HETATM   21  O   UNL     1     -40.128 -50.023  11.441  1.00  0.00    -0.650 OA
BRANCH  20  22
HETATM   22  O   UNL     1     -38.207 -51.166  11.733  1.00  0.00    -0.776 OA
HETATM   23  H   UNL     1     -38.304 -51.837  11.031  1.00  0.00     0.167 HD
ENDBRANCH  20  22
ENDBRANCH  18  20
ENDBRANCH   3  15
TORSDOF 5
ENDMDL
MODEL 7
REMARK VINA RESULT:      -5.6      3.924      5.544
REMARK  5 active torsions:
REMARK  status: ('A' for Active; 'I' for Inactive)
REMARK    1  A    between atoms: C_2  and  C_3 
REMARK    2  A    between atoms: C_2  and  C_14 
REMARK       I    between atoms: C_3  and  N_5 
REMARK    3  A    between atoms: N_5  and  C_6 
REMARK    4  A    between atoms: C_9  and  C_11 
REMARK    5  A    between atoms: C_11  and  O_13 
ROOT
HETATM    1  C   UNL     1     -41.556 -50.422  12.374  1.00  0.00     0.226 C 
HETATM    2  O   UNL     1     -41.068 -50.967  11.386  1.00  0.00    -0.273 OA
HETATM    3  N   UNL     1     -42.166 -49.187  12.329  1.00  0.00    -0.356 N 
HETATM    4  H   UNL     1     -42.465 -48.766  13.198  1.00  0.00     0.162 HD
ENDROOT
BRANCH   1   5
HETATM    5  C   UNL     1     -41.527 -51.103  13.748  1.00  0.00     0.111 C 
HETATM    6  C   UNL     1     -41.380 -50.078  14.870  1.00  0.00     0.025 C 
BRANCH   5   7
HETATM    7  C   UNL     1     -40.532 -52.228  13.780  1.00  0.00     0.010 A 
HETATM    8  C   UNL     1     -40.828 -53.628  13.813  1.00  0.00     0.038 A 
HETATM    9  C   UNL     1     -42.142 -54.316  13.814  1.00  0.00     0.071 C 
HETATM   10  N   UNL     1     -39.713 -54.365  13.851  1.00  0.00    -0.265 N 
HETATM   11  O   UNL     1     -38.669 -53.471  13.830  1.00  0.00    -0.242 OA
ATOM     12  HN  UNL     1     -39.651 -55.382  13.888  1.00  0.00     0.194 HD
HETATM   13  C   UNL     1     -39.148 -52.202  13.781  1.00  0.00     0.081 A 
HETATM   14  C   UNL     1     -38.117 -51.145  13.745  1.00  0.00     0.079 C 
ENDBRANCH   5   7
ENDBRANCH   1   5
BRANCH   3  15
HETATM   15  C   UNL     1     -42.288 -48.370  11.135  1.00  0.00     0.085 C 
HETATM   16  C   UNL     1     -41.193 -47.311  10.980  1.00  0.00     0.026 C 
HETATM   17  C   UNL     1     -41.869 -46.069  10.391  1.00  0.00     0.017 C 
HETATM   18  C   UNL     1     -43.305 -46.465  10.065  1.00  0.00     0.085 C 
HETATM   19  C   UNL     1     -43.615 -47.619  11.014  1.00  0.00     0.040 C 
BRANCH  18  20
HETATM   20  C   UNL     1     -43.437 -46.865   8.608  1.00  0.00     0.143 C 
HETATM   21  O   UNL     1     -44.095 -47.811   8.202  1.00  0.00    -0.650 OA
BRANCH  20  22
HETATM   22  O   UNL     1     -42.711 -46.084   7.777  1.00  0.00    -0.776 OA
HETATM   23  H   UNL     1     -42.098 -45.474   8.232  1.00  0.00     0.167 HD
ENDBRANCH  20  22
ENDBRANCH  18  20
ENDBRANCH   3  15
TORSDOF 5
ENDMDL
MODEL 8
REMARK VINA RESULT:      -5.4      3.132      7.153
REMARK  5 active torsions:
REMARK  status: ('A' for Active; 'I' for Inactive)
REMARK    1  A    between atoms: C_2  and  C_3 
REMARK    2  A    between atoms: C_2  and  C_14 
REMARK       I    between atoms: C_3  and  N_5 
REMARK    3  A    between atoms: N_5  and  C_6 
REMARK    4  A    between atoms: C_9  and  C_11 
REMARK    5  A    between atoms: C_11  and  O_13 
ROOT
HETATM    1  C   UNL     1     -42.371 -50.879  12.575  1.00  0.00     0.226 C 
HETATM    2  O   UNL     1     -41.781 -51.894  12.940  1.00  0.00    -0.273 OA
HETATM    3  N   UNL     1     -43.728 -50.697  12.733  1.00  0.00    -0.356 N 
HETATM    4  H   UNL     1     -44.154 -49.874  12.329  1.00  0.00     0.162 HD
ENDROOT
BRANCH   1   5
HETATM    5  C   UNL     1     -41.614 -49.719  11.918  1.00  0.00     0.111 C 
HETATM    6  C   UNL     1     -40.132 -49.747  12.285  1.00  0.00     0.025 C 
BRANCH   5   7
HETATM    7  C   UNL     1     -42.305 -48.407  12.164  1.00  0.00     0.010 A 
HETATM    8  C   UNL     1     -42.863 -47.539  11.172  1.00  0.00     0.038 A 
HETATM    9  C   UNL     1     -42.917 -47.698   9.699  1.00  0.00     0.071 C 
HETATM   10  N   UNL     1     -43.394 -46.442  11.723  1.00  0.00    -0.265 N 
HETATM   11  O   UNL     1     -43.209 -46.573  13.078  1.00  0.00    -0.242 OA
ATOM     12  HN  UNL     1     -43.844 -45.668  11.235  1.00  0.00     0.194 HD
HETATM   13  C   UNL     1     -42.569 -47.740  13.347  1.00  0.00     0.081 A 
HETATM   14  C   UNL     1     -42.318 -48.001  14.779  1.00  0.00     0.079 C 
ENDBRANCH   5   7
ENDBRANCH   1   5
BRANCH   3  15
HETATM   15  C   UNL     1     -44.628 -51.675  13.317  1.00  0.00     0.085 C 
HETATM   16  C   UNL     1     -46.104 -51.465  12.966  1.00  0.00     0.026 C 
HETATM   17  C   UNL     1     -46.906 -51.817  14.223  1.00  0.00     0.017 C 
HETATM   18  C   UNL     1     -45.910 -52.374  15.235  1.00  0.00     0.085 C 
HETATM   19  C   UNL     1     -44.570 -51.757  14.844  1.00  0.00     0.040 C 
BRANCH  18  20
HETATM   20  C   UNL     1     -45.882 -53.890  15.186  1.00  0.00     0.143 C 
HETATM   21  O   UNL     1     -45.015 -54.587  15.689  1.00  0.00    -0.650 OA
BRANCH  20  22
HETATM   22  O   UNL     1     -46.913 -54.415  14.486  1.00  0.00    -0.776 OA
HETATM   23  H   UNL     1     -47.133 -55.336  14.725  1.00  0.00     0.167 HD
ENDBRANCH  20  22
ENDBRANCH  18  20
ENDBRANCH   3  15
TORSDOF 5
ENDMDL
MODEL 9
REMARK VINA RESULT:      -5.4      4.267      6.601
REMARK  5 active torsions:
REMARK  status: ('A' for Active; 'I' for Inactive)
REMARK    1  A    between atoms: C_2  and  C_3 
REMARK    2  A    between atoms: C_2  and  C_14 
REMARK       I    between atoms: C_3  and  N_5 
REMARK    3  A    between atoms: N_5  and  C_6 
REMARK    4  A    between atoms: C_9  and  C_11 
REMARK    5  A    between atoms: C_11  and  O_13 
ROOT
HETATM    1  C   UNL     1     -41.288 -49.898  11.736  1.00  0.00     0.226 C 
HETATM    2  O   UNL     1     -42.119 -49.568  12.579  1.00  0.00    -0.273 OA
HETATM    3  N   UNL     1     -40.976 -49.121  10.641  1.00  0.00    -0.356 N 
HETATM    4  H   UNL     1     -40.346 -49.499   9.946  1.00  0.00     0.162 HD
ENDROOT
BRANCH   1   5
HETATM    5  C   UNL     1     -40.518 -51.218  11.859  1.00  0.00     0.111 C 
HETATM    6  C   UNL     1     -41.467 -52.395  12.064  1.00  0.00     0.025 C 
BRANCH   5   7
HETATM    7  C   UNL     1     -39.410 -51.112  12.869  1.00  0.00     0.010 A 
HETATM    8  C   UNL     1     -38.077 -50.649  12.628  1.00  0.00     0.038 A 
HETATM    9  C   UNL     1     -37.460 -50.160  11.370  1.00  0.00     0.071 C 
HETATM   10  N   UNL     1     -37.333 -50.694  13.737  1.00  0.00    -0.265 N 
HETATM   11  O   UNL     1     -38.159 -51.170  14.727  1.00  0.00    -0.242 OA
ATOM     12  HN  UNL     1     -36.353 -50.428  13.829  1.00  0.00     0.194 HD
HETATM   13  C   UNL     1     -39.395 -51.414  14.220  1.00  0.00     0.081 A 
HETATM   14  C   UNL     1     -40.381 -51.925  15.193  1.00  0.00     0.079 C 
ENDBRANCH   5   7
ENDBRANCH   1   5
BRANCH   3  15
HETATM   15  C   UNL     1     -41.597 -47.846  10.331  1.00  0.00     0.085 C 
HETATM   16  C   UNL     1     -41.197 -46.703  11.268  1.00  0.00     0.026 C 
HETATM   17  C   UNL     1     -42.453 -45.852  11.479  1.00  0.00     0.017 C 
HETATM   18  C   UNL     1     -43.522 -46.412  10.546  1.00  0.00     0.085 C 
HETATM   19  C   UNL     1     -43.127 -47.870  10.331  1.00  0.00     0.040 C 
BRANCH  18  20
HETATM   20  C   UNL     1     -43.568 -45.630   9.248  1.00  0.00     0.143 C 
HETATM   21  O   UNL     1     -43.208 -46.060   8.163  1.00  0.00    -0.650 OA
BRANCH  20  22
HETATM   22  O   UNL     1     -44.022 -44.366   9.407  1.00  0.00    -0.776 OA
HETATM   23  H   UNL     1     -44.265 -43.918   8.574  1.00  0.00     0.167 HD
ENDBRANCH  20  22
ENDBRANCH  18  20
ENDBRANCH   3  15
TORSDOF 5
ENDMDL
