MODEL 1
REMARK VINA RESULT:      -3.3      0.000      0.000
REMARK  4 active torsions:
REMARK  status: ('A' for Active; 'I' for Inactive)
REMARK    1  A    between atoms: O_1  and  C_2 
REMARK    2  A    between atoms: C_2  and  O_4 
REMARK    3  A    between atoms: C_10  and  N_21 
REMARK    4  A    between atoms: N_14  and  C_15 
ROOT
HETATM    1  C   UNL     1     -46.840 -65.974  14.821  1.00  0.00     0.278 C 
HETATM    2  O   UNL     1     -46.828 -66.600  13.783  1.00  0.00    -0.620 OA
ENDROOT
BRANCH   1   3
HETATM    3  O   UNL     1     -47.395 -66.377  15.963  1.00  0.00    -0.750 OA
HETATM    4  H   UNL     1     -46.678 -66.410  16.625  1.00  0.00     0.170 HD
ENDBRANCH   1   3
BRANCH   1   5
HETATM    5  O   UNL     1     -46.240 -64.794  15.003  1.00  0.00    -0.750 OA
HETATM    6  H   UNL     1     -46.029 -64.762  15.955  1.00  0.00     0.170 HD
ENDBRANCH   1   5
TORSDOF 4
ENDMDL
MODEL 2
REMARK VINA RESULT:      -3.3      1.018      1.781
REMARK  4 active torsions:
REMARK  status: ('A' for Active; 'I' for Inactive)
REMARK    1  A    between atoms: O_1  and  C_2 
REMARK    2  A    between atoms: C_2  and  O_4 
REMARK    3  A    between atoms: C_10  and  N_21 
REMARK    4  A    between atoms: N_14  and  C_15 
ROOT
HETATM    1  C   UNL     1     -47.271 -66.728  14.698  1.00  0.00     0.278 C 
HETATM    2  O   UNL     1     -46.807 -66.957  13.602  1.00  0.00    -0.620 OA
ENDROOT
BRANCH   1   3
HETATM    3  O   UNL     1     -46.829 -65.804  15.550  1.00  0.00    -0.750 OA
HETATM    4  H   UNL     1     -45.877 -65.979  15.681  1.00  0.00     0.170 HD
ENDBRANCH   1   3
BRANCH   1   5
HETATM    5  O   UNL     1     -48.349 -67.333  15.208  1.00  0.00    -0.750 OA
HETATM    6  H   UNL     1     -48.960 -66.608  15.437  1.00  0.00     0.170 HD
ENDBRANCH   1   5
TORSDOF 4
ENDMDL
MODEL 3
REMARK VINA RESULT:      -3.1     18.124     18.969
REMARK  4 active torsions:
REMARK  status: ('A' for Active; 'I' for Inactive)
REMARK    1  A    between atoms: O_1  and  C_2 
REMARK    2  A    between atoms: C_2  and  O_4 
REMARK    3  A    between atoms: C_10  and  N_21 
REMARK    4  A    between atoms: N_14  and  C_15 
ROOT
HETATM    1  C   UNL     1     -35.844 -51.852   8.671  1.00  0.00     0.278 C 
HETATM    2  O   UNL     1     -36.149 -50.687   8.538  1.00  0.00    -0.620 OA
ENDROOT
BRANCH   1   3
HETATM    3  O   UNL     1     -35.060 -52.548   7.849  1.00  0.00    -0.750 OA
HETATM    4  H   UNL     1     -34.333 -52.906   8.395  1.00  0.00     0.170 HD
ENDBRANCH   1   3
BRANCH   1   5
HETATM    5  O   UNL     1     -36.202 -52.617   9.707  1.00  0.00    -0.750 OA
HETATM    6  H   UNL     1     -36.099 -52.045  10.491  1.00  0.00     0.170 HD
ENDBRANCH   1   5
TORSDOF 4
ENDMDL
MODEL 4
REMARK VINA RESULT:      -3.0      9.124      9.675
REMARK  4 active torsions:
REMARK  status: ('A' for Active; 'I' for Inactive)
REMARK    1  A    between atoms: O_1  and  C_2 
REMARK    2  A    between atoms: C_2  and  O_4 
REMARK    3  A    between atoms: C_10  and  N_21 
REMARK    4  A    between atoms: N_14  and  C_15 
ROOT
HETATM    1  C   UNL     1     -51.460 -59.053  19.562  1.00  0.00     0.278 C 
HETATM    2  O   UNL     1     -52.183 -58.483  20.352  1.00  0.00    -0.620 OA
ENDROOT
BRANCH   1   3
HETATM    3  O   UNL     1     -50.200 -58.720  19.286  1.00  0.00    -0.750 OA
HETATM    4  H   UNL     1     -50.124 -58.704  18.312  1.00  0.00     0.170 HD
ENDBRANCH   1   3
BRANCH   1   5
HETATM    5  O   UNL     1     -51.796 -60.152  18.881  1.00  0.00    -0.750 OA
HETATM    6  H   UNL     1     -52.612 -60.474  19.308  1.00  0.00     0.170 HD
ENDBRANCH   1   5
TORSDOF 4
ENDMDL
MODEL 5
REMARK VINA RESULT:      -3.0     29.349     29.651
REMARK  4 active torsions:
REMARK  status: ('A' for Active; 'I' for Inactive)
REMARK    1  A    between atoms: O_1  and  C_2 
REMARK    2  A    between atoms: C_2  and  O_4 
REMARK    3  A    between atoms: C_10  and  N_21 
REMARK    4  A    between atoms: N_14  and  C_15 
ROOT
HETATM    1  C   UNL     1     -27.118 -53.544  -3.434  1.00  0.00     0.278 C 
HETATM    2  O   UNL     1     -27.832 -52.914  -4.185  1.00  0.00    -0.620 OA
ENDROOT
BRANCH   1   3
HETATM    3  O   UNL     1     -26.948 -54.865  -3.451  1.00  0.00    -0.750 OA
HETATM    4  H   UNL     1     -26.005 -55.027  -3.255  1.00  0.00     0.170 HD
ENDBRANCH   1   3
BRANCH   1   5
HETATM    5  O   UNL     1     -26.334 -53.001  -2.497  1.00  0.00    -0.750 OA
HETATM    6  H   UNL     1     -26.867 -53.022  -1.680  1.00  0.00     0.170 HD
ENDBRANCH   1   5
TORSDOF 4
ENDMDL
MODEL 6
REMARK VINA RESULT:      -3.0      9.131      9.583
REMARK  4 active torsions:
REMARK  status: ('A' for Active; 'I' for Inactive)
REMARK    1  A    between atoms: O_1  and  C_2 
REMARK    2  A    between atoms: C_2  and  O_4 
REMARK    3  A    between atoms: C_10  and  N_21 
REMARK    4  A    between atoms: N_14  and  C_15 
ROOT
HETATM    1  C   UNL     1     -51.489 -59.082  19.575  1.00  0.00     0.278 C 
HETATM    2  O   UNL     1     -52.241 -58.464  20.299  1.00  0.00    -0.620 OA
ENDROOT
BRANCH   1   3
HETATM    3  O   UNL     1     -51.803 -60.175  18.882  1.00  0.00    -0.750 OA
HETATM    4  H   UNL     1     -52.100 -59.871  18.003  1.00  0.00     0.170 HD
ENDBRANCH   1   3
BRANCH   1   5
HETATM    5  O   UNL     1     -50.228 -58.726  19.309  1.00  0.00    -0.750 OA
HETATM    6  H   UNL     1     -50.175 -57.783  19.554  1.00  0.00     0.170 HD
ENDBRANCH   1   5
TORSDOF 4
ENDMDL
MODEL 7
REMARK VINA RESULT:      -2.8     18.727     19.038
REMARK  4 active torsions:
REMARK  status: ('A' for Active; 'I' for Inactive)
REMARK    1  A    between atoms: O_1  and  C_2 
REMARK    2  A    between atoms: C_2  and  O_4 
REMARK    3  A    between atoms: C_10  and  N_21 
REMARK    4  A    between atoms: N_14  and  C_15 
ROOT
HETATM    1  C   UNL     1     -46.382 -48.010   8.696  1.00  0.00     0.278 C 
HETATM    2  O   UNL     1     -47.375 -47.377   8.987  1.00  0.00    -0.620 OA
ENDROOT
BRANCH   1   3
HETATM    3  O   UNL     1     -46.141 -48.574   7.513  1.00  0.00    -0.750 OA
HETATM    4  H   UNL     1     -46.402 -49.511   7.594  1.00  0.00     0.170 HD
ENDBRANCH   1   3
BRANCH   1   5
HETATM    5  O   UNL     1     -45.335 -48.195   9.506  1.00  0.00    -0.750 OA
HETATM    6  H   UNL     1     -45.011 -47.296   9.708  1.00  0.00     0.170 HD
ENDBRANCH   1   5
TORSDOF 4
ENDMDL
MODEL 8
REMARK VINA RESULT:      -2.7     10.765     11.182
REMARK  4 active torsions:
REMARK  status: ('A' for Active; 'I' for Inactive)
REMARK    1  A    between atoms: O_1  and  C_2 
REMARK    2  A    between atoms: C_2  and  O_4 
REMARK    3  A    between atoms: C_10  and  N_21 
REMARK    4  A    between atoms: N_14  and  C_15 
ROOT
HETATM    1  C   UNL     1     -45.652 -55.033  14.026  1.00  0.00     0.278 C 
HETATM    2  O   UNL     1     -44.611 -55.469  14.469  1.00  0.00    -0.620 OA
ENDROOT
BRANCH   1   3
HETATM    3  O   UNL     1     -45.771 -54.238  12.963  1.00  0.00    -0.750 OA
HETATM    4  H   UNL     1     -46.051 -54.807  12.221  1.00  0.00     0.170 HD
ENDBRANCH   1   3
BRANCH   1   5
HETATM    5  O   UNL     1     -46.865 -55.331  14.504  1.00  0.00    -0.750 OA
HETATM    6  H   UNL     1     -46.799 -55.185  15.466  1.00  0.00     0.170 HD
ENDBRANCH   1   5
TORSDOF 4
ENDMDL
MODEL 9
REMARK VINA RESULT:      -2.7     20.471     21.324
REMARK  4 active torsions:
REMARK  status: ('A' for Active; 'I' for Inactive)
REMARK    1  A    between atoms: O_1  and  C_2 
REMARK    2  A    between atoms: C_2  and  O_4 
REMARK    3  A    between atoms: C_10  and  N_21 
REMARK    4  A    between atoms: N_14  and  C_15 
ROOT
HETATM    1  C   UNL     1     -43.918 -45.822   8.830  1.00  0.00     0.278 C 
HETATM    2  O   UNL     1     -44.622 -46.760   9.139  1.00  0.00    -0.620 OA
ENDROOT
BRANCH   1   3
HETATM    3  O   UNL     1     -44.087 -44.561   9.228  1.00  0.00    -0.750 OA
HETATM    4  H   UNL     1     -43.582 -44.462  10.058  1.00  0.00     0.170 HD
ENDBRANCH   1   3
BRANCH   1   5
HETATM    5  O   UNL     1     -42.814 -45.914   8.082  1.00  0.00    -0.750 OA
HETATM    6  H   UNL     1     -43.079 -45.588   7.201  1.00  0.00     0.170 HD
ENDBRANCH   1   5
TORSDOF 4
ENDMDL
