MODEL 1
REMARK VINA RESULT:      -6.5      0.000      0.000
REMARK  7 active torsions:
REMARK  status: ('A' for Active; 'I' for Inactive)
REMARK    1  A    between atoms: C_2  and  C_3 
REMARK       I    between atoms: C_2  and  N_13 
REMARK    2  A    between atoms: C_3  and  C_4 
REMARK    3  A    between atoms: C_4  and  S_5 
REMARK    4  A    between atoms: S_5  and  C_8 
REMARK    5  A    between atoms: N_13  and  C_14 
REMARK    6  A    between atoms: C_14  and  C_15 
REMARK    7  A    between atoms: C_15  and  C_16 
ROOT
HETATM    1  O   UNL     1     -41.802 -51.064  13.953  1.00  0.00    -0.274 OA
HETATM    2  C   UNL     1     -42.047 -51.264  12.768  1.00  0.00     0.218 C 
HETATM    3  N   UNL     1     -41.904 -50.324  11.773  1.00  0.00    -0.361 N 
HETATM    4  H   UNL     1     -42.326 -50.531  10.876  1.00  0.00     0.162 HD
ENDROOT
BRANCH   2   5
HETATM    5  C   UNL     1     -42.500 -52.609  12.261  1.00  0.00     0.117 C 
BRANCH   5   6
HETATM    6  C   UNL     1     -42.518 -53.621  13.397  1.00  0.00     0.150 C 
BRANCH   6   7
HETATM    7  S   UNL     1     -44.171 -54.188  13.699  1.00  0.00     0.149 S 
HETATM    8  O   UNL     1     -44.804 -54.379  12.407  1.00  0.00    -0.227 OA
HETATM    9  O   UNL     1     -44.095 -55.283  14.648  1.00  0.00    -0.227 OA
BRANCH   7  10
HETATM   10  C   UNL     1     -44.987 -52.808  14.487  1.00  0.00     0.108 C 
HETATM   11  C   UNL     1     -45.904 -53.192  15.648  1.00  0.00     0.020 C 
HETATM   12  C   UNL     1     -47.116 -52.262  15.560  1.00  0.00     0.001 C 
HETATM   13  C   UNL     1     -46.826 -51.289  14.425  1.00  0.00     0.001 C 
HETATM   14  C   UNL     1     -45.888 -52.056  13.512  1.00  0.00     0.020 C 
ENDBRANCH   7  10
ENDBRANCH   6   7
ENDBRANCH   5   6
ENDBRANCH   2   5
BRANCH   3  15
HETATM   15  C   UNL     1     -41.606 -48.915  12.023  1.00  0.00     0.128 C 
BRANCH  15  16
HETATM   16  C   UNL     1     -41.410 -48.062  10.768  1.00  0.00     0.076 C 
BRANCH  16  17
HETATM   17  C   UNL     1     -42.665 -47.903   9.947  1.00  0.00     0.010 A 
HETATM   18  C   UNL     1     -43.862 -47.578  10.586  1.00  0.00     0.025 A 
HETATM   19  C   UNL     1     -45.014 -47.415   9.824  1.00  0.00     0.003 A 
HETATM   20  C   UNL     1     -44.942 -47.563   8.445  1.00  0.00     0.017 A 
HETATM   21  C   UNL     1     -43.713 -47.864   7.886  1.00  0.00     0.088 A 
HETATM   22  N   UNL     1     -42.577 -48.033   8.601  1.00  0.00    -0.369 N 
ATOM     23  HN  UNL     1     -41.691 -48.250   8.145  1.00  0.00     0.165 HD
ENDBRANCH  16  17
ENDBRANCH  15  16
ENDBRANCH   3  15
TORSDOF 7
ENDMDL
MODEL 2
REMARK VINA RESULT:      -6.0      2.904      4.684
REMARK  7 active torsions:
REMARK  status: ('A' for Active; 'I' for Inactive)
REMARK    1  A    between atoms: C_2  and  C_3 
REMARK       I    between atoms: C_2  and  N_13 
REMARK    2  A    between atoms: C_3  and  C_4 
REMARK    3  A    between atoms: C_4  and  S_5 
REMARK    4  A    between atoms: S_5  and  C_8 
REMARK    5  A    between atoms: N_13  and  C_14 
REMARK    6  A    between atoms: C_14  and  C_15 
REMARK    7  A    between atoms: C_15  and  C_16 
ROOT
HETATM    1  O   UNL     1     -43.989 -50.373  15.032  1.00  0.00    -0.274 OA
HETATM    2  C   UNL     1     -44.434 -50.886  14.010  1.00  0.00     0.218 C 
HETATM    3  N   UNL     1     -43.730 -51.023  12.837  1.00  0.00    -0.361 N 
HETATM    4  H   UNL     1     -44.255 -51.269  12.007  1.00  0.00     0.162 HD
ENDROOT
BRANCH   2   5
HETATM    5  C   UNL     1     -45.820 -51.476  13.950  1.00  0.00     0.117 C 
BRANCH   5   6
HETATM    6  C   UNL     1     -45.915 -52.690  14.861  1.00  0.00     0.150 C 
BRANCH   6   7
HETATM    7  S   UNL     1     -45.486 -54.167  13.978  1.00  0.00     0.149 S 
HETATM    8  O   UNL     1     -46.382 -55.215  14.429  1.00  0.00    -0.227 OA
HETATM    9  O   UNL     1     -45.401 -53.829  12.569  1.00  0.00    -0.227 OA
BRANCH   7  10
HETATM   10  C   UNL     1     -43.849 -54.584  14.562  1.00  0.00     0.108 C 
HETATM   11  C   UNL     1     -43.409 -53.822  15.811  1.00  0.00     0.020 C 
HETATM   12  C   UNL     1     -41.919 -53.523  15.626  1.00  0.00     0.001 C 
HETATM   13  C   UNL     1     -41.504 -54.211  14.333  1.00  0.00     0.001 C 
HETATM   14  C   UNL     1     -42.782 -54.269  13.518  1.00  0.00     0.020 C 
ENDBRANCH   7  10
ENDBRANCH   6   7
ENDBRANCH   5   6
ENDBRANCH   2   5
BRANCH   3  15
HETATM   15  C   UNL     1     -42.420 -50.419  12.600  1.00  0.00     0.128 C 
BRANCH  15  16
HETATM   16  C   UNL     1     -41.410 -51.322  11.888  1.00  0.00     0.076 C 
BRANCH  16  17
HETATM   17  C   UNL     1     -39.975 -50.909  12.107  1.00  0.00     0.010 A 
HETATM   18  C   UNL     1     -39.290 -51.391  13.223  1.00  0.00     0.025 A 
HETATM   19  C   UNL     1     -37.962 -51.022  13.414  1.00  0.00     0.003 A 
HETATM   20  C   UNL     1     -37.346 -50.198  12.480  1.00  0.00     0.017 A 
HETATM   21  C   UNL     1     -38.088 -49.782  11.389  1.00  0.00     0.088 A 
HETATM   22  N   UNL     1     -39.381 -50.119  11.180  1.00  0.00    -0.369 N 
ATOM     23  HN  UNL     1     -39.889 -49.792  10.358  1.00  0.00     0.165 HD
ENDBRANCH  16  17
ENDBRANCH  15  16
ENDBRANCH   3  15
TORSDOF 7
ENDMDL
MODEL 3
REMARK VINA RESULT:      -6.0      1.931      2.714
REMARK  7 active torsions:
REMARK  status: ('A' for Active; 'I' for Inactive)
REMARK    1  A    between atoms: C_2  and  C_3 
REMARK       I    between atoms: C_2  and  N_13 
REMARK    2  A    between atoms: C_3  and  C_4 
REMARK    3  A    between atoms: C_4  and  S_5 
REMARK    4  A    between atoms: S_5  and  C_8 
REMARK    5  A    between atoms: N_13  and  C_14 
REMARK    6  A    between atoms: C_14  and  C_15 
REMARK    7  A    between atoms: C_15  and  C_16 
ROOT
HETATM    1  O   UNL     1     -41.727 -51.023  13.557  1.00  0.00    -0.274 OA
HETATM    2  C   UNL     1     -41.714 -51.564  12.455  1.00  0.00     0.218 C 
HETATM    3  N   UNL     1     -41.029 -51.087  11.361  1.00  0.00    -0.361 N 
HETATM    4  H   UNL     1     -41.253 -51.493  10.461  1.00  0.00     0.162 HD
ENDROOT
BRANCH   2   5
HETATM    5  C   UNL     1     -42.430 -52.864  12.195  1.00  0.00     0.117 C 
BRANCH   5   6
HETATM    6  C   UNL     1     -42.509 -53.686  13.472  1.00  0.00     0.150 C 
BRANCH   6   7
HETATM    7  S   UNL     1     -44.173 -54.227  13.762  1.00  0.00     0.149 S 
HETATM    8  O   UNL     1     -44.795 -54.423  12.465  1.00  0.00    -0.227 OA
HETATM    9  O   UNL     1     -44.124 -55.312  14.723  1.00  0.00    -0.227 OA
BRANCH   7  10
HETATM   10  C   UNL     1     -44.979 -52.827  14.526  1.00  0.00     0.108 C 
HETATM   11  C   UNL     1     -45.898 -53.184  15.693  1.00  0.00     0.020 C 
HETATM   12  C   UNL     1     -47.104 -52.246  15.590  1.00  0.00     0.001 C 
HETATM   13  C   UNL     1     -46.806 -51.296  14.438  1.00  0.00     0.001 C 
HETATM   14  C   UNL     1     -45.874 -52.085  13.539  1.00  0.00     0.020 C 
ENDBRANCH   7  10
ENDBRANCH   6   7
ENDBRANCH   5   6
ENDBRANCH   2   5
BRANCH   3  15
HETATM   15  C   UNL     1     -40.369 -49.783  11.320  1.00  0.00     0.128 C 
BRANCH  15  16
HETATM   16  C   UNL     1     -41.276 -48.610  10.942  1.00  0.00     0.076 C 
BRANCH  16  17
HETATM   17  C   UNL     1     -40.682 -47.262  11.270  1.00  0.00     0.010 A 
HETATM   18  C   UNL     1     -40.348 -46.967  12.591  1.00  0.00     0.025 A 
HETATM   19  C   UNL     1     -39.784 -45.730  12.887  1.00  0.00     0.003 A 
HETATM   20  C   UNL     1     -39.552 -44.826  11.858  1.00  0.00     0.017 A 
HETATM   21  C   UNL     1     -39.891 -45.204  10.571  1.00  0.00     0.088 A 
HETATM   22  N   UNL     1     -40.445 -46.397  10.254  1.00  0.00    -0.369 N 
ATOM     23  HN  UNL     1     -40.675 -46.635   9.289  1.00  0.00     0.165 HD
ENDBRANCH  16  17
ENDBRANCH  15  16
ENDBRANCH   3  15
TORSDOF 7
ENDMDL
MODEL 4
REMARK VINA RESULT:      -5.9      1.321      1.921
REMARK  7 active torsions:
REMARK  status: ('A' for Active; 'I' for Inactive)
REMARK    1  A    between atoms: C_2  and  C_3 
REMARK       I    between atoms: C_2  and  N_13 
REMARK    2  A    between atoms: C_3  and  C_4 
REMARK    3  A    between atoms: C_4  and  S_5 
REMARK    4  A    between atoms: S_5  and  C_8 
REMARK    5  A    between atoms: N_13  and  C_14 
REMARK    6  A    between atoms: C_14  and  C_15 
REMARK    7  A    between atoms: C_15  and  C_16 
ROOT
HETATM    1  O   UNL     1     -40.760 -52.204  14.077  1.00  0.00    -0.274 OA
HETATM    2  C   UNL     1     -41.630 -52.593  13.306  1.00  0.00     0.218 C 
HETATM    3  N   UNL     1     -42.330 -51.780  12.445  1.00  0.00    -0.361 N 
HETATM    4  H   UNL     1     -43.157 -52.168  12.009  1.00  0.00     0.162 HD
ENDROOT
BRANCH   2   5
HETATM    5  C   UNL     1     -41.999 -54.050  13.187  1.00  0.00     0.117 C 
BRANCH   5   6
HETATM    6  C   UNL     1     -42.994 -54.431  14.273  1.00  0.00     0.150 C 
BRANCH   6   7
HETATM    7  S   UNL     1     -44.657 -54.284  13.674  1.00  0.00     0.149 S 
HETATM    8  O   UNL     1     -44.589 -54.226  12.225  1.00  0.00    -0.227 OA
HETATM    9  O   UNL     1     -45.454 -55.301  14.331  1.00  0.00    -0.227 OA
BRANCH   7  10
HETATM   10  C   UNL     1     -45.202 -52.679  14.241  1.00  0.00     0.108 C 
HETATM   11  C   UNL     1     -44.717 -52.303  15.640  1.00  0.00     0.020 C 
HETATM   12  C   UNL     1     -45.877 -51.559  16.308  1.00  0.00     0.001 C 
HETATM   13  C   UNL     1     -46.962 -51.422  15.248  1.00  0.00     0.001 C 
HETATM   14  C   UNL     1     -46.723 -52.599  14.321  1.00  0.00     0.020 C 
ENDBRANCH   7  10
ENDBRANCH   6   7
ENDBRANCH   5   6
ENDBRANCH   2   5
BRANCH   3  15
HETATM   15  C   UNL     1     -42.249 -50.320  12.460  1.00  0.00     0.128 C 
BRANCH  15  16
HETATM   16  C   UNL     1     -41.181 -49.720  11.544  1.00  0.00     0.076 C 
BRANCH  16  17
HETATM   17  C   UNL     1     -41.567 -48.381  10.967  1.00  0.00     0.010 A 
HETATM   18  C   UNL     1     -40.729 -47.283  11.171  1.00  0.00     0.025 A 
HETATM   19  C   UNL     1     -41.080 -46.054  10.624  1.00  0.00     0.003 A 
HETATM   20  C   UNL     1     -42.244 -45.952   9.873  1.00  0.00     0.017 A 
HETATM   21  C   UNL     1     -43.008 -47.092   9.699  1.00  0.00     0.088 A 
HETATM   22  N   UNL     1     -42.696 -48.299  10.223  1.00  0.00    -0.369 N 
ATOM     23  HN  UNL     1     -43.288 -49.115  10.064  1.00  0.00     0.165 HD
ENDBRANCH  16  17
ENDBRANCH  15  16
ENDBRANCH   3  15
TORSDOF 7
ENDMDL
MODEL 5
REMARK VINA RESULT:      -5.8      2.183      4.092
REMARK  7 active torsions:
REMARK  status: ('A' for Active; 'I' for Inactive)
REMARK    1  A    between atoms: C_2  and  C_3 
REMARK       I    between atoms: C_2  and  N_13 
REMARK    2  A    between atoms: C_3  and  C_4 
REMARK    3  A    between atoms: C_4  and  S_5 
REMARK    4  A    between atoms: S_5  and  C_8 
REMARK    5  A    between atoms: N_13  and  C_14 
REMARK    6  A    between atoms: C_14  and  C_15 
REMARK    7  A    between atoms: C_15  and  C_16 
ROOT
HETATM    1  O   UNL     1     -41.895 -50.976  14.112  1.00  0.00    -0.274 OA
HETATM    2  C   UNL     1     -42.251 -51.322  12.991  1.00  0.00     0.218 C 
HETATM    3  N   UNL     1     -42.217 -50.513  11.878  1.00  0.00    -0.361 N 
HETATM    4  H   UNL     1     -42.721 -50.830  11.059  1.00  0.00     0.162 HD
ENDROOT
BRANCH   2   5
HETATM    5  C   UNL     1     -42.731 -52.721  12.700  1.00  0.00     0.117 C 
BRANCH   5   6
HETATM    6  C   UNL     1     -42.927 -53.490  13.998  1.00  0.00     0.150 C 
BRANCH   6   7
HETATM    7  S   UNL     1     -44.428 -54.434  13.942  1.00  0.00     0.149 S 
HETATM    8  O   UNL     1     -44.834 -54.516  12.551  1.00  0.00    -0.227 OA
HETATM    9  O   UNL     1     -44.218 -55.641  14.718  1.00  0.00    -0.227 OA
BRANCH   7  10
HETATM   10  C   UNL     1     -45.633 -53.418  14.785  1.00  0.00     0.108 C 
HETATM   11  C   UNL     1     -46.579 -52.657  13.857  1.00  0.00     0.020 C 
HETATM   12  C   UNL     1     -46.802 -51.288  14.506  1.00  0.00     0.001 C 
HETATM   13  C   UNL     1     -46.075 -51.326  15.843  1.00  0.00     0.001 C 
HETATM   14  C   UNL     1     -44.966 -52.339  15.631  1.00  0.00     0.020 C 
ENDBRANCH   7  10
ENDBRANCH   6   7
ENDBRANCH   5   6
ENDBRANCH   2   5
BRANCH   3  15
HETATM   15  C   UNL     1     -41.917 -49.083  11.922  1.00  0.00     0.128 C 
BRANCH  15  16
HETATM   16  C   UNL     1     -40.506 -48.703  11.465  1.00  0.00     0.076 C 
BRANCH  16  17
HETATM   17  C   UNL     1     -39.415 -49.357  12.277  1.00  0.00     0.010 A 
HETATM   18  C   UNL     1     -38.422 -50.087  11.622  1.00  0.00     0.025 A 
HETATM   19  C   UNL     1     -37.409 -50.674  12.371  1.00  0.00     0.003 A 
HETATM   20  C   UNL     1     -37.399 -50.506  13.750  1.00  0.00     0.017 A 
HETATM   21  C   UNL     1     -38.407 -49.748  14.321  1.00  0.00     0.088 A 
HETATM   22  N   UNL     1     -39.408 -49.170  13.619  1.00  0.00    -0.369 N 
ATOM     23  HN  UNL     1     -40.129 -48.616  14.082  1.00  0.00     0.165 HD
ENDBRANCH  16  17
ENDBRANCH  15  16
ENDBRANCH   3  15
TORSDOF 7
ENDMDL
MODEL 6
REMARK VINA RESULT:      -5.7      3.096      3.878
REMARK  7 active torsions:
REMARK  status: ('A' for Active; 'I' for Inactive)
REMARK    1  A    between atoms: C_2  and  C_3 
REMARK       I    between atoms: C_2  and  N_13 
REMARK    2  A    between atoms: C_3  and  C_4 
REMARK    3  A    between atoms: C_4  and  S_5 
REMARK    4  A    between atoms: S_5  and  C_8 
REMARK    5  A    between atoms: N_13  and  C_14 
REMARK    6  A    between atoms: C_14  and  C_15 
REMARK    7  A    between atoms: C_15  and  C_16 
ROOT
HETATM    1  O   UNL     1     -40.360 -54.484  14.416  1.00  0.00    -0.274 OA
HETATM    2  C   UNL     1     -41.499 -54.391  13.971  1.00  0.00     0.218 C 
HETATM    3  N   UNL     1     -41.819 -53.819  12.761  1.00  0.00    -0.361 N 
HETATM    4  H   UNL     1     -42.795 -53.613  12.589  1.00  0.00     0.162 HD
ENDROOT
BRANCH   2   5
HETATM    5  C   UNL     1     -42.692 -54.951  14.703  1.00  0.00     0.117 C 
BRANCH   5   6
HETATM    6  C   UNL     1     -43.741 -53.869  14.904  1.00  0.00     0.150 C 
BRANCH   6   7
HETATM    7  S   UNL     1     -45.191 -54.222  13.946  1.00  0.00     0.149 S 
HETATM    8  O   UNL     1     -45.036 -53.554  12.667  1.00  0.00    -0.227 OA
HETATM    9  O   UNL     1     -45.420 -55.654  14.002  1.00  0.00    -0.227 OA
BRANCH   7  10
HETATM   10  C   UNL     1     -46.519 -53.399  14.813  1.00  0.00     0.108 C 
HETATM   11  C   UNL     1     -46.873 -52.017  14.265  1.00  0.00     0.020 C 
HETATM   12  C   UNL     1     -47.200 -51.147  15.482  1.00  0.00     0.001 C 
HETATM   13  C   UNL     1     -47.137 -52.067  16.693  1.00  0.00     0.001 C 
HETATM   14  C   UNL     1     -46.170 -53.159  16.279  1.00  0.00     0.020 C 
ENDBRANCH   7  10
ENDBRANCH   6   7
ENDBRANCH   5   6
ENDBRANCH   2   5
BRANCH   3  15
HETATM   15  C   UNL     1     -40.863 -53.092  11.928  1.00  0.00     0.128 C 
BRANCH  15  16
HETATM   16  C   UNL     1     -40.650 -51.626  12.315  1.00  0.00     0.076 C 
BRANCH  16  17
HETATM   17  C   UNL     1     -41.766 -51.059  13.157  1.00  0.00     0.010 A 
HETATM   18  C   UNL     1     -41.513 -50.722  14.487  1.00  0.00     0.025 A 
HETATM   19  C   UNL     1     -42.539 -50.184  15.257  1.00  0.00     0.003 A 
HETATM   20  C   UNL     1     -43.784 -49.978  14.678  1.00  0.00     0.017 A 
HETATM   21  C   UNL     1     -43.947 -50.317  13.346  1.00  0.00     0.088 A 
HETATM   22  N   UNL     1     -42.971 -50.847  12.575  1.00  0.00    -0.369 N 
ATOM     23  HN  UNL     1     -43.135 -51.078  11.595  1.00  0.00     0.165 HD
ENDBRANCH  16  17
ENDBRANCH  15  16
ENDBRANCH   3  15
TORSDOF 7
ENDMDL
MODEL 7
REMARK VINA RESULT:      -5.6      2.964      4.801
REMARK  7 active torsions:
REMARK  status: ('A' for Active; 'I' for Inactive)
REMARK    1  A    between atoms: C_2  and  C_3 
REMARK       I    between atoms: C_2  and  N_13 
REMARK    2  A    between atoms: C_3  and  C_4 
REMARK    3  A    between atoms: C_4  and  S_5 
REMARK    4  A    between atoms: S_5  and  C_8 
REMARK    5  A    between atoms: N_13  and  C_14 
REMARK    6  A    between atoms: C_14  and  C_15 
REMARK    7  A    between atoms: C_15  and  C_16 
ROOT
HETATM    1  O   UNL     1     -43.732 -50.161  13.111  1.00  0.00    -0.274 OA
HETATM    2  C   UNL     1     -42.537 -50.422  13.191  1.00  0.00     0.218 C 
HETATM    3  N   UNL     1     -41.525 -49.521  12.952  1.00  0.00    -0.361 N 
HETATM    4  H   UNL     1     -40.588 -49.893  12.846  1.00  0.00     0.162 HD
ENDROOT
BRANCH   2   5
HETATM    5  C   UNL     1     -42.042 -51.781  13.615  1.00  0.00     0.117 C 
BRANCH   5   6
HETATM    6  C   UNL     1     -40.789 -52.152  12.838  1.00  0.00     0.150 C 
BRANCH   6   7
HETATM    7  S   UNL     1     -39.432 -52.441  13.944  1.00  0.00     0.149 S 
HETATM    8  O   UNL     1     -39.895 -52.127  15.284  1.00  0.00    -0.227 OA
HETATM    9  O   UNL     1     -38.890 -53.752  13.643  1.00  0.00    -0.227 OA
BRANCH   7  10
HETATM   10  C   UNL     1     -38.217 -51.208  13.503  1.00  0.00     0.108 C 
HETATM   11  C   UNL     1     -38.235 -49.958  14.381  1.00  0.00     0.020 C 
HETATM   12  C   UNL     1     -37.959 -48.776  13.447  1.00  0.00     0.001 C 
HETATM   13  C   UNL     1     -37.677 -49.373  12.076  1.00  0.00     0.001 C 
HETATM   14  C   UNL     1     -38.431 -50.689  12.084  1.00  0.00     0.020 C 
ENDBRANCH   7  10
ENDBRANCH   6   7
ENDBRANCH   5   6
ENDBRANCH   2   5
BRANCH   3  15
HETATM   15  C   UNL     1     -41.740 -48.184  12.403  1.00  0.00     0.128 C 
BRANCH  15  16
HETATM   16  C   UNL     1     -41.419 -48.035  10.914  1.00  0.00     0.076 C 
BRANCH  16  17
HETATM   17  C   UNL     1     -42.645 -47.889  10.047  1.00  0.00     0.010 A 
HETATM   18  C   UNL     1     -43.874 -47.610  10.645  1.00  0.00     0.025 A 
HETATM   19  C   UNL     1     -44.999 -47.459   9.841  1.00  0.00     0.003 A 
HETATM   20  C   UNL     1     -44.869 -47.570   8.463  1.00  0.00     0.017 A 
HETATM   21  C   UNL     1     -43.610 -47.825   7.947  1.00  0.00     0.088 A 
HETATM   22  N   UNL     1     -42.500 -47.982   8.703  1.00  0.00    -0.369 N 
ATOM     23  HN  UNL     1     -41.591 -48.165   8.278  1.00  0.00     0.165 HD
ENDBRANCH  16  17
ENDBRANCH  15  16
ENDBRANCH   3  15
TORSDOF 7
ENDMDL
MODEL 8
REMARK VINA RESULT:      -5.5      2.990      3.937
REMARK  7 active torsions:
REMARK  status: ('A' for Active; 'I' for Inactive)
REMARK    1  A    between atoms: C_2  and  C_3 
REMARK       I    between atoms: C_2  and  N_13 
REMARK    2  A    between atoms: C_3  and  C_4 
REMARK    3  A    between atoms: C_4  and  S_5 
REMARK    4  A    between atoms: S_5  and  C_8 
REMARK    5  A    between atoms: N_13  and  C_14 
REMARK    6  A    between atoms: C_14  and  C_15 
REMARK    7  A    between atoms: C_15  and  C_16 
ROOT
HETATM    1  O   UNL     1     -41.139 -53.244  14.900  1.00  0.00    -0.274 OA
HETATM    2  C   UNL     1     -41.738 -53.968  14.112  1.00  0.00     0.218 C 
HETATM    3  N   UNL     1     -41.616 -53.898  12.743  1.00  0.00    -0.361 N 
HETATM    4  H   UNL     1     -42.303 -54.396  12.191  1.00  0.00     0.162 HD
ENDROOT
BRANCH   2   5
HETATM    5  C   UNL     1     -42.660 -55.066  14.577  1.00  0.00     0.117 C 
BRANCH   5   6
HETATM    6  C   UNL     1     -43.931 -54.472  15.164  1.00  0.00     0.150 C 
BRANCH   6   7
HETATM    7  S   UNL     1     -45.208 -54.394  13.936  1.00  0.00     0.149 S 
HETATM    8  O   UNL     1     -44.559 -54.411  12.638  1.00  0.00    -0.227 OA
HETATM    9  O   UNL     1     -46.204 -55.394  14.271  1.00  0.00    -0.227 OA
BRANCH   7  10
HETATM   10  C   UNL     1     -45.936 -52.775  14.141  1.00  0.00     0.108 C 
HETATM   11  C   UNL     1     -44.956 -51.692  14.590  1.00  0.00     0.020 C 
HETATM   12  C   UNL     1     -45.725 -50.800  15.568  1.00  0.00     0.001 C 
HETATM   13  C   UNL     1     -47.158 -51.315  15.578  1.00  0.00     0.001 C 
HETATM   14  C   UNL     1     -47.026 -52.780  15.208  1.00  0.00     0.020 C 
ENDBRANCH   7  10
ENDBRANCH   6   7
ENDBRANCH   5   6
ENDBRANCH   2   5
BRANCH   3  15
HETATM   15  C   UNL     1     -40.889 -52.840  12.045  1.00  0.00     0.128 C 
BRANCH  15  16
HETATM   16  C   UNL     1     -41.556 -51.464  12.079  1.00  0.00     0.076 C 
BRANCH  16  17
HETATM   17  C   UNL     1     -40.632 -50.359  12.527  1.00  0.00     0.010 A 
HETATM   18  C   UNL     1     -40.411 -49.270  11.683  1.00  0.00     0.025 A 
HETATM   19  C   UNL     1     -39.572 -48.244  12.107  1.00  0.00     0.003 A 
HETATM   20  C   UNL     1     -38.989 -48.321  13.365  1.00  0.00     0.017 A 
HETATM   21  C   UNL     1     -39.277 -49.423  14.150  1.00  0.00     0.088 A 
HETATM   22  N   UNL     1     -40.084 -50.437  13.764  1.00  0.00    -0.369 N 
ATOM     23  HN  UNL     1     -40.271 -51.229  14.379  1.00  0.00     0.165 HD
ENDBRANCH  16  17
ENDBRANCH  15  16
ENDBRANCH   3  15
TORSDOF 7
ENDMDL
MODEL 9
REMARK VINA RESULT:      -5.5      3.467      5.997
REMARK  7 active torsions:
REMARK  status: ('A' for Active; 'I' for Inactive)
REMARK    1  A    between atoms: C_2  and  C_3 
REMARK       I    between atoms: C_2  and  N_13 
REMARK    2  A    between atoms: C_3  and  C_4 
REMARK    3  A    between atoms: C_4  and  S_5 
REMARK    4  A    between atoms: S_5  and  C_8 
REMARK    5  A    between atoms: N_13  and  C_14 
REMARK    6  A    between atoms: C_14  and  C_15 
REMARK    7  A    between atoms: C_15  and  C_16 
ROOT
HETATM    1  O   UNL     1     -41.385 -52.271  15.342  1.00  0.00    -0.274 OA
HETATM    2  C   UNL     1     -40.789 -52.495  14.293  1.00  0.00     0.218 C 
HETATM    3  N   UNL     1     -41.297 -53.238  13.252  1.00  0.00    -0.361 N 
HETATM    4  H   UNL     1     -40.649 -53.528  12.531  1.00  0.00     0.162 HD
ENDROOT
BRANCH   2   5
HETATM    5  C   UNL     1     -39.422 -51.926  14.013  1.00  0.00     0.117 C 
BRANCH   5   6
HETATM    6  C   UNL     1     -39.423 -51.182  12.687  1.00  0.00     0.150 C 
BRANCH   6   7
HETATM    7  S   UNL     1     -39.281 -49.434  12.953  1.00  0.00     0.149 S 
HETATM    8  O   UNL     1     -38.711 -49.244  14.275  1.00  0.00    -0.227 OA
HETATM    9  O   UNL     1     -38.637 -48.861  11.787  1.00  0.00    -0.227 OA
BRANCH   7  10
HETATM   10  C   UNL     1     -40.968 -48.848  13.017  1.00  0.00     0.108 C 
HETATM   11  C   UNL     1     -41.585 -48.844  14.415  1.00  0.00     0.020 C 
HETATM   12  C   UNL     1     -43.046 -49.267  14.238  1.00  0.00     0.001 C 
HETATM   13  C   UNL     1     -43.273 -49.397  12.739  1.00  0.00     0.001 C 
HETATM   14  C   UNL     1     -41.900 -49.723  12.184  1.00  0.00     0.020 C 
ENDBRANCH   7  10
ENDBRANCH   6   7
ENDBRANCH   5   6
ENDBRANCH   2   5
BRANCH   3  15
HETATM   15  C   UNL     1     -42.541 -54.000  13.329  1.00  0.00     0.128 C 
BRANCH  15  16
HETATM   16  C   UNL     1     -43.721 -53.395  12.565  1.00  0.00     0.076 C 
BRANCH  16  17
HETATM   17  C   UNL     1     -44.698 -52.662  13.450  1.00  0.00     0.010 A 
HETATM   18  C   UNL     1     -45.856 -52.123  12.889  1.00  0.00     0.025 A 
HETATM   19  C   UNL     1     -46.763 -51.462  13.711  1.00  0.00     0.003 A 
HETATM   20  C   UNL     1     -46.503 -51.371  15.072  1.00  0.00     0.017 A 
HETATM   21  C   UNL     1     -45.344 -51.952  15.554  1.00  0.00     0.088 A 
HETATM   22  N   UNL     1     -44.441 -52.595  14.779  1.00  0.00    -0.369 N 
ATOM     23  HN  UNL     1     -43.601 -53.013  15.179  1.00  0.00     0.165 HD
ENDBRANCH  16  17
ENDBRANCH  15  16
ENDBRANCH   3  15
TORSDOF 7
ENDMDL
