MODEL 1
REMARK VINA RESULT:      -6.5      0.000      0.000
REMARK  5 active torsions:
REMARK  status: ('A' for Active; 'I' for Inactive)
REMARK    1  A    between atoms: N_7  and  C_8 
REMARK    2  A    between atoms: C_8  and  C_9 
REMARK    3  A    between atoms: C_9  and  C_10 
REMARK    4  A    between atoms: C_10  and  N_11 
REMARK       I    between atoms: N_11  and  C_12 
REMARK       I    between atoms: C_12  and  N_14 
REMARK    5  A    between atoms: N_14  and  C_15 
ROOT
HETATM    1  N   UNL     1     -41.106 -53.196  12.040  1.00  0.00    -0.343 N 
HETATM    2  C   UNL     1     -40.841 -51.898  12.344  1.00  0.00     0.321 C 
HETATM    3  O   UNL     1     -40.637 -51.448  13.457  1.00  0.00    -0.247 OA
HETATM    4  N   UNL     1     -40.891 -51.082  11.187  1.00  0.00    -0.293 N 
HETATM    5  H   UNL     1     -41.302 -53.508  11.103  1.00  0.00     0.164 HD
HETATM    6  H   UNL     1     -41.195 -51.485  10.317  1.00  0.00     0.172 HD
ENDROOT
BRANCH   1   7
HETATM    7  C   UNL     1     -41.263 -54.163  13.108  1.00  0.00     0.126 C 
BRANCH   7   8
HETATM    8  C   UNL     1     -42.686 -54.165  13.672  1.00  0.00     0.050 C 
BRANCH   8   9
HETATM    9  C   UNL     1     -43.739 -53.647  12.679  1.00  0.00     0.274 C 
BRANCH   9  10
HETATM   10  N   UNL     1     -44.989 -53.209  13.318  1.00  0.00     0.092 N 
HETATM   11  C   UNL     1     -45.285 -51.778  13.068  1.00  0.00     0.219 C 
HETATM   12  C   UNL     1     -44.192 -50.794  13.516  1.00  0.00     0.043 C 
HETATM   13  C   UNL     1     -46.647 -51.402  13.682  1.00  0.00     0.035 C 
HETATM   14  C   UNL     1     -46.727 -51.736  15.168  1.00  0.00     0.004 C 
HETATM   15  C   UNL     1     -46.361 -53.194  15.393  1.00  0.00     0.030 C 
HETATM   16  C   UNL     1     -45.020 -53.545  14.753  1.00  0.00     0.273 C 
ENDBRANCH   9  10
ENDBRANCH   8   9
ENDBRANCH   7   8
ENDBRANCH   1   7
BRANCH   4  17
HETATM   17  C   UNL     1     -40.591 -49.724  11.225  1.00  0.00     0.127 A 
HETATM   18  C   UNL     1     -41.457 -48.662  11.079  1.00  0.00     0.076 A 
HETATM   19  C   UNL     1     -40.660 -47.503  11.192  1.00  0.00     0.025 A 
HETATM   20  C   UNL     1     -41.102 -46.092  11.083  1.00  0.00     0.070 C 
HETATM   21  N   UNL     1     -39.377 -47.806  11.412  1.00  0.00    -0.302 N 
HETATM   22  N   UNL     1     -39.357 -49.153  11.425  1.00  0.00    -0.281 N 
ATOM     23  HN  UNL     1     -38.593 -47.166  11.540  1.00  0.00     0.186 HD
HETATM   24  C   UNL     1     -38.091 -49.836  11.530  1.00  0.00     0.179 C 
ENDBRANCH   4  17
TORSDOF 5
ENDMDL
MODEL 2
REMARK VINA RESULT:      -6.4      1.702      2.839
REMARK  5 active torsions:
REMARK  status: ('A' for Active; 'I' for Inactive)
REMARK    1  A    between atoms: N_7  and  C_8 
REMARK    2  A    between atoms: C_8  and  C_9 
REMARK    3  A    between atoms: C_9  and  C_10 
REMARK    4  A    between atoms: C_10  and  N_11 
REMARK       I    between atoms: N_11  and  C_12 
REMARK       I    between atoms: C_12  and  N_14 
REMARK    5  A    between atoms: N_14  and  C_15 
ROOT
HETATM    1  N   UNL     1     -40.891 -51.094  11.240  1.00  0.00    -0.343 N 
HETATM    2  C   UNL     1     -41.143 -49.810  11.610  1.00  0.00     0.321 C 
HETATM    3  O   UNL     1     -41.404 -49.425  12.735  1.00  0.00    -0.247 OA
HETATM    4  N   UNL     1     -41.129 -48.943  10.489  1.00  0.00    -0.293 N 
HETATM    5  H   UNL     1     -40.715 -51.361  10.286  1.00  0.00     0.164 HD
HETATM    6  H   UNL     1     -41.040 -49.337   9.568  1.00  0.00     0.172 HD
ENDROOT
BRANCH   1   7
HETATM    7  C   UNL     1     -41.022 -52.158  12.215  1.00  0.00     0.126 C 
BRANCH   7   8
HETATM    8  C   UNL     1     -42.461 -52.668  12.314  1.00  0.00     0.050 C 
BRANCH   8   9
HETATM    9  C   UNL     1     -42.777 -53.355  13.652  1.00  0.00     0.274 C 
BRANCH   9  10
HETATM   10  N   UNL     1     -44.016 -52.877  14.285  1.00  0.00     0.092 N 
HETATM   11  C   UNL     1     -44.849 -53.984  14.812  1.00  0.00     0.219 C 
HETATM   12  C   UNL     1     -45.261 -55.045  13.780  1.00  0.00     0.043 C 
HETATM   13  C   UNL     1     -46.083 -53.418  15.542  1.00  0.00     0.035 C 
HETATM   14  C   UNL     1     -46.899 -52.479  14.660  1.00  0.00     0.004 C 
HETATM   15  C   UNL     1     -46.003 -51.393  14.089  1.00  0.00     0.030 C 
HETATM   16  C   UNL     1     -44.776 -51.980  13.395  1.00  0.00     0.273 C 
ENDBRANCH   9  10
ENDBRANCH   8   9
ENDBRANCH   7   8
ENDBRANCH   1   7
BRANCH   4  17
HETATM   17  C   UNL     1     -41.295 -47.568  10.615  1.00  0.00     0.127 A 
HETATM   18  C   UNL     1     -40.335 -46.621  10.896  1.00  0.00     0.076 A 
HETATM   19  C   UNL     1     -41.014 -45.385  10.922  1.00  0.00     0.025 A 
HETATM   20  C   UNL     1     -40.440 -44.048  11.206  1.00  0.00     0.070 C 
HETATM   21  N   UNL     1     -42.316 -45.532  10.658  1.00  0.00    -0.302 N 
HETATM   22  N   UNL     1     -42.465 -46.859  10.480  1.00  0.00    -0.281 N 
ATOM     23  HN  UNL     1     -43.031 -44.808  10.604  1.00  0.00     0.186 HD
HETATM   24  C   UNL     1     -43.789 -47.397  10.283  1.00  0.00     0.179 C 
ENDBRANCH   4  17
TORSDOF 5
ENDMDL
MODEL 3
REMARK VINA RESULT:      -5.9      1.435      2.141
REMARK  5 active torsions:
REMARK  status: ('A' for Active; 'I' for Inactive)
REMARK    1  A    between atoms: N_7  and  C_8 
REMARK    2  A    between atoms: C_8  and  C_9 
REMARK    3  A    between atoms: C_9  and  C_10 
REMARK    4  A    between atoms: C_10  and  N_11 
REMARK       I    between atoms: N_11  and  C_12 
REMARK       I    between atoms: C_12  and  N_14 
REMARK    5  A    between atoms: N_14  and  C_15 
ROOT
HETATM    1  N   UNL     1     -41.778 -52.833  12.132  1.00  0.00    -0.343 N 
HETATM    2  C   UNL     1     -41.324 -51.589  12.436  1.00  0.00     0.321 C 
HETATM    3  O   UNL     1     -40.506 -51.312  13.295  1.00  0.00    -0.247 OA
HETATM    4  N   UNL     1     -41.978 -50.602  11.658  1.00  0.00    -0.293 N 
HETATM    5  H   UNL     1     -42.484 -53.001  11.434  1.00  0.00     0.164 HD
HETATM    6  H   UNL     1     -42.740 -50.876  11.060  1.00  0.00     0.172 HD
ENDROOT
BRANCH   1   7
HETATM    7  C   UNL     1     -41.353 -53.965  12.932  1.00  0.00     0.126 C 
BRANCH   7   8
HETATM    8  C   UNL     1     -42.314 -54.240  14.090  1.00  0.00     0.050 C 
BRANCH   8   9
HETATM    9  C   UNL     1     -43.787 -54.324  13.657  1.00  0.00     0.274 C 
BRANCH   9  10
HETATM   10  N   UNL     1     -44.535 -53.074  13.860  1.00  0.00     0.092 N 
HETATM   11  C   UNL     1     -44.934 -52.872  15.272  1.00  0.00     0.219 C 
HETATM   12  C   UNL     1     -45.784 -53.998  15.882  1.00  0.00     0.043 C 
HETATM   13  C   UNL     1     -45.631 -51.507  15.437  1.00  0.00     0.035 C 
HETATM   14  C   UNL     1     -46.819 -51.344  14.495  1.00  0.00     0.004 C 
HETATM   15  C   UNL     1     -46.387 -51.615  13.063  1.00  0.00     0.030 C 
HETATM   16  C   UNL     1     -45.677 -52.961  12.933  1.00  0.00     0.273 C 
ENDBRANCH   9  10
ENDBRANCH   8   9
ENDBRANCH   7   8
ENDBRANCH   1   7
BRANCH   4  17
HETATM   17  C   UNL     1     -41.643 -49.254  11.737  1.00  0.00     0.127 A 
HETATM   18  C   UNL     1     -40.787 -48.546  10.923  1.00  0.00     0.076 A 
HETATM   19  C   UNL     1     -40.786 -47.227  11.425  1.00  0.00     0.025 A 
HETATM   20  C   UNL     1     -40.007 -46.071  10.921  1.00  0.00     0.070 C 
HETATM   21  N   UNL     1     -41.600 -47.101  12.479  1.00  0.00    -0.302 N 
HETATM   22  N   UNL     1     -42.104 -48.339  12.653  1.00  0.00    -0.281 N 
ATOM     23  HN  UNL     1     -41.794 -46.262  13.025  1.00  0.00     0.186 HD
HETATM   24  C   UNL     1     -42.951 -48.598  13.790  1.00  0.00     0.179 C 
ENDBRANCH   4  17
TORSDOF 5
ENDMDL
MODEL 4
REMARK VINA RESULT:      -5.8      1.869      7.404
REMARK  5 active torsions:
REMARK  status: ('A' for Active; 'I' for Inactive)
REMARK    1  A    between atoms: N_7  and  C_8 
REMARK    2  A    between atoms: C_8  and  C_9 
REMARK    3  A    between atoms: C_9  and  C_10 
REMARK    4  A    between atoms: C_10  and  N_11 
REMARK       I    between atoms: N_11  and  C_12 
REMARK       I    between atoms: C_12  and  N_14 
REMARK    5  A    between atoms: N_14  and  C_15 
ROOT
HETATM    1  N   UNL     1     -40.844 -50.889  11.111  1.00  0.00    -0.343 N 
HETATM    2  C   UNL     1     -41.546 -51.439  12.136  1.00  0.00     0.321 C 
HETATM    3  O   UNL     1     -41.707 -50.952  13.241  1.00  0.00    -0.247 OA
HETATM    4  N   UNL     1     -42.038 -52.722  11.788  1.00  0.00    -0.293 N 
HETATM    5  H   UNL     1     -40.713 -51.353  10.228  1.00  0.00     0.164 HD
HETATM    6  H   UNL     1     -41.761 -53.130  10.911  1.00  0.00     0.172 HD
ENDROOT
BRANCH   1   7
HETATM    7  C   UNL     1     -40.121 -49.650  11.323  1.00  0.00     0.126 C 
BRANCH   7   8
HETATM    8  C   UNL     1     -41.009 -48.424  11.097  1.00  0.00     0.050 C 
BRANCH   8   9
HETATM    9  C   UNL     1     -41.080 -47.487  12.312  1.00  0.00     0.274 C 
BRANCH   9  10
HETATM   10  N   UNL     1     -40.463 -46.171  12.082  1.00  0.00     0.092 N 
HETATM   11  C   UNL     1     -40.970 -45.134  13.011  1.00  0.00     0.219 C 
HETATM   12  C   UNL     1     -42.492 -44.918  12.986  1.00  0.00     0.043 C 
HETATM   13  C   UNL     1     -40.223 -43.806  12.783  1.00  0.00     0.035 C 
HETATM   14  C   UNL     1     -40.297 -43.338  11.333  1.00  0.00     0.004 C 
HETATM   15  C   UNL     1     -39.826 -44.447  10.406  1.00  0.00     0.030 C 
HETATM   16  C   UNL     1     -40.564 -45.757  10.671  1.00  0.00     0.273 C 
ENDBRANCH   9  10
ENDBRANCH   8   9
ENDBRANCH   7   8
ENDBRANCH   1   7
BRANCH   4  17
HETATM   17  C   UNL     1     -42.843 -53.463  12.646  1.00  0.00     0.127 A 
HETATM   18  C   UNL     1     -44.210 -53.626  12.595  1.00  0.00     0.076 A 
HETATM   19  C   UNL     1     -44.536 -54.458  13.686  1.00  0.00     0.025 A 
HETATM   20  C   UNL     1     -45.884 -54.918  14.097  1.00  0.00     0.070 C 
HETATM   21  N   UNL     1     -43.448 -54.816  14.376  1.00  0.00    -0.302 N 
HETATM   22  N   UNL     1     -42.437 -54.201  13.733  1.00  0.00    -0.281 N 
ATOM     23  HN  UNL     1     -43.396 -55.416  15.199  1.00  0.00     0.186 HD
HETATM   24  C   UNL     1     -41.105 -54.280  14.280  1.00  0.00     0.179 C 
ENDBRANCH   4  17
TORSDOF 5
ENDMDL
MODEL 5
REMARK VINA RESULT:      -5.5      1.747      7.247
REMARK  5 active torsions:
REMARK  status: ('A' for Active; 'I' for Inactive)
REMARK    1  A    between atoms: N_7  and  C_8 
REMARK    2  A    between atoms: C_8  and  C_9 
REMARK    3  A    between atoms: C_9  and  C_10 
REMARK    4  A    between atoms: C_10  and  N_11 
REMARK       I    between atoms: N_11  and  C_12 
REMARK       I    between atoms: C_12  and  N_14 
REMARK    5  A    between atoms: N_14  and  C_15 
ROOT
HETATM    1  N   UNL     1     -42.339 -51.527  11.862  1.00  0.00    -0.343 N 
HETATM    2  C   UNL     1     -43.063 -51.675  13.003  1.00  0.00     0.321 C 
HETATM    3  O   UNL     1     -42.661 -51.492  14.138  1.00  0.00    -0.247 OA
HETATM    4  N   UNL     1     -44.370 -52.145  12.721  1.00  0.00    -0.293 N 
HETATM    5  H   UNL     1     -42.712 -51.728  10.949  1.00  0.00     0.164 HD
HETATM    6  H   UNL     1     -44.602 -52.407  11.778  1.00  0.00     0.172 HD
ENDROOT
BRANCH   1   7
HETATM    7  C   UNL     1     -40.926 -51.213  11.948  1.00  0.00     0.126 C 
BRANCH   7   8
HETATM    8  C   UNL     1     -40.611 -49.835  11.362  1.00  0.00     0.050 C 
BRANCH   8   9
HETATM    9  C   UNL     1     -41.714 -48.795  11.615  1.00  0.00     0.274 C 
BRANCH   9  10
HETATM   10  N   UNL     1     -41.434 -47.479  11.020  1.00  0.00     0.092 N 
HETATM   11  C   UNL     1     -40.079 -46.981  11.351  1.00  0.00     0.219 C 
HETATM   12  C   UNL     1     -39.773 -46.860  12.853  1.00  0.00     0.043 C 
HETATM   13  C   UNL     1     -39.811 -45.647  10.627  1.00  0.00     0.035 C 
HETATM   14  C   UNL     1     -40.877 -44.599  10.927  1.00  0.00     0.004 C 
HETATM   15  C   UNL     1     -42.257 -45.163  10.632  1.00  0.00     0.030 C 
HETATM   16  C   UNL     1     -42.486 -46.496  11.341  1.00  0.00     0.273 C 
ENDBRANCH   9  10
ENDBRANCH   8   9
ENDBRANCH   7   8
ENDBRANCH   1   7
BRANCH   4  17
HETATM   17  C   UNL     1     -45.326 -52.315  13.717  1.00  0.00     0.127 A 
HETATM   18  C   UNL     1     -45.950 -51.342  14.466  1.00  0.00     0.076 A 
HETATM   19  C   UNL     1     -46.822 -52.030  15.336  1.00  0.00     0.025 A 
HETATM   20  C   UNL     1     -47.709 -51.446  16.370  1.00  0.00     0.070 C 
HETATM   21  N   UNL     1     -46.767 -53.352  15.143  1.00  0.00    -0.302 N 
HETATM   22  N   UNL     1     -45.855 -53.502  14.163  1.00  0.00    -0.281 N 
ATOM     23  HN  UNL     1     -47.295 -54.079  15.626  1.00  0.00     0.186 HD
HETATM   24  C   UNL     1     -45.459 -54.832  13.771  1.00  0.00     0.179 C 
ENDBRANCH   4  17
TORSDOF 5
ENDMDL
MODEL 6
REMARK VINA RESULT:      -5.4      2.611      3.658
REMARK  5 active torsions:
REMARK  status: ('A' for Active; 'I' for Inactive)
REMARK    1  A    between atoms: N_7  and  C_8 
REMARK    2  A    between atoms: C_8  and  C_9 
REMARK    3  A    between atoms: C_9  and  C_10 
REMARK    4  A    between atoms: C_10  and  N_11 
REMARK       I    between atoms: N_11  and  C_12 
REMARK       I    between atoms: C_12  and  N_14 
REMARK    5  A    between atoms: N_14  and  C_15 
ROOT
HETATM    1  N   UNL     1     -43.024 -48.250  15.137  1.00  0.00    -0.343 N 
HETATM    2  C   UNL     1     -42.858 -48.631  13.843  1.00  0.00     0.321 C 
HETATM    3  O   UNL     1     -42.694 -49.771  13.445  1.00  0.00    -0.247 OA
HETATM    4  N   UNL     1     -42.832 -47.508  12.979  1.00  0.00    -0.293 N 
HETATM    5  H   UNL     1     -43.120 -47.287  15.414  1.00  0.00     0.164 HD
HETATM    6  H   UNL     1     -42.838 -46.585  13.378  1.00  0.00     0.172 HD
ENDROOT
BRANCH   1   7
HETATM    7  C   UNL     1     -42.914 -49.237  16.193  1.00  0.00     0.126 C 
BRANCH   7   8
HETATM    8  C   UNL     1     -44.285 -49.699  16.690  1.00  0.00     0.050 C 
BRANCH   8   9
HETATM    9  C   UNL     1     -44.575 -51.180  16.402  1.00  0.00     0.274 C 
BRANCH   9  10
HETATM   10  N   UNL     1     -44.837 -51.467  14.983  1.00  0.00     0.092 N 
HETATM   11  C   UNL     1     -46.267 -51.315  14.626  1.00  0.00     0.219 C 
HETATM   12  C   UNL     1     -47.242 -52.182  15.439  1.00  0.00     0.043 C 
HETATM   13  C   UNL     1     -46.464 -51.537  13.114  1.00  0.00     0.035 C 
HETATM   14  C   UNL     1     -45.914 -52.881  12.647  1.00  0.00     0.004 C 
HETATM   15  C   UNL     1     -44.465 -53.027  13.081  1.00  0.00     0.030 C 
HETATM   16  C   UNL     1     -44.295 -52.777  14.578  1.00  0.00     0.273 C 
ENDBRANCH   9  10
ENDBRANCH   8   9
ENDBRANCH   7   8
ENDBRANCH   1   7
BRANCH   4  17
HETATM   17  C   UNL     1     -42.738 -47.640  11.597  1.00  0.00     0.127 A 
HETATM   18  C   UNL     1     -43.734 -47.472  10.661  1.00  0.00     0.076 A 
HETATM   19  C   UNL     1     -43.130 -47.724   9.411  1.00  0.00     0.025 A 
HETATM   20  C   UNL     1     -43.776 -47.702   8.077  1.00  0.00     0.070 C 
HETATM   21  N   UNL     1     -41.831 -48.016   9.542  1.00  0.00    -0.302 N 
HETATM   22  N   UNL     1     -41.617 -47.964  10.871  1.00  0.00    -0.281 N 
ATOM     23  HN  UNL     1     -41.159 -48.230   8.806  1.00  0.00     0.186 HD
HETATM   24  C   UNL     1     -40.324 -48.340  11.389  1.00  0.00     0.179 C 
ENDBRANCH   4  17
TORSDOF 5
ENDMDL
MODEL 7
REMARK VINA RESULT:      -5.4      2.125      3.116
REMARK  5 active torsions:
REMARK  status: ('A' for Active; 'I' for Inactive)
REMARK    1  A    between atoms: N_7  and  C_8 
REMARK    2  A    between atoms: C_8  and  C_9 
REMARK    3  A    between atoms: C_9  and  C_10 
REMARK    4  A    between atoms: C_10  and  N_11 
REMARK       I    between atoms: N_11  and  C_12 
REMARK       I    between atoms: C_12  and  N_14 
REMARK    5  A    between atoms: N_14  and  C_15 
ROOT
HETATM    1  N   UNL     1     -39.802 -50.450  14.012  1.00  0.00    -0.343 N 
HETATM    2  C   UNL     1     -39.546 -49.535  13.040  1.00  0.00     0.321 C 
HETATM    3  O   UNL     1     -38.634 -49.578  12.234  1.00  0.00    -0.247 OA
HETATM    4  N   UNL     1     -40.455 -48.450  13.109  1.00  0.00    -0.293 N 
HETATM    5  H   UNL     1     -40.551 -50.346  14.676  1.00  0.00     0.164 HD
HETATM    6  H   UNL     1     -41.103 -48.402  13.877  1.00  0.00     0.172 HD
ENDROOT
BRANCH   1   7
HETATM    7  C   UNL     1     -38.884 -51.553  14.214  1.00  0.00     0.126 C 
BRANCH   7   8
HETATM    8  C   UNL     1     -39.572 -52.909  14.042  1.00  0.00     0.050 C 
BRANCH   8   9
HETATM    9  C   UNL     1     -40.574 -52.944  12.877  1.00  0.00     0.274 C 
BRANCH   9  10
HETATM   10  N   UNL     1     -41.766 -53.763  13.146  1.00  0.00     0.092 N 
HETATM   11  C   UNL     1     -43.009 -53.147  12.624  1.00  0.00     0.219 C 
HETATM   12  C   UNL     1     -43.315 -51.737  13.152  1.00  0.00     0.043 C 
HETATM   13  C   UNL     1     -44.206 -54.091  12.853  1.00  0.00     0.035 C 
HETATM   14  C   UNL     1     -44.356 -54.494  14.317  1.00  0.00     0.004 C 
HETATM   15  C   UNL     1     -43.047 -55.065  14.835  1.00  0.00     0.030 C 
HETATM   16  C   UNL     1     -41.875 -54.122  14.572  1.00  0.00     0.273 C 
ENDBRANCH   9  10
ENDBRANCH   8   9
ENDBRANCH   7   8
ENDBRANCH   1   7
BRANCH   4  17
HETATM   17  C   UNL     1     -40.442 -47.414  12.180  1.00  0.00     0.127 A 
HETATM   18  C   UNL     1     -39.898 -46.156  12.324  1.00  0.00     0.076 A 
HETATM   19  C   UNL     1     -40.154 -45.489  11.107  1.00  0.00     0.025 A 
HETATM   20  C   UNL     1     -39.797 -44.094  10.752  1.00  0.00     0.070 C 
HETATM   21  N   UNL     1     -40.804 -46.274  10.242  1.00  0.00    -0.302 N 
HETATM   22  N   UNL     1     -40.970 -47.431  10.912  1.00  0.00    -0.281 N 
ATOM     23  HN  UNL     1     -41.103 -46.050   9.293  1.00  0.00     0.186 HD
HETATM   24  C   UNL     1     -41.744 -48.487  10.308  1.00  0.00     0.179 C 
ENDBRANCH   4  17
TORSDOF 5
ENDMDL
MODEL 8
REMARK VINA RESULT:      -5.3      2.161      3.122
REMARK  5 active torsions:
REMARK  status: ('A' for Active; 'I' for Inactive)
REMARK    1  A    between atoms: N_7  and  C_8 
REMARK    2  A    between atoms: C_8  and  C_9 
REMARK    3  A    between atoms: C_9  and  C_10 
REMARK    4  A    between atoms: C_10  and  N_11 
REMARK       I    between atoms: N_11  and  C_12 
REMARK       I    between atoms: C_12  and  N_14 
REMARK    5  A    between atoms: N_14  and  C_15 
ROOT
HETATM    1  N   UNL     1     -40.571 -52.542  12.521  1.00  0.00    -0.343 N 
HETATM    2  C   UNL     1     -40.230 -51.438  13.237  1.00  0.00     0.321 C 
HETATM    3  O   UNL     1     -40.975 -50.778  13.939  1.00  0.00    -0.247 OA
HETATM    4  N   UNL     1     -38.874 -51.088  13.020  1.00  0.00    -0.293 N 
HETATM    5  H   UNL     1     -39.921 -53.030  11.927  1.00  0.00     0.164 HD
HETATM    6  H   UNL     1     -38.344 -51.590  12.328  1.00  0.00     0.172 HD
ENDROOT
BRANCH   1   7
HETATM    7  C   UNL     1     -41.957 -52.966  12.478  1.00  0.00     0.126 C 
BRANCH   7   8
HETATM    8  C   UNL     1     -42.261 -54.032  13.531  1.00  0.00     0.050 C 
BRANCH   8   9
HETATM    9  C   UNL     1     -43.765 -54.267  13.749  1.00  0.00     0.274 C 
BRANCH   9  10
HETATM   10  N   UNL     1     -44.537 -53.029  13.932  1.00  0.00     0.092 N 
HETATM   11  C   UNL     1     -44.933 -52.809  15.343  1.00  0.00     0.219 C 
HETATM   12  C   UNL     1     -45.758 -53.941  15.977  1.00  0.00     0.043 C 
HETATM   13  C   UNL     1     -45.656 -51.456  15.487  1.00  0.00     0.035 C 
HETATM   14  C   UNL     1     -46.852 -51.333  14.547  1.00  0.00     0.004 C 
HETATM   15  C   UNL     1     -46.420 -51.622  13.119  1.00  0.00     0.030 C 
HETATM   16  C   UNL     1     -45.685 -52.955  13.010  1.00  0.00     0.273 C 
ENDBRANCH   9  10
ENDBRANCH   8   9
ENDBRANCH   7   8
ENDBRANCH   1   7
BRANCH   4  17
HETATM   17  C   UNL     1     -38.266 -50.032  13.691  1.00  0.00     0.127 A 
HETATM   18  C   UNL     1     -37.437 -50.092  14.789  1.00  0.00     0.076 A 
HETATM   19  C   UNL     1     -37.098 -48.755  15.085  1.00  0.00     0.025 A 
HETATM   20  C   UNL     1     -36.245 -48.265  16.195  1.00  0.00     0.070 C 
HETATM   21  N   UNL     1     -37.661 -47.902  14.223  1.00  0.00    -0.302 N 
HETATM   22  N   UNL     1     -38.365 -48.694  13.392  1.00  0.00    -0.281 N 
ATOM     23  HN  UNL     1     -37.576 -46.886  14.199  1.00  0.00     0.186 HD
HETATM   24  C   UNL     1     -39.201 -48.089  12.385  1.00  0.00     0.179 C 
ENDBRANCH   4  17
TORSDOF 5
ENDMDL
MODEL 9
REMARK VINA RESULT:      -5.3      1.828      3.875
REMARK  5 active torsions:
REMARK  status: ('A' for Active; 'I' for Inactive)
REMARK    1  A    between atoms: N_7  and  C_8 
REMARK    2  A    between atoms: C_8  and  C_9 
REMARK    3  A    between atoms: C_9  and  C_10 
REMARK    4  A    between atoms: C_10  and  N_11 
REMARK       I    between atoms: N_11  and  C_12 
REMARK       I    between atoms: C_12  and  N_14 
REMARK    5  A    between atoms: N_14  and  C_15 
ROOT
HETATM    1  N   UNL     1     -44.115 -51.556  12.988  1.00  0.00    -0.343 N 
HETATM    2  C   UNL     1     -42.982 -50.806  13.059  1.00  0.00     0.321 C 
HETATM    3  O   UNL     1     -42.643 -50.103  13.993  1.00  0.00    -0.247 OA
HETATM    4  N   UNL     1     -42.241 -50.887  11.854  1.00  0.00    -0.293 N 
HETATM    5  H   UNL     1     -44.364 -52.093  12.175  1.00  0.00     0.164 HD
HETATM    6  H   UNL     1     -42.637 -51.376  11.068  1.00  0.00     0.172 HD
ENDROOT
BRANCH   1   7
HETATM    7  C   UNL     1     -45.091 -51.478  14.058  1.00  0.00     0.126 C 
BRANCH   7   8
HETATM    8  C   UNL     1     -45.002 -52.679  15.001  1.00  0.00     0.050 C 
BRANCH   8   9
HETATM    9  C   UNL     1     -44.122 -53.818  14.462  1.00  0.00     0.274 C 
BRANCH   9  10
HETATM   10  N   UNL     1     -42.915 -54.063  15.265  1.00  0.00     0.092 N 
HETATM   11  C   UNL     1     -41.680 -53.593  14.594  1.00  0.00     0.219 C 
HETATM   12  C   UNL     1     -41.417 -54.198  13.206  1.00  0.00     0.043 C 
HETATM   13  C   UNL     1     -40.464 -53.793  15.520  1.00  0.00     0.035 C 
HETATM   14  C   UNL     1     -40.325 -55.236  15.994  1.00  0.00     0.004 C 
HETATM   15  C   UNL     1     -41.627 -55.703  16.623  1.00  0.00     0.030 C 
HETATM   16  C   UNL     1     -42.818 -55.470  15.695  1.00  0.00     0.273 C 
ENDBRANCH   9  10
ENDBRANCH   8   9
ENDBRANCH   7   8
ENDBRANCH   1   7
BRANCH   4  17
HETATM   17  C   UNL     1     -41.009 -50.260  11.700  1.00  0.00     0.127 A 
HETATM   18  C   UNL     1     -39.777 -50.697  12.134  1.00  0.00     0.076 A 
HETATM   19  C   UNL     1     -38.858 -49.703  11.736  1.00  0.00     0.025 A 
HETATM   20  C   UNL     1     -37.396 -49.677  11.983  1.00  0.00     0.070 C 
HETATM   21  N   UNL     1     -39.462 -48.708  11.078  1.00  0.00    -0.302 N 
HETATM   22  N   UNL     1     -40.762 -49.063  11.071  1.00  0.00    -0.281 N 
ATOM     23  HN  UNL     1     -39.037 -47.874  10.675  1.00  0.00     0.186 HD
HETATM   24  C   UNL     1     -41.736 -48.149  10.528  1.00  0.00     0.179 C 
ENDBRANCH   4  17
TORSDOF 5
ENDMDL
