MODEL 1
REMARK VINA RESULT:      -5.2      0.000      0.000
REMARK  2 active torsions:
REMARK  status: ('A' for Active; 'I' for Inactive)
REMARK    1  A    between atoms: N_1  and  C_2 
REMARK    2  A    between atoms: C_5  and  N_9 
ROOT
HETATM    1  C   UNL     1     -45.471 -48.610   7.280  1.00  0.00     0.077 A 
HETATM    2  C   UNL     1     -46.176 -48.323   8.433  1.00  0.00     0.044 A 
HETATM    3  C   UNL     1     -45.511 -47.714   9.504  1.00  0.00     0.034 A 
HETATM    4  C   UNL     1     -44.153 -47.396   9.432  1.00  0.00     0.045 A 
HETATM    5  C   UNL     1     -43.555 -47.751   8.216  1.00  0.00     0.118 A 
HETATM    6  N   UNL     1     -44.167 -48.346   7.155  1.00  0.00    -0.355 N 
ATOM      7  HN  UNL     1     -43.654 -48.581   6.304  1.00  0.00     0.166 HD
ENDROOT
BRANCH   4   8
HETATM    8  N   UNL     1     -43.471 -46.764  10.450  1.00  0.00    -0.376 N 
HETATM    9  C   UNL     1     -42.739 -45.500  10.241  1.00  0.00     0.149 C 
HETATM   10  C   UNL     1     -41.232 -45.724  10.476  1.00  0.00     0.187 C 
HETATM   11  O   UNL     1     -40.968 -46.301  11.767  1.00  0.00    -0.388 OA
HETATM   12  C   UNL     1     -41.644 -47.564  11.899  1.00  0.00     0.187 C 
HETATM   13  C   UNL     1     -43.162 -47.398  11.744  1.00  0.00     0.149 C 
ENDBRANCH   4   8
BRANCH   1  14
HETATM   14  N   UNL     1     -46.097 -49.225   6.199  1.00  0.00    -0.289 NA
HETATM   15  H   UNL     1     -45.997 -50.232   6.239  1.00  0.00     0.125 HD
HETATM   16  H   UNL     1     -47.074 -48.942   6.231  1.00  0.00     0.125 HD
ENDBRANCH   1  14
TORSDOF 2
ENDMDL
MODEL 2
REMARK VINA RESULT:      -5.0      7.105      8.225
REMARK  2 active torsions:
REMARK  status: ('A' for Active; 'I' for Inactive)
REMARK    1  A    between atoms: N_1  and  C_2 
REMARK    2  A    between atoms: C_5  and  N_9 
ROOT
HETATM    1  C   UNL     1     -41.683 -53.430  12.380  1.00  0.00     0.077 A 
HETATM    2  C   UNL     1     -41.862 -54.149  13.546  1.00  0.00     0.044 A 
HETATM    3  C   UNL     1     -43.112 -54.128  14.174  1.00  0.00     0.034 A 
HETATM    4  C   UNL     1     -44.178 -53.393  13.651  1.00  0.00     0.045 A 
HETATM    5  C   UNL     1     -43.861 -52.701  12.475  1.00  0.00     0.118 A 
HETATM    6  N   UNL     1     -42.658 -52.694  11.837  1.00  0.00    -0.355 N 
ATOM      7  HN  UNL     1     -42.508 -52.153  10.985  1.00  0.00     0.166 HD
ENDROOT
BRANCH   4   8
HETATM    8  N   UNL     1     -45.434 -53.376  14.221  1.00  0.00    -0.376 N 
HETATM    9  C   UNL     1     -46.499 -52.470  13.750  1.00  0.00     0.149 C 
HETATM   10  C   UNL     1     -46.873 -51.477  14.868  1.00  0.00     0.187 C 
HETATM   11  O   UNL     1     -47.228 -52.150  16.088  1.00  0.00    -0.388 OA
HETATM   12  C   UNL     1     -46.136 -52.965  16.548  1.00  0.00     0.187 C 
HETATM   13  C   UNL     1     -45.759 -54.025  15.503  1.00  0.00     0.149 C 
ENDBRANCH   4   8
BRANCH   1  14
HETATM   14  N   UNL     1     -40.451 -53.419  11.732  1.00  0.00    -0.289 NA
HETATM   15  H   UNL     1     -40.166 -54.354  11.467  1.00  0.00     0.125 HD
HETATM   16  H   UNL     1     -40.556 -52.814  10.921  1.00  0.00     0.125 HD
ENDBRANCH   1  14
TORSDOF 2
ENDMDL
MODEL 3
REMARK VINA RESULT:      -4.9      7.195      8.483
REMARK  2 active torsions:
REMARK  status: ('A' for Active; 'I' for Inactive)
REMARK    1  A    between atoms: N_1  and  C_2 
REMARK    2  A    between atoms: C_5  and  N_9 
ROOT
HETATM    1  C   UNL     1     -41.440 -51.972  11.925  1.00  0.00     0.077 A 
HETATM    2  C   UNL     1     -40.860 -53.079  12.513  1.00  0.00     0.044 A 
HETATM    3  C   UNL     1     -41.637 -53.895  13.344  1.00  0.00     0.034 A 
HETATM    4  C   UNL     1     -42.981 -53.609  13.595  1.00  0.00     0.045 A 
HETATM    5  C   UNL     1     -43.441 -52.454  12.950  1.00  0.00     0.118 A 
HETATM    6  N   UNL     1     -42.716 -51.635  12.138  1.00  0.00    -0.355 N 
ATOM      7  HN  UNL     1     -43.127 -50.803  11.713  1.00  0.00     0.166 HD
ENDROOT
BRANCH   4   8
HETATM    8  N   UNL     1     -43.788 -54.406  14.379  1.00  0.00    -0.376 N 
HETATM    9  C   UNL     1     -45.072 -54.945  13.893  1.00  0.00     0.149 C 
HETATM   10  C   UNL     1     -46.232 -54.363  14.726  1.00  0.00     0.187 C 
HETATM   11  O   UNL     1     -46.046 -54.583  16.134  1.00  0.00    -0.388 OA
HETATM   12  C   UNL     1     -44.817 -53.980  16.578  1.00  0.00     0.187 C 
HETATM   13  C   UNL     1     -43.612 -54.570  15.833  1.00  0.00     0.149 C 
ENDBRANCH   4   8
BRANCH   1  14
HETATM   14  N   UNL     1     -40.696 -51.133  11.100  1.00  0.00    -0.289 NA
HETATM   15  H   UNL     1     -41.282 -50.687  10.404  1.00  0.00     0.125 HD
HETATM   16  H   UNL     1     -40.251 -50.449  11.709  1.00  0.00     0.125 HD
ENDBRANCH   1  14
TORSDOF 2
ENDMDL
MODEL 4
REMARK VINA RESULT:      -4.9      7.574      8.899
REMARK  2 active torsions:
REMARK  status: ('A' for Active; 'I' for Inactive)
REMARK    1  A    between atoms: N_1  and  C_2 
REMARK    2  A    between atoms: C_5  and  N_9 
ROOT
HETATM    1  C   UNL     1     -40.298 -54.180  13.497  1.00  0.00     0.077 A 
HETATM    2  C   UNL     1     -41.045 -54.540  14.602  1.00  0.00     0.044 A 
HETATM    3  C   UNL     1     -42.441 -54.470  14.532  1.00  0.00     0.034 A 
HETATM    4  C   UNL     1     -43.092 -54.038  13.373  1.00  0.00     0.045 A 
HETATM    5  C   UNL     1     -42.219 -53.692  12.334  1.00  0.00     0.118 A 
HETATM    6  N   UNL     1     -40.859 -53.744  12.365  1.00  0.00    -0.355 N 
ATOM      7  HN  UNL     1     -40.295 -53.463  11.563  1.00  0.00     0.166 HD
ENDROOT
BRANCH   4   8
HETATM    8  N   UNL     1     -44.465 -53.988  13.254  1.00  0.00    -0.376 N 
HETATM    9  C   UNL     1     -45.168 -52.786  12.769  1.00  0.00     0.149 C 
HETATM   10  C   UNL     1     -46.064 -52.218  13.888  1.00  0.00     0.187 C 
HETATM   11  O   UNL     1     -46.968 -53.208  14.408  1.00  0.00    -0.388 OA
HETATM   12  C   UNL     1     -46.236 -54.329  14.934  1.00  0.00     0.187 C 
HETATM   13  C   UNL     1     -45.374 -54.985  13.847  1.00  0.00     0.149 C 
ENDBRANCH   4   8
BRANCH   1  14
HETATM   14  N   UNL     1     -38.907 -54.228  13.533  1.00  0.00    -0.289 NA
HETATM   15  H   UNL     1     -38.499 -53.594  12.857  1.00  0.00     0.125 HD
HETATM   16  H   UNL     1     -38.634 -53.990  14.484  1.00  0.00     0.125 HD
ENDBRANCH   1  14
TORSDOF 2
ENDMDL
MODEL 5
REMARK VINA RESULT:      -4.8      7.098      8.063
REMARK  2 active torsions:
REMARK  status: ('A' for Active; 'I' for Inactive)
REMARK    1  A    between atoms: N_1  and  C_2 
REMARK    2  A    between atoms: C_5  and  N_9 
ROOT
HETATM    1  C   UNL     1     -45.174 -54.631  14.099  1.00  0.00     0.077 A 
HETATM    2  C   UNL     1     -44.105 -55.046  14.870  1.00  0.00     0.044 A 
HETATM    3  C   UNL     1     -42.805 -54.730  14.458  1.00  0.00     0.034 A 
HETATM    4  C   UNL     1     -42.568 -54.011  13.284  1.00  0.00     0.045 A 
HETATM    5  C   UNL     1     -43.735 -53.663  12.591  1.00  0.00     0.118 A 
HETATM    6  N   UNL     1     -45.013 -53.954  12.958  1.00  0.00    -0.355 N 
ATOM      7  HN  UNL     1     -45.811 -53.670  12.389  1.00  0.00     0.166 HD
ENDROOT
BRANCH   4   8
HETATM    8  N   UNL     1     -41.305 -53.650  12.863  1.00  0.00    -0.376 N 
HETATM    9  C   UNL     1     -40.084 -54.178  13.500  1.00  0.00     0.149 C 
HETATM   10  C   UNL     1     -39.301 -53.027  14.162  1.00  0.00     0.187 C 
HETATM   11  O   UNL     1     -39.018 -51.964  13.236  1.00  0.00    -0.388 OA
HETATM   12  C   UNL     1     -40.241 -51.433  12.694  1.00  0.00     0.187 C 
HETATM   13  C   UNL     1     -41.037 -52.520  11.957  1.00  0.00     0.149 C 
ENDBRANCH   4   8
BRANCH   1  14
HETATM   14  N   UNL     1     -46.481 -54.934  14.473  1.00  0.00    -0.289 NA
HETATM   15  H   UNL     1     -47.109 -54.897  13.680  1.00  0.00     0.125 HD
HETATM   16  H   UNL     1     -46.454 -55.864  14.888  1.00  0.00     0.125 HD
ENDBRANCH   1  14
TORSDOF 2
ENDMDL
MODEL 6
REMARK VINA RESULT:      -4.8      6.178      7.502
REMARK  2 active torsions:
REMARK  status: ('A' for Active; 'I' for Inactive)
REMARK    1  A    between atoms: N_1  and  C_2 
REMARK    2  A    between atoms: C_5  and  N_9 
ROOT
HETATM    1  C   UNL     1     -41.086 -50.611  11.387  1.00  0.00     0.077 A 
HETATM    2  C   UNL     1     -41.937 -49.916  12.224  1.00  0.00     0.044 A 
HETATM    3  C   UNL     1     -42.772 -50.630  13.091  1.00  0.00     0.034 A 
HETATM    4  C   UNL     1     -42.767 -52.027  13.122  1.00  0.00     0.045 A 
HETATM    5  C   UNL     1     -41.870 -52.606  12.217  1.00  0.00     0.118 A 
HETATM    6  N   UNL     1     -41.045 -51.947  11.357  1.00  0.00    -0.355 N 
ATOM      7  HN  UNL     1     -40.425 -52.448  10.720  1.00  0.00     0.166 HD
ENDROOT
BRANCH   4   8
HETATM    8  N   UNL     1     -43.549 -52.765  13.986  1.00  0.00    -0.376 N 
HETATM    9  C   UNL     1     -42.981 -53.479  15.145  1.00  0.00     0.149 C 
HETATM   10  C   UNL     1     -43.179 -54.998  14.971  1.00  0.00     0.187 C 
HETATM   11  O   UNL     1     -44.557 -55.339  14.740  1.00  0.00    -0.388 OA
HETATM   12  C   UNL     1     -45.047 -54.675  13.561  1.00  0.00     0.187 C 
HETATM   13  C   UNL     1     -44.942 -53.150  13.701  1.00  0.00     0.149 C 
ENDBRANCH   4   8
BRANCH   1  14
HETATM   14  N   UNL     1     -40.248 -49.935  10.505  1.00  0.00    -0.289 NA
HETATM   15  H   UNL     1     -40.590 -49.993   9.553  1.00  0.00     0.125 HD
HETATM   16  H   UNL     1     -40.203 -48.971  10.830  1.00  0.00     0.125 HD
ENDBRANCH   1  14
TORSDOF 2
ENDMDL
MODEL 7
REMARK VINA RESULT:      -4.7      1.967      2.575
REMARK  2 active torsions:
REMARK  status: ('A' for Active; 'I' for Inactive)
REMARK    1  A    between atoms: N_1  and  C_2 
REMARK    2  A    between atoms: C_5  and  N_9 
ROOT
HETATM    1  C   UNL     1     -45.594 -46.777   9.125  1.00  0.00     0.077 A 
HETATM    2  C   UNL     1     -44.971 -47.762   9.867  1.00  0.00     0.044 A 
HETATM    3  C   UNL     1     -43.670 -47.543  10.333  1.00  0.00     0.034 A 
HETATM    4  C   UNL     1     -42.989 -46.354  10.060  1.00  0.00     0.045 A 
HETATM    5  C   UNL     1     -43.727 -45.447   9.289  1.00  0.00     0.118 A 
HETATM    6  N   UNL     1     -44.991 -45.625   8.815  1.00  0.00    -0.355 N 
ATOM      7  HN  UNL     1     -45.456 -44.914   8.251  1.00  0.00     0.166 HD
ENDROOT
BRANCH   4   8
HETATM    8  N   UNL     1     -41.720 -46.087  10.530  1.00  0.00    -0.376 N 
HETATM    9  C   UNL     1     -40.810 -47.154  10.987  1.00  0.00     0.149 C 
HETATM   10  C   UNL     1     -40.517 -46.984  12.491  1.00  0.00     0.187 C 
HETATM   11  O   UNL     1     -40.017 -45.671  12.796  1.00  0.00    -0.388 OA
HETATM   12  C   UNL     1     -40.967 -44.667  12.399  1.00  0.00     0.187 C 
HETATM   13  C   UNL     1     -41.249 -44.739  10.892  1.00  0.00     0.149 C 
ENDBRANCH   4   8
BRANCH   1  14
HETATM   14  N   UNL     1     -46.885 -46.964   8.637  1.00  0.00    -0.289 NA
HETATM   15  H   UNL     1     -47.326 -47.771   9.061  1.00  0.00     0.125 HD
HETATM   16  H   UNL     1     -47.397 -46.107   8.838  1.00  0.00     0.125 HD
ENDBRANCH   1  14
TORSDOF 2
ENDMDL
MODEL 8
REMARK VINA RESULT:      -4.7      3.226      4.693
REMARK  2 active torsions:
REMARK  status: ('A' for Active; 'I' for Inactive)
REMARK    1  A    between atoms: N_1  and  C_2 
REMARK    2  A    between atoms: C_5  and  N_9 
ROOT
HETATM    1  C   UNL     1     -41.061 -51.697  11.830  1.00  0.00     0.077 A 
HETATM    2  C   UNL     1     -42.174 -51.285  12.536  1.00  0.00     0.044 A 
HETATM    3  C   UNL     1     -42.560 -49.941  12.476  1.00  0.00     0.034 A 
HETATM    4  C   UNL     1     -41.841 -49.009  11.723  1.00  0.00     0.045 A 
HETATM    5  C   UNL     1     -40.729 -49.553  11.068  1.00  0.00     0.118 A 
HETATM    6  N   UNL     1     -40.321 -50.852  11.104  1.00  0.00    -0.355 N 
ATOM      7  HN  UNL     1     -39.490 -51.166  10.602  1.00  0.00     0.166 HD
ENDROOT
BRANCH   4   8
HETATM    8  N   UNL     1     -42.209 -47.685  11.611  1.00  0.00    -0.376 N 
HETATM    9  C   UNL     1     -43.415 -47.264  10.874  1.00  0.00     0.149 C 
HETATM   10  C   UNL     1     -43.013 -46.406   9.658  1.00  0.00     0.187 C 
HETATM   11  O   UNL     1     -42.187 -45.291  10.036  1.00  0.00    -0.388 OA
HETATM   12  C   UNL     1     -40.990 -45.752  10.688  1.00  0.00     0.187 C 
HETATM   13  C   UNL     1     -41.323 -46.558  11.951  1.00  0.00     0.149 C 
ENDBRANCH   4   8
BRANCH   1  14
HETATM   14  N   UNL     1     -40.642 -53.024  11.873  1.00  0.00    -0.289 NA
HETATM   15  H   UNL     1     -40.044 -53.247  11.086  1.00  0.00     0.125 HD
HETATM   16  H   UNL     1     -40.157 -53.145  12.760  1.00  0.00     0.125 HD
ENDBRANCH   1  14
TORSDOF 2
ENDMDL
MODEL 9
REMARK VINA RESULT:      -4.7      2.096      3.045
REMARK  2 active torsions:
REMARK  status: ('A' for Active; 'I' for Inactive)
REMARK    1  A    between atoms: N_1  and  C_2 
REMARK    2  A    between atoms: C_5  and  N_9 
ROOT
HETATM    1  C   UNL     1     -43.616 -47.504   8.404  1.00  0.00     0.077 A 
HETATM    2  C   UNL     1     -44.022 -46.212   8.673  1.00  0.00     0.044 A 
HETATM    3  C   UNL     1     -43.398 -45.503   9.707  1.00  0.00     0.034 A 
HETATM    4  C   UNL     1     -42.380 -46.078  10.472  1.00  0.00     0.045 A 
HETATM    5  C   UNL     1     -42.074 -47.394  10.105  1.00  0.00     0.118 A 
HETATM    6  N   UNL     1     -42.660 -48.116   9.110  1.00  0.00    -0.355 N 
ATOM      7  HN  UNL     1     -42.382 -49.078   8.912  1.00  0.00     0.166 HD
ENDROOT
BRANCH   4   8
HETATM    8  N   UNL     1     -41.717 -45.401  11.475  1.00  0.00    -0.376 N 
HETATM    9  C   UNL     1     -42.383 -45.009  12.731  1.00  0.00     0.149 C 
HETATM   10  C   UNL     1     -42.424 -43.472  12.843  1.00  0.00     0.187 C 
HETATM   11  O   UNL     1     -41.117 -42.887  12.712  1.00  0.00    -0.388 OA
HETATM   12  C   UNL     1     -40.536 -43.238  11.443  1.00  0.00     0.187 C 
HETATM   13  C   UNL     1     -40.402 -44.761  11.299  1.00  0.00     0.149 C 
ENDBRANCH   4   8
BRANCH   1  14
HETATM   14  N   UNL     1     -44.220 -48.243   7.389  1.00  0.00    -0.289 NA
HETATM   15  H   UNL     1     -44.969 -48.820   7.750  1.00  0.00     0.125 HD
HETATM   16  H   UNL     1     -44.559 -47.569   6.705  1.00  0.00     0.125 HD
ENDBRANCH   1  14
TORSDOF 2
ENDMDL
