MODEL 1
REMARK VINA RESULT:      -7.6      0.000      0.000
REMARK  7 active torsions:
REMARK  status: ('A' for Active; 'I' for Inactive)
REMARK    1  A    between atoms: N_1  and  C_11 
REMARK    2  A    between atoms: N_2  and  C1*_5 
REMARK       I    between atoms: N_8  and  C_9 
REMARK    3  A    between atoms: C_9  and  C_11 
REMARK    4  A    between atoms: N_10  and  C_16 
REMARK    5  A    between atoms: C4*_17  and  C5*_31 
REMARK    6  A    between atoms: C3*_19  and  O3*_30 
REMARK    7  A    between atoms: C5*_31  and  O5*_32 
ROOT
HETATM    1  N   UNL     1     -40.788 -50.477  13.195  1.00  0.00    -0.257 N 
HETATM    2  N   UNL     1     -40.889 -48.304  12.262  1.00  0.00    -0.281 N 
HETATM    3  C   UNL     1     -41.408 -49.240  13.153  1.00  0.00     0.334 C 
HETATM    4  C   UNL     1     -39.537 -50.718  12.655  1.00  0.00     0.259 C 
HETATM    5  C   UNL     1     -38.909 -49.588  11.912  1.00  0.00     0.022 C 
HETATM    6  C   UNL     1     -39.635 -48.479  11.711  1.00  0.00     0.110 C 
HETATM    7  O   UNL     1     -42.381 -48.991  13.859  1.00  0.00    -0.246 OA
HETATM    8  O   UNL     1     -38.925 -51.769  12.799  1.00  0.00    -0.267 OA
HETATM    9  C   UNL     1     -37.501 -49.744  11.416  1.00  0.00     0.056 C 
ENDROOT
BRANCH   1  10
HETATM   10  C   UNL     1     -41.500 -51.536  13.925  1.00  0.00     0.240 C 
BRANCH  10  11
HETATM   11  C   UNL     1     -42.378 -52.379  12.982  1.00  0.00     0.242 C 
HETATM   12  N   UNL     1     -43.655 -52.777  13.358  1.00  0.00    -0.316 N 
HETATM   13  C   UNL     1     -44.565 -52.307  14.325  1.00  0.00     0.043 C 
HETATM   14  C   UNL     1     -44.163 -54.063  12.839  1.00  0.00     0.137 C 
HETATM   15  C   UNL     1     -45.514 -53.302  14.589  1.00  0.00    -0.027 C 
HETATM   16  C   UNL     1     -44.689 -51.080  14.951  1.00  0.00     0.033 C 
HETATM   17  C   UNL     1     -46.411 -53.214  15.644  1.00  0.00     0.045 C 
HETATM   18  C   UNL     1     -45.485 -54.365  13.542  1.00  0.00     0.061 C 
HETATM   19  C   UNL     1     -46.439 -52.016  16.376  1.00  0.00     0.103 C 
HETATM   20  C   UNL     1     -45.649 -50.926  15.969  1.00  0.00     0.038 C 
HETATM   21  O   UNL     1     -41.874 -52.838  11.944  1.00  0.00    -0.271 OA
BRANCH  19  22
HETATM   22  N   UNL     1     -47.290 -51.932  17.555  1.00  0.00    -0.116 N 
HETATM   23  O   UNL     1     -46.812 -52.302  18.639  1.00  0.00    -0.532 OA
HETATM   24  O   UNL     1     -48.428 -51.469  17.409  1.00  0.00    -0.532 OA
ENDBRANCH  19  22
ENDBRANCH  10  11
ENDBRANCH   1  10
BRANCH   2  25
HETATM   25  C1* UNL     1     -41.775 -47.170  11.934  1.00  0.00     0.235 C 
HETATM   26  O4* UNL     1     -42.455 -47.330  10.668  1.00  0.00    -0.356 OA
HETATM   27  C4* UNL     1     -42.444 -46.059   9.975  1.00  0.00     0.176 C 
HETATM   28  C3* UNL     1     -41.948 -44.995  10.961  1.00  0.00     0.153 C 
HETATM   29  C2* UNL     1     -41.115 -45.790  11.939  1.00  0.00     0.088 C 
BRANCH  27  30
HETATM   30  C5* UNL     1     -43.802 -45.755   9.323  1.00  0.00     0.198 C 
BRANCH  30  31
HETATM   31  O5* UNL     1     -44.050 -44.351   9.227  1.00  0.00    -0.398 OA
HETATM   32  H5* UNL     1     -44.804 -44.241   8.616  1.00  0.00     0.209 HD
ENDBRANCH  30  31
ENDBRANCH  27  30
BRANCH  28  33
HETATM   33  O3* UNL     1     -42.959 -44.313  11.701  1.00  0.00    -0.393 OA
HETATM   34  H3* UNL     1     -43.105 -44.775  12.554  1.00  0.00     0.210 HD
ENDBRANCH  28  33
ENDBRANCH   2  25
TORSDOF 7
ENDMDL
MODEL 2
REMARK VINA RESULT:      -7.5      2.141      3.143
REMARK  7 active torsions:
REMARK  status: ('A' for Active; 'I' for Inactive)
REMARK    1  A    between atoms: N_1  and  C_11 
REMARK    2  A    between atoms: N_2  and  C1*_5 
REMARK       I    between atoms: N_8  and  C_9 
REMARK    3  A    between atoms: C_9  and  C_11 
REMARK    4  A    between atoms: N_10  and  C_16 
REMARK    5  A    between atoms: C4*_17  and  C5*_31 
REMARK    6  A    between atoms: C3*_19  and  O3*_30 
REMARK    7  A    between atoms: C5*_31  and  O5*_32 
ROOT
HETATM    1  N   UNL     1     -41.074 -48.252  13.502  1.00  0.00    -0.257 N 
HETATM    2  N   UNL     1     -42.102 -46.854  11.892  1.00  0.00    -0.281 N 
HETATM    3  C   UNL     1     -42.194 -47.951  12.744  1.00  0.00     0.334 C 
HETATM    4  C   UNL     1     -40.025 -47.369  13.688  1.00  0.00     0.259 C 
HETATM    5  C   UNL     1     -40.099 -46.086  12.933  1.00  0.00     0.022 C 
HETATM    6  C   UNL     1     -41.091 -45.928  12.046  1.00  0.00     0.110 C 
HETATM    7  O   UNL     1     -43.210 -48.636  12.812  1.00  0.00    -0.246 OA
HETATM    8  O   UNL     1     -39.094 -47.572  14.458  1.00  0.00    -0.267 OA
HETATM    9  C   UNL     1     -39.058 -45.035  13.192  1.00  0.00     0.056 C 
ENDROOT
BRANCH   1  10
HETATM   10  C   UNL     1     -41.081 -49.554  14.184  1.00  0.00     0.240 C 
BRANCH  10  11
HETATM   11  C   UNL     1     -40.581 -50.679  13.258  1.00  0.00     0.242 C 
HETATM   12  N   UNL     1     -41.200 -51.922  13.243  1.00  0.00    -0.316 N 
HETATM   13  C   UNL     1     -42.473 -52.370  13.648  1.00  0.00     0.043 C 
HETATM   14  C   UNL     1     -40.371 -53.108  12.949  1.00  0.00     0.137 C 
HETATM   15  C   UNL     1     -42.442 -53.760  13.815  1.00  0.00    -0.027 C 
HETATM   16  C   UNL     1     -43.669 -51.700  13.826  1.00  0.00     0.033 C 
HETATM   17  C   UNL     1     -43.481 -54.461  14.409  1.00  0.00     0.045 C 
HETATM   18  C   UNL     1     -41.227 -54.351  13.183  1.00  0.00     0.061 C 
HETATM   19  C   UNL     1     -44.651 -53.750  14.724  1.00  0.00     0.103 C 
HETATM   20  C   UNL     1     -44.775 -52.400  14.346  1.00  0.00     0.038 C 
HETATM   21  O   UNL     1     -39.517 -50.517  12.640  1.00  0.00    -0.271 OA
BRANCH  19  22
HETATM   22  N   UNL     1     -45.716 -54.431  15.445  1.00  0.00    -0.116 N 
HETATM   23  O   UNL     1     -45.660 -54.437  16.686  1.00  0.00    -0.532 OA
HETATM   24  O   UNL     1     -46.628 -54.938  14.780  1.00  0.00    -0.532 OA
ENDBRANCH  19  22
ENDBRANCH  10  11
ENDBRANCH   1  10
BRANCH   2  25
HETATM   25  C1* UNL     1     -43.116 -46.787  10.821  1.00  0.00     0.235 C 
HETATM   26  O4* UNL     1     -42.912 -47.775   9.784  1.00  0.00    -0.356 OA
HETATM   27  C4* UNL     1     -43.151 -47.150   8.500  1.00  0.00     0.176 C 
HETATM   28  C3* UNL     1     -43.772 -45.773   8.759  1.00  0.00     0.153 C 
HETATM   29  C2* UNL     1     -43.277 -45.425  10.144  1.00  0.00     0.088 C 
BRANCH  27  30
HETATM   30  C5* UNL     1     -43.963 -48.062   7.568  1.00  0.00     0.198 C 
BRANCH  30  31
HETATM   31  O5* UNL     1     -45.265 -48.340   8.088  1.00  0.00    -0.398 OA
HETATM   32  H5* UNL     1     -45.870 -47.678   7.699  1.00  0.00     0.209 HD
ENDBRANCH  30  31
ENDBRANCH  27  30
BRANCH  28  33
HETATM   33  O3* UNL     1     -45.197 -45.728   8.780  1.00  0.00    -0.393 OA
HETATM   34  H3* UNL     1     -45.533 -46.337   9.472  1.00  0.00     0.210 HD
ENDBRANCH  28  33
ENDBRANCH   2  25
TORSDOF 7
ENDMDL
MODEL 3
REMARK VINA RESULT:      -7.4      2.206      7.643
REMARK  7 active torsions:
REMARK  status: ('A' for Active; 'I' for Inactive)
REMARK    1  A    between atoms: N_1  and  C_11 
REMARK    2  A    between atoms: N_2  and  C1*_5 
REMARK       I    between atoms: N_8  and  C_9 
REMARK    3  A    between atoms: C_9  and  C_11 
REMARK    4  A    between atoms: N_10  and  C_16 
REMARK    5  A    between atoms: C4*_17  and  C5*_31 
REMARK    6  A    between atoms: C3*_19  and  O3*_30 
REMARK    7  A    between atoms: C5*_31  and  O5*_32 
ROOT
HETATM    1  N   UNL     1     -40.470 -51.788  13.103  1.00  0.00    -0.257 N 
HETATM    2  N   UNL     1     -42.280 -53.205  13.669  1.00  0.00    -0.281 N 
HETATM    3  C   UNL     1     -41.812 -52.100  12.964  1.00  0.00     0.334 C 
HETATM    4  C   UNL     1     -39.539 -52.665  13.629  1.00  0.00     0.259 C 
HETATM    5  C   UNL     1     -40.068 -53.957  14.153  1.00  0.00     0.022 C 
HETATM    6  C   UNL     1     -41.397 -54.127  14.195  1.00  0.00     0.110 C 
HETATM    7  O   UNL     1     -42.554 -51.418  12.262  1.00  0.00    -0.246 OA
HETATM    8  O   UNL     1     -38.332 -52.452  13.638  1.00  0.00    -0.267 OA
HETATM    9  C   UNL     1     -39.094 -55.002  14.616  1.00  0.00     0.056 C 
ENDROOT
BRANCH   1  10
HETATM   10  C   UNL     1     -40.049 -50.479  12.584  1.00  0.00     0.240 C 
BRANCH  10  11
HETATM   11  C   UNL     1     -40.149 -49.385  13.663  1.00  0.00     0.242 C 
HETATM   12  N   UNL     1     -40.693 -48.140  13.372  1.00  0.00    -0.316 N 
HETATM   13  C   UNL     1     -41.545 -47.675  12.351  1.00  0.00     0.043 C 
HETATM   14  C   UNL     1     -40.174 -46.967  14.103  1.00  0.00     0.137 C 
HETATM   15  C   UNL     1     -41.447 -46.281  12.266  1.00  0.00    -0.027 C 
HETATM   16  C   UNL     1     -42.442 -48.335  11.532  1.00  0.00     0.033 C 
HETATM   17  C   UNL     1     -42.004 -45.558  11.221  1.00  0.00     0.045 C 
HETATM   18  C   UNL     1     -40.780 -45.714  13.474  1.00  0.00     0.061 C 
HETATM   19  C   UNL     1     -42.803 -46.255  10.301  1.00  0.00     0.103 C 
HETATM   20  C   UNL     1     -43.095 -47.615  10.513  1.00  0.00     0.038 C 
HETATM   21  O   UNL     1     -39.592 -49.569  14.757  1.00  0.00    -0.271 OA
BRANCH  19  22
HETATM   22  N   UNL     1     -43.312 -45.548   9.134  1.00  0.00    -0.116 N 
HETATM   23  O   UNL     1     -43.812 -44.426   9.312  1.00  0.00    -0.532 OA
HETATM   24  O   UNL     1     -43.190 -46.097   8.032  1.00  0.00    -0.532 OA
ENDBRANCH  19  22
ENDBRANCH  10  11
ENDBRANCH   1  10
BRANCH   2  25
HETATM   25  C1* UNL     1     -43.744 -53.287  13.838  1.00  0.00     0.235 C 
HETATM   26  O4* UNL     1     -44.262 -52.312  14.772  1.00  0.00    -0.356 OA
HETATM   27  C4* UNL     1     -45.264 -52.952  15.598  1.00  0.00     0.176 C 
HETATM   28  C3* UNL     1     -45.561 -54.326  14.989  1.00  0.00     0.153 C 
HETATM   29  C2* UNL     1     -44.289 -54.657  14.242  1.00  0.00     0.088 C 
BRANCH  27  30
HETATM   30  C5* UNL     1     -46.493 -52.052  15.799  1.00  0.00     0.198 C 
BRANCH  30  31
HETATM   31  O5* UNL     1     -46.899 -51.419  14.584  1.00  0.00    -0.398 OA
HETATM   32  H5* UNL     1     -47.876 -51.414  14.583  1.00  0.00     0.209 HD
ENDBRANCH  30  31
ENDBRANCH  27  30
BRANCH  28  33
HETATM   33  O3* UNL     1     -46.640 -54.374  14.057  1.00  0.00    -0.393 OA
HETATM   34  H3* UNL     1     -47.330 -54.987  14.390  1.00  0.00     0.210 HD
ENDBRANCH  28  33
ENDBRANCH   2  25
TORSDOF 7
ENDMDL
MODEL 4
REMARK VINA RESULT:      -6.9      5.468     10.853
REMARK  7 active torsions:
REMARK  status: ('A' for Active; 'I' for Inactive)
REMARK    1  A    between atoms: N_1  and  C_11 
REMARK    2  A    between atoms: N_2  and  C1*_5 
REMARK       I    between atoms: N_8  and  C_9 
REMARK    3  A    between atoms: C_9  and  C_11 
REMARK    4  A    between atoms: N_10  and  C_16 
REMARK    5  A    between atoms: C4*_17  and  C5*_31 
REMARK    6  A    between atoms: C3*_19  and  O3*_30 
REMARK    7  A    between atoms: C5*_31  and  O5*_32 
ROOT
HETATM    1  N   UNL     1     -46.223 -52.882  18.273  1.00  0.00    -0.257 N 
HETATM    2  N   UNL     1     -47.416 -54.380  19.664  1.00  0.00    -0.281 N 
HETATM    3  C   UNL     1     -46.306 -54.133  18.861  1.00  0.00     0.334 C 
HETATM    4  C   UNL     1     -46.987 -51.802  18.677  1.00  0.00     0.259 C 
HETATM    5  C   UNL     1     -48.007 -52.070  19.731  1.00  0.00     0.022 C 
HETATM    6  C   UNL     1     -48.201 -53.339  20.118  1.00  0.00     0.110 C 
HETATM    7  O   UNL     1     -45.445 -54.986  18.666  1.00  0.00    -0.246 OA
HETATM    8  O   UNL     1     -46.832 -50.662  18.254  1.00  0.00    -0.267 OA
HETATM    9  C   UNL     1     -48.776 -50.914  20.303  1.00  0.00     0.056 C 
ENDROOT
BRANCH   1  10
HETATM   10  C   UNL     1     -45.208 -52.723  17.222  1.00  0.00     0.240 C 
BRANCH  10  11
HETATM   11  C   UNL     1     -45.716 -53.238  15.863  1.00  0.00     0.242 C 
HETATM   12  N   UNL     1     -44.830 -53.672  14.884  1.00  0.00    -0.316 N 
HETATM   13  C   UNL     1     -43.490 -54.106  14.922  1.00  0.00     0.043 C 
HETATM   14  C   UNL     1     -45.211 -53.485  13.470  1.00  0.00     0.137 C 
HETATM   15  C   UNL     1     -42.941 -54.021  13.636  1.00  0.00    -0.027 C 
HETATM   16  C   UNL     1     -42.721 -54.626  15.946  1.00  0.00     0.033 C 
HETATM   17  C   UNL     1     -41.584 -54.178  13.395  1.00  0.00     0.045 C 
HETATM   18  C   UNL     1     -44.007 -53.854  12.605  1.00  0.00     0.061 C 
HETATM   19  C   UNL     1     -40.772 -54.569  14.472  1.00  0.00     0.103 C 
HETATM   20  C   UNL     1     -41.356 -54.882  15.713  1.00  0.00     0.038 C 
HETATM   21  O   UNL     1     -46.920 -53.112  15.587  1.00  0.00    -0.271 OA
BRANCH  19  22
HETATM   22  N   UNL     1     -39.331 -54.637  14.279  1.00  0.00    -0.116 N 
HETATM   23  O   UNL     1     -38.799 -53.751  13.591  1.00  0.00    -0.532 OA
HETATM   24  O   UNL     1     -38.720 -55.558  14.835  1.00  0.00    -0.532 OA
ENDBRANCH  19  22
ENDBRANCH  10  11
ENDBRANCH   1  10
BRANCH   2  25
HETATM   25  C1* UNL     1     -47.700 -55.801  19.946  1.00  0.00     0.235 C 
HETATM   26  O4* UNL     1     -49.108 -56.124  19.869  1.00  0.00    -0.356 OA
HETATM   27  C4* UNL     1     -49.439 -57.007  20.967  1.00  0.00     0.176 C 
HETATM   28  C3* UNL     1     -48.126 -57.453  21.619  1.00  0.00     0.153 C 
HETATM   29  C2* UNL     1     -47.172 -56.330  21.281  1.00  0.00     0.088 C 
BRANCH  27  30
HETATM   30  C5* UNL     1     -50.360 -58.151  20.517  1.00  0.00     0.198 C 
BRANCH  30  31
HETATM   31  O5* UNL     1     -49.949 -58.713  19.269  1.00  0.00    -0.398 OA
HETATM   32  H5* UNL     1     -50.716 -58.650  18.666  1.00  0.00     0.209 HD
ENDBRANCH  30  31
ENDBRANCH  27  30
BRANCH  28  33
HETATM   33  O3* UNL     1     -47.566 -58.667  21.123  1.00  0.00    -0.393 OA
HETATM   34  H3* UNL     1     -46.713 -58.474  20.678  1.00  0.00     0.210 HD
ENDBRANCH  28  33
ENDBRANCH   2  25
TORSDOF 7
ENDMDL
MODEL 5
REMARK VINA RESULT:      -6.8      1.640      1.858
REMARK  7 active torsions:
REMARK  status: ('A' for Active; 'I' for Inactive)
REMARK    1  A    between atoms: N_1  and  C_11 
REMARK    2  A    between atoms: N_2  and  C1*_5 
REMARK       I    between atoms: N_8  and  C_9 
REMARK    3  A    between atoms: C_9  and  C_11 
REMARK    4  A    between atoms: N_10  and  C_16 
REMARK    5  A    between atoms: C4*_17  and  C5*_31 
REMARK    6  A    between atoms: C3*_19  and  O3*_30 
REMARK    7  A    between atoms: C5*_31  and  O5*_32 
ROOT
HETATM    1  N   UNL     1     -40.603 -50.914  13.793  1.00  0.00    -0.257 N 
HETATM    2  N   UNL     1     -39.865 -48.741  13.213  1.00  0.00    -0.281 N 
HETATM    3  C   UNL     1     -40.787 -49.544  13.879  1.00  0.00     0.334 C 
HETATM    4  C   UNL     1     -39.422 -51.495  13.368  1.00  0.00     0.259 C 
HETATM    5  C   UNL     1     -38.360 -50.564  12.890  1.00  0.00     0.022 C 
HETATM    6  C   UNL     1     -38.659 -49.261  12.787  1.00  0.00     0.110 C 
HETATM    7  O   UNL     1     -41.732 -49.066  14.500  1.00  0.00    -0.246 OA
HETATM    8  O   UNL     1     -39.203 -52.700  13.411  1.00  0.00    -0.267 OA
HETATM    9  C   UNL     1     -37.013 -51.124  12.538  1.00  0.00     0.056 C 
ENDROOT
BRANCH   1  10
HETATM   10  C   UNL     1     -41.718 -51.750  14.259  1.00  0.00     0.240 C 
BRANCH  10  11
HETATM   11  C   UNL     1     -42.801 -51.902  13.175  1.00  0.00     0.242 C 
HETATM   12  N   UNL     1     -44.150 -51.914  13.507  1.00  0.00    -0.316 N 
HETATM   13  C   UNL     1     -44.870 -51.464  14.631  1.00  0.00     0.043 C 
HETATM   14  C   UNL     1     -45.065 -52.717  12.670  1.00  0.00     0.137 C 
HETATM   15  C   UNL     1     -46.123 -52.088  14.657  1.00  0.00    -0.027 C 
HETATM   16  C   UNL     1     -44.570 -50.522  15.597  1.00  0.00     0.033 C 
HETATM   17  C   UNL     1     -46.971 -52.009  15.753  1.00  0.00     0.045 C 
HETATM   18  C   UNL     1     -46.435 -52.726  13.345  1.00  0.00     0.061 C 
HETATM   19  C   UNL     1     -46.598 -51.157  16.805  1.00  0.00     0.103 C 
HETATM   20  C   UNL     1     -45.453 -50.349  16.682  1.00  0.00     0.038 C 
HETATM   21  O   UNL     1     -42.453 -52.177  12.015  1.00  0.00    -0.271 OA
BRANCH  19  22
HETATM   22  N   UNL     1     -47.410 -51.133  18.013  1.00  0.00    -0.116 N 
HETATM   23  O   UNL     1     -48.602 -51.466  17.914  1.00  0.00    -0.532 OA
HETATM   24  O   UNL     1     -46.855 -50.811  19.071  1.00  0.00    -0.532 OA
ENDBRANCH  19  22
ENDBRANCH  10  11
ENDBRANCH   1  10
BRANCH   2  25
HETATM   25  C1* UNL     1     -40.284 -47.346  12.971  1.00  0.00     0.235 C 
HETATM   26  O4* UNL     1     -40.365 -47.014  11.566  1.00  0.00    -0.356 OA
HETATM   27  C4* UNL     1     -39.811 -45.691  11.373  1.00  0.00     0.176 C 
HETATM   28  C3* UNL     1     -39.597 -45.068  12.757  1.00  0.00     0.153 C 
HETATM   29  C2* UNL     1     -39.440 -46.271  13.657  1.00  0.00     0.088 C 
BRANCH  27  30
HETATM   30  C5* UNL     1     -40.665 -44.853  10.410  1.00  0.00     0.198 C 
BRANCH  30  31
HETATM   31  O5* UNL     1     -40.246 -43.487  10.371  1.00  0.00    -0.398 OA
HETATM   32  H5* UNL     1     -40.233 -43.224   9.430  1.00  0.00     0.209 HD
ENDBRANCH  30  31
ENDBRANCH  27  30
BRANCH  28  33
HETATM   33  O3* UNL     1     -40.677 -44.283  13.259  1.00  0.00    -0.393 OA
HETATM   34  H3* UNL     1     -40.331 -43.630  13.905  1.00  0.00     0.210 HD
ENDBRANCH  28  33
ENDBRANCH   2  25
TORSDOF 7
ENDMDL
MODEL 6
REMARK VINA RESULT:      -6.7      3.486      7.882
REMARK  7 active torsions:
REMARK  status: ('A' for Active; 'I' for Inactive)
REMARK    1  A    between atoms: N_1  and  C_11 
REMARK    2  A    between atoms: N_2  and  C1*_5 
REMARK       I    between atoms: N_8  and  C_9 
REMARK    3  A    between atoms: C_9  and  C_11 
REMARK    4  A    between atoms: N_10  and  C_16 
REMARK    5  A    between atoms: C4*_17  and  C5*_31 
REMARK    6  A    between atoms: C3*_19  and  O3*_30 
REMARK    7  A    between atoms: C5*_31  and  O5*_32 
ROOT
HETATM    1  N   UNL     1     -40.022 -51.679  13.339  1.00  0.00    -0.257 N 
HETATM    2  N   UNL     1     -41.726 -53.237  13.860  1.00  0.00    -0.281 N 
HETATM    3  C   UNL     1     -41.136 -52.391  12.925  1.00  0.00     0.334 C 
HETATM    4  C   UNL     1     -39.303 -51.991  14.478  1.00  0.00     0.259 C 
HETATM    5  C   UNL     1     -39.851 -53.087  15.327  1.00  0.00     0.022 C 
HETATM    6  C   UNL     1     -41.046 -53.602  15.005  1.00  0.00     0.110 C 
HETATM    7  O   UNL     1     -41.588 -52.262  11.791  1.00  0.00    -0.246 OA
HETATM    8  O   UNL     1     -38.245 -51.454  14.784  1.00  0.00    -0.267 OA
HETATM    9  C   UNL     1     -39.049 -53.558  16.506  1.00  0.00     0.056 C 
ENDROOT
BRANCH   1  10
HETATM   10  C   UNL     1     -39.576 -50.596  12.450  1.00  0.00     0.240 C 
BRANCH  10  11
HETATM   11  C   UNL     1     -40.427 -49.327  12.635  1.00  0.00     0.242 C 
HETATM   12  N   UNL     1     -40.118 -48.394  13.617  1.00  0.00    -0.316 N 
HETATM   13  C   UNL     1     -38.944 -48.114  14.344  1.00  0.00     0.043 C 
HETATM   14  C   UNL     1     -41.227 -47.637  14.230  1.00  0.00     0.137 C 
HETATM   15  C   UNL     1     -39.276 -47.381  15.491  1.00  0.00    -0.027 C 
HETATM   16  C   UNL     1     -37.613 -48.376  14.078  1.00  0.00     0.033 C 
HETATM   17  C   UNL     1     -38.364 -47.140  16.508  1.00  0.00     0.045 C 
HETATM   18  C   UNL     1     -40.660 -46.834  15.399  1.00  0.00     0.061 C 
HETATM   19  C   UNL     1     -37.033 -47.536  16.298  1.00  0.00     0.103 C 
HETATM   20  C   UNL     1     -36.646 -48.063  15.053  1.00  0.00     0.038 C 
HETATM   21  O   UNL     1     -41.490 -49.221  12.003  1.00  0.00    -0.271 OA
BRANCH  19  22
HETATM   22  N   UNL     1     -36.076 -47.395  17.387  1.00  0.00    -0.116 N 
HETATM   23  O   UNL     1     -36.404 -46.690  18.354  1.00  0.00    -0.532 OA
HETATM   24  O   UNL     1     -35.007 -48.011  17.294  1.00  0.00    -0.532 OA
ENDBRANCH  19  22
ENDBRANCH  10  11
ENDBRANCH   1  10
BRANCH   2  25
HETATM   25  C1* UNL     1     -43.106 -53.665  13.557  1.00  0.00     0.235 C 
HETATM   26  O4* UNL     1     -44.051 -52.570  13.553  1.00  0.00    -0.356 OA
HETATM   27  C4* UNL     1     -45.263 -53.005  14.214  1.00  0.00     0.176 C 
HETATM   28  C3* UNL     1     -45.162 -54.520  14.424  1.00  0.00     0.153 C 
HETATM   29  C2* UNL     1     -43.671 -54.766  14.456  1.00  0.00     0.088 C 
BRANCH  27  30
HETATM   30  C5* UNL     1     -46.519 -52.538  13.461  1.00  0.00     0.198 C 
BRANCH  30  31
HETATM   31  O5* UNL     1     -46.475 -52.886  12.076  1.00  0.00    -0.398 OA
HETATM   32  H5* UNL     1     -46.820 -52.117  11.582  1.00  0.00     0.209 HD
ENDBRANCH  30  31
ENDBRANCH  27  30
BRANCH  28  33
HETATM   33  O3* UNL     1     -45.717 -55.330  13.391  1.00  0.00    -0.393 OA
HETATM   34  H3* UNL     1     -45.097 -55.359  12.631  1.00  0.00     0.210 HD
ENDBRANCH  28  33
ENDBRANCH   2  25
TORSDOF 7
ENDMDL
MODEL 7
REMARK VINA RESULT:      -6.5      2.685      4.212
REMARK  7 active torsions:
REMARK  status: ('A' for Active; 'I' for Inactive)
REMARK    1  A    between atoms: N_1  and  C_11 
REMARK    2  A    between atoms: N_2  and  C1*_5 
REMARK       I    between atoms: N_8  and  C_9 
REMARK    3  A    between atoms: C_9  and  C_11 
REMARK    4  A    between atoms: N_10  and  C_16 
REMARK    5  A    between atoms: C4*_17  and  C5*_31 
REMARK    6  A    between atoms: C3*_19  and  O3*_30 
REMARK    7  A    between atoms: C5*_31  and  O5*_32 
ROOT
HETATM    1  N   UNL     1     -40.372 -49.429  13.891  1.00  0.00    -0.257 N 
HETATM    2  N   UNL     1     -40.142 -48.146  11.915  1.00  0.00    -0.281 N 
HETATM    3  C   UNL     1     -40.709 -48.290  13.179  1.00  0.00     0.334 C 
HETATM    4  C   UNL     1     -39.301 -50.240  13.563  1.00  0.00     0.259 C 
HETATM    5  C   UNL     1     -38.565 -49.890  12.315  1.00  0.00     0.022 C 
HETATM    6  C   UNL     1     -39.056 -48.912  11.542  1.00  0.00     0.110 C 
HETATM    7  O   UNL     1     -41.485 -47.457  13.639  1.00  0.00    -0.246 OA
HETATM    8  O   UNL     1     -38.916 -51.173  14.258  1.00  0.00    -0.267 OA
HETATM    9  C   UNL     1     -37.317 -50.653  11.975  1.00  0.00     0.056 C 
ENDROOT
BRANCH   1  10
HETATM   10  C   UNL     1     -41.176 -49.707  15.090  1.00  0.00     0.240 C 
BRANCH  10  11
HETATM   11  C   UNL     1     -42.444 -50.510  14.747  1.00  0.00     0.242 C 
HETATM   12  N   UNL     1     -42.442 -51.899  14.779  1.00  0.00    -0.316 N 
HETATM   13  C   UNL     1     -41.609 -52.847  15.406  1.00  0.00     0.043 C 
HETATM   14  C   UNL     1     -43.325 -52.617  13.838  1.00  0.00     0.137 C 
HETATM   15  C   UNL     1     -41.776 -54.091  14.784  1.00  0.00    -0.027 C 
HETATM   16  C   UNL     1     -40.771 -52.752  16.501  1.00  0.00     0.033 C 
HETATM   17  C   UNL     1     -40.940 -55.168  15.040  1.00  0.00     0.045 C 
HETATM   18  C   UNL     1     -42.999 -54.107  13.931  1.00  0.00     0.061 C 
HETATM   19  C   UNL     1     -39.986 -55.025  16.061  1.00  0.00     0.103 C 
HETATM   20  C   UNL     1     -39.969 -53.858  16.846  1.00  0.00     0.038 C 
HETATM   21  O   UNL     1     -43.427 -49.910  14.284  1.00  0.00    -0.271 OA
BRANCH  19  22
HETATM   22  N   UNL     1     -39.024 -56.095  16.281  1.00  0.00    -0.116 N 
HETATM   23  O   UNL     1     -37.862 -55.918  15.880  1.00  0.00    -0.532 OA
HETATM   24  O   UNL     1     -39.416 -57.105  16.879  1.00  0.00    -0.532 OA
ENDBRANCH  19  22
ENDBRANCH  10  11
ENDBRANCH   1  10
BRANCH   2  25
HETATM   25  C1* UNL     1     -40.801 -47.171  11.023  1.00  0.00     0.235 C 
HETATM   26  O4* UNL     1     -41.123 -45.926  11.684  1.00  0.00    -0.356 OA
HETATM   27  C4* UNL     1     -42.440 -45.505  11.257  1.00  0.00     0.176 C 
HETATM   28  C3* UNL     1     -42.860 -46.403  10.088  1.00  0.00     0.153 C 
HETATM   29  C2* UNL     1     -42.064 -47.666  10.318  1.00  0.00     0.088 C 
BRANCH  27  30
HETATM   30  C5* UNL     1     -42.488 -43.997  10.966  1.00  0.00     0.198 C 
BRANCH  30  31
HETATM   31  O5* UNL     1     -43.572 -43.651  10.101  1.00  0.00    -0.398 OA
HETATM   32  H5* UNL     1     -43.383 -42.756   9.759  1.00  0.00     0.209 HD
ENDBRANCH  30  31
ENDBRANCH  27  30
BRANCH  28  33
HETATM   33  O3* UNL     1     -42.543 -45.917   8.785  1.00  0.00    -0.393 OA
HETATM   34  H3* UNL     1     -43.016 -45.072   8.629  1.00  0.00     0.210 HD
ENDBRANCH  28  33
ENDBRANCH   2  25
TORSDOF 7
ENDMDL
MODEL 8
REMARK VINA RESULT:      -6.5      3.092      4.770
REMARK  7 active torsions:
REMARK  status: ('A' for Active; 'I' for Inactive)
REMARK    1  A    between atoms: N_1  and  C_11 
REMARK    2  A    between atoms: N_2  and  C1*_5 
REMARK       I    between atoms: N_8  and  C_9 
REMARK    3  A    between atoms: C_9  and  C_11 
REMARK    4  A    between atoms: N_10  and  C_16 
REMARK    5  A    between atoms: C4*_17  and  C5*_31 
REMARK    6  A    between atoms: C3*_19  and  O3*_30 
REMARK    7  A    between atoms: C5*_31  and  O5*_32 
ROOT
HETATM    1  N   UNL     1     -41.723 -48.582  12.543  1.00  0.00    -0.257 N 
HETATM    2  N   UNL     1     -41.721 -46.234  12.843  1.00  0.00    -0.281 N 
HETATM    3  C   UNL     1     -41.610 -47.321  11.981  1.00  0.00     0.334 C 
HETATM    4  C   UNL     1     -42.237 -48.805  13.807  1.00  0.00     0.259 C 
HETATM    5  C   UNL     1     -42.576 -47.593  14.607  1.00  0.00     0.022 C 
HETATM    6  C   UNL     1     -42.249 -46.392  14.109  1.00  0.00     0.110 C 
HETATM    7  O   UNL     1     -41.403 -47.176  10.779  1.00  0.00    -0.246 OA
HETATM    8  O   UNL     1     -42.463 -49.920  14.263  1.00  0.00    -0.267 OA
HETATM    9  C   UNL     1     -43.257 -47.770  15.933  1.00  0.00     0.056 C 
ENDROOT
BRANCH   1  10
HETATM   10  C   UNL     1     -41.336 -49.712  11.686  1.00  0.00     0.240 C 
BRANCH  10  11
HETATM   11  C   UNL     1     -39.952 -50.265  12.074  1.00  0.00     0.242 C 
HETATM   12  N   UNL     1     -39.830 -51.404  12.860  1.00  0.00    -0.316 N 
HETATM   13  C   UNL     1     -40.706 -52.466  13.159  1.00  0.00     0.043 C 
HETATM   14  C   UNL     1     -38.663 -51.507  13.759  1.00  0.00     0.137 C 
HETATM   15  C   UNL     1     -40.262 -53.119  14.316  1.00  0.00    -0.027 C 
HETATM   16  C   UNL     1     -41.813 -52.960  12.494  1.00  0.00     0.033 C 
HETATM   17  C   UNL     1     -41.029 -54.068  14.975  1.00  0.00     0.045 C 
HETATM   18  C   UNL     1     -38.858 -52.735  14.645  1.00  0.00     0.061 C 
HETATM   19  C   UNL     1     -42.231 -54.470  14.370  1.00  0.00     0.103 C 
HETATM   20  C   UNL     1     -42.569 -53.987  13.093  1.00  0.00     0.038 C 
HETATM   21  O   UNL     1     -38.943 -49.592  11.810  1.00  0.00    -0.271 OA
BRANCH  19  22
HETATM   22  N   UNL     1     -43.111 -55.382  15.088  1.00  0.00    -0.116 N 
HETATM   23  O   UNL     1     -44.297 -55.442  14.727  1.00  0.00    -0.532 OA
HETATM   24  O   UNL     1     -42.615 -56.062  15.994  1.00  0.00    -0.532 OA
ENDBRANCH  19  22
ENDBRANCH  10  11
ENDBRANCH   1  10
BRANCH   2  25
HETATM   25  C1* UNL     1     -41.207 -44.950  12.327  1.00  0.00     0.235 C 
HETATM   26  O4* UNL     1     -40.883 -44.006  13.375  1.00  0.00    -0.356 OA
HETATM   27  C4* UNL     1     -41.340 -42.694  12.970  1.00  0.00     0.176 C 
HETATM   28  C3* UNL     1     -41.749 -42.777  11.495  1.00  0.00     0.153 C 
HETATM   29  C2* UNL     1     -42.103 -44.235  11.315  1.00  0.00     0.088 C 
BRANCH  27  30
HETATM   30  C5* UNL     1     -40.305 -41.607  13.295  1.00  0.00     0.198 C 
BRANCH  30  31
HETATM   31  O5* UNL     1     -38.965 -42.073  13.124  1.00  0.00    -0.398 OA
HETATM   32  H5* UNL     1     -38.670 -42.407  13.994  1.00  0.00     0.209 HD
ENDBRANCH  30  31
ENDBRANCH  27  30
BRANCH  28  33
HETATM   33  O3* UNL     1     -40.732 -42.454  10.549  1.00  0.00    -0.393 OA
HETATM   34  H3* UNL     1     -39.954 -42.086  11.020  1.00  0.00     0.210 HD
ENDBRANCH  28  33
ENDBRANCH   2  25
TORSDOF 7
ENDMDL
MODEL 9
REMARK VINA RESULT:      -6.5      5.988      7.688
REMARK  7 active torsions:
REMARK  status: ('A' for Active; 'I' for Inactive)
REMARK    1  A    between atoms: N_1  and  C_11 
REMARK    2  A    between atoms: N_2  and  C1*_5 
REMARK       I    between atoms: N_8  and  C_9 
REMARK    3  A    between atoms: C_9  and  C_11 
REMARK    4  A    between atoms: N_10  and  C_16 
REMARK    5  A    between atoms: C4*_17  and  C5*_31 
REMARK    6  A    between atoms: C3*_19  and  O3*_30 
REMARK    7  A    between atoms: C5*_31  and  O5*_32 
ROOT
HETATM    1  N   UNL     1     -40.946 -54.889  15.031  1.00  0.00    -0.257 N 
HETATM    2  N   UNL     1     -41.372 -53.457  13.194  1.00  0.00    -0.281 N 
HETATM    3  C   UNL     1     -40.463 -54.228  13.914  1.00  0.00     0.334 C 
HETATM    4  C   UNL     1     -42.294 -55.074  15.278  1.00  0.00     0.259 C 
HETATM    5  C   UNL     1     -43.237 -54.425  14.323  1.00  0.00     0.022 C 
HETATM    6  C   UNL     1     -42.731 -53.617  13.382  1.00  0.00     0.110 C 
HETATM    7  O   UNL     1     -39.282 -54.308  13.588  1.00  0.00    -0.246 OA
HETATM    8  O   UNL     1     -42.730 -55.767  16.191  1.00  0.00    -0.267 OA
HETATM    9  C   UNL     1     -44.708 -54.697  14.463  1.00  0.00     0.056 C 
ENDROOT
BRANCH   1  10
HETATM   10  C   UNL     1     -39.938 -55.469  15.930  1.00  0.00     0.240 C 
BRANCH  10  11
HETATM   11  C   UNL     1     -39.804 -54.653  17.229  1.00  0.00     0.242 C 
HETATM   12  N   UNL     1     -39.892 -55.267  18.473  1.00  0.00    -0.316 N 
HETATM   13  C   UNL     1     -39.738 -56.600  18.902  1.00  0.00     0.043 C 
HETATM   14  C   UNL     1     -40.450 -54.487  19.595  1.00  0.00     0.137 C 
HETATM   15  C   UNL     1     -40.341 -56.754  20.157  1.00  0.00    -0.027 C 
HETATM   16  C   UNL     1     -39.074 -57.675  18.341  1.00  0.00     0.033 C 
HETATM   17  C   UNL     1     -40.536 -57.997  20.740  1.00  0.00     0.045 C 
HETATM   18  C   UNL     1     -40.623 -55.430  20.784  1.00  0.00     0.061 C 
HETATM   19  C   UNL     1     -39.982 -59.114  20.095  1.00  0.00     0.103 C 
HETATM   20  C   UNL     1     -39.177 -58.939  18.955  1.00  0.00     0.038 C 
HETATM   21  O   UNL     1     -39.777 -53.414  17.159  1.00  0.00    -0.271 OA
BRANCH  19  22
HETATM   22  N   UNL     1     -40.262 -60.442  20.623  1.00  0.00    -0.116 N 
HETATM   23  O   UNL     1     -39.360 -61.292  20.552  1.00  0.00    -0.532 OA
HETATM   24  O   UNL     1     -41.371 -60.634  21.136  1.00  0.00    -0.532 OA
ENDBRANCH  19  22
ENDBRANCH  10  11
ENDBRANCH   1  10
BRANCH   2  25
HETATM   25  C1* UNL     1     -40.785 -52.461  12.277  1.00  0.00     0.235 C 
HETATM   26  O4* UNL     1     -39.476 -52.009  12.694  1.00  0.00    -0.356 OA
HETATM   27  C4* UNL     1     -39.397 -50.578  12.490  1.00  0.00     0.176 C 
HETATM   28  C3* UNL     1     -40.626 -50.154  11.679  1.00  0.00     0.153 C 
HETATM   29  C2* UNL     1     -41.642 -51.224  12.004  1.00  0.00     0.088 C 
BRANCH  27  30
HETATM   30  C5* UNL     1     -38.047 -50.164  11.884  1.00  0.00     0.198 C 
BRANCH  30  31
HETATM   31  O5* UNL     1     -38.157 -48.987  11.082  1.00  0.00    -0.398 OA
HETATM   32  H5* UNL     1     -37.323 -48.490  11.197  1.00  0.00     0.209 HD
ENDBRANCH  30  31
ENDBRANCH  27  30
BRANCH  28  33
HETATM   33  O3* UNL     1     -40.458 -50.125  10.263  1.00  0.00    -0.393 OA
HETATM   34  H3* UNL     1     -39.507 -50.233  10.046  1.00  0.00     0.210 HD
ENDBRANCH  28  33
ENDBRANCH   2  25
TORSDOF 7
ENDMDL
