MODEL 1
REMARK VINA RESULT:      -7.0      0.000      0.000
REMARK  6 active torsions:
REMARK  status: ('A' for Active; 'I' for Inactive)
REMARK    1  A    between atoms: C_2  and  C_3 
REMARK    2  A    between atoms: C_2  and  N_19 
REMARK    3  A    between atoms: C_3  and  N_4 
REMARK       I    between atoms: N_4  and  C_5 
REMARK    4  A    between atoms: C_5  and  C_7 
REMARK    5  A    between atoms: C_7  and  N_8 
REMARK    6  A    between atoms: C_10  and  C_15 
ROOT
HETATM    1  N   UNL     1     -43.213 -49.942  12.588  1.00  0.00    -0.358 N 
HETATM    2  C   UNL     1     -42.878 -48.609  12.551  1.00  0.00     0.235 C 
HETATM    3  O   UNL     1     -43.143 -47.836  13.470  1.00  0.00    -0.272 OA
HETATM    4  H   UNL     1     -42.900 -50.584  11.863  1.00  0.00     0.162 HD
ENDROOT
BRANCH   2   5
HETATM    5  C   UNL     1     -42.256 -48.124  11.248  1.00  0.00     0.234 C 
BRANCH   5   6
HETATM    6  N   UNL     1     -43.245 -47.441  10.413  1.00  0.00    -0.315 N 
HETATM    7  C   UNL     1     -44.451 -48.070  10.131  1.00  0.00     0.110 C 
HETATM    8  C   UNL     1     -45.380 -47.500   9.342  1.00  0.00     0.063 C 
HETATM    9  C   UNL     1     -45.148 -46.148   8.870  1.00  0.00     0.023 C 
HETATM   10  C   UNL     1     -43.977 -45.532   9.088  1.00  0.00     0.075 C 
HETATM   11  C   UNL     1     -42.896 -46.221   9.839  1.00  0.00     0.247 C 
HETATM   12  O   UNL     1     -41.793 -45.690   9.936  1.00  0.00    -0.268 OA
BRANCH   8  13
HETATM   13  C   UNL     1     -46.623 -48.234   8.922  1.00  0.00     0.418 C 
HETATM   14  F   UNL     1     -46.556 -48.697   7.645  1.00  0.00    -0.166 F 
HETATM   15  F   UNL     1     -46.853 -49.316   9.711  1.00  0.00    -0.166 F 
HETATM   16  F   UNL     1     -47.726 -47.450   8.996  1.00  0.00    -0.166 F 
ENDBRANCH   8  13
ENDBRANCH   5   6
ENDBRANCH   2   5
BRANCH   1  17
HETATM   17  C   UNL     1     -43.841 -50.500  13.764  1.00  0.00     0.158 C 
BRANCH  17  18
HETATM   18  C   UNL     1     -44.694 -51.755  13.457  1.00  0.00     0.236 C 
HETATM   19  C   UNL     1     -45.943 -51.304  12.691  1.00  0.00     0.044 C 
BRANCH  18  20
HETATM   20  N   UNL     1     -44.879 -52.634  14.634  1.00  0.00     0.098 N 
HETATM   21  C   UNL     1     -43.641 -53.243  15.156  1.00  0.00     0.299 C 
HETATM   22  C   UNL     1     -43.264 -54.592  14.515  1.00  0.00     0.198 C 
HETATM   23  O   UNL     1     -44.347 -55.526  14.580  1.00  0.00    -0.388 OA
HETATM   24  C   UNL     1     -45.515 -54.994  13.947  1.00  0.00     0.198 C 
HETATM   25  C   UNL     1     -45.937 -53.659  14.577  1.00  0.00     0.299 C 
ENDBRANCH  18  20
ENDBRANCH  17  18
ENDBRANCH   1  17
TORSDOF 6
ENDMDL
MODEL 2
REMARK VINA RESULT:      -6.7      1.377      1.962
REMARK  6 active torsions:
REMARK  status: ('A' for Active; 'I' for Inactive)
REMARK    1  A    between atoms: C_2  and  C_3 
REMARK    2  A    between atoms: C_2  and  N_19 
REMARK    3  A    between atoms: C_3  and  N_4 
REMARK       I    between atoms: N_4  and  C_5 
REMARK    4  A    between atoms: C_5  and  C_7 
REMARK    5  A    between atoms: C_7  and  N_8 
REMARK    6  A    between atoms: C_10  and  C_15 
ROOT
HETATM    1  N   UNL     1     -42.562 -50.256  12.420  1.00  0.00    -0.358 N 
HETATM    2  C   UNL     1     -42.015 -49.193  11.742  1.00  0.00     0.235 C 
HETATM    3  O   UNL     1     -41.040 -49.314  11.002  1.00  0.00    -0.272 OA
HETATM    4  H   UNL     1     -43.425 -50.155  12.950  1.00  0.00     0.162 HD
ENDROOT
BRANCH   2   5
HETATM    5  C   UNL     1     -42.623 -47.832  12.053  1.00  0.00     0.234 C 
BRANCH   5   6
HETATM    6  N   UNL     1     -43.362 -47.308  10.904  1.00  0.00    -0.315 N 
HETATM    7  C   UNL     1     -44.558 -47.907  10.532  1.00  0.00     0.110 C 
HETATM    8  C   UNL     1     -45.260 -47.486   9.464  1.00  0.00     0.063 C 
HETATM    9  C   UNL     1     -44.798 -46.306   8.757  1.00  0.00     0.023 C 
HETATM   10  C   UNL     1     -43.625 -45.734   9.064  1.00  0.00     0.075 C 
HETATM   11  C   UNL     1     -42.782 -46.288  10.154  1.00  0.00     0.247 C 
HETATM   12  O   UNL     1     -41.663 -45.822  10.351  1.00  0.00    -0.268 OA
BRANCH   8  13
HETATM   13  C   UNL     1     -46.480 -48.218   8.977  1.00  0.00     0.418 C 
HETATM   14  F   UNL     1     -46.762 -49.323   9.718  1.00  0.00    -0.166 F 
HETATM   15  F   UNL     1     -47.585 -47.430   9.024  1.00  0.00    -0.166 F 
HETATM   16  F   UNL     1     -46.345 -48.632   7.693  1.00  0.00    -0.166 F 
ENDBRANCH   8  13
ENDBRANCH   5   6
ENDBRANCH   2   5
BRANCH   1  17
HETATM   17  C   UNL     1     -42.037 -51.589  12.227  1.00  0.00     0.158 C 
BRANCH  17  18
HETATM   18  C   UNL     1     -42.683 -52.637  13.166  1.00  0.00     0.236 C 
HETATM   19  C   UNL     1     -41.806 -53.894  13.146  1.00  0.00     0.044 C 
BRANCH  18  20
HETATM   20  N   UNL     1     -44.137 -52.799  12.942  1.00  0.00     0.098 N 
HETATM   21  C   UNL     1     -44.997 -52.119  13.930  1.00  0.00     0.299 C 
HETATM   22  C   UNL     1     -45.342 -52.961  15.174  1.00  0.00     0.198 C 
HETATM   23  O   UNL     1     -45.900 -54.228  14.813  1.00  0.00    -0.388 OA
HETATM   24  C   UNL     1     -45.004 -54.955  13.966  1.00  0.00     0.198 C 
HETATM   25  C   UNL     1     -44.656 -54.157  12.701  1.00  0.00     0.299 C 
ENDBRANCH  18  20
ENDBRANCH  17  18
ENDBRANCH   1  17
TORSDOF 6
ENDMDL
MODEL 3
REMARK VINA RESULT:      -6.4      2.282      2.696
REMARK  6 active torsions:
REMARK  status: ('A' for Active; 'I' for Inactive)
REMARK    1  A    between atoms: C_2  and  C_3 
REMARK    2  A    between atoms: C_2  and  N_19 
REMARK    3  A    between atoms: C_3  and  N_4 
REMARK       I    between atoms: N_4  and  C_5 
REMARK    4  A    between atoms: C_5  and  C_7 
REMARK    5  A    between atoms: C_7  and  N_8 
REMARK    6  A    between atoms: C_10  and  C_15 
ROOT
HETATM    1  N   UNL     1     -41.515 -49.788  12.251  1.00  0.00    -0.358 N 
HETATM    2  C   UNL     1     -41.704 -48.788  11.327  1.00  0.00     0.235 C 
HETATM    3  O   UNL     1     -41.180 -48.810  10.214  1.00  0.00    -0.272 OA
HETATM    4  H   UNL     1     -42.032 -49.800  13.127  1.00  0.00     0.162 HD
ENDROOT
BRANCH   2   5
HETATM    5  C   UNL     1     -42.515 -47.592  11.809  1.00  0.00     0.234 C 
BRANCH   5   6
HETATM    6  N   UNL     1     -43.391 -47.086  10.750  1.00  0.00    -0.315 N 
HETATM    7  C   UNL     1     -44.536 -47.796  10.416  1.00  0.00     0.110 C 
HETATM    8  C   UNL     1     -45.357 -47.393   9.428  1.00  0.00     0.063 C 
HETATM    9  C   UNL     1     -45.083 -46.124   8.780  1.00  0.00     0.023 C 
HETATM   10  C   UNL     1     -43.963 -45.439   9.050  1.00  0.00     0.075 C 
HETATM   11  C   UNL     1     -42.985 -45.959  10.040  1.00  0.00     0.247 C 
HETATM   12  O   UNL     1     -41.914 -45.379  10.196  1.00  0.00    -0.268 OA
BRANCH   8  13
HETATM   13  C   UNL     1     -46.519 -48.230   8.970  1.00  0.00     0.418 C 
HETATM   14  F   UNL     1     -46.367 -48.692   7.700  1.00  0.00    -0.166 F 
HETATM   15  F   UNL     1     -46.687 -49.323   9.759  1.00  0.00    -0.166 F 
HETATM   16  F   UNL     1     -47.685 -47.539   8.998  1.00  0.00    -0.166 F 
ENDBRANCH   8  13
ENDBRANCH   5   6
ENDBRANCH   2   5
BRANCH   1  17
HETATM   17  C   UNL     1     -40.730 -50.953  11.910  1.00  0.00     0.158 C 
BRANCH  17  18
HETATM   18  C   UNL     1     -41.198 -52.234  12.641  1.00  0.00     0.236 C 
HETATM   19  C   UNL     1     -42.714 -52.360  12.452  1.00  0.00     0.044 C 
BRANCH  18  20
HETATM   20  N   UNL     1     -40.656 -52.352  14.013  1.00  0.00     0.098 N 
HETATM   21  C   UNL     1     -39.290 -52.903  14.096  1.00  0.00     0.299 C 
HETATM   22  C   UNL     1     -39.218 -54.439  14.200  1.00  0.00     0.198 C 
HETATM   23  O   UNL     1     -40.023 -54.931  15.276  1.00  0.00    -0.388 OA
HETATM   24  C   UNL     1     -41.384 -54.516  15.124  1.00  0.00     0.198 C 
HETATM   25  C   UNL     1     -41.499 -52.987  15.042  1.00  0.00     0.299 C 
ENDBRANCH  18  20
ENDBRANCH  17  18
ENDBRANCH   1  17
TORSDOF 6
ENDMDL
MODEL 4
REMARK VINA RESULT:      -6.3      2.020      2.536
REMARK  6 active torsions:
REMARK  status: ('A' for Active; 'I' for Inactive)
REMARK    1  A    between atoms: C_2  and  C_3 
REMARK    2  A    between atoms: C_2  and  N_19 
REMARK    3  A    between atoms: C_3  and  N_4 
REMARK       I    between atoms: N_4  and  C_5 
REMARK    4  A    between atoms: C_5  and  C_7 
REMARK    5  A    between atoms: C_7  and  N_8 
REMARK    6  A    between atoms: C_10  and  C_15 
ROOT
HETATM    1  N   UNL     1     -43.360 -50.317  12.457  1.00  0.00    -0.358 N 
HETATM    2  C   UNL     1     -42.016 -50.115  12.664  1.00  0.00     0.235 C 
HETATM    3  O   UNL     1     -41.511 -50.130  13.786  1.00  0.00    -0.272 OA
HETATM    4  H   UNL     1     -43.742 -50.397  11.518  1.00  0.00     0.162 HD
ENDROOT
BRANCH   2   5
HETATM    5  C   UNL     1     -41.206 -49.759  11.424  1.00  0.00     0.234 C 
BRANCH   5   6
HETATM    6  N   UNL     1     -41.341 -48.340  11.095  1.00  0.00    -0.315 N 
HETATM    7  C   UNL     1     -42.378 -47.927  10.268  1.00  0.00     0.110 C 
HETATM    8  C   UNL     1     -42.528 -46.640   9.907  1.00  0.00     0.063 C 
HETATM    9  C   UNL     1     -41.639 -45.653  10.492  1.00  0.00     0.023 C 
HETATM   10  C   UNL     1     -40.603 -46.024  11.257  1.00  0.00     0.075 C 
HETATM   11  C   UNL     1     -40.355 -47.462  11.538  1.00  0.00     0.247 C 
HETATM   12  O   UNL     1     -39.342 -47.795  12.147  1.00  0.00    -0.268 OA
BRANCH   8  13
HETATM   13  C   UNL     1     -43.562 -46.211   8.904  1.00  0.00     0.418 C 
HETATM   14  F   UNL     1     -43.099 -46.241   7.625  1.00  0.00    -0.166 F 
HETATM   15  F   UNL     1     -44.653 -47.020   8.937  1.00  0.00    -0.166 F 
HETATM   16  F   UNL     1     -43.999 -44.949   9.133  1.00  0.00    -0.166 F 
ENDBRANCH   8  13
ENDBRANCH   5   6
ENDBRANCH   2   5
BRANCH   1  17
HETATM   17  C   UNL     1     -44.228 -50.625  13.572  1.00  0.00     0.158 C 
BRANCH  17  18
HETATM   18  C   UNL     1     -45.041 -51.926  13.365  1.00  0.00     0.236 C 
HETATM   19  C   UNL     1     -46.365 -51.556  12.688  1.00  0.00     0.044 C 
BRANCH  18  20
HETATM   20  N   UNL     1     -45.092 -52.777  14.575  1.00  0.00     0.098 N 
HETATM   21  C   UNL     1     -43.783 -53.276  15.040  1.00  0.00     0.299 C 
HETATM   22  C   UNL     1     -43.344 -54.614  14.415  1.00  0.00     0.198 C 
HETATM   23  O   UNL     1     -44.347 -55.622  14.571  1.00  0.00    -0.388 OA
HETATM   24  C   UNL     1     -45.587 -55.199  13.994  1.00  0.00     0.198 C 
HETATM   25  C   UNL     1     -46.071 -53.878  14.609  1.00  0.00     0.299 C 
ENDBRANCH  18  20
ENDBRANCH  17  18
ENDBRANCH   1  17
TORSDOF 6
ENDMDL
MODEL 5
REMARK VINA RESULT:      -6.3      4.328      5.725
REMARK  6 active torsions:
REMARK  status: ('A' for Active; 'I' for Inactive)
REMARK    1  A    between atoms: C_2  and  C_3 
REMARK    2  A    between atoms: C_2  and  N_19 
REMARK    3  A    between atoms: C_3  and  N_4 
REMARK       I    between atoms: N_4  and  C_5 
REMARK    4  A    between atoms: C_5  and  C_7 
REMARK    5  A    between atoms: C_7  and  N_8 
REMARK    6  A    between atoms: C_10  and  C_15 
ROOT
HETATM    1  N   UNL     1     -40.951 -53.020  13.787  1.00  0.00    -0.358 N 
HETATM    2  C   UNL     1     -39.584 -53.150  13.848  1.00  0.00     0.235 C 
HETATM    3  O   UNL     1     -39.011 -54.213  13.611  1.00  0.00    -0.272 OA
HETATM    4  H   UNL     1     -41.399 -52.112  13.892  1.00  0.00     0.162 HD
ENDROOT
BRANCH   2   5
HETATM    5  C   UNL     1     -38.828 -51.923  14.339  1.00  0.00     0.234 C 
BRANCH   5   6
HETATM    6  N   UNL     1     -38.718 -50.913  13.285  1.00  0.00    -0.315 N 
HETATM    7  C   UNL     1     -39.751 -50.003  13.102  1.00  0.00     0.110 C 
HETATM    8  C   UNL     1     -39.716 -49.077  12.128  1.00  0.00     0.063 C 
HETATM    9  C   UNL     1     -38.513 -48.968  11.324  1.00  0.00     0.023 C 
HETATM   10  C   UNL     1     -37.518 -49.858  11.447  1.00  0.00     0.075 C 
HETATM   11  C   UNL     1     -37.622 -50.968  12.428  1.00  0.00     0.247 C 
HETATM   12  O   UNL     1     -36.755 -51.838  12.453  1.00  0.00    -0.268 OA
BRANCH   8  13
HETATM   13  C   UNL     1     -40.890 -48.184  11.838  1.00  0.00     0.418 C 
HETATM   14  F   UNL     1     -40.664 -47.336  10.798  1.00  0.00    -0.166 F 
HETATM   15  F   UNL     1     -41.995 -48.904  11.513  1.00  0.00    -0.166 F 
HETATM   16  F   UNL     1     -41.219 -47.414  12.905  1.00  0.00    -0.166 F 
ENDBRANCH   8  13
ENDBRANCH   5   6
ENDBRANCH   2   5
BRANCH   1  17
HETATM   17  C   UNL     1     -41.770 -54.135  13.368  1.00  0.00     0.158 C 
BRANCH  17  18
HETATM   18  C   UNL     1     -43.086 -54.257  14.173  1.00  0.00     0.236 C 
HETATM   19  C   UNL     1     -42.883 -55.325  15.254  1.00  0.00     0.044 C 
BRANCH  18  20
HETATM   20  N   UNL     1     -44.286 -54.358  13.312  1.00  0.00     0.098 N 
HETATM   21  C   UNL     1     -44.616 -53.132  12.561  1.00  0.00     0.299 C 
HETATM   22  C   UNL     1     -45.534 -52.144  13.306  1.00  0.00     0.198 C 
HETATM   23  O   UNL     1     -46.728 -52.783  13.770  1.00  0.00    -0.388 OA
HETATM   24  C   UNL     1     -46.414 -53.892  14.618  1.00  0.00     0.198 C 
HETATM   25  C   UNL     1     -45.518 -54.913  13.900  1.00  0.00     0.299 C 
ENDBRANCH  18  20
ENDBRANCH  17  18
ENDBRANCH   1  17
TORSDOF 6
ENDMDL
MODEL 6
REMARK VINA RESULT:      -6.2      2.291      3.177
REMARK  6 active torsions:
REMARK  status: ('A' for Active; 'I' for Inactive)
REMARK    1  A    between atoms: C_2  and  C_3 
REMARK    2  A    between atoms: C_2  and  N_19 
REMARK    3  A    between atoms: C_3  and  N_4 
REMARK       I    between atoms: N_4  and  C_5 
REMARK    4  A    between atoms: C_5  and  C_7 
REMARK    5  A    between atoms: C_7  and  N_8 
REMARK    6  A    between atoms: C_10  and  C_15 
ROOT
HETATM    1  N   UNL     1     -41.928 -51.757  11.765  1.00  0.00    -0.358 N 
HETATM    2  C   UNL     1     -41.679 -50.465  12.165  1.00  0.00     0.235 C 
HETATM    3  O   UNL     1     -42.280 -49.936  13.099  1.00  0.00    -0.272 OA
HETATM    4  H   UNL     1     -41.355 -52.209  11.056  1.00  0.00     0.162 HD
ENDROOT
BRANCH   2   5
HETATM    5  C   UNL     1     -40.690 -49.691  11.304  1.00  0.00     0.234 C 
BRANCH   5   6
HETATM    6  N   UNL     1     -41.181 -48.342  11.018  1.00  0.00    -0.315 N 
HETATM    7  C   UNL     1     -42.232 -48.174  10.127  1.00  0.00     0.110 C 
HETATM    8  C   UNL     1     -42.701 -46.954   9.804  1.00  0.00     0.063 C 
HETATM    9  C   UNL     1     -42.154 -45.802  10.496  1.00  0.00     0.023 C 
HETATM   10  C   UNL     1     -41.111 -45.927  11.328  1.00  0.00     0.075 C 
HETATM   11  C   UNL     1     -40.503 -47.260  11.573  1.00  0.00     0.247 C 
HETATM   12  O   UNL     1     -39.481 -47.345  12.250  1.00  0.00    -0.268 OA
BRANCH   8  13
HETATM   13  C   UNL     1     -43.741 -46.760   8.737  1.00  0.00     0.418 C 
HETATM   14  F   UNL     1     -44.856 -47.512   8.945  1.00  0.00    -0.166 F 
HETATM   15  F   UNL     1     -44.155 -45.468   8.674  1.00  0.00    -0.166 F 
HETATM   16  F   UNL     1     -43.275 -47.086   7.506  1.00  0.00    -0.166 F 
ENDBRANCH   8  13
ENDBRANCH   5   6
ENDBRANCH   2   5
BRANCH   1  17
HETATM   17  C   UNL     1     -42.878 -52.572  12.490  1.00  0.00     0.158 C 
BRANCH  17  18
HETATM   18  C   UNL     1     -42.207 -53.513  13.520  1.00  0.00     0.236 C 
HETATM   19  C   UNL     1     -40.815 -53.878  12.992  1.00  0.00     0.044 C 
BRANCH  18  20
HETATM   20  N   UNL     1     -43.093 -54.611  13.966  1.00  0.00     0.098 N 
HETATM   21  C   UNL     1     -44.537 -54.328  13.857  1.00  0.00     0.299 C 
HETATM   22  C   UNL     1     -45.158 -53.653  15.095  1.00  0.00     0.198 C 
HETATM   23  O   UNL     1     -44.882 -54.390  16.290  1.00  0.00    -0.388 OA
HETATM   24  C   UNL     1     -43.471 -54.546  16.476  1.00  0.00     0.198 C 
HETATM   25  C   UNL     1     -42.819 -55.239  15.271  1.00  0.00     0.299 C 
ENDBRANCH  18  20
ENDBRANCH  17  18
ENDBRANCH   1  17
TORSDOF 6
ENDMDL
MODEL 7
REMARK VINA RESULT:      -6.1      4.849      7.419
REMARK  6 active torsions:
REMARK  status: ('A' for Active; 'I' for Inactive)
REMARK    1  A    between atoms: C_2  and  C_3 
REMARK    2  A    between atoms: C_2  and  N_19 
REMARK    3  A    between atoms: C_3  and  N_4 
REMARK       I    between atoms: N_4  and  C_5 
REMARK    4  A    between atoms: C_5  and  C_7 
REMARK    5  A    between atoms: C_7  and  N_8 
REMARK    6  A    between atoms: C_10  and  C_15 
ROOT
HETATM    1  N   UNL     1     -42.235 -53.360  13.737  1.00  0.00    -0.358 N 
HETATM    2  C   UNL     1     -42.634 -54.190  14.759  1.00  0.00     0.235 C 
HETATM    3  O   UNL     1     -41.854 -54.605  15.614  1.00  0.00    -0.272 OA
HETATM    4  H   UNL     1     -42.911 -52.950  13.097  1.00  0.00     0.162 HD
ENDROOT
BRANCH   2   5
HETATM    5  C   UNL     1     -44.083 -54.655  14.699  1.00  0.00     0.234 C 
BRANCH   5   6
HETATM    6  N   UNL     1     -44.995 -53.522  14.533  1.00  0.00    -0.315 N 
HETATM    7  C   UNL     1     -45.527 -52.904  15.657  1.00  0.00     0.110 C 
HETATM    8  C   UNL     1     -46.396 -51.881  15.560  1.00  0.00     0.063 C 
HETATM    9  C   UNL     1     -46.690 -51.351  14.241  1.00  0.00     0.023 C 
HETATM   10  C   UNL     1     -46.228 -51.953  13.136  1.00  0.00     0.075 C 
HETATM   11  C   UNL     1     -45.384 -53.170  13.243  1.00  0.00     0.247 C 
HETATM   12  O   UNL     1     -45.059 -53.774  12.223  1.00  0.00    -0.268 OA
BRANCH   8  13
HETATM   13  C   UNL     1     -47.079 -51.302  16.767  1.00  0.00     0.418 C 
HETATM   14  F   UNL     1     -47.187 -52.193  17.789  1.00  0.00    -0.166 F 
HETATM   15  F   UNL     1     -46.400 -50.233  17.259  1.00  0.00    -0.166 F 
HETATM   16  F   UNL     1     -48.335 -50.877  16.485  1.00  0.00    -0.166 F 
ENDBRANCH   8  13
ENDBRANCH   5   6
ENDBRANCH   2   5
BRANCH   1  17
HETATM   17  C   UNL     1     -40.870 -52.887  13.677  1.00  0.00     0.158 C 
BRANCH  17  18
HETATM   18  C   UNL     1     -40.756 -51.426  13.179  1.00  0.00     0.236 C 
HETATM   19  C   UNL     1     -42.059 -51.069  12.455  1.00  0.00     0.044 C 
BRANCH  18  20
HETATM   20  N   UNL     1     -39.477 -51.145  12.490  1.00  0.00     0.098 N 
HETATM   21  C   UNL     1     -38.277 -51.237  13.344  1.00  0.00     0.299 C 
HETATM   22  C   UNL     1     -37.895 -49.930  14.063  1.00  0.00     0.198 C 
HETATM   23  O   UNL     1     -37.771 -48.840  13.144  1.00  0.00    -0.388 OA
HETATM   24  C   UNL     1     -38.986 -48.655  12.410  1.00  0.00     0.198 C 
HETATM   25  C   UNL     1     -39.388 -49.932  11.658  1.00  0.00     0.299 C 
ENDBRANCH  18  20
ENDBRANCH  17  18
ENDBRANCH   1  17
TORSDOF 6
ENDMDL
MODEL 8
REMARK VINA RESULT:      -5.9      2.974      7.609
REMARK  6 active torsions:
REMARK  status: ('A' for Active; 'I' for Inactive)
REMARK    1  A    between atoms: C_2  and  C_3 
REMARK    2  A    between atoms: C_2  and  N_19 
REMARK    3  A    between atoms: C_3  and  N_4 
REMARK       I    between atoms: N_4  and  C_5 
REMARK    4  A    between atoms: C_5  and  C_7 
REMARK    5  A    between atoms: C_7  and  N_8 
REMARK    6  A    between atoms: C_10  and  C_15 
ROOT
HETATM    1  N   UNL     1     -42.537 -49.407  11.864  1.00  0.00    -0.358 N 
HETATM    2  C   UNL     1     -41.978 -50.356  12.687  1.00  0.00     0.235 C 
HETATM    3  O   UNL     1     -41.343 -50.061  13.699  1.00  0.00    -0.272 OA
HETATM    4  H   UNL     1     -43.138 -49.673  11.087  1.00  0.00     0.162 HD
ENDROOT
BRANCH   2   5
HETATM    5  C   UNL     1     -42.096 -51.796  12.205  1.00  0.00     0.234 C 
BRANCH   5   6
HETATM    6  N   UNL     1     -43.083 -52.537  12.992  1.00  0.00    -0.315 N 
HETATM    7  C   UNL     1     -44.305 -51.946  13.284  1.00  0.00     0.110 C 
HETATM    8  C   UNL     1     -45.234 -52.569  14.031  1.00  0.00     0.063 C 
HETATM    9  C   UNL     1     -44.981 -53.938  14.443  1.00  0.00     0.023 C 
HETATM   10  C   UNL     1     -43.795 -54.519  14.215  1.00  0.00     0.075 C 
HETATM   11  C   UNL     1     -42.717 -53.776  13.513  1.00  0.00     0.247 C 
HETATM   12  O   UNL     1     -41.602 -54.280  13.408  1.00  0.00    -0.268 OA
BRANCH   8  13
HETATM   13  C   UNL     1     -46.497 -51.881  14.466  1.00  0.00     0.418 C 
HETATM   14  F   UNL     1     -47.455 -52.751  14.883  1.00  0.00    -0.166 F 
HETATM   15  F   UNL     1     -46.270 -51.032  15.502  1.00  0.00    -0.166 F 
HETATM   16  F   UNL     1     -47.045 -51.146  13.467  1.00  0.00    -0.166 F 
ENDBRANCH   8  13
ENDBRANCH   5   6
ENDBRANCH   2   5
BRANCH   1  17
HETATM   17  C   UNL     1     -42.451 -48.006  12.208  1.00  0.00     0.158 C 
BRANCH  17  18
HETATM   18  C   UNL     1     -41.940 -47.126  11.041  1.00  0.00     0.236 C 
HETATM   19  C   UNL     1     -42.517 -47.686   9.737  1.00  0.00     0.044 C 
BRANCH  18  20
HETATM   20  N   UNL     1     -40.484 -46.868  11.103  1.00  0.00     0.098 N 
HETATM   21  C   UNL     1     -39.898 -46.937  12.456  1.00  0.00     0.299 C 
HETATM   22  C   UNL     1     -39.919 -45.609  13.237  1.00  0.00     0.198 C 
HETATM   23  O   UNL     1     -39.321 -44.547  12.486  1.00  0.00    -0.388 OA
HETATM   24  C   UNL     1     -39.980 -44.382  11.226  1.00  0.00     0.198 C 
HETATM   25  C   UNL     1     -39.958 -45.681  10.407  1.00  0.00     0.299 C 
ENDBRANCH  18  20
ENDBRANCH  17  18
ENDBRANCH   1  17
TORSDOF 6
ENDMDL
MODEL 9
REMARK VINA RESULT:      -5.9      2.555      3.526
REMARK  6 active torsions:
REMARK  status: ('A' for Active; 'I' for Inactive)
REMARK    1  A    between atoms: C_2  and  C_3 
REMARK    2  A    between atoms: C_2  and  N_19 
REMARK    3  A    between atoms: C_3  and  N_4 
REMARK       I    between atoms: N_4  and  C_5 
REMARK    4  A    between atoms: C_5  and  C_7 
REMARK    5  A    between atoms: C_7  and  N_8 
REMARK    6  A    between atoms: C_10  and  C_15 
ROOT
HETATM    1  N   UNL     1     -41.854 -51.510  11.756  1.00  0.00    -0.358 N 
HETATM    2  C   UNL     1     -40.536 -51.201  11.996  1.00  0.00     0.235 C 
HETATM    3  O   UNL     1     -39.817 -51.891  12.718  1.00  0.00    -0.272 OA
HETATM    4  H   UNL     1     -42.404 -50.982  11.082  1.00  0.00     0.162 HD
ENDROOT
BRANCH   2   5
HETATM    5  C   UNL     1     -40.050 -49.886  11.401  1.00  0.00     0.234 C 
BRANCH   5   6
HETATM    6  N   UNL     1     -41.050 -48.830  11.566  1.00  0.00    -0.315 N 
HETATM    7  C   UNL     1     -41.854 -48.478  10.490  1.00  0.00     0.110 C 
HETATM    8  C   UNL     1     -42.765 -47.493  10.578  1.00  0.00     0.063 C 
HETATM    9  C   UNL     1     -42.977 -46.863  11.868  1.00  0.00     0.023 C 
HETATM   10  C   UNL     1     -42.188 -47.150  12.913  1.00  0.00     0.075 C 
HETATM   11  C   UNL     1     -41.087 -48.138  12.774  1.00  0.00     0.247 C 
HETATM   12  O   UNL     1     -40.305 -48.309  13.705  1.00  0.00    -0.268 OA
BRANCH   8  13
HETATM   13  C   UNL     1     -43.538 -47.016   9.380  1.00  0.00     0.418 C 
HETATM   14  F   UNL     1     -44.881 -47.181   9.518  1.00  0.00    -0.166 F 
HETATM   15  F   UNL     1     -43.335 -45.692   9.151  1.00  0.00    -0.166 F 
HETATM   16  F   UNL     1     -43.178 -47.672   8.249  1.00  0.00    -0.166 F 
ENDBRANCH   8  13
ENDBRANCH   5   6
ENDBRANCH   2   5
BRANCH   1  17
HETATM   17  C   UNL     1     -42.429 -52.718  12.305  1.00  0.00     0.158 C 
BRANCH  17  18
HETATM   18  C   UNL     1     -43.493 -52.442  13.395  1.00  0.00     0.236 C 
HETATM   19  C   UNL     1     -42.953 -52.970  14.728  1.00  0.00     0.044 C 
BRANCH  18  20
HETATM   20  N   UNL     1     -44.858 -52.845  12.988  1.00  0.00     0.098 N 
HETATM   21  C   UNL     1     -45.859 -51.760  13.013  1.00  0.00     0.299 C 
HETATM   22  C   UNL     1     -46.579 -51.577  14.363  1.00  0.00     0.198 C 
HETATM   23  O   UNL     1     -47.158 -52.803  14.821  1.00  0.00    -0.388 OA
HETATM   24  C   UNL     1     -46.161 -53.824  14.935  1.00  0.00     0.198 C 
HETATM   25  C   UNL     1     -45.437 -54.053  13.601  1.00  0.00     0.299 C 
ENDBRANCH  18  20
ENDBRANCH  17  18
ENDBRANCH   1  17
TORSDOF 6
ENDMDL
