MODEL 1
REMARK VINA RESULT:      -6.4      0.000      0.000
REMARK  5 active torsions:
REMARK  status: ('A' for Active; 'I' for Inactive)
REMARK    1  A    between atoms: C_4  and  C_5 
REMARK    2  A    between atoms: C_4  and  N_16 
REMARK    3  A    between atoms: C_5  and  N_6 
REMARK       I    between atoms: N_6  and  C_7 
REMARK    4  A    between atoms: C_7  and  C_9 
REMARK    5  A    between atoms: C_9  and  N_10 
ROOT
HETATM    1  C   UNL     1     -42.534 -51.915  12.474  1.00  0.00     0.145 C 
ENDROOT
BRANCH   1   2
HETATM    2  C   UNL     1     -42.078 -52.002  14.956  1.00  0.00     0.073 A 
HETATM    3  C   UNL     1     -41.839 -54.087  13.553  1.00  0.00    -0.014 A 
HETATM    4  C   UNL     1     -40.363 -53.841  13.209  1.00  0.00     0.007 C 
HETATM    5  C   UNL     1     -42.693 -52.794  13.765  1.00  0.00     0.065 A 
BRANCH   2   6
HETATM    6  N   UNL     1     -44.127 -53.034  14.110  1.00  0.00    -0.405 N 
HETATM    7  C   UNL     1     -44.932 -52.797  15.328  1.00  0.00     0.143 C 
HETATM    8  C   UNL     1     -45.585 -54.052  15.933  1.00  0.00     0.187 C 
HETATM    9  O   UNL     1     -46.350 -54.770  14.960  1.00  0.00    -0.388 OA
HETATM   10  C   UNL     1     -45.537 -55.126  13.837  1.00  0.00     0.187 C 
HETATM   11  C   UNL     1     -44.902 -53.887  13.191  1.00  0.00     0.143 C 
ENDBRANCH   2   6
ENDBRANCH   1   2
BRANCH   1  12
HETATM   12  N   UNL     1     -42.930 -50.521  12.418  1.00  0.00    -0.358 N 
HETATM   13  C   UNL     1     -42.062 -49.597  11.865  1.00  0.00     0.237 C 
HETATM   14  O   UNL     1     -40.928 -49.890  11.486  1.00  0.00    -0.272 OA
HETATM   15  H   UNL     1     -43.927 -50.329  12.386  1.00  0.00     0.162 HD
BRANCH  13  16
HETATM   16  C   UNL     1     -42.578 -48.187  11.800  1.00  0.00     0.250 C 
BRANCH  16  17
HETATM   17  N   UNL     1     -43.132 -47.879  10.498  1.00  0.00    -0.295 N 
HETATM   18  C   UNL     1     -44.416 -47.517  10.218  1.00  0.00     0.112 A 
HETATM   19  C   UNL     1     -44.495 -47.431   8.849  1.00  0.00     0.037 A 
HETATM   20  C   UNL     1     -43.202 -47.758   8.397  1.00  0.00     0.108 A 
HETATM   21  N   UNL     1     -42.368 -48.028   9.402  1.00  0.00    -0.310 N 
ATOM     22  HN  UNL     1     -41.383 -48.287   9.351  1.00  0.00     0.186 HD
ENDBRANCH  16  17
ENDBRANCH  13  16
ENDBRANCH   1  12
TORSDOF 5
ENDMDL
MODEL 2
REMARK VINA RESULT:      -6.2      1.487      2.232
REMARK  5 active torsions:
REMARK  status: ('A' for Active; 'I' for Inactive)
REMARK    1  A    between atoms: C_4  and  C_5 
REMARK    2  A    between atoms: C_4  and  N_16 
REMARK    3  A    between atoms: C_5  and  N_6 
REMARK       I    between atoms: N_6  and  C_7 
REMARK    4  A    between atoms: C_7  and  C_9 
REMARK    5  A    between atoms: C_9  and  N_10 
ROOT
HETATM    1  C   UNL     1     -42.376 -51.020  13.053  1.00  0.00     0.145 C 
ENDROOT
BRANCH   1   2
HETATM    2  C   UNL     1     -44.892 -50.811  13.059  1.00  0.00     0.073 A 
HETATM    3  C   UNL     1     -43.658 -51.283  15.210  1.00  0.00    -0.014 A 
HETATM    4  C   UNL     1     -43.453 -49.804  15.568  1.00  0.00     0.007 C 
HETATM    5  C   UNL     1     -43.698 -51.594  13.678  1.00  0.00     0.065 A 
BRANCH   2   6
HETATM    6  N   UNL     1     -43.907 -53.032  13.330  1.00  0.00    -0.405 N 
HETATM    7  C   UNL     1     -45.156 -53.784  13.081  1.00  0.00     0.143 C 
HETATM    8  C   UNL     1     -45.550 -54.779  14.187  1.00  0.00     0.187 C 
HETATM    9  O   UNL     1     -44.480 -55.677  14.496  1.00  0.00    -0.388 OA
HETATM   10  C   UNL     1     -43.304 -54.953  14.875  1.00  0.00     0.187 C 
HETATM   11  C   UNL     1     -42.867 -53.978  13.773  1.00  0.00     0.143 C 
ENDBRANCH   2   6
ENDBRANCH   1   2
BRANCH   1  12
HETATM   12  N   UNL     1     -42.142 -50.282  11.828  1.00  0.00    -0.358 N 
HETATM   13  C   UNL     1     -41.767 -48.953  11.904  1.00  0.00     0.237 C 
HETATM   14  O   UNL     1     -41.697 -48.340  12.970  1.00  0.00    -0.272 OA
HETATM   15  H   UNL     1     -41.854 -50.820  11.016  1.00  0.00     0.162 HD
BRANCH  13  16
HETATM   16  C   UNL     1     -41.494 -48.284  10.587  1.00  0.00     0.250 C 
BRANCH  16  17
HETATM   17  N   UNL     1     -42.719 -47.898   9.918  1.00  0.00    -0.295 N 
HETATM   18  C   UNL     1     -43.891 -47.524  10.504  1.00  0.00     0.112 A 
HETATM   19  C   UNL     1     -44.790 -47.355   9.479  1.00  0.00     0.037 A 
HETATM   20  C   UNL     1     -44.058 -47.648   8.313  1.00  0.00     0.108 A 
HETATM   21  N   UNL     1     -42.793 -47.977   8.578  1.00  0.00    -0.310 N 
ATOM     22  HN  UNL     1     -42.056 -48.228   7.920  1.00  0.00     0.186 HD
ENDBRANCH  16  17
ENDBRANCH  13  16
ENDBRANCH   1  12
TORSDOF 5
ENDMDL
MODEL 3
REMARK VINA RESULT:      -6.1      1.144      1.310
REMARK  5 active torsions:
REMARK  status: ('A' for Active; 'I' for Inactive)
REMARK    1  A    between atoms: C_4  and  C_5 
REMARK    2  A    between atoms: C_4  and  N_16 
REMARK    3  A    between atoms: C_5  and  N_6 
REMARK       I    between atoms: N_6  and  C_7 
REMARK    4  A    between atoms: C_7  and  C_9 
REMARK    5  A    between atoms: C_9  and  N_10 
ROOT
HETATM    1  C   UNL     1     -42.227 -52.327  12.267  1.00  0.00     0.145 C 
ENDROOT
BRANCH   1   2
HETATM    2  C   UNL     1     -41.810 -51.920  14.723  1.00  0.00     0.073 A 
HETATM    3  C   UNL     1     -41.737 -54.269  13.801  1.00  0.00    -0.014 A 
HETATM    4  C   UNL     1     -40.241 -54.224  13.456  1.00  0.00     0.007 C 
HETATM    5  C   UNL     1     -42.478 -52.895  13.709  1.00  0.00     0.065 A 
BRANCH   2   6
HETATM    6  N   UNL     1     -43.931 -52.936  14.054  1.00  0.00    -0.405 N 
HETATM    7  C   UNL     1     -44.610 -52.743  15.354  1.00  0.00     0.143 C 
HETATM    8  C   UNL     1     -45.195 -54.022  15.980  1.00  0.00     0.187 C 
HETATM    9  O   UNL     1     -46.052 -54.713  15.066  1.00  0.00    -0.388 OA
HETATM   10  C   UNL     1     -45.356 -55.026  13.856  1.00  0.00     0.187 C 
HETATM   11  C   UNL     1     -44.792 -53.764  13.190  1.00  0.00     0.143 C 
ENDBRANCH   2   6
ENDBRANCH   1   2
BRANCH   1  12
HETATM   12  N   UNL     1     -41.394 -51.251  11.767  1.00  0.00    -0.358 N 
HETATM   13  C   UNL     1     -41.830 -49.945  11.901  1.00  0.00     0.237 C 
HETATM   14  O   UNL     1     -42.936 -49.654  12.357  1.00  0.00    -0.272 OA
HETATM   15  H   UNL     1     -40.394 -51.426  11.727  1.00  0.00     0.162 HD
BRANCH  13  16
HETATM   16  C   UNL     1     -40.877 -48.895  11.404  1.00  0.00     0.250 C 
BRANCH  16  17
HETATM   17  N   UNL     1     -41.558 -47.876  10.633  1.00  0.00    -0.295 N 
HETATM   18  C   UNL     1     -41.535 -46.530  10.851  1.00  0.00     0.112 A 
HETATM   19  C   UNL     1     -42.406 -45.984   9.938  1.00  0.00     0.037 A 
HETATM   20  C   UNL     1     -42.900 -47.087   9.215  1.00  0.00     0.108 A 
HETATM   21  N   UNL     1     -42.382 -48.241   9.635  1.00  0.00    -0.310 N 
ATOM     22  HN  UNL     1     -42.566 -49.180   9.282  1.00  0.00     0.186 HD
ENDBRANCH  16  17
ENDBRANCH  13  16
ENDBRANCH   1  12
TORSDOF 5
ENDMDL
MODEL 4
REMARK VINA RESULT:      -5.9      2.176      3.174
REMARK  5 active torsions:
REMARK  status: ('A' for Active; 'I' for Inactive)
REMARK    1  A    between atoms: C_4  and  C_5 
REMARK    2  A    between atoms: C_4  and  N_16 
REMARK    3  A    between atoms: C_5  and  N_6 
REMARK       I    between atoms: N_6  and  C_7 
REMARK    4  A    between atoms: C_7  and  C_9 
REMARK    5  A    between atoms: C_9  and  N_10 
ROOT
HETATM    1  C   UNL     1     -42.614 -52.204  12.325  1.00  0.00     0.145 C 
ENDROOT
BRANCH   1   2
HETATM    2  C   UNL     1     -41.934 -51.928  14.740  1.00  0.00     0.073 A 
HETATM    3  C   UNL     1     -42.040 -54.231  13.712  1.00  0.00    -0.014 A 
HETATM    4  C   UNL     1     -40.587 -54.218  13.217  1.00  0.00     0.007 C 
HETATM    5  C   UNL     1     -42.736 -52.832  13.759  1.00  0.00     0.065 A 
BRANCH   2   6
HETATM    6  N   UNL     1     -44.147 -52.844  14.250  1.00  0.00    -0.405 N 
HETATM    7  C   UNL     1     -44.669 -52.730  15.629  1.00  0.00     0.143 C 
HETATM    8  C   UNL     1     -45.220 -54.036  16.228  1.00  0.00     0.187 C 
HETATM    9  O   UNL     1     -46.196 -54.639  15.373  1.00  0.00    -0.388 OA
HETATM   10  C   UNL     1     -45.650 -54.881  14.073  1.00  0.00     0.187 C 
HETATM   11  C   UNL     1     -45.126 -53.587  13.435  1.00  0.00     0.143 C 
ENDBRANCH   2   6
ENDBRANCH   1   2
BRANCH   1  12
HETATM   12  N   UNL     1     -41.689 -51.235  11.771  1.00  0.00    -0.358 N 
HETATM   13  C   UNL     1     -41.946 -49.886  11.939  1.00  0.00     0.237 C 
HETATM   14  O   UNL     1     -42.973 -49.465  12.471  1.00  0.00    -0.272 OA
HETATM   15  H   UNL     1     -40.723 -51.533  11.661  1.00  0.00     0.162 HD
BRANCH  13  16
HETATM   16  C   UNL     1     -40.906 -48.958  11.379  1.00  0.00     0.250 C 
BRANCH  16  17
HETATM   17  N   UNL     1     -39.569 -49.351  11.773  1.00  0.00    -0.295 N 
HETATM   18  C   UNL     1     -38.999 -49.204  13.002  1.00  0.00     0.112 A 
HETATM   19  C   UNL     1     -37.697 -49.622  12.868  1.00  0.00     0.037 A 
HETATM   20  C   UNL     1     -37.584 -50.005  11.518  1.00  0.00     0.108 A 
HETATM   21  N   UNL     1     -38.726 -49.844  10.849  1.00  0.00    -0.310 N 
ATOM     22  HN  UNL     1     -38.915 -50.046   9.867  1.00  0.00     0.186 HD
ENDBRANCH  16  17
ENDBRANCH  13  16
ENDBRANCH   1  12
TORSDOF 5
ENDMDL
MODEL 5
REMARK VINA RESULT:      -5.8      3.903      5.823
REMARK  5 active torsions:
REMARK  status: ('A' for Active; 'I' for Inactive)
REMARK    1  A    between atoms: C_4  and  C_5 
REMARK    2  A    between atoms: C_4  and  N_16 
REMARK    3  A    between atoms: C_5  and  N_6 
REMARK       I    between atoms: N_6  and  C_7 
REMARK    4  A    between atoms: C_7  and  C_9 
REMARK    5  A    between atoms: C_9  and  N_10 
ROOT
HETATM    1  C   UNL     1     -42.225 -48.450  11.937  1.00  0.00     0.145 C 
ENDROOT
BRANCH   1   2
HETATM    2  C   UNL     1     -40.918 -50.603  11.766  1.00  0.00     0.073 A 
HETATM    3  C   UNL     1     -41.452 -49.625  14.031  1.00  0.00    -0.014 A 
HETATM    4  C   UNL     1     -42.795 -50.357  14.173  1.00  0.00     0.007 C 
HETATM    5  C   UNL     1     -41.043 -49.272  12.564  1.00  0.00     0.065 A 
BRANCH   2   6
HETATM    6  N   UNL     1     -39.732 -48.569  12.425  1.00  0.00    -0.405 N 
HETATM    7  C   UNL     1     -38.388 -49.184  12.473  1.00  0.00     0.143 C 
HETATM    8  C   UNL     1     -37.638 -49.009  13.805  1.00  0.00     0.187 C 
HETATM    9  O   UNL     1     -37.573 -47.635  14.199  1.00  0.00    -0.388 OA
HETATM   10  C   UNL     1     -38.885 -47.071  14.290  1.00  0.00     0.187 C 
HETATM   11  C   UNL     1     -39.644 -47.199  12.962  1.00  0.00     0.143 C 
ENDBRANCH   2   6
ENDBRANCH   1   2
BRANCH   1  12
HETATM   12  N   UNL     1     -42.773 -48.472  10.595  1.00  0.00    -0.358 N 
HETATM   13  C   UNL     1     -42.838 -47.291   9.876  1.00  0.00     0.237 C 
HETATM   14  O   UNL     1     -42.525 -46.201  10.354  1.00  0.00    -0.272 OA
HETATM   15  H   UNL     1     -42.699 -49.346  10.083  1.00  0.00     0.162 HD
BRANCH  13  16
HETATM   16  C   UNL     1     -43.369 -47.419   8.476  1.00  0.00     0.250 C 
BRANCH  16  17
HETATM   17  N   UNL     1     -44.779 -47.749   8.466  1.00  0.00    -0.295 N 
HETATM   18  C   UNL     1     -45.728 -47.322   9.346  1.00  0.00     0.112 A 
HETATM   19  C   UNL     1     -46.887 -47.974   9.000  1.00  0.00     0.037 A 
HETATM   20  C   UNL     1     -46.530 -48.770   7.895  1.00  0.00     0.108 A 
HETATM   21  N   UNL     1     -45.245 -48.632   7.565  1.00  0.00    -0.310 N 
ATOM     22  HN  UNL     1     -44.736 -49.088   6.808  1.00  0.00     0.186 HD
ENDBRANCH  16  17
ENDBRANCH  13  16
ENDBRANCH   1  12
TORSDOF 5
ENDMDL
MODEL 6
REMARK VINA RESULT:      -5.8      2.452      2.857
REMARK  5 active torsions:
REMARK  status: ('A' for Active; 'I' for Inactive)
REMARK    1  A    between atoms: C_4  and  C_5 
REMARK    2  A    between atoms: C_4  and  N_16 
REMARK    3  A    between atoms: C_5  and  N_6 
REMARK       I    between atoms: N_6  and  C_7 
REMARK    4  A    between atoms: C_7  and  C_9 
REMARK    5  A    between atoms: C_9  and  N_10 
ROOT
HETATM    1  C   UNL     1     -40.937 -52.256  12.173  1.00  0.00     0.145 C 
ENDROOT
BRANCH   1   2
HETATM    2  C   UNL     1     -41.302 -51.899  14.645  1.00  0.00     0.073 A 
HETATM    3  C   UNL     1     -41.269 -54.238  13.697  1.00  0.00    -0.014 A 
HETATM    4  C   UNL     1     -39.754 -54.423  13.865  1.00  0.00     0.007 C 
HETATM    5  C   UNL     1     -41.731 -52.768  13.427  1.00  0.00     0.065 A 
BRANCH   2   6
HETATM    6  N   UNL     1     -43.205 -52.587  13.274  1.00  0.00    -0.405 N 
HETATM    7  C   UNL     1     -43.911 -51.288  13.329  1.00  0.00     0.143 C 
HETATM    8  C   UNL     1     -45.364 -51.355  13.832  1.00  0.00     0.187 C 
HETATM    9  O   UNL     1     -46.134 -52.311  13.098  1.00  0.00    -0.388 OA
HETATM   10  C   UNL     1     -45.526 -53.606  13.158  1.00  0.00     0.187 C 
HETATM   11  C   UNL     1     -44.087 -53.575  12.627  1.00  0.00     0.143 C 
ENDBRANCH   2   6
ENDBRANCH   1   2
BRANCH   1  12
HETATM   12  N   UNL     1     -39.924 -51.234  11.996  1.00  0.00    -0.358 N 
HETATM   13  C   UNL     1     -40.318 -49.933  11.739  1.00  0.00     0.237 C 
HETATM   14  O   UNL     1     -41.495 -49.613  11.573  1.00  0.00    -0.272 OA
HETATM   15  H   UNL     1     -39.033 -51.387  12.459  1.00  0.00     0.162 HD
BRANCH  13  16
HETATM   16  C   UNL     1     -39.202 -48.933  11.624  1.00  0.00     0.250 C 
BRANCH  16  17
HETATM   17  N   UNL     1     -39.697 -47.573  11.658  1.00  0.00    -0.295 N 
HETATM   18  C   UNL     1     -39.733 -46.740  12.737  1.00  0.00     0.112 A 
HETATM   19  C   UNL     1     -40.377 -45.602  12.315  1.00  0.00     0.037 A 
HETATM   20  C   UNL     1     -40.685 -45.848  10.964  1.00  0.00     0.108 A 
HETATM   21  N   UNL     1     -40.268 -47.049  10.560  1.00  0.00    -0.310 N 
ATOM     22  HN  UNL     1     -40.361 -47.470   9.636  1.00  0.00     0.186 HD
ENDBRANCH  16  17
ENDBRANCH  13  16
ENDBRANCH   1  12
TORSDOF 5
ENDMDL
MODEL 7
REMARK VINA RESULT:      -5.8      2.504      3.235
REMARK  5 active torsions:
REMARK  status: ('A' for Active; 'I' for Inactive)
REMARK    1  A    between atoms: C_4  and  C_5 
REMARK    2  A    between atoms: C_4  and  N_16 
REMARK    3  A    between atoms: C_5  and  N_6 
REMARK       I    between atoms: N_6  and  C_7 
REMARK    4  A    between atoms: C_7  and  C_9 
REMARK    5  A    between atoms: C_9  and  N_10 
ROOT
HETATM    1  C   UNL     1     -40.668 -49.802  11.374  1.00  0.00     0.145 C 
ENDROOT
BRANCH   1   2
HETATM    2  C   UNL     1     -40.414 -49.423  13.857  1.00  0.00     0.073 A 
HETATM    3  C   UNL     1     -38.749 -50.863  12.621  1.00  0.00    -0.014 A 
HETATM    4  C   UNL     1     -37.812 -49.699  12.266  1.00  0.00     0.007 C 
HETATM    5  C   UNL     1     -40.262 -50.485  12.728  1.00  0.00     0.065 A 
BRANCH   2   6
HETATM    6  N   UNL     1     -41.172 -51.615  13.084  1.00  0.00    -0.405 N 
HETATM    7  C   UNL     1     -41.992 -51.922  14.277  1.00  0.00     0.143 C 
HETATM    8  C   UNL     1     -41.656 -53.252  14.974  1.00  0.00     0.187 C 
HETATM    9  O   UNL     1     -41.677 -54.350  14.057  1.00  0.00    -0.388 OA
HETATM   10  C   UNL     1     -40.777 -54.119  12.968  1.00  0.00     0.187 C 
HETATM   11  C   UNL     1     -41.112 -52.815  12.231  1.00  0.00     0.143 C 
ENDBRANCH   2   6
ENDBRANCH   1   2
BRANCH   1  12
HETATM   12  N   UNL     1     -41.751 -48.862  11.164  1.00  0.00    -0.358 N 
HETATM   13  C   UNL     1     -41.451 -47.534  10.918  1.00  0.00     0.237 C 
HETATM   14  O   UNL     1     -40.302 -47.093  10.948  1.00  0.00    -0.272 OA
HETATM   15  H   UNL     1     -42.620 -49.238  10.795  1.00  0.00     0.162 HD
BRANCH  13  16
HETATM   16  C   UNL     1     -42.634 -46.644  10.659  1.00  0.00     0.250 C 
BRANCH  16  17
HETATM   17  N   UNL     1     -43.457 -47.148   9.579  1.00  0.00    -0.295 N 
HETATM   18  C   UNL     1     -44.789 -47.432   9.626  1.00  0.00     0.112 A 
HETATM   19  C   UNL     1     -45.104 -47.977   8.405  1.00  0.00     0.037 A 
HETATM   20  C   UNL     1     -43.890 -47.975   7.691  1.00  0.00     0.108 A 
HETATM   21  N   UNL     1     -42.885 -47.466   8.404  1.00  0.00    -0.310 N 
ATOM     22  HN  UNL     1     -41.911 -47.346   8.125  1.00  0.00     0.186 HD
ENDBRANCH  16  17
ENDBRANCH  13  16
ENDBRANCH   1  12
TORSDOF 5
ENDMDL
MODEL 8
REMARK VINA RESULT:      -5.7      3.089      6.011
REMARK  5 active torsions:
REMARK  status: ('A' for Active; 'I' for Inactive)
REMARK    1  A    between atoms: C_4  and  C_5 
REMARK    2  A    between atoms: C_4  and  N_16 
REMARK    3  A    between atoms: C_5  and  N_6 
REMARK       I    between atoms: N_6  and  C_7 
REMARK    4  A    between atoms: C_7  and  C_9 
REMARK    5  A    between atoms: C_9  and  N_10 
ROOT
HETATM    1  C   UNL     1     -41.918 -53.561  14.868  1.00  0.00     0.145 C 
ENDROOT
BRANCH   1   2
HETATM    2  C   UNL     1     -40.679 -54.201  12.764  1.00  0.00     0.073 A 
HETATM    3  C   UNL     1     -39.396 -53.602  14.853  1.00  0.00    -0.014 A 
HETATM    4  C   UNL     1     -39.369 -55.036  15.402  1.00  0.00     0.007 C 
HETATM    5  C   UNL     1     -40.652 -53.246  13.993  1.00  0.00     0.065 A 
BRANCH   2   6
HETATM    6  N   UNL     1     -40.674 -51.855  13.451  1.00  0.00    -0.405 N 
HETATM    7  C   UNL     1     -41.296 -51.332  12.215  1.00  0.00     0.143 C 
HETATM    8  C   UNL     1     -40.501 -50.221  11.505  1.00  0.00     0.187 C 
HETATM    9  O   UNL     1     -40.181 -49.149  12.395  1.00  0.00    -0.388 OA
HETATM   10  C   UNL     1     -39.454 -49.631  13.530  1.00  0.00     0.187 C 
HETATM   11  C   UNL     1     -40.240 -50.715  14.279  1.00  0.00     0.143 C 
ENDBRANCH   2   6
ENDBRANCH   1   2
BRANCH   1  12
HETATM   12  N   UNL     1     -43.255 -53.639  14.314  1.00  0.00    -0.358 N 
HETATM   13  C   UNL     1     -44.010 -54.777  14.536  1.00  0.00     0.237 C 
HETATM   14  O   UNL     1     -43.568 -55.767  15.120  1.00  0.00    -0.272 OA
HETATM   15  H   UNL     1     -43.740 -52.759  14.159  1.00  0.00     0.162 HD
BRANCH  13  16
HETATM   16  C   UNL     1     -45.402 -54.747  13.971  1.00  0.00     0.250 C 
BRANCH  16  17
HETATM   17  N   UNL     1     -45.903 -53.394  13.851  1.00  0.00    -0.295 N 
HETATM   18  C   UNL     1     -46.303 -52.575  14.864  1.00  0.00     0.112 A 
HETATM   19  C   UNL     1     -46.792 -51.440  14.263  1.00  0.00     0.037 A 
HETATM   20  C   UNL     1     -46.638 -51.674  12.883  1.00  0.00     0.108 A 
HETATM   21  N   UNL     1     -46.093 -52.865  12.630  1.00  0.00    -0.310 N 
ATOM     22  HN  UNL     1     -45.871 -53.277  11.723  1.00  0.00     0.186 HD
ENDBRANCH  16  17
ENDBRANCH  13  16
ENDBRANCH   1  12
TORSDOF 5
ENDMDL
MODEL 9
REMARK VINA RESULT:      -5.7      2.287      2.731
REMARK  5 active torsions:
REMARK  status: ('A' for Active; 'I' for Inactive)
REMARK    1  A    between atoms: C_4  and  C_5 
REMARK    2  A    between atoms: C_4  and  N_16 
REMARK    3  A    between atoms: C_5  and  N_6 
REMARK       I    between atoms: N_6  and  C_7 
REMARK    4  A    between atoms: C_7  and  C_9 
REMARK    5  A    between atoms: C_9  and  N_10 
ROOT
HETATM    1  C   UNL     1     -41.763 -50.806  12.379  1.00  0.00     0.145 C 
ENDROOT
BRANCH   1   2
HETATM    2  C   UNL     1     -43.071 -50.148  14.435  1.00  0.00     0.073 A 
HETATM    3  C   UNL     1     -41.075 -51.680  14.643  1.00  0.00    -0.014 A 
HETATM    4  C   UNL     1     -40.060 -50.543  14.827  1.00  0.00     0.007 C 
HETATM    5  C   UNL     1     -42.313 -51.325  13.755  1.00  0.00     0.065 A 
BRANCH   2   6
HETATM    6  N   UNL     1     -43.305 -52.429  13.585  1.00  0.00    -0.405 N 
HETATM    7  C   UNL     1     -44.549 -52.181  12.823  1.00  0.00     0.143 C 
HETATM    8  C   UNL     1     -45.721 -53.118  13.165  1.00  0.00     0.187 C 
HETATM    9  O   UNL     1     -45.342 -54.494  13.068  1.00  0.00    -0.388 OA
HETATM   10  C   UNL     1     -44.221 -54.772  13.914  1.00  0.00     0.187 C 
HETATM   11  C   UNL     1     -43.024 -53.875  13.571  1.00  0.00     0.143 C 
ENDBRANCH   2   6
ENDBRANCH   1   2
BRANCH   1  12
HETATM   12  N   UNL     1     -42.195 -49.708  11.538  1.00  0.00    -0.358 N 
HETATM   13  C   UNL     1     -41.313 -48.676  11.271  1.00  0.00     0.237 C 
HETATM   14  O   UNL     1     -40.195 -48.606  11.783  1.00  0.00    -0.272 OA
HETATM   15  H   UNL     1     -42.923 -49.909  10.858  1.00  0.00     0.162 HD
BRANCH  13  16
HETATM   16  C   UNL     1     -41.829 -47.610  10.348  1.00  0.00     0.250 C 
BRANCH  16  17
HETATM   17  N   UNL     1     -41.203 -46.330  10.605  1.00  0.00    -0.295 N 
HETATM   18  C   UNL     1     -41.801 -45.209  11.098  1.00  0.00     0.112 A 
HETATM   19  C   UNL     1     -40.842 -44.224  11.070  1.00  0.00     0.037 A 
HETATM   20  C   UNL     1     -39.699 -44.856  10.544  1.00  0.00     0.108 A 
HETATM   21  N   UNL     1     -39.916 -46.142  10.263  1.00  0.00    -0.310 N 
ATOM     22  HN  UNL     1     -39.261 -46.822   9.879  1.00  0.00     0.186 HD
ENDBRANCH  16  17
ENDBRANCH  13  16
ENDBRANCH   1  12
TORSDOF 5
ENDMDL
