MODEL 1
REMARK VINA RESULT:      -5.9      0.000      0.000
REMARK  6 active torsions:
REMARK  status: ('A' for Active; 'I' for Inactive)
REMARK    1  A    between atoms: N_6  and  C_7 
REMARK    2  A    between atoms: C_7  and  C_8 
REMARK    3  A    between atoms: C_8  and  N_9 
REMARK    4  A    between atoms: N_9  and  C_10 
REMARK    5  A    between atoms: C_10  and  C_11 
REMARK    6  A    between atoms: C_11  and  C_12 
REMARK       I    between atoms: C_12  and  N_14 
ROOT
HETATM    1  N   UNL     1     -41.868 -50.096  11.518  1.00  0.00     0.085 N 
HETATM    2  H   UNL     1     -41.011 -50.392  11.047  1.00  0.00     0.315 HD
ENDROOT
BRANCH   1   3
HETATM    3  C   UNL     1     -41.766 -48.659  11.827  1.00  0.00     0.291 C 
BRANCH   3   4
HETATM    4  C   UNL     1     -41.573 -47.821  10.561  1.00  0.00     0.178 C 
BRANCH   4   5
HETATM    5  N   UNL     1     -42.804 -47.744   9.793  1.00  0.00    -0.302 N 
HETATM    6  N   UNL     1     -42.781 -47.964   8.466  1.00  0.00    -0.310 N 
HETATM    7  C   UNL     1     -44.051 -47.783   8.096  1.00  0.00     0.115 A 
ATOM      8  HN  UNL     1     -41.983 -48.210   7.880  1.00  0.00     0.186 HD
HETATM    9  C   UNL     1     -44.892 -47.445   9.180  1.00  0.00    -0.028 A 
HETATM   10  C   UNL     1     -46.343 -47.161   9.155  1.00  0.00     0.051 C 
HETATM   11  C   UNL     1     -44.046 -47.438  10.270  1.00  0.00     0.118 A 
ENDBRANCH   4   5
ENDBRANCH   3   4
ENDBRANCH   1   3
BRANCH   1  12
HETATM   12  C   UNL     1     -42.014 -50.866  12.765  1.00  0.00     0.278 C 
BRANCH  12  13
HETATM   13  C   UNL     1     -42.533 -52.272  12.468  1.00  0.00     0.133 C 
BRANCH  13  14
HETATM   14  C   UNL     1     -43.023 -52.961  13.733  1.00  0.00     0.221 C 
HETATM   15  O   UNL     1     -42.236 -53.539  14.485  1.00  0.00    -0.273 OA
HETATM   16  N   UNL     1     -44.390 -52.913  13.987  1.00  0.00    -0.352 N 
HETATM   17  C   UNL     1     -45.388 -52.302  13.109  1.00  0.00     0.125 C 
HETATM   18  C   UNL     1     -44.929 -53.713  15.089  1.00  0.00     0.125 C 
HETATM   19  C   UNL     1     -46.387 -51.473  13.912  1.00  0.00     0.020 C 
HETATM   20  C   UNL     1     -47.019 -52.302  15.028  1.00  0.00     0.003 C 
HETATM   21  C   UNL     1     -45.943 -52.925  15.913  1.00  0.00     0.020 C 
ENDBRANCH  13  14
ENDBRANCH  12  13
ENDBRANCH   1  12
TORSDOF 6
ENDMDL
MODEL 2
REMARK VINA RESULT:      -5.6      1.657      2.359
REMARK  6 active torsions:
REMARK  status: ('A' for Active; 'I' for Inactive)
REMARK    1  A    between atoms: N_6  and  C_7 
REMARK    2  A    between atoms: C_7  and  C_8 
REMARK    3  A    between atoms: C_8  and  N_9 
REMARK    4  A    between atoms: N_9  and  C_10 
REMARK    5  A    between atoms: C_10  and  C_11 
REMARK    6  A    between atoms: C_11  and  C_12 
REMARK       I    between atoms: C_12  and  N_14 
ROOT
HETATM    1  N   UNL     1     -42.143 -49.711  11.554  1.00  0.00     0.085 N 
HETATM    2  H   UNL     1     -41.748 -50.646  11.670  1.00  0.00     0.315 HD
ENDROOT
BRANCH   1   3
HETATM    3  C   UNL     1     -41.146 -48.855  10.888  1.00  0.00     0.291 C 
BRANCH   3   4
HETATM    4  C   UNL     1     -41.710 -47.467  10.579  1.00  0.00     0.178 C 
BRANCH   4   5
HETATM    5  N   UNL     1     -42.917 -47.560   9.777  1.00  0.00    -0.302 N 
HETATM    6  N   UNL     1     -42.835 -47.900   8.477  1.00  0.00    -0.310 N 
HETATM    7  C   UNL     1     -44.103 -47.856   8.061  1.00  0.00     0.115 A 
ATOM      8  HN  UNL     1     -42.002 -48.135   7.938  1.00  0.00     0.186 HD
HETATM    9  C   UNL     1     -45.002 -47.487   9.086  1.00  0.00    -0.028 A 
HETATM   10  C   UNL     1     -46.469 -47.323   8.998  1.00  0.00     0.051 C 
HETATM   11  C   UNL     1     -44.194 -47.310  10.191  1.00  0.00     0.118 A 
ENDBRANCH   4   5
ENDBRANCH   3   4
ENDBRANCH   1   3
BRANCH   1  12
HETATM   12  C   UNL     1     -42.464 -49.164  12.883  1.00  0.00     0.278 C 
BRANCH  12  13
HETATM   13  C   UNL     1     -42.931 -50.275  13.821  1.00  0.00     0.133 C 
BRANCH  13  14
HETATM   14  C   UNL     1     -41.887 -51.376  13.941  1.00  0.00     0.221 C 
HETATM   15  O   UNL     1     -40.684 -51.115  13.900  1.00  0.00    -0.273 OA
HETATM   16  N   UNL     1     -42.358 -52.677  14.087  1.00  0.00    -0.352 N 
HETATM   17  C   UNL     1     -43.769 -53.067  14.079  1.00  0.00     0.125 C 
HETATM   18  C   UNL     1     -41.401 -53.782  14.022  1.00  0.00     0.125 C 
HETATM   19  C   UNL     1     -44.062 -54.073  15.189  1.00  0.00     0.020 C 
HETATM   20  C   UNL     1     -43.123 -55.274  15.106  1.00  0.00     0.003 C 
HETATM   21  C   UNL     1     -41.666 -54.820  15.109  1.00  0.00     0.020 C 
ENDBRANCH  13  14
ENDBRANCH  12  13
ENDBRANCH   1  12
TORSDOF 6
ENDMDL
MODEL 3
REMARK VINA RESULT:      -5.6      3.412      4.508
REMARK  6 active torsions:
REMARK  status: ('A' for Active; 'I' for Inactive)
REMARK    1  A    between atoms: N_6  and  C_7 
REMARK    2  A    between atoms: C_7  and  C_8 
REMARK    3  A    between atoms: C_8  and  N_9 
REMARK    4  A    between atoms: N_9  and  C_10 
REMARK    5  A    between atoms: C_10  and  C_11 
REMARK    6  A    between atoms: C_11  and  C_12 
REMARK       I    between atoms: C_12  and  N_14 
ROOT
HETATM    1  N   UNL     1     -42.800 -53.000  13.950  1.00  0.00     0.085 N 
HETATM    2  H   UNL     1     -42.873 -51.982  13.976  1.00  0.00     0.315 HD
ENDROOT
BRANCH   1   3
HETATM    3  C   UNL     1     -41.383 -53.369  13.788  1.00  0.00     0.291 C 
BRANCH   3   4
HETATM    4  C   UNL     1     -40.896 -53.127  12.357  1.00  0.00     0.178 C 
BRANCH   4   5
HETATM    5  N   UNL     1     -40.336 -51.795  12.215  1.00  0.00    -0.302 N 
HETATM    6  N   UNL     1     -40.778 -50.982  11.238  1.00  0.00    -0.310 N 
HETATM    7  C   UNL     1     -40.036 -49.882  11.385  1.00  0.00     0.115 A 
ATOM      8  HN  UNL     1     -41.507 -51.163  10.548  1.00  0.00     0.186 HD
HETATM    9  C   UNL     1     -39.115 -49.984  12.452  1.00  0.00    -0.028 A 
HETATM   10  C   UNL     1     -38.129 -48.979  12.905  1.00  0.00     0.051 C 
HETATM   11  C   UNL     1     -39.346 -51.240  12.973  1.00  0.00     0.118 A 
ENDBRANCH   4   5
ENDBRANCH   3   4
ENDBRANCH   1   3
BRANCH   1  12
HETATM   12  C   UNL     1     -43.582 -53.503  12.808  1.00  0.00     0.278 C 
BRANCH  12  13
HETATM   13  C   UNL     1     -44.685 -54.445  13.288  1.00  0.00     0.133 C 
BRANCH  13  14
HETATM   14  C   UNL     1     -44.828 -54.405  14.802  1.00  0.00     0.221 C 
HETATM   15  O   UNL     1     -44.085 -55.068  15.527  1.00  0.00    -0.273 OA
HETATM   16  N   UNL     1     -45.837 -53.598  15.318  1.00  0.00    -0.352 N 
HETATM   17  C   UNL     1     -46.796 -52.835  14.518  1.00  0.00     0.125 C 
HETATM   18  C   UNL     1     -46.131 -53.668  16.751  1.00  0.00     0.125 C 
HETATM   19  C   UNL     1     -46.977 -51.428  15.081  1.00  0.00     0.020 C 
HETATM   20  C   UNL     1     -47.353 -51.470  16.560  1.00  0.00     0.003 C 
HETATM   21  C   UNL     1     -46.331 -52.281  17.353  1.00  0.00     0.020 C 
ENDBRANCH  13  14
ENDBRANCH  12  13
ENDBRANCH   1  12
TORSDOF 6
ENDMDL
MODEL 4
REMARK VINA RESULT:      -5.5      1.978      2.945
REMARK  6 active torsions:
REMARK  status: ('A' for Active; 'I' for Inactive)
REMARK    1  A    between atoms: N_6  and  C_7 
REMARK    2  A    between atoms: C_7  and  C_8 
REMARK    3  A    between atoms: C_8  and  N_9 
REMARK    4  A    between atoms: N_9  and  C_10 
REMARK    5  A    between atoms: C_10  and  C_11 
REMARK    6  A    between atoms: C_11  and  C_12 
REMARK       I    between atoms: C_12  and  N_14 
ROOT
HETATM    1  N   UNL     1     -43.540 -51.754  12.544  1.00  0.00     0.085 N 
HETATM    2  H   UNL     1     -43.734 -51.515  11.570  1.00  0.00     0.315 HD
ENDROOT
BRANCH   1   3
HETATM    3  C   UNL     1     -42.465 -50.878  13.042  1.00  0.00     0.291 C 
BRANCH   3   4
HETATM    4  C   UNL     1     -41.369 -50.676  11.993  1.00  0.00     0.178 C 
BRANCH   4   5
HETATM    5  N   UNL     1     -41.351 -49.306  11.513  1.00  0.00    -0.302 N 
HETATM    6  N   UNL     1     -42.413 -48.814  10.847  1.00  0.00    -0.310 N 
HETATM    7  C   UNL     1     -42.041 -47.570  10.539  1.00  0.00     0.115 A 
ATOM      8  HN  UNL     1     -43.293 -49.282  10.629  1.00  0.00     0.186 HD
HETATM    9  C   UNL     1     -40.744 -47.257  11.001  1.00  0.00    -0.028 A 
HETATM   10  C   UNL     1     -39.998 -45.991  10.838  1.00  0.00     0.051 C 
HETATM   11  C   UNL     1     -40.330 -48.409  11.638  1.00  0.00     0.118 A 
ENDBRANCH   4   5
ENDBRANCH   3   4
ENDBRANCH   1   3
BRANCH   1  12
HETATM   12  C   UNL     1     -43.107 -53.161  12.610  1.00  0.00     0.278 C 
BRANCH  12  13
HETATM   13  C   UNL     1     -44.310 -54.081  12.812  1.00  0.00     0.133 C 
BRANCH  13  14
HETATM   14  C   UNL     1     -44.612 -54.284  14.290  1.00  0.00     0.221 C 
HETATM   15  O   UNL     1     -43.938 -55.055  14.974  1.00  0.00    -0.273 OA
HETATM   16  N   UNL     1     -45.682 -53.568  14.818  1.00  0.00    -0.352 N 
HETATM   17  C   UNL     1     -46.563 -52.685  14.052  1.00  0.00     0.125 C 
HETATM   18  C   UNL     1     -46.122 -53.866  16.181  1.00  0.00     0.125 C 
HETATM   19  C   UNL     1     -46.824 -51.386  14.809  1.00  0.00     0.020 C 
HETATM   20  C   UNL     1     -47.352 -51.663  16.215  1.00  0.00     0.003 C 
HETATM   21  C   UNL     1     -46.406 -52.592  16.972  1.00  0.00     0.020 C 
ENDBRANCH  13  14
ENDBRANCH  12  13
ENDBRANCH   1  12
TORSDOF 6
ENDMDL
MODEL 5
REMARK VINA RESULT:      -5.5      2.415      3.581
REMARK  6 active torsions:
REMARK  status: ('A' for Active; 'I' for Inactive)
REMARK    1  A    between atoms: N_6  and  C_7 
REMARK    2  A    between atoms: C_7  and  C_8 
REMARK    3  A    between atoms: C_8  and  N_9 
REMARK    4  A    between atoms: N_9  and  C_10 
REMARK    5  A    between atoms: C_10  and  C_11 
REMARK    6  A    between atoms: C_11  and  C_12 
REMARK       I    between atoms: C_12  and  N_14 
ROOT
HETATM    1  N   UNL     1     -41.531 -54.091  13.808  1.00  0.00     0.085 N 
HETATM    2  H   UNL     1     -40.642 -54.581  13.694  1.00  0.00     0.315 HD
ENDROOT
BRANCH   1   3
HETATM    3  C   UNL     1     -41.281 -52.640  13.757  1.00  0.00     0.291 C 
BRANCH   3   4
HETATM    4  C   UNL     1     -40.636 -52.224  12.433  1.00  0.00     0.178 C 
BRANCH   4   5
HETATM    5  N   UNL     1     -41.107 -50.917  12.010  1.00  0.00    -0.302 N 
HETATM    6  N   UNL     1     -40.511 -50.290  10.979  1.00  0.00    -0.310 N 
HETATM    7  C   UNL     1     -41.168 -49.131  10.894  1.00  0.00     0.115 A 
ATOM      8  HN  UNL     1     -39.740 -50.622  10.399  1.00  0.00     0.186 HD
HETATM    9  C   UNL     1     -42.184 -49.007  11.868  1.00  0.00    -0.028 A 
HETATM   10  C   UNL     1     -43.102 -47.869  12.089  1.00  0.00     0.051 C 
HETATM   11  C   UNL     1     -42.119 -50.193  12.571  1.00  0.00     0.118 A 
ENDBRANCH   4   5
ENDBRANCH   3   4
ENDBRANCH   1   3
BRANCH   1  12
HETATM   12  C   UNL     1     -42.109 -54.452  15.114  1.00  0.00     0.278 C 
BRANCH  12  13
HETATM   13  C   UNL     1     -43.453 -55.153  14.928  1.00  0.00     0.133 C 
BRANCH  13  14
HETATM   14  C   UNL     1     -44.592 -54.335  15.518  1.00  0.00     0.221 C 
HETATM   15  O   UNL     1     -44.807 -54.330  16.731  1.00  0.00    -0.273 OA
HETATM   16  N   UNL     1     -45.374 -53.609  14.625  1.00  0.00    -0.352 N 
HETATM   17  C   UNL     1     -45.218 -53.617  13.170  1.00  0.00     0.125 C 
HETATM   18  C   UNL     1     -46.586 -52.955  15.122  1.00  0.00     0.125 C 
HETATM   19  C   UNL     1     -45.315 -52.204  12.603  1.00  0.00     0.020 C 
HETATM   20  C   UNL     1     -46.605 -51.519  13.048  1.00  0.00     0.003 C 
HETATM   21  C   UNL     1     -46.730 -51.541  14.570  1.00  0.00     0.020 C 
ENDBRANCH  13  14
ENDBRANCH  12  13
ENDBRANCH   1  12
TORSDOF 6
ENDMDL
MODEL 6
REMARK VINA RESULT:      -5.4      3.464      4.296
REMARK  6 active torsions:
REMARK  status: ('A' for Active; 'I' for Inactive)
REMARK    1  A    between atoms: N_6  and  C_7 
REMARK    2  A    between atoms: C_7  and  C_8 
REMARK    3  A    between atoms: C_8  and  N_9 
REMARK    4  A    between atoms: N_9  and  C_10 
REMARK    5  A    between atoms: C_10  and  C_11 
REMARK    6  A    between atoms: C_11  and  C_12 
REMARK       I    between atoms: C_12  and  N_14 
ROOT
HETATM    1  N   UNL     1     -41.536 -54.103  12.478  1.00  0.00     0.085 N 
HETATM    2  H   UNL     1     -40.764 -54.712  12.201  1.00  0.00     0.315 HD
ENDROOT
BRANCH   1   3
HETATM    3  C   UNL     1     -41.203 -52.717  12.107  1.00  0.00     0.291 C 
BRANCH   3   4
HETATM    4  C   UNL     1     -40.059 -52.163  12.959  1.00  0.00     0.178 C 
BRANCH   4   5
HETATM    5  N   UNL     1     -39.619 -50.869  12.466  1.00  0.00    -0.302 N 
HETATM    6  N   UNL     1     -38.381 -50.730  11.958  1.00  0.00    -0.310 N 
HETATM    7  C   UNL     1     -38.315 -49.435  11.642  1.00  0.00     0.115 A 
ATOM      8  HN  UNL     1     -37.663 -51.445  11.842  1.00  0.00     0.186 HD
HETATM    9  C   UNL     1     -39.505 -48.738  11.947  1.00  0.00    -0.028 A 
HETATM   10  C   UNL     1     -39.796 -47.301  11.752  1.00  0.00     0.051 C 
HETATM   11  C   UNL     1     -40.334 -49.706  12.475  1.00  0.00     0.118 A 
ENDBRANCH   4   5
ENDBRANCH   3   4
ENDBRANCH   1   3
BRANCH   1  12
HETATM   12  C   UNL     1     -41.718 -54.200  13.937  1.00  0.00     0.278 C 
BRANCH  12  13
HETATM   13  C   UNL     1     -43.125 -54.693  14.269  1.00  0.00     0.133 C 
BRANCH  13  14
HETATM   14  C   UNL     1     -44.187 -53.843  13.586  1.00  0.00     0.221 C 
HETATM   15  O   UNL     1     -44.534 -54.073  12.427  1.00  0.00    -0.273 OA
HETATM   16  N   UNL     1     -44.730 -52.799  14.329  1.00  0.00    -0.352 N 
HETATM   17  C   UNL     1     -44.321 -52.428  15.684  1.00  0.00     0.125 C 
HETATM   18  C   UNL     1     -45.616 -51.846  13.658  1.00  0.00     0.125 C 
HETATM   19  C   UNL     1     -45.537 -52.144  16.562  1.00  0.00     0.020 C 
HETATM   20  C   UNL     1     -46.448 -51.100  15.920  1.00  0.00     0.003 C 
HETATM   21  C   UNL     1     -46.842 -51.524  14.507  1.00  0.00     0.020 C 
ENDBRANCH  13  14
ENDBRANCH  12  13
ENDBRANCH   1  12
TORSDOF 6
ENDMDL
MODEL 7
REMARK VINA RESULT:      -5.3      2.839      3.347
REMARK  6 active torsions:
REMARK  status: ('A' for Active; 'I' for Inactive)
REMARK    1  A    between atoms: N_6  and  C_7 
REMARK    2  A    between atoms: C_7  and  C_8 
REMARK    3  A    between atoms: C_8  and  N_9 
REMARK    4  A    between atoms: N_9  and  C_10 
REMARK    5  A    between atoms: C_10  and  C_11 
REMARK    6  A    between atoms: C_11  and  C_12 
REMARK       I    between atoms: C_12  and  N_14 
ROOT
HETATM    1  N   UNL     1     -41.472 -50.427  11.840  1.00  0.00     0.085 N 
HETATM    2  H   UNL     1     -42.362 -50.274  11.364  1.00  0.00     0.315 HD
ENDROOT
BRANCH   1   3
HETATM    3  C   UNL     1     -40.424 -49.662  11.142  1.00  0.00     0.291 C 
BRANCH   3   4
HETATM    4  C   UNL     1     -39.586 -48.832  12.117  1.00  0.00     0.178 C 
BRANCH   4   5
HETATM    5  N   UNL     1     -39.745 -47.411  11.863  1.00  0.00    -0.302 N 
HETATM    6  N   UNL     1     -40.054 -46.980  10.626  1.00  0.00    -0.310 N 
HETATM    7  C   UNL     1     -40.088 -45.652  10.755  1.00  0.00     0.115 A 
ATOM      8  HN  UNL     1     -40.223 -47.537   9.788  1.00  0.00     0.186 HD
HETATM    9  C   UNL     1     -39.800 -45.224  12.070  1.00  0.00    -0.028 A 
HETATM   10  C   UNL     1     -39.733 -43.839  12.585  1.00  0.00     0.051 C 
HETATM   11  C   UNL     1     -39.590 -46.397  12.765  1.00  0.00     0.118 A 
ENDBRANCH   4   5
ENDBRANCH   3   4
ENDBRANCH   1   3
BRANCH   1  12
HETATM   12  C   UNL     1     -41.152 -51.864  11.799  1.00  0.00     0.278 C 
BRANCH  12  13
HETATM   13  C   UNL     1     -42.343 -52.691  12.282  1.00  0.00     0.133 C 
BRANCH  13  14
HETATM   14  C   UNL     1     -42.749 -52.306  13.696  1.00  0.00     0.221 C 
HETATM   15  O   UNL     1     -41.901 -52.052  14.553  1.00  0.00    -0.273 OA
HETATM   16  N   UNL     1     -44.113 -52.265  13.970  1.00  0.00    -0.352 N 
HETATM   17  C   UNL     1     -45.172 -52.615  13.023  1.00  0.00     0.125 C 
HETATM   18  C   UNL     1     -44.546 -52.080  15.356  1.00  0.00     0.125 C 
HETATM   19  C   UNL     1     -46.311 -51.600  13.080  1.00  0.00     0.020 C 
HETATM   20  C   UNL     1     -46.832 -51.435  14.505  1.00  0.00     0.003 C 
HETATM   21  C   UNL     1     -45.694 -51.079  15.458  1.00  0.00     0.020 C 
ENDBRANCH  13  14
ENDBRANCH  12  13
ENDBRANCH   1  12
TORSDOF 6
ENDMDL
MODEL 8
REMARK VINA RESULT:      -5.2      2.649      3.493
REMARK  6 active torsions:
REMARK  status: ('A' for Active; 'I' for Inactive)
REMARK    1  A    between atoms: N_6  and  C_7 
REMARK    2  A    between atoms: C_7  and  C_8 
REMARK    3  A    between atoms: C_8  and  N_9 
REMARK    4  A    between atoms: N_9  and  C_10 
REMARK    5  A    between atoms: C_10  and  C_11 
REMARK    6  A    between atoms: C_11  and  C_12 
REMARK       I    between atoms: C_12  and  N_14 
ROOT
HETATM    1  N   UNL     1     -39.991 -50.849  13.682  1.00  0.00     0.085 N 
HETATM    2  H   UNL     1     -40.454 -51.122  12.814  1.00  0.00     0.315 HD
ENDROOT
BRANCH   1   3
HETATM    3  C   UNL     1     -39.124 -49.688  13.412  1.00  0.00     0.291 C 
BRANCH   3   4
HETATM    4  C   UNL     1     -38.941 -49.458  11.910  1.00  0.00     0.178 C 
BRANCH   4   5
HETATM    5  N   UNL     1     -40.007 -48.630  11.375  1.00  0.00    -0.302 N 
HETATM    6  N   UNL     1     -40.995 -49.191  10.653  1.00  0.00    -0.310 N 
HETATM    7  C   UNL     1     -41.760 -48.153  10.307  1.00  0.00     0.115 A 
ATOM      8  HN  UNL     1     -41.129 -50.176  10.426  1.00  0.00     0.186 HD
HETATM    9  C   UNL     1     -41.267 -46.924  10.800  1.00  0.00    -0.028 A 
HETATM   10  C   UNL     1     -41.835 -45.572  10.610  1.00  0.00     0.051 C 
HETATM   11  C   UNL     1     -40.130 -47.275  11.497  1.00  0.00     0.118 A 
ENDBRANCH   4   5
ENDBRANCH   3   4
ENDBRANCH   1   3
BRANCH   1  12
HETATM   12  C   UNL     1     -39.176 -51.978  14.163  1.00  0.00     0.278 C 
BRANCH  12  13
HETATM   13  C   UNL     1     -39.772 -53.304  13.693  1.00  0.00     0.133 C 
BRANCH  13  14
HETATM   14  C   UNL     1     -41.037 -53.087  12.877  1.00  0.00     0.221 C 
HETATM   15  O   UNL     1     -40.985 -52.613  11.741  1.00  0.00    -0.273 OA
HETATM   16  N   UNL     1     -42.242 -53.438  13.478  1.00  0.00    -0.352 N 
HETATM   17  C   UNL     1     -42.385 -53.945  14.843  1.00  0.00     0.125 C 
HETATM   18  C   UNL     1     -43.493 -53.079  12.807  1.00  0.00     0.125 C 
HETATM   19  C   UNL     1     -43.355 -55.122  14.888  1.00  0.00     0.020 C 
HETATM   20  C   UNL     1     -44.696 -54.756  14.257  1.00  0.00     0.003 C 
HETATM   21  C   UNL     1     -44.498 -54.226  12.839  1.00  0.00     0.020 C 
ENDBRANCH  13  14
ENDBRANCH  12  13
ENDBRANCH   1  12
TORSDOF 6
ENDMDL
MODEL 9
REMARK VINA RESULT:      -5.1      4.234      5.342
REMARK  6 active torsions:
REMARK  status: ('A' for Active; 'I' for Inactive)
REMARK    1  A    between atoms: N_6  and  C_7 
REMARK    2  A    between atoms: C_7  and  C_8 
REMARK    3  A    between atoms: C_8  and  N_9 
REMARK    4  A    between atoms: N_9  and  C_10 
REMARK    5  A    between atoms: C_10  and  C_11 
REMARK    6  A    between atoms: C_11  and  C_12 
REMARK       I    between atoms: C_12  and  N_14 
ROOT
HETATM    1  N   UNL     1     -40.751 -52.842  15.370  1.00  0.00     0.085 N 
HETATM    2  H   UNL     1     -41.156 -52.189  14.697  1.00  0.00     0.315 HD
ENDROOT
BRANCH   1   3
HETATM    3  C   UNL     1     -39.286 -52.842  15.205  1.00  0.00     0.291 C 
BRANCH   3   4
HETATM    4  C   UNL     1     -38.670 -51.505  15.621  1.00  0.00     0.178 C 
BRANCH   4   5
HETATM    5  N   UNL     1     -38.328 -50.704  14.459  1.00  0.00    -0.302 N 
HETATM    6  N   UNL     1     -38.451 -49.365  14.507  1.00  0.00    -0.310 N 
HETATM    7  C   UNL     1     -38.088 -48.972  13.284  1.00  0.00     0.115 A 
ATOM      8  HN  UNL     1     -38.751 -48.786  15.292  1.00  0.00     0.186 HD
HETATM    9  C   UNL     1     -37.734 -50.053  12.446  1.00  0.00    -0.028 A 
HETATM   10  C   UNL     1     -37.296 -50.008  11.034  1.00  0.00     0.051 C 
HETATM   11  C   UNL     1     -37.894 -51.164  13.249  1.00  0.00     0.118 A 
ENDBRANCH   4   5
ENDBRANCH   3   4
ENDBRANCH   1   3
BRANCH   1  12
HETATM   12  C   UNL     1     -41.284 -54.189  15.105  1.00  0.00     0.278 C 
BRANCH  12  13
HETATM   13  C   UNL     1     -42.238 -54.161  13.912  1.00  0.00     0.133 C 
BRANCH  13  14
HETATM   14  C   UNL     1     -43.661 -54.500  14.332  1.00  0.00     0.221 C 
HETATM   15  O   UNL     1     -43.920 -55.567  14.890  1.00  0.00    -0.273 OA
HETATM   16  N   UNL     1     -44.643 -53.556  14.046  1.00  0.00    -0.352 N 
HETATM   17  C   UNL     1     -44.419 -52.299  13.331  1.00  0.00     0.125 C 
HETATM   18  C   UNL     1     -46.045 -53.913  14.265  1.00  0.00     0.125 C 
HETATM   19  C   UNL     1     -45.148 -51.146  14.015  1.00  0.00     0.020 C 
HETATM   20  C   UNL     1     -46.631 -51.460  14.194  1.00  0.00     0.003 C 
HETATM   21  C   UNL     1     -46.816 -52.781  14.937  1.00  0.00     0.020 C 
ENDBRANCH  13  14
ENDBRANCH  12  13
ENDBRANCH   1  12
TORSDOF 6
ENDMDL
