MODEL 1
REMARK VINA RESULT:      -5.6      0.000      0.000
REMARK  4 active torsions:
REMARK  status: ('A' for Active; 'I' for Inactive)
REMARK    1  A    between atoms: C_2  and  C_3 
REMARK       I    between atoms: N_5  and  C_9 
REMARK       I    between atoms: C_9  and  N_11 
REMARK    2  A    between atoms: N_11  and  C_12 
REMARK    3  A    between atoms: C_12  and  C_13 
REMARK    4  A    between atoms: C_13  and  C_14 
ROOT
HETATM    1  C   UNL     1     -44.203 -52.182  14.733  1.00  0.00     0.139 C 
HETATM    2  C   UNL     1     -42.721 -51.755  14.750  1.00  0.00     0.159 C 
HETATM    3  N   UNL     1     -41.936 -52.555  13.804  1.00  0.00    -0.330 N 
HETATM    4  C   UNL     1     -42.094 -53.997  13.998  1.00  0.00     0.153 C 
HETATM    5  C   UNL     1     -43.575 -54.393  14.043  1.00  0.00     0.188 C 
HETATM    6  O   UNL     1     -44.321 -53.597  14.977  1.00  0.00    -0.383 OA
HETATM    7  C   UNL     1     -41.245 -52.097  12.706  1.00  0.00     0.318 C 
HETATM    8  O   UNL     1     -40.744 -52.849  11.875  1.00  0.00    -0.247 OA
HETATM    9  N   UNL     1     -41.160 -50.739  12.576  1.00  0.00    -0.343 N 
HETATM   10  H   UNL     1     -41.206 -50.184  13.416  1.00  0.00     0.164 HD
ENDROOT
BRANCH   9  11
HETATM   11  C   UNL     1     -40.454 -50.147  11.454  1.00  0.00     0.130 C 
BRANCH  11  12
HETATM   12  C   UNL     1     -40.228 -48.643  11.607  1.00  0.00     0.077 C 
BRANCH  12  13
HETATM   13  C   UNL     1     -41.242 -47.820  10.878  1.00  0.00     0.018 A 
HETATM   14  C   UNL     1     -41.657 -46.544  11.208  1.00  0.00     0.076 A 
HETATM   15  S   UNL     1     -42.831 -45.999  10.087  1.00  0.00    -0.087 SA
HETATM   16  C   UNL     1     -42.709 -47.494   9.250  1.00  0.00     0.046 A 
HETATM   17  C   UNL     1     -43.533 -47.750   8.037  1.00  0.00     0.076 C 
HETATM   18  N   UNL     1     -41.856 -48.360   9.756  1.00  0.00    -0.357 N 
ATOM     19  HN  UNL     1     -41.672 -49.289   9.378  1.00  0.00     0.166 HD
ENDBRANCH  12  13
ENDBRANCH  11  12
ENDBRANCH   9  11
BRANCH   1  20
HETATM   20  C   UNL     1     -44.916 -51.742  13.444  1.00  0.00     0.029 C 
HETATM   21  C   UNL     1     -46.418 -51.593  13.635  1.00  0.00     0.007 C 
ENDBRANCH   1  20
TORSDOF 4
ENDMDL
MODEL 2
REMARK VINA RESULT:      -5.6      1.490      1.840
REMARK  4 active torsions:
REMARK  status: ('A' for Active; 'I' for Inactive)
REMARK    1  A    between atoms: C_2  and  C_3 
REMARK       I    between atoms: N_5  and  C_9 
REMARK       I    between atoms: C_9  and  N_11 
REMARK    2  A    between atoms: N_11  and  C_12 
REMARK    3  A    between atoms: C_12  and  C_13 
REMARK    4  A    between atoms: C_13  and  C_14 
ROOT
HETATM    1  C   UNL     1     -46.567 -51.930  13.552  1.00  0.00     0.139 C 
HETATM    2  C   UNL     1     -45.325 -51.186  14.084  1.00  0.00     0.159 C 
HETATM    3  N   UNL     1     -44.161 -52.077  14.125  1.00  0.00    -0.330 N 
HETATM    4  C   UNL     1     -44.411 -53.320  14.856  1.00  0.00     0.153 C 
HETATM    5  C   UNL     1     -45.684 -54.012  14.355  1.00  0.00     0.188 C 
HETATM    6  O   UNL     1     -46.810 -53.121  14.326  1.00  0.00    -0.383 OA
HETATM    7  C   UNL     1     -42.982 -51.932  13.430  1.00  0.00     0.318 C 
HETATM    8  O   UNL     1     -42.118 -52.804  13.399  1.00  0.00    -0.247 OA
HETATM    9  N   UNL     1     -42.829 -50.756  12.751  1.00  0.00    -0.343 N 
HETATM   10  H   UNL     1     -43.316 -49.946  13.100  1.00  0.00     0.164 HD
ENDROOT
BRANCH   9  11
HETATM   11  C   UNL     1     -41.623 -50.498  11.984  1.00  0.00     0.130 C 
BRANCH  11  12
HETATM   12  C   UNL     1     -41.069 -49.088  12.184  1.00  0.00     0.077 C 
BRANCH  12  13
HETATM   13  C   UNL     1     -41.718 -48.072  11.300  1.00  0.00     0.018 A 
HETATM   14  C   UNL     1     -41.764 -46.706  11.510  1.00  0.00     0.076 A 
HETATM   15  S   UNL     1     -42.610 -45.942  10.233  1.00  0.00    -0.087 SA
HETATM   16  C   UNL     1     -42.862 -47.474   9.498  1.00  0.00     0.046 A 
HETATM   17  C   UNL     1     -43.606 -47.583   8.214  1.00  0.00     0.076 C 
HETATM   18  N   UNL     1     -42.356 -48.503  10.145  1.00  0.00    -0.357 N 
ATOM     19  HN  UNL     1     -42.424 -49.475   9.842  1.00  0.00     0.166 HD
ENDBRANCH  12  13
ENDBRANCH  11  12
ENDBRANCH   9  11
BRANCH   1  20
HETATM   20  C   UNL     1     -46.467 -52.215  12.044  1.00  0.00     0.029 C 
HETATM   21  C   UNL     1     -47.505 -51.448  11.239  1.00  0.00     0.007 C 
ENDBRANCH   1  20
TORSDOF 4
ENDMDL
MODEL 3
REMARK VINA RESULT:      -5.6      3.382      5.967
REMARK  4 active torsions:
REMARK  status: ('A' for Active; 'I' for Inactive)
REMARK    1  A    between atoms: C_2  and  C_3 
REMARK       I    between atoms: N_5  and  C_9 
REMARK       I    between atoms: C_9  and  N_11 
REMARK    2  A    between atoms: N_11  and  C_12 
REMARK    3  A    between atoms: C_12  and  C_13 
REMARK    4  A    between atoms: C_13  and  C_14 
ROOT
HETATM    1  C   UNL     1     -40.249 -51.446  12.566  1.00  0.00     0.139 C 
HETATM    2  C   UNL     1     -41.223 -52.361  11.797  1.00  0.00     0.159 C 
HETATM    3  N   UNL     1     -41.779 -53.391  12.681  1.00  0.00    -0.330 N 
HETATM    4  C   UNL     1     -40.753 -54.155  13.393  1.00  0.00     0.153 C 
HETATM    5  C   UNL     1     -39.758 -53.226  14.097  1.00  0.00     0.188 C 
HETATM    6  O   UNL     1     -39.226 -52.228  13.211  1.00  0.00    -0.383 OA
HETATM    7  C   UNL     1     -43.102 -53.572  13.012  1.00  0.00     0.318 C 
HETATM    8  O   UNL     1     -43.468 -54.358  13.882  1.00  0.00    -0.247 OA
HETATM    9  N   UNL     1     -44.001 -52.806  12.325  1.00  0.00    -0.343 N 
HETATM   10  H   UNL     1     -43.746 -52.502  11.399  1.00  0.00     0.164 HD
ENDROOT
BRANCH   9  11
HETATM   11  C   UNL     1     -45.424 -52.917  12.594  1.00  0.00     0.130 C 
BRANCH  11  12
HETATM   12  C   UNL     1     -46.070 -51.589  12.986  1.00  0.00     0.077 C 
BRANCH  12  13
HETATM   13  C   UNL     1     -46.041 -51.335  14.460  1.00  0.00     0.018 A 
HETATM   14  C   UNL     1     -44.931 -51.015  15.218  1.00  0.00     0.076 A 
HETATM   15  S   UNL     1     -45.378 -50.813  16.859  1.00  0.00    -0.087 SA
HETATM   16  C   UNL     1     -47.007 -51.170  16.448  1.00  0.00     0.046 A 
HETATM   17  C   UNL     1     -48.066 -51.175  17.493  1.00  0.00     0.076 C 
HETATM   18  N   UNL     1     -47.227 -51.427  15.175  1.00  0.00    -0.357 N 
ATOM     19  HN  UNL     1     -48.136 -51.660  14.774  1.00  0.00     0.166 HD
ENDBRANCH  12  13
ENDBRANCH  11  12
ENDBRANCH   9  11
BRANCH   1  20
HETATM   20  C   UNL     1     -40.983 -50.511  13.542  1.00  0.00     0.029 C 
HETATM   21  C   UNL     1     -42.130 -49.764  12.877  1.00  0.00     0.007 C 
ENDBRANCH   1  20
TORSDOF 4
ENDMDL
MODEL 4
REMARK VINA RESULT:      -5.5      3.817      6.647
REMARK  4 active torsions:
REMARK  status: ('A' for Active; 'I' for Inactive)
REMARK    1  A    between atoms: C_2  and  C_3 
REMARK       I    between atoms: N_5  and  C_9 
REMARK       I    between atoms: C_9  and  N_11 
REMARK    2  A    between atoms: N_11  and  C_12 
REMARK    3  A    between atoms: C_12  and  C_13 
REMARK    4  A    between atoms: C_13  and  C_14 
ROOT
HETATM    1  C   UNL     1     -44.008 -46.978   8.744  1.00  0.00     0.139 C 
HETATM    2  C   UNL     1     -42.704 -47.764   8.987  1.00  0.00     0.159 C 
HETATM    3  N   UNL     1     -42.067 -47.343  10.239  1.00  0.00    -0.330 N 
HETATM    4  C   UNL     1     -41.861 -45.896  10.324  1.00  0.00     0.153 C 
HETATM    5  C   UNL     1     -43.154 -45.132  10.016  1.00  0.00     0.188 C 
HETATM    6  O   UNL     1     -43.757 -45.560   8.785  1.00  0.00    -0.383 OA
HETATM    7  C   UNL     1     -41.822 -48.122  11.346  1.00  0.00     0.318 C 
HETATM    8  O   UNL     1     -41.429 -47.657  12.413  1.00  0.00    -0.247 OA
HETATM    9  N   UNL     1     -42.061 -49.460  11.201  1.00  0.00    -0.343 N 
HETATM   10  H   UNL     1     -41.984 -49.852  10.276  1.00  0.00     0.164 HD
ENDROOT
BRANCH   9  11
HETATM   11  C   UNL     1     -41.837 -50.375  12.307  1.00  0.00     0.130 C 
BRANCH  11  12
HETATM   12  C   UNL     1     -40.510 -51.126  12.209  1.00  0.00     0.077 C 
BRANCH  12  13
HETATM   13  C   UNL     1     -39.510 -50.688  13.232  1.00  0.00     0.018 A 
HETATM   14  C   UNL     1     -39.033 -51.437  14.291  1.00  0.00     0.076 A 
HETATM   15  S   UNL     1     -37.903 -50.524  15.195  1.00  0.00    -0.087 SA
HETATM   16  C   UNL     1     -38.131 -49.200  14.124  1.00  0.00     0.046 A 
HETATM   17  C   UNL     1     -37.385 -47.929  14.324  1.00  0.00     0.076 C 
HETATM   18  N   UNL     1     -38.991 -49.403  13.148  1.00  0.00    -0.357 N 
ATOM     19  HN  UNL     1     -39.239 -48.717  12.435  1.00  0.00     0.166 HD
ENDBRANCH  12  13
ENDBRANCH  11  12
ENDBRANCH   9  11
BRANCH   1  20
HETATM   20  C   UNL     1     -45.129 -47.408   9.705  1.00  0.00     0.029 C 
HETATM   21  C   UNL     1     -46.437 -47.692   8.980  1.00  0.00     0.007 C 
ENDBRANCH   1  20
TORSDOF 4
ENDMDL
MODEL 5
REMARK VINA RESULT:      -5.4      1.762      2.014
REMARK  4 active torsions:
REMARK  status: ('A' for Active; 'I' for Inactive)
REMARK    1  A    between atoms: C_2  and  C_3 
REMARK       I    between atoms: N_5  and  C_9 
REMARK       I    between atoms: C_9  and  N_11 
REMARK    2  A    between atoms: N_11  and  C_12 
REMARK    3  A    between atoms: C_12  and  C_13 
REMARK    4  A    between atoms: C_13  and  C_14 
ROOT
HETATM    1  C   UNL     1     -46.017 -53.530  15.366  1.00  0.00     0.139 C 
HETATM    2  C   UNL     1     -44.558 -53.042  15.479  1.00  0.00     0.159 C 
HETATM    3  N   UNL     1     -43.798 -53.384  14.272  1.00  0.00    -0.330 N 
HETATM    4  C   UNL     1     -43.877 -54.804  13.923  1.00  0.00     0.153 C 
HETATM    5  C   UNL     1     -45.332 -55.285  13.879  1.00  0.00     0.188 C 
HETATM    6  O   UNL     1     -46.054 -54.940  15.071  1.00  0.00    -0.383 OA
HETATM    7  C   UNL     1     -43.200 -52.510  13.394  1.00  0.00     0.318 C 
HETATM    8  O   UNL     1     -42.717 -52.869  12.323  1.00  0.00    -0.247 OA
HETATM    9  N   UNL     1     -43.185 -51.197  13.774  1.00  0.00    -0.343 N 
HETATM   10  H   UNL     1     -43.204 -50.995  14.761  1.00  0.00     0.164 HD
ENDROOT
BRANCH   9  11
HETATM   11  C   UNL     1     -42.579 -50.189  12.923  1.00  0.00     0.130 C 
BRANCH  11  12
HETATM   12  C   UNL     1     -43.253 -48.821  13.031  1.00  0.00     0.077 C 
BRANCH  12  13
HETATM   13  C   UNL     1     -42.982 -47.939  11.855  1.00  0.00     0.018 A 
HETATM   14  C   UNL     1     -42.138 -46.845  11.824  1.00  0.00     0.076 A 
HETATM   15  S   UNL     1     -42.142 -46.143  10.262  1.00  0.00    -0.087 SA
HETATM   16  C   UNL     1     -43.265 -47.333   9.742  1.00  0.00     0.046 A 
HETATM   17  C   UNL     1     -43.766 -47.338   8.341  1.00  0.00     0.076 C 
HETATM   18  N   UNL     1     -43.629 -48.208  10.656  1.00  0.00    -0.357 N 
ATOM     19  HN  UNL     1     -44.288 -48.971  10.506  1.00  0.00     0.166 HD
ENDBRANCH  12  13
ENDBRANCH  11  12
ENDBRANCH   9  11
BRANCH   1  20
HETATM   20  C   UNL     1     -46.829 -52.695  14.362  1.00  0.00     0.029 C 
HETATM   21  C   UNL     1     -46.794 -51.208  14.684  1.00  0.00     0.007 C 
ENDBRANCH   1  20
TORSDOF 4
ENDMDL
MODEL 6
REMARK VINA RESULT:      -5.4      3.323      4.658
REMARK  4 active torsions:
REMARK  status: ('A' for Active; 'I' for Inactive)
REMARK    1  A    between atoms: C_2  and  C_3 
REMARK       I    between atoms: N_5  and  C_9 
REMARK       I    between atoms: C_9  and  N_11 
REMARK    2  A    between atoms: N_11  and  C_12 
REMARK    3  A    between atoms: C_12  and  C_13 
REMARK    4  A    between atoms: C_13  and  C_14 
ROOT
HETATM    1  C   UNL     1     -46.054 -54.325  14.859  1.00  0.00     0.139 C 
HETATM    2  C   UNL     1     -45.264 -54.742  13.602  1.00  0.00     0.159 C 
HETATM    3  N   UNL     1     -44.677 -53.571  12.943  1.00  0.00    -0.330 N 
HETATM    4  C   UNL     1     -45.654 -52.520  12.655  1.00  0.00     0.153 C 
HETATM    5  C   UNL     1     -46.473 -52.166  13.901  1.00  0.00     0.188 C 
HETATM    6  O   UNL     1     -47.039 -53.328  14.527  1.00  0.00    -0.383 OA
HETATM    7  C   UNL     1     -43.339 -53.316  12.744  1.00  0.00     0.318 C 
HETATM    8  O   UNL     1     -42.923 -52.239  12.325  1.00  0.00    -0.247 OA
HETATM    9  N   UNL     1     -42.483 -54.334  13.059  1.00  0.00    -0.343 N 
HETATM   10  H   UNL     1     -42.835 -55.276  13.003  1.00  0.00     0.164 HD
ENDROOT
BRANCH   9  11
HETATM   11  C   UNL     1     -41.050 -54.174  12.887  1.00  0.00     0.130 C 
BRANCH  11  12
HETATM   12  C   UNL     1     -40.341 -53.685  14.150  1.00  0.00     0.077 C 
BRANCH  12  13
HETATM   13  C   UNL     1     -39.640 -52.377  13.960  1.00  0.00     0.018 A 
HETATM   14  C   UNL     1     -38.764 -51.777  14.844  1.00  0.00     0.076 A 
HETATM   15  S   UNL     1     -38.206 -50.291  14.202  1.00  0.00    -0.087 SA
HETATM   16  C   UNL     1     -39.170 -50.546  12.804  1.00  0.00     0.046 A 
HETATM   17  C   UNL     1     -39.179 -49.547  11.701  1.00  0.00     0.076 C 
HETATM   18  N   UNL     1     -39.871 -51.660  12.794  1.00  0.00    -0.357 N 
ATOM     19  HN  UNL     1     -40.493 -51.954  12.040  1.00  0.00     0.166 HD
ENDBRANCH  12  13
ENDBRANCH  11  12
ENDBRANCH   9  11
BRANCH   1  20
HETATM   20  C   UNL     1     -45.127 -53.883  16.003  1.00  0.00     0.029 C 
HETATM   21  C   UNL     1     -45.799 -53.983  17.365  1.00  0.00     0.007 C 
ENDBRANCH   1  20
TORSDOF 4
ENDMDL
MODEL 7
REMARK VINA RESULT:      -5.4      1.810      2.971
REMARK  4 active torsions:
REMARK  status: ('A' for Active; 'I' for Inactive)
REMARK    1  A    between atoms: C_2  and  C_3 
REMARK       I    between atoms: N_5  and  C_9 
REMARK       I    between atoms: C_9  and  N_11 
REMARK    2  A    between atoms: N_11  and  C_12 
REMARK    3  A    between atoms: C_12  and  C_13 
REMARK    4  A    between atoms: C_13  and  C_14 
ROOT
HETATM    1  C   UNL     1     -44.452 -54.261  13.530  1.00  0.00     0.139 C 
HETATM    2  C   UNL     1     -44.291 -53.152  12.471  1.00  0.00     0.159 C 
HETATM    3  N   UNL     1     -44.446 -51.826  13.077  1.00  0.00    -0.330 N 
HETATM    4  C   UNL     1     -45.687 -51.681  13.840  1.00  0.00     0.153 C 
HETATM    5  C   UNL     1     -45.860 -52.828  14.842  1.00  0.00     0.188 C 
HETATM    6  O   UNL     1     -45.705 -54.116  14.225  1.00  0.00    -0.383 OA
HETATM    7  C   UNL     1     -43.503 -50.826  13.134  1.00  0.00     0.318 C 
HETATM    8  O   UNL     1     -43.657 -49.803  13.797  1.00  0.00    -0.247 OA
HETATM    9  N   UNL     1     -42.359 -51.041  12.418  1.00  0.00    -0.343 N 
HETATM   10  H   UNL     1     -42.418 -51.639  11.609  1.00  0.00     0.164 HD
ENDROOT
BRANCH   9  11
HETATM   11  C   UNL     1     -41.297 -50.050  12.407  1.00  0.00     0.130 C 
BRANCH  11  12
HETATM   12  C   UNL     1     -40.938 -49.564  11.004  1.00  0.00     0.077 C 
BRANCH  12  13
HETATM   13  C   UNL     1     -41.270 -48.123  10.779  1.00  0.00     0.018 A 
HETATM   14  C   UNL     1     -42.529 -47.592  10.570  1.00  0.00     0.076 A 
HETATM   15  S   UNL     1     -42.424 -45.896  10.363  1.00  0.00    -0.087 SA
HETATM   16  C   UNL     1     -40.720 -45.988  10.557  1.00  0.00     0.046 A 
HETATM   17  C   UNL     1     -39.885 -44.759  10.491  1.00  0.00     0.076 C 
HETATM   18  N   UNL     1     -40.238 -47.195  10.764  1.00  0.00    -0.357 N 
ATOM     19  HN  UNL     1     -39.251 -47.416  10.895  1.00  0.00     0.166 HD
ENDBRANCH  12  13
ENDBRANCH  11  12
ENDBRANCH   9  11
BRANCH   1  20
HETATM   20  C   UNL     1     -43.249 -54.325  14.487  1.00  0.00     0.029 C 
HETATM   21  C   UNL     1     -41.921 -54.369  13.746  1.00  0.00     0.007 C 
ENDBRANCH   1  20
TORSDOF 4
ENDMDL
MODEL 8
REMARK VINA RESULT:      -5.4      3.043      4.267
REMARK  4 active torsions:
REMARK  status: ('A' for Active; 'I' for Inactive)
REMARK    1  A    between atoms: C_2  and  C_3 
REMARK       I    between atoms: N_5  and  C_9 
REMARK       I    between atoms: C_9  and  N_11 
REMARK    2  A    between atoms: N_11  and  C_12 
REMARK    3  A    between atoms: C_12  and  C_13 
REMARK    4  A    between atoms: C_13  and  C_14 
ROOT
HETATM    1  C   UNL     1     -44.686 -54.882  13.756  1.00  0.00     0.139 C 
HETATM    2  C   UNL     1     -44.931 -53.628  12.893  1.00  0.00     0.159 C 
HETATM    3  N   UNL     1     -45.287 -52.479  13.732  1.00  0.00    -0.330 N 
HETATM    4  C   UNL     1     -46.405 -52.750  14.638  1.00  0.00     0.153 C 
HETATM    5  C   UNL     1     -46.170 -54.035  15.440  1.00  0.00     0.188 C 
HETATM    6  O   UNL     1     -45.825 -55.145  14.597  1.00  0.00    -0.383 OA
HETATM    7  C   UNL     1     -44.591 -51.298  13.858  1.00  0.00     0.318 C 
HETATM    8  O   UNL     1     -44.871 -50.449  14.700  1.00  0.00    -0.247 OA
HETATM    9  N   UNL     1     -43.545 -51.125  12.996  1.00  0.00    -0.343 N 
HETATM   10  H   UNL     1     -43.587 -51.598  12.108  1.00  0.00     0.164 HD
ENDROOT
BRANCH   9  11
HETATM   11  C   UNL     1     -42.743 -49.916  13.042  1.00  0.00     0.130 C 
BRANCH  11  12
HETATM   12  C   UNL     1     -41.841 -49.742  11.820  1.00  0.00     0.077 C 
BRANCH  12  13
HETATM   13  C   UNL     1     -40.405 -50.049  12.103  1.00  0.00     0.018 A 
HETATM   14  C   UNL     1     -39.885 -50.540  13.286  1.00  0.00     0.076 A 
HETATM   15  S   UNL     1     -38.191 -50.739  13.146  1.00  0.00    -0.087 SA
HETATM   16  C   UNL     1     -38.266 -50.155  11.533  1.00  0.00     0.046 A 
HETATM   17  C   UNL     1     -37.030 -50.045  10.710  1.00  0.00     0.076 C 
HETATM   18  N   UNL     1     -39.467 -49.826  11.104  1.00  0.00    -0.357 N 
ATOM     19  HN  UNL     1     -39.676 -49.461  10.175  1.00  0.00     0.166 HD
ENDBRANCH  12  13
ENDBRANCH  11  12
ENDBRANCH   9  11
BRANCH   1  20
HETATM   20  C   UNL     1     -43.373 -54.788  14.552  1.00  0.00     0.029 C 
HETATM   21  C   UNL     1     -42.200 -54.353  13.685  1.00  0.00     0.007 C 
ENDBRANCH   1  20
TORSDOF 4
ENDMDL
MODEL 9
REMARK VINA RESULT:      -5.3      3.032      3.783
REMARK  4 active torsions:
REMARK  status: ('A' for Active; 'I' for Inactive)
REMARK    1  A    between atoms: C_2  and  C_3 
REMARK       I    between atoms: N_5  and  C_9 
REMARK       I    between atoms: C_9  and  N_11 
REMARK    2  A    between atoms: N_11  and  C_12 
REMARK    3  A    between atoms: C_12  and  C_13 
REMARK    4  A    between atoms: C_13  and  C_14 
ROOT
HETATM    1  C   UNL     1     -44.645 -53.909  16.410  1.00  0.00     0.139 C 
HETATM    2  C   UNL     1     -43.649 -54.454  15.368  1.00  0.00     0.159 C 
HETATM    3  N   UNL     1     -44.212 -54.375  14.016  1.00  0.00    -0.330 N 
HETATM    4  C   UNL     1     -45.528 -55.006  13.901  1.00  0.00     0.153 C 
HETATM    5  C   UNL     1     -46.484 -54.497  14.986  1.00  0.00     0.188 C 
HETATM    6  O   UNL     1     -45.912 -54.587  16.300  1.00  0.00    -0.383 OA
HETATM    7  C   UNL     1     -43.720 -53.650  12.955  1.00  0.00     0.318 C 
HETATM    8  O   UNL     1     -44.337 -53.511  11.902  1.00  0.00    -0.247 OA
HETATM    9  N   UNL     1     -42.498 -53.068  13.143  1.00  0.00    -0.343 N 
HETATM   10  H   UNL     1     -41.868 -53.503  13.797  1.00  0.00     0.164 HD
ENDROOT
BRANCH   9  11
HETATM   11  C   UNL     1     -41.885 -52.280  12.089  1.00  0.00     0.130 C 
BRANCH  11  12
HETATM   12  C   UNL     1     -41.956 -50.774  12.340  1.00  0.00     0.077 C 
BRANCH  12  13
HETATM   13  C   UNL     1     -40.609 -50.130  12.430  1.00  0.00     0.018 A 
HETATM   14  C   UNL     1     -40.226 -49.144  13.319  1.00  0.00     0.076 A 
HETATM   15  S   UNL     1     -38.590 -48.715  13.053  1.00  0.00    -0.087 SA
HETATM   16  C   UNL     1     -38.509 -49.860  11.775  1.00  0.00     0.046 A 
HETATM   17  C   UNL     1     -37.248 -50.049  11.009  1.00  0.00     0.076 C 
HETATM   18  N   UNL     1     -39.618 -50.531  11.544  1.00  0.00    -0.357 N 
ATOM     19  HN  UNL     1     -39.733 -51.240  10.820  1.00  0.00     0.166 HD
ENDBRANCH  12  13
ENDBRANCH  11  12
ENDBRANCH   9  11
BRANCH   1  20
HETATM   20  C   UNL     1     -44.785 -52.379  16.330  1.00  0.00     0.029 C 
HETATM   21  C   UNL     1     -43.439 -51.672  16.372  1.00  0.00     0.007 C 
ENDBRANCH   1  20
TORSDOF 4
ENDMDL
