MODEL 1
REMARK VINA RESULT:      -6.1      0.000      0.000
REMARK  4 active torsions:
REMARK  status: ('A' for Active; 'I' for Inactive)
REMARK    1  A    between atoms: C_2  and  S_3 
REMARK    2  A    between atoms: S_3  and  C_4 
REMARK    3  A    between atoms: C_9  and  N_10 
REMARK       I    between atoms: N_10  and  C_11 
REMARK       I    between atoms: C_11  and  N_13 
REMARK    4  A    between atoms: N_13  and  C_14 
ROOT
HETATM    1  N   UNL     1     -43.370 -50.757  12.681  1.00  0.00    -0.337 N 
HETATM    2  C   UNL     1     -43.018 -49.458  12.474  1.00  0.00     0.322 C 
HETATM    3  O   UNL     1     -43.405 -48.501  13.120  1.00  0.00    -0.247 OA
HETATM    4  N   UNL     1     -42.131 -49.335  11.371  1.00  0.00    -0.293 N 
HETATM    5  H   UNL     1     -42.979 -51.512  12.142  1.00  0.00     0.164 HD
HETATM    6  H   UNL     1     -41.893 -50.156  10.841  1.00  0.00     0.172 HD
ENDROOT
BRANCH   1   7
HETATM    7  C   UNL     1     -44.265 -51.081  13.784  1.00  0.00     0.100 C 
HETATM    8  C   UNL     1     -43.757 -52.216  14.716  1.00  0.00     0.070 C 
HETATM    9  C   UNL     1     -44.710 -52.275  15.932  1.00  0.00     0.017 C 
HETATM   10  C   UNL     1     -46.179 -52.472  15.534  1.00  0.00     0.001 C 
HETATM   11  C   UNL     1     -46.648 -51.458  14.490  1.00  0.00     0.002 C 
HETATM   12  C   UNL     1     -45.697 -51.338  13.300  1.00  0.00     0.026 C 
BRANCH   8  13
HETATM   13  S   UNL     1     -43.696 -53.918  13.980  1.00  0.00    -0.163 SA
BRANCH  13  14
HETATM   14  C   UNL     1     -41.949 -54.366  14.150  1.00  0.00     0.070 C 
HETATM   15  C   UNL     1     -41.179 -53.869  12.938  1.00  0.00     0.016 C 
ENDBRANCH  13  14
ENDBRANCH   8  13
ENDBRANCH   1   7
BRANCH   4  16
HETATM   16  C   UNL     1     -41.647 -48.103  10.934  1.00  0.00     0.127 A 
HETATM   17  C   UNL     1     -40.536 -47.418  11.375  1.00  0.00     0.076 A 
HETATM   18  C   UNL     1     -40.531 -46.198  10.663  1.00  0.00     0.025 A 
HETATM   19  C   UNL     1     -39.584 -45.067  10.816  1.00  0.00     0.070 C 
HETATM   20  N   UNL     1     -41.541 -46.135   9.790  1.00  0.00    -0.302 N 
HETATM   21  N   UNL     1     -42.200 -47.296   9.966  1.00  0.00    -0.281 N 
ATOM     22  HN  UNL     1     -41.761 -45.381   9.140  1.00  0.00     0.186 HD
HETATM   23  C   UNL     1     -43.417 -47.526   9.228  1.00  0.00     0.179 C 
ENDBRANCH   4  16
TORSDOF 4
ENDMDL
MODEL 2
REMARK VINA RESULT:      -6.0      2.851      7.477
REMARK  4 active torsions:
REMARK  status: ('A' for Active; 'I' for Inactive)
REMARK    1  A    between atoms: C_2  and  S_3 
REMARK    2  A    between atoms: S_3  and  C_4 
REMARK    3  A    between atoms: C_9  and  N_10 
REMARK       I    between atoms: N_10  and  C_11 
REMARK       I    between atoms: C_11  and  N_13 
REMARK    4  A    between atoms: N_13  and  C_14 
ROOT
HETATM    1  N   UNL     1     -41.719 -49.842  11.473  1.00  0.00    -0.337 N 
HETATM    2  C   UNL     1     -42.417 -50.630  12.335  1.00  0.00     0.322 C 
HETATM    3  O   UNL     1     -43.003 -50.253  13.335  1.00  0.00    -0.247 OA
HETATM    4  N   UNL     1     -42.370 -51.993  11.939  1.00  0.00    -0.293 N 
HETATM    5  H   UNL     1     -41.295 -50.206  10.636  1.00  0.00     0.164 HD
HETATM    6  H   UNL     1     -41.822 -52.251  11.136  1.00  0.00     0.172 HD
ENDROOT
BRANCH   1   7
HETATM    7  C   UNL     1     -41.668 -48.405  11.709  1.00  0.00     0.100 C 
HETATM    8  C   UNL     1     -42.875 -47.612  11.135  1.00  0.00     0.070 C 
HETATM    9  C   UNL     1     -42.765 -46.162  11.659  1.00  0.00     0.017 C 
HETATM   10  C   UNL     1     -41.424 -45.499  11.314  1.00  0.00     0.001 C 
HETATM   11  C   UNL     1     -40.223 -46.348  11.729  1.00  0.00     0.002 C 
HETATM   12  C   UNL     1     -40.329 -47.802  11.271  1.00  0.00     0.026 C 
BRANCH   8  13
HETATM   13  S   UNL     1     -42.993 -47.523   9.285  1.00  0.00    -0.163 SA
BRANCH  13  14
HETATM   14  C   UNL     1     -44.388 -46.396   9.027  1.00  0.00     0.070 C 
HETATM   15  C   UNL     1     -45.689 -47.177   9.106  1.00  0.00     0.016 C 
ENDBRANCH  13  14
ENDBRANCH   8  13
ENDBRANCH   1   7
BRANCH   4  16
HETATM   16  C   UNL     1     -42.981 -53.008  12.674  1.00  0.00     0.127 A 
HETATM   17  C   UNL     1     -44.246 -53.531  12.519  1.00  0.00     0.076 A 
HETATM   18  C   UNL     1     -44.398 -54.479  13.555  1.00  0.00     0.025 A 
HETATM   19  C   UNL     1     -45.607 -55.275  13.880  1.00  0.00     0.070 C 
HETATM   20  N   UNL     1     -43.286 -54.589  14.287  1.00  0.00    -0.302 N 
HETATM   21  N   UNL     1     -42.442 -53.696  13.737  1.00  0.00    -0.281 N 
ATOM     22  HN  UNL     1     -43.116 -55.207  15.080  1.00  0.00     0.186 HD
HETATM   23  C   UNL     1     -41.151 -53.489  14.346  1.00  0.00     0.179 C 
ENDBRANCH   4  16
TORSDOF 4
ENDMDL
MODEL 3
REMARK VINA RESULT:      -5.9      1.815      2.081
REMARK  4 active torsions:
REMARK  status: ('A' for Active; 'I' for Inactive)
REMARK    1  A    between atoms: C_2  and  S_3 
REMARK    2  A    between atoms: S_3  and  C_4 
REMARK    3  A    between atoms: C_9  and  N_10 
REMARK       I    between atoms: N_10  and  C_11 
REMARK       I    between atoms: C_11  and  N_13 
REMARK    4  A    between atoms: N_13  and  C_14 
ROOT
HETATM    1  N   UNL     1     -42.023 -51.465  11.920  1.00  0.00    -0.337 N 
HETATM    2  C   UNL     1     -41.957 -50.111  12.044  1.00  0.00     0.322 C 
HETATM    3  O   UNL     1     -42.426 -49.453  12.956  1.00  0.00    -0.247 OA
HETATM    4  N   UNL     1     -41.273 -49.526  10.946  1.00  0.00    -0.293 N 
HETATM    5  H   UNL     1     -41.574 -51.957  11.166  1.00  0.00     0.164 HD
HETATM    6  H   UNL     1     -40.959 -50.116  10.194  1.00  0.00     0.172 HD
ENDROOT
BRANCH   1   7
HETATM    7  C   UNL     1     -42.676 -52.242  12.965  1.00  0.00     0.100 C 
HETATM    8  C   UNL     1     -41.704 -52.920  13.970  1.00  0.00     0.070 C 
HETATM    9  C   UNL     1     -42.561 -53.509  15.114  1.00  0.00     0.017 C 
HETATM   10  C   UNL     1     -43.643 -54.477  14.616  1.00  0.00     0.001 C 
HETATM   11  C   UNL     1     -44.507 -53.877  13.508  1.00  0.00     0.002 C 
HETATM   12  C   UNL     1     -43.687 -53.239  12.387  1.00  0.00     0.026 C 
BRANCH   8  13
HETATM   13  S   UNL     1     -40.660 -54.298  13.297  1.00  0.00    -0.163 SA
BRANCH  13  14
HETATM   14  C   UNL     1     -39.107 -54.107  14.211  1.00  0.00     0.070 C 
HETATM   15  C   UNL     1     -39.074 -55.098  15.363  1.00  0.00     0.016 C 
ENDBRANCH  13  14
ENDBRANCH   8  13
ENDBRANCH   1   7
BRANCH   4  16
HETATM   16  C   UNL     1     -41.099 -48.148  10.820  1.00  0.00     0.127 A 
HETATM   17  C   UNL     1     -40.116 -47.359  11.373  1.00  0.00     0.076 A 
HETATM   18  C   UNL     1     -40.433 -46.034  11.000  1.00  0.00     0.025 A 
HETATM   19  C   UNL     1     -39.729 -44.790  11.398  1.00  0.00     0.070 C 
HETATM   20  N   UNL     1     -41.515 -45.990  10.218  1.00  0.00    -0.302 N 
HETATM   21  N   UNL     1     -41.900 -47.276  10.118  1.00  0.00    -0.281 N 
ATOM     22  HN  UNL     1     -41.950 -45.171   9.795  1.00  0.00     0.186 HD
HETATM   23  C   UNL     1     -43.111 -47.589   9.400  1.00  0.00     0.179 C 
ENDBRANCH   4  16
TORSDOF 4
ENDMDL
MODEL 4
REMARK VINA RESULT:      -5.6      1.405      2.881
REMARK  4 active torsions:
REMARK  status: ('A' for Active; 'I' for Inactive)
REMARK    1  A    between atoms: C_2  and  S_3 
REMARK    2  A    between atoms: S_3  and  C_4 
REMARK    3  A    between atoms: C_9  and  N_10 
REMARK       I    between atoms: N_10  and  C_11 
REMARK       I    between atoms: C_11  and  N_13 
REMARK    4  A    between atoms: N_13  and  C_14 
ROOT
HETATM    1  N   UNL     1     -42.937 -50.407  13.304  1.00  0.00    -0.337 N 
HETATM    2  C   UNL     1     -42.213 -49.726  12.374  1.00  0.00     0.322 C 
HETATM    3  O   UNL     1     -41.374 -50.204  11.631  1.00  0.00    -0.247 OA
HETATM    4  N   UNL     1     -42.542 -48.344  12.377  1.00  0.00    -0.293 N 
HETATM    5  H   UNL     1     -43.652 -49.965  13.858  1.00  0.00     0.164 HD
HETATM    6  H   UNL     1     -43.201 -47.999  13.054  1.00  0.00     0.172 HD
ENDROOT
BRANCH   1   7
HETATM    7  C   UNL     1     -42.747 -51.845  13.436  1.00  0.00     0.100 C 
HETATM    8  C   UNL     1     -44.061 -52.675  13.425  1.00  0.00     0.070 C 
HETATM    9  C   UNL     1     -43.663 -54.167  13.356  1.00  0.00     0.017 C 
HETATM   10  C   UNL     1     -42.724 -54.592  14.492  1.00  0.00     0.001 C 
HETATM   11  C   UNL     1     -41.503 -53.681  14.620  1.00  0.00     0.002 C 
HETATM   12  C   UNL     1     -41.861 -52.196  14.637  1.00  0.00     0.026 C 
BRANCH   8  13
HETATM   13  S   UNL     1     -45.174 -52.469  14.895  1.00  0.00    -0.163 SA
BRANCH  13  14
HETATM   14  C   UNL     1     -46.557 -51.513  14.220  1.00  0.00     0.070 C 
HETATM   15  C   UNL     1     -46.521 -51.576  12.702  1.00  0.00     0.016 C 
ENDBRANCH  13  14
ENDBRANCH   8  13
ENDBRANCH   1   7
BRANCH   4  16
HETATM   16  C   UNL     1     -41.916 -47.424  11.537  1.00  0.00     0.127 A 
HETATM   17  C   UNL     1     -40.792 -46.668  11.787  1.00  0.00     0.076 A 
HETATM   18  C   UNL     1     -40.619 -45.852  10.647  1.00  0.00     0.025 A 
HETATM   19  C   UNL     1     -39.593 -44.801  10.437  1.00  0.00     0.070 C 
HETATM   20  N   UNL     1     -41.539 -46.110   9.714  1.00  0.00    -0.302 N 
HETATM   21  N   UNL     1     -42.310 -47.065  10.269  1.00  0.00    -0.281 N 
ATOM     22  HN  UNL     1     -41.636 -45.683   8.794  1.00  0.00     0.186 HD
HETATM   23  C   UNL     1     -43.474 -47.525   9.552  1.00  0.00     0.179 C 
ENDBRANCH   4  16
TORSDOF 4
ENDMDL
MODEL 5
REMARK VINA RESULT:      -5.6      3.090      3.761
REMARK  4 active torsions:
REMARK  status: ('A' for Active; 'I' for Inactive)
REMARK    1  A    between atoms: C_2  and  S_3 
REMARK    2  A    between atoms: S_3  and  C_4 
REMARK    3  A    between atoms: C_9  and  N_10 
REMARK       I    between atoms: N_10  and  C_11 
REMARK       I    between atoms: C_11  and  N_13 
REMARK    4  A    between atoms: N_13  and  C_14 
ROOT
HETATM    1  N   UNL     1     -41.081 -50.769  11.452  1.00  0.00    -0.337 N 
HETATM    2  C   UNL     1     -41.428 -49.479  11.713  1.00  0.00     0.322 C 
HETATM    3  O   UNL     1     -41.805 -49.045  12.788  1.00  0.00    -0.247 OA
HETATM    4  N   UNL     1     -41.317 -48.670  10.552  1.00  0.00    -0.293 N 
HETATM    5  H   UNL     1     -40.731 -51.059  10.553  1.00  0.00     0.164 HD
HETATM    6  H   UNL     1     -41.056 -49.098   9.680  1.00  0.00     0.172 HD
ENDROOT
BRANCH   1   7
HETATM    7  C   UNL     1     -41.116 -51.746  12.531  1.00  0.00     0.100 C 
HETATM    8  C   UNL     1     -40.188 -51.417  13.733  1.00  0.00     0.070 C 
HETATM    9  C   UNL     1     -40.513 -52.427  14.857  1.00  0.00     0.017 C 
HETATM   10  C   UNL     1     -40.377 -53.888  14.409  1.00  0.00     0.001 C 
HETATM   11  C   UNL     1     -41.158 -54.187  13.129  1.00  0.00     0.002 C 
HETATM   12  C   UNL     1     -40.898 -53.174  12.017  1.00  0.00     0.026 C 
BRANCH   8  13
HETATM   13  S   UNL     1     -38.364 -51.517  13.412  1.00  0.00    -0.163 SA
BRANCH  13  14
HETATM   14  C   UNL     1     -37.950 -49.823  12.920  1.00  0.00     0.070 C 
HETATM   15  C   UNL     1     -37.593 -49.799  11.443  1.00  0.00     0.016 C 
ENDBRANCH  13  14
ENDBRANCH   8  13
ENDBRANCH   1   7
BRANCH   4  16
HETATM   16  C   UNL     1     -41.647 -47.315  10.549  1.00  0.00     0.127 A 
HETATM   17  C   UNL     1     -40.833 -46.239  10.827  1.00  0.00     0.076 A 
HETATM   18  C   UNL     1     -41.666 -45.101  10.755  1.00  0.00     0.025 A 
HETATM   19  C   UNL     1     -41.298 -43.693  11.041  1.00  0.00     0.070 C 
HETATM   20  N   UNL     1     -42.913 -45.426  10.403  1.00  0.00    -0.302 N 
HETATM   21  N   UNL     1     -42.880 -46.767  10.280  1.00  0.00    -0.281 N 
ATOM     22  HN  UNL     1     -43.707 -44.803  10.261  1.00  0.00     0.186 HD
HETATM   23  C   UNL     1     -44.103 -47.471   9.986  1.00  0.00     0.179 C 
ENDBRANCH   4  16
TORSDOF 4
ENDMDL
MODEL 6
REMARK VINA RESULT:      -5.2      2.116      2.698
REMARK  4 active torsions:
REMARK  status: ('A' for Active; 'I' for Inactive)
REMARK    1  A    between atoms: C_2  and  S_3 
REMARK    2  A    between atoms: S_3  and  C_4 
REMARK    3  A    between atoms: C_9  and  N_10 
REMARK       I    between atoms: N_10  and  C_11 
REMARK       I    between atoms: C_11  and  N_13 
REMARK    4  A    between atoms: N_13  and  C_14 
ROOT
HETATM    1  N   UNL     1     -44.205 -51.349  13.399  1.00  0.00    -0.337 N 
HETATM    2  C   UNL     1     -43.015 -50.692  13.340  1.00  0.00     0.322 C 
HETATM    3  O   UNL     1     -42.544 -49.986  14.215  1.00  0.00    -0.247 OA
HETATM    4  N   UNL     1     -42.365 -50.912  12.097  1.00  0.00    -0.293 N 
HETATM    5  H   UNL     1     -44.519 -51.957  12.661  1.00  0.00     0.164 HD
HETATM    6  H   UNL     1     -42.830 -51.458  11.392  1.00  0.00     0.172 HD
ENDROOT
BRANCH   1   7
HETATM    7  C   UNL     1     -45.009 -51.254  14.610  1.00  0.00     0.100 C 
HETATM    8  C   UNL     1     -44.432 -52.023  15.831  1.00  0.00     0.070 C 
HETATM    9  C   UNL     1     -45.283 -51.639  17.062  1.00  0.00     0.017 C 
HETATM   10  C   UNL     1     -46.781 -51.911  16.865  1.00  0.00     0.001 C 
HETATM   11  C   UNL     1     -47.328 -51.295  15.578  1.00  0.00     0.002 C 
HETATM   12  C   UNL     1     -46.476 -51.613  14.351  1.00  0.00     0.026 C 
BRANCH   8  13
HETATM   13  S   UNL     1     -44.439 -53.875  15.711  1.00  0.00    -0.163 SA
BRANCH  13  14
HETATM   14  C   UNL     1     -43.887 -54.385  17.360  1.00  0.00     0.070 C 
HETATM   15  C   UNL     1     -42.529 -55.058  17.252  1.00  0.00     0.016 C 
ENDBRANCH  13  14
ENDBRANCH   8  13
ENDBRANCH   1   7
BRANCH   4  16
HETATM   16  C   UNL     1     -41.143 -50.323  11.776  1.00  0.00     0.127 A 
HETATM   17  C   UNL     1     -39.875 -50.782  12.056  1.00  0.00     0.076 A 
HETATM   18  C   UNL     1     -38.994 -49.786  11.581  1.00  0.00     0.025 A 
HETATM   19  C   UNL     1     -37.515 -49.756  11.700  1.00  0.00     0.070 C 
HETATM   20  N   UNL     1     -39.655 -48.786  10.990  1.00  0.00    -0.302 N 
HETATM   21  N   UNL     1     -40.950 -49.131  11.115  1.00  0.00    -0.281 N 
ATOM     22  HN  UNL     1     -39.268 -47.953  10.548  1.00  0.00     0.186 HD
HETATM   23  C   UNL     1     -41.964 -48.215  10.652  1.00  0.00     0.179 C 
ENDBRANCH   4  16
TORSDOF 4
ENDMDL
MODEL 7
REMARK VINA RESULT:      -5.2      1.869      3.868
REMARK  4 active torsions:
REMARK  status: ('A' for Active; 'I' for Inactive)
REMARK    1  A    between atoms: C_2  and  S_3 
REMARK    2  A    between atoms: S_3  and  C_4 
REMARK    3  A    between atoms: C_9  and  N_10 
REMARK       I    between atoms: N_10  and  C_11 
REMARK       I    between atoms: C_11  and  N_13 
REMARK    4  A    between atoms: N_13  and  C_14 
ROOT
HETATM    1  N   UNL     1     -41.291 -50.504  13.497  1.00  0.00    -0.337 N 
HETATM    2  C   UNL     1     -41.406 -49.820  12.326  1.00  0.00     0.322 C 
HETATM    3  O   UNL     1     -40.988 -50.184  11.241  1.00  0.00    -0.247 OA
HETATM    4  N   UNL     1     -42.076 -48.582  12.518  1.00  0.00    -0.293 N 
HETATM    5  H   UNL     1     -41.699 -50.173  14.355  1.00  0.00     0.164 HD
HETATM    6  H   UNL     1     -42.346 -48.310  13.448  1.00  0.00     0.172 HD
ENDROOT
BRANCH   1   7
HETATM    7  C   UNL     1     -40.644 -51.809  13.494  1.00  0.00     0.100 C 
HETATM    8  C   UNL     1     -41.611 -53.011  13.305  1.00  0.00     0.070 C 
HETATM    9  C   UNL     1     -40.744 -54.275  13.111  1.00  0.00     0.017 C 
HETATM   10  C   UNL     1     -39.756 -54.508  14.263  1.00  0.00     0.001 C 
HETATM   11  C   UNL     1     -38.907 -53.275  14.568  1.00  0.00     0.002 C 
HETATM   12  C   UNL     1     -39.732 -51.998  14.712  1.00  0.00     0.026 C 
BRANCH   8  13
HETATM   13  S   UNL     1     -42.779 -53.351  14.706  1.00  0.00    -0.163 SA
BRANCH  13  14
HETATM   14  C   UNL     1     -44.403 -53.077  13.951  1.00  0.00     0.070 C 
HETATM   15  C   UNL     1     -44.317 -53.345  12.457  1.00  0.00     0.016 C 
ENDBRANCH  13  14
ENDBRANCH   8  13
ENDBRANCH   1   7
BRANCH   4  16
HETATM   16  C   UNL     1     -42.293 -47.680  11.477  1.00  0.00     0.127 A 
HETATM   17  C   UNL     1     -43.452 -47.458  10.769  1.00  0.00     0.076 A 
HETATM   18  C   UNL     1     -43.123 -46.500   9.784  1.00  0.00     0.025 A 
HETATM   19  C   UNL     1     -43.999 -45.968   8.712  1.00  0.00     0.070 C 
HETATM   20  N   UNL     1     -41.852 -46.101   9.894  1.00  0.00    -0.302 N 
HETATM   21  N   UNL     1     -41.370 -46.821  10.924  1.00  0.00    -0.281 N 
ATOM     22  HN  UNL     1     -41.361 -45.410   9.328  1.00  0.00     0.186 HD
HETATM   23  C   UNL     1     -39.975 -46.699  11.268  1.00  0.00     0.179 C 
ENDBRANCH   4  16
TORSDOF 4
ENDMDL
MODEL 8
REMARK VINA RESULT:      -5.2      1.938      3.431
REMARK  4 active torsions:
REMARK  status: ('A' for Active; 'I' for Inactive)
REMARK    1  A    between atoms: C_2  and  S_3 
REMARK    2  A    between atoms: S_3  and  C_4 
REMARK    3  A    between atoms: C_9  and  N_10 
REMARK       I    between atoms: N_10  and  C_11 
REMARK       I    between atoms: C_11  and  N_13 
REMARK    4  A    between atoms: N_13  and  C_14 
ROOT
HETATM    1  N   UNL     1     -40.800 -50.837  11.145  1.00  0.00    -0.337 N 
HETATM    2  C   UNL     1     -41.089 -49.569  11.547  1.00  0.00     0.322 C 
HETATM    3  O   UNL     1     -41.230 -49.200  12.700  1.00  0.00    -0.247 OA
HETATM    4  N   UNL     1     -41.231 -48.696  10.436  1.00  0.00    -0.293 N 
HETATM    5  H   UNL     1     -40.648 -51.071  10.178  1.00  0.00     0.164 HD
HETATM    6  H   UNL     1     -41.160 -49.071   9.506  1.00  0.00     0.172 HD
ENDROOT
BRANCH   1   7
HETATM    7  C   UNL     1     -40.601 -51.872  12.150  1.00  0.00     0.100 C 
HETATM    8  C   UNL     1     -41.813 -52.825  12.346  1.00  0.00     0.070 C 
HETATM    9  C   UNL     1     -41.353 -53.971  13.274  1.00  0.00     0.017 C 
HETATM   10  C   UNL     1     -40.793 -53.471  14.613  1.00  0.00     0.001 C 
HETATM   11  C   UNL     1     -39.708 -52.409  14.437  1.00  0.00     0.002 C 
HETATM   12  C   UNL     1     -40.114 -51.289  13.481  1.00  0.00     0.026 C 
BRANCH   8  13
HETATM   13  S   UNL     1     -43.332 -52.075  13.104  1.00  0.00    -0.163 SA
BRANCH  13  14
HETATM   14  C   UNL     1     -44.652 -53.173  12.526  1.00  0.00     0.070 C 
HETATM   15  C   UNL     1     -46.001 -52.538  12.820  1.00  0.00     0.016 C 
ENDBRANCH  13  14
ENDBRANCH   8  13
ENDBRANCH   1   7
BRANCH   4  16
HETATM   16  C   UNL     1     -41.559 -47.348  10.581  1.00  0.00     0.127 A 
HETATM   17  C   UNL     1     -40.712 -46.281  10.783  1.00  0.00     0.076 A 
HETATM   18  C   UNL     1     -41.547 -45.152  10.933  1.00  0.00     0.025 A 
HETATM   19  C   UNL     1     -41.137 -43.760  11.243  1.00  0.00     0.070 C 
HETATM   20  N   UNL     1     -42.835 -45.471  10.783  1.00  0.00    -0.302 N 
HETATM   21  N   UNL     1     -42.821 -46.800  10.567  1.00  0.00    -0.281 N 
ATOM     22  HN  UNL     1     -43.644 -44.851  10.823  1.00  0.00     0.186 HD
HETATM   23  C   UNL     1     -44.076 -47.501  10.444  1.00  0.00     0.179 C 
ENDBRANCH   4  16
TORSDOF 4
ENDMDL
MODEL 9
REMARK VINA RESULT:      -5.0      2.896      7.395
REMARK  4 active torsions:
REMARK  status: ('A' for Active; 'I' for Inactive)
REMARK    1  A    between atoms: C_2  and  S_3 
REMARK    2  A    between atoms: S_3  and  C_4 
REMARK    3  A    between atoms: C_9  and  N_10 
REMARK       I    between atoms: N_10  and  C_11 
REMARK       I    between atoms: C_11  and  N_13 
REMARK    4  A    between atoms: N_13  and  C_14 
ROOT
HETATM    1  N   UNL     1     -42.383 -50.672  12.291  1.00  0.00    -0.337 N 
HETATM    2  C   UNL     1     -43.171 -50.946  13.367  1.00  0.00     0.322 C 
HETATM    3  O   UNL     1     -42.861 -50.796  14.536  1.00  0.00    -0.247 OA
HETATM    4  N   UNL     1     -44.431 -51.462  12.965  1.00  0.00    -0.293 N 
HETATM    5  H   UNL     1     -42.713 -50.772  11.346  1.00  0.00     0.164 HD
HETATM    6  H   UNL     1     -44.607 -51.617  11.987  1.00  0.00     0.172 HD
ENDROOT
BRANCH   1   7
HETATM    7  C   UNL     1     -41.054 -50.117  12.509  1.00  0.00     0.100 C 
HETATM    8  C   UNL     1     -40.996 -48.565  12.527  1.00  0.00     0.070 C 
HETATM    9  C   UNL     1     -39.574 -48.162  12.979  1.00  0.00     0.017 C 
HETATM   10  C   UNL     1     -38.471 -48.768  12.101  1.00  0.00     0.001 C 
HETATM   11  C   UNL     1     -38.611 -50.281  11.940  1.00  0.00     0.002 C 
HETATM   12  C   UNL     1     -40.022 -50.715  11.546  1.00  0.00     0.026 C 
BRANCH   8  13
HETATM   13  S   UNL     1     -41.325 -47.712  10.913  1.00  0.00    -0.163 SA
BRANCH  13  14
HETATM   14  C   UNL     1     -41.018 -45.971  11.309  1.00  0.00     0.070 C 
HETATM   15  C   UNL     1     -39.875 -45.452  10.452  1.00  0.00     0.016 C 
ENDBRANCH  13  14
ENDBRANCH   8  13
ENDBRANCH   1   7
BRANCH   4  16
HETATM   16  C   UNL     1     -45.408 -51.851  13.881  1.00  0.00     0.127 A 
HETATM   17  C   UNL     1     -46.142 -51.057  14.733  1.00  0.00     0.076 A 
HETATM   18  C   UNL     1     -46.936 -51.944  15.494  1.00  0.00     0.025 A 
HETATM   19  C   UNL     1     -47.856 -51.604  16.607  1.00  0.00     0.070 C 
HETATM   20  N   UNL     1     -46.756 -53.212  15.114  1.00  0.00    -0.302 N 
HETATM   21  N   UNL     1     -45.834 -53.135  14.137  1.00  0.00    -0.281 N 
ATOM     22  HN  UNL     1     -47.213 -54.047  15.480  1.00  0.00     0.186 HD
HETATM   23  C   UNL     1     -45.335 -54.354  13.549  1.00  0.00     0.179 C 
ENDBRANCH   4  16
TORSDOF 4
ENDMDL
