MODEL 1
REMARK VINA RESULT:      -5.8      0.000      0.000
REMARK  6 active torsions:
REMARK  status: ('A' for Active; 'I' for Inactive)
REMARK    1  A    between atoms: O_2  and  C_3 
REMARK    2  A    between atoms: C_3  and  C_4 
REMARK    3  A    between atoms: C_4  and  N_6 
REMARK    4  A    between atoms: N_6  and  C_7 
REMARK    5  A    between atoms: C_10  and  C_14 
REMARK       I    between atoms: C_14  and  N_16 
REMARK    6  A    between atoms: N_16  and  C_17 
ROOT
HETATM    1  C   UNL     1     -38.246 -51.290  13.265  1.00  0.00     0.216 C 
HETATM    2  C   UNL     1     -37.710 -50.568  12.040  1.00  0.00    -0.098 C 
HETATM    3  C   UNL     1     -37.251 -49.948  10.989  1.00  0.00     0.014 C 
ENDROOT
BRANCH   1   4
HETATM    4  N   UNL     1     -39.653 -51.579  13.071  1.00  0.00    -0.346 N 
HETATM    5  C   UNL     1     -40.123 -52.869  13.216  1.00  0.00     0.253 C 
HETATM    6  O   UNL     1     -39.369 -53.811  13.441  1.00  0.00    -0.268 OA
HETATM    7  H   UNL     1     -40.280 -50.790  13.006  1.00  0.00     0.163 HD
BRANCH   5   8
HETATM    8  C   UNL     1     -41.592 -53.117  13.121  1.00  0.00     0.047 A 
HETATM    9  C   UNL     1     -42.128 -54.237  13.756  1.00  0.00     0.022 A 
HETATM   10  C   UNL     1     -43.507 -54.470  13.718  1.00  0.00     0.043 A 
HETATM   11  C   UNL     1     -44.337 -53.611  13.003  1.00  0.00     0.080 A 
HETATM   12  N   UNL     1     -43.833 -52.534  12.368  1.00  0.00    -0.356 N 
HETATM   13  C   UNL     1     -42.489 -52.306  12.445  1.00  0.00     0.106 A 
ATOM     14  HN  UNL     1     -44.440 -51.905  11.843  1.00  0.00     0.166 HD
BRANCH  11  15
HETATM   15  N   UNL     1     -45.719 -53.845  13.030  1.00  0.00    -0.273 NA
HETATM   16  H   UNL     1     -46.125 -53.737  12.108  1.00  0.00     0.129 HD
BRANCH  15  17
HETATM   17  C   UNL     1     -46.491 -53.106  14.048  1.00  0.00     0.081 C 
HETATM   18  C   UNL     1     -46.648 -51.662  13.551  1.00  0.00     0.029 C 
BRANCH  17  19
HETATM   19  C   UNL     1     -45.764 -53.124  15.413  1.00  0.00     0.186 C 
BRANCH  19  20
HETATM   20  O   UNL     1     -46.021 -54.339  16.121  1.00  0.00    -0.394 OA
HETATM   21  C   UNL     1     -45.902 -54.151  17.525  1.00  0.00     0.201 C 
ENDBRANCH  19  20
ENDBRANCH  17  19
ENDBRANCH  15  17
ENDBRANCH  11  15
ENDBRANCH   5   8
ENDBRANCH   1   4
TORSDOF 6
ENDMDL
MODEL 2
REMARK VINA RESULT:      -5.8      3.702      5.460
REMARK  6 active torsions:
REMARK  status: ('A' for Active; 'I' for Inactive)
REMARK    1  A    between atoms: O_2  and  C_3 
REMARK    2  A    between atoms: C_3  and  C_4 
REMARK    3  A    between atoms: C_4  and  N_6 
REMARK    4  A    between atoms: N_6  and  C_7 
REMARK    5  A    between atoms: C_10  and  C_14 
REMARK       I    between atoms: C_14  and  N_16 
REMARK    6  A    between atoms: N_16  and  C_17 
ROOT
HETATM    1  C   UNL     1     -39.985 -45.282  10.622  1.00  0.00     0.216 C 
HETATM    2  C   UNL     1     -39.104 -44.833   9.467  1.00  0.00    -0.098 C 
HETATM    3  C   UNL     1     -38.349 -44.449   8.477  1.00  0.00     0.014 C 
ENDROOT
BRANCH   1   4
HETATM    4  N   UNL     1     -40.002 -46.731  10.673  1.00  0.00    -0.346 N 
HETATM    5  C   UNL     1     -39.795 -47.386  11.871  1.00  0.00     0.253 C 
HETATM    6  O   UNL     1     -39.522 -46.778  12.901  1.00  0.00    -0.268 OA
HETATM    7  H   UNL     1     -40.342 -47.216   9.855  1.00  0.00     0.163 HD
BRANCH   5   8
HETATM    8  C   UNL     1     -39.931 -48.871  11.913  1.00  0.00     0.047 A 
HETATM    9  C   UNL     1     -39.255 -49.581  12.906  1.00  0.00     0.022 A 
HETATM   10  C   UNL     1     -39.398 -50.970  12.994  1.00  0.00     0.043 A 
HETATM   11  C   UNL     1     -40.174 -51.649  12.059  1.00  0.00     0.080 A 
HETATM   12  N   UNL     1     -40.819 -50.980  11.080  1.00  0.00    -0.356 N 
HETATM   13  C   UNL     1     -40.692 -49.622  11.032  1.00  0.00     0.106 A 
ATOM     14  HN  UNL     1     -41.385 -51.477  10.394  1.00  0.00     0.166 HD
BRANCH  11  15
HETATM   15  N   UNL     1     -40.338 -53.033  12.208  1.00  0.00    -0.273 NA
HETATM   16  H   UNL     1     -41.049 -53.386  11.578  1.00  0.00     0.129 HD
BRANCH  15  17
HETATM   17  C   UNL     1     -40.546 -53.525  13.583  1.00  0.00     0.081 C 
HETATM   18  C   UNL     1     -39.410 -54.509  13.899  1.00  0.00     0.029 C 
BRANCH  17  19
HETATM   19  C   UNL     1     -41.915 -54.231  13.716  1.00  0.00     0.186 C 
BRANCH  19  20
HETATM   20  O   UNL     1     -42.636 -53.754  14.856  1.00  0.00    -0.394 OA
HETATM   21  C   UNL     1     -43.982 -54.210  14.841  1.00  0.00     0.201 C 
ENDBRANCH  19  20
ENDBRANCH  17  19
ENDBRANCH  15  17
ENDBRANCH  11  15
ENDBRANCH   5   8
ENDBRANCH   1   4
TORSDOF 6
ENDMDL
MODEL 3
REMARK VINA RESULT:      -5.7      2.329      7.085
REMARK  6 active torsions:
REMARK  status: ('A' for Active; 'I' for Inactive)
REMARK    1  A    between atoms: O_2  and  C_3 
REMARK    2  A    between atoms: C_3  and  C_4 
REMARK    3  A    between atoms: C_4  and  N_6 
REMARK    4  A    between atoms: N_6  and  C_7 
REMARK    5  A    between atoms: C_10  and  C_14 
REMARK       I    between atoms: C_14  and  N_16 
REMARK    6  A    between atoms: N_16  and  C_17 
ROOT
HETATM    1  C   UNL     1     -46.500 -52.451  12.736  1.00  0.00     0.216 C 
HETATM    2  C   UNL     1     -47.135 -51.677  11.592  1.00  0.00    -0.098 C 
HETATM    3  C   UNL     1     -47.679 -51.014  10.610  1.00  0.00     0.014 C 
ENDROOT
BRANCH   1   4
HETATM    4  N   UNL     1     -45.110 -52.062  12.860  1.00  0.00    -0.346 N 
HETATM    5  C   UNL     1     -44.107 -52.981  12.619  1.00  0.00     0.253 C 
HETATM    6  O   UNL     1     -44.354 -54.155  12.366  1.00  0.00    -0.268 OA
HETATM    7  H   UNL     1     -44.914 -51.075  12.950  1.00  0.00     0.163 HD
BRANCH   5   8
HETATM    8  C   UNL     1     -42.687 -52.522  12.645  1.00  0.00     0.047 A 
HETATM    9  C   UNL     1     -41.687 -53.445  12.948  1.00  0.00     0.022 A 
HETATM   10  C   UNL     1     -40.345 -53.052  12.938  1.00  0.00     0.043 A 
HETATM   11  C   UNL     1     -40.012 -51.726  12.676  1.00  0.00     0.080 A 
HETATM   12  N   UNL     1     -40.967 -50.815  12.401  1.00  0.00    -0.356 N 
HETATM   13  C   UNL     1     -42.269 -51.227  12.383  1.00  0.00     0.106 A 
ATOM     14  HN  UNL     1     -40.724 -49.844  12.211  1.00  0.00     0.166 HD
BRANCH  11  15
HETATM   15  N   UNL     1     -38.654 -51.378  12.622  1.00  0.00    -0.273 NA
HETATM   16  H   UNL     1     -38.178 -51.637  13.478  1.00  0.00     0.129 HD
BRANCH  15  17
HETATM   17  C   UNL     1     -38.348 -49.988  12.236  1.00  0.00     0.081 C 
HETATM   18  C   UNL     1     -37.299 -50.039  11.116  1.00  0.00     0.029 C 
BRANCH  17  19
HETATM   19  C   UNL     1     -37.802 -49.187  13.441  1.00  0.00     0.186 C 
BRANCH  19  20
HETATM   20  O   UNL     1     -38.823 -48.379  14.031  1.00  0.00    -0.394 OA
HETATM   21  C   UNL     1     -39.473 -47.575  13.055  1.00  0.00     0.201 C 
ENDBRANCH  19  20
ENDBRANCH  17  19
ENDBRANCH  15  17
ENDBRANCH  11  15
ENDBRANCH   5   8
ENDBRANCH   1   4
TORSDOF 6
ENDMDL
MODEL 4
REMARK VINA RESULT:      -5.7      2.105      7.287
REMARK  6 active torsions:
REMARK  status: ('A' for Active; 'I' for Inactive)
REMARK    1  A    between atoms: O_2  and  C_3 
REMARK    2  A    between atoms: C_3  and  C_4 
REMARK    3  A    between atoms: C_4  and  N_6 
REMARK    4  A    between atoms: N_6  and  C_7 
REMARK    5  A    between atoms: C_10  and  C_14 
REMARK       I    between atoms: C_14  and  N_16 
REMARK    6  A    between atoms: N_16  and  C_17 
ROOT
HETATM    1  C   UNL     1     -46.644 -52.740  14.370  1.00  0.00     0.216 C 
HETATM    2  C   UNL     1     -47.145 -51.895  15.531  1.00  0.00    -0.098 C 
HETATM    3  C   UNL     1     -47.575 -51.170  16.525  1.00  0.00     0.014 C 
ENDROOT
BRANCH   1   4
HETATM    4  N   UNL     1     -45.536 -52.059  13.729  1.00  0.00    -0.346 N 
HETATM    5  C   UNL     1     -44.291 -52.654  13.680  1.00  0.00     0.253 C 
HETATM    6  O   UNL     1     -44.065 -53.727  14.229  1.00  0.00    -0.268 OA
HETATM    7  H   UNL     1     -45.755 -51.240  13.180  1.00  0.00     0.163 HD
BRANCH   5   8
HETATM    8  C   UNL     1     -43.200 -51.981  12.915  1.00  0.00     0.047 A 
HETATM    9  C   UNL     1     -43.118 -50.589  12.946  1.00  0.00     0.022 A 
HETATM   10  C   UNL     1     -42.080 -49.935  12.272  1.00  0.00     0.043 A 
HETATM   11  C   UNL     1     -41.162 -50.670  11.529  1.00  0.00     0.080 A 
HETATM   12  N   UNL     1     -41.239 -52.015  11.473  1.00  0.00    -0.356 N 
HETATM   13  C   UNL     1     -42.238 -52.637  12.164  1.00  0.00     0.106 A 
ATOM     14  HN  UNL     1     -40.567 -52.555  10.927  1.00  0.00     0.166 HD
BRANCH  11  15
HETATM   15  N   UNL     1     -40.106 -49.987  10.910  1.00  0.00    -0.273 NA
HETATM   16  H   UNL     1     -39.711 -50.534  10.154  1.00  0.00     0.129 HD
BRANCH  15  17
HETATM   17  C   UNL     1     -39.053 -49.460  11.800  1.00  0.00     0.081 C 
HETATM   18  C   UNL     1     -39.181 -47.930  11.814  1.00  0.00     0.029 C 
BRANCH  17  19
HETATM   19  C   UNL     1     -37.650 -49.873  11.300  1.00  0.00     0.186 C 
BRANCH  19  20
HETATM   20  O   UNL     1     -37.254 -51.133  11.847  1.00  0.00    -0.394 OA
HETATM   21  C   UNL     1     -37.589 -51.224  13.226  1.00  0.00     0.201 C 
ENDBRANCH  19  20
ENDBRANCH  17  19
ENDBRANCH  15  17
ENDBRANCH  11  15
ENDBRANCH   5   8
ENDBRANCH   1   4
TORSDOF 6
ENDMDL
MODEL 5
REMARK VINA RESULT:      -5.5      1.932      2.799
REMARK  6 active torsions:
REMARK  status: ('A' for Active; 'I' for Inactive)
REMARK    1  A    between atoms: O_2  and  C_3 
REMARK    2  A    between atoms: C_3  and  C_4 
REMARK    3  A    between atoms: C_4  and  N_6 
REMARK    4  A    between atoms: N_6  and  C_7 
REMARK    5  A    between atoms: C_10  and  C_14 
REMARK       I    between atoms: C_14  and  N_16 
REMARK    6  A    between atoms: N_16  and  C_17 
ROOT
HETATM    1  C   UNL     1     -37.647 -49.492  14.370  1.00  0.00     0.216 C 
HETATM    2  C   UNL     1     -37.198 -49.981  15.738  1.00  0.00    -0.098 C 
HETATM    3  C   UNL     1     -36.814 -50.402  16.910  1.00  0.00     0.014 C 
ENDROOT
BRANCH   1   4
HETATM    4  N   UNL     1     -38.887 -50.152  14.011  1.00  0.00    -0.346 N 
HETATM    5  C   UNL     1     -38.867 -51.275  13.208  1.00  0.00     0.253 C 
HETATM    6  O   UNL     1     -37.827 -51.703  12.720  1.00  0.00    -0.268 OA
HETATM    7  H   UNL     1     -39.720 -49.869  14.508  1.00  0.00     0.163 HD
BRANCH   5   8
HETATM    8  C   UNL     1     -40.147 -51.998  12.948  1.00  0.00     0.047 A 
HETATM    9  C   UNL     1     -40.467 -53.103  13.737  1.00  0.00     0.022 A 
HETATM   10  C   UNL     1     -41.680 -53.774  13.543  1.00  0.00     0.043 A 
HETATM   11  C   UNL     1     -42.542 -53.369  12.529  1.00  0.00     0.080 A 
HETATM   12  N   UNL     1     -42.240 -52.315  11.744  1.00  0.00    -0.356 N 
HETATM   13  C   UNL     1     -41.067 -51.654  11.972  1.00  0.00     0.106 A 
ATOM     14  HN  UNL     1     -42.871 -52.019  11.000  1.00  0.00     0.166 HD
BRANCH  11  15
HETATM   15  N   UNL     1     -43.772 -54.031  12.397  1.00  0.00    -0.273 NA
HETATM   16  H   UNL     1     -44.186 -53.851  11.489  1.00  0.00     0.129 HD
BRANCH  15  17
HETATM   17  C   UNL     1     -44.747 -53.826  13.484  1.00  0.00     0.081 C 
HETATM   18  C   UNL     1     -45.430 -55.175  13.753  1.00  0.00     0.029 C 
BRANCH  17  19
HETATM   19  C   UNL     1     -45.800 -52.765  13.089  1.00  0.00     0.186 C 
BRANCH  19  20
HETATM   20  O   UNL     1     -46.826 -52.658  14.079  1.00  0.00    -0.394 OA
HETATM   21  C   UNL     1     -46.758 -51.411  14.759  1.00  0.00     0.201 C 
ENDBRANCH  19  20
ENDBRANCH  17  19
ENDBRANCH  15  17
ENDBRANCH  11  15
ENDBRANCH   5   8
ENDBRANCH   1   4
TORSDOF 6
ENDMDL
MODEL 6
REMARK VINA RESULT:      -5.5      4.091      6.288
REMARK  6 active torsions:
REMARK  status: ('A' for Active; 'I' for Inactive)
REMARK    1  A    between atoms: O_2  and  C_3 
REMARK    2  A    between atoms: C_3  and  C_4 
REMARK    3  A    between atoms: C_4  and  N_6 
REMARK    4  A    between atoms: N_6  and  C_7 
REMARK    5  A    between atoms: C_10  and  C_14 
REMARK       I    between atoms: C_14  and  N_16 
REMARK    6  A    between atoms: N_16  and  C_17 
ROOT
HETATM    1  C   UNL     1     -44.264 -46.732   9.225  1.00  0.00     0.216 C 
HETATM    2  C   UNL     1     -45.692 -47.246   9.135  1.00  0.00    -0.098 C 
HETATM    3  C   UNL     1     -46.916 -47.688   9.059  1.00  0.00     0.014 C 
ENDROOT
BRANCH   1   4
HETATM    4  N   UNL     1     -43.399 -47.806   9.672  1.00  0.00    -0.346 N 
HETATM    5  C   UNL     1     -42.827 -47.758  10.929  1.00  0.00     0.253 C 
HETATM    6  O   UNL     1     -42.972 -46.791  11.668  1.00  0.00    -0.268 OA
HETATM    7  H   UNL     1     -43.380 -48.646   9.113  1.00  0.00     0.163 HD
BRANCH   5   8
HETATM    8  C   UNL     1     -42.034 -48.929  11.404  1.00  0.00     0.047 A 
HETATM    9  C   UNL     1     -42.529 -49.693  12.461  1.00  0.00     0.022 A 
HETATM   10  C   UNL     1     -41.826 -50.820  12.899  1.00  0.00     0.043 A 
HETATM   11  C   UNL     1     -40.607 -51.149  12.314  1.00  0.00     0.080 A 
HETATM   12  N   UNL     1     -40.103 -50.410  11.305  1.00  0.00    -0.356 N 
HETATM   13  C   UNL     1     -40.821 -49.334  10.870  1.00  0.00     0.106 A 
ATOM     14  HN  UNL     1     -39.209 -50.650  10.877  1.00  0.00     0.166 HD
BRANCH  11  15
HETATM   15  N   UNL     1     -39.955 -52.315  12.742  1.00  0.00    -0.273 NA
HETATM   16  H   UNL     1     -39.980 -53.030  12.025  1.00  0.00     0.129 HD
BRANCH  15  17
HETATM   17  C   UNL     1     -40.365 -52.852  14.054  1.00  0.00     0.081 C 
HETATM   18  C   UNL     1     -39.125 -52.858  14.960  1.00  0.00     0.029 C 
BRANCH  17  19
HETATM   19  C   UNL     1     -40.927 -54.286  13.912  1.00  0.00     0.186 C 
BRANCH  19  20
HETATM   20  O   UNL     1     -42.357 -54.284  13.907  1.00  0.00    -0.394 OA
HETATM   21  C   UNL     1     -42.876 -55.050  14.987  1.00  0.00     0.201 C 
ENDBRANCH  19  20
ENDBRANCH  17  19
ENDBRANCH  15  17
ENDBRANCH  11  15
ENDBRANCH   5   8
ENDBRANCH   1   4
TORSDOF 6
ENDMDL
MODEL 7
REMARK VINA RESULT:      -5.5      2.070      7.072
REMARK  6 active torsions:
REMARK  status: ('A' for Active; 'I' for Inactive)
REMARK    1  A    between atoms: O_2  and  C_3 
REMARK    2  A    between atoms: C_3  and  C_4 
REMARK    3  A    between atoms: C_4  and  N_6 
REMARK    4  A    between atoms: N_6  and  C_7 
REMARK    5  A    between atoms: C_10  and  C_14 
REMARK       I    between atoms: C_14  and  N_16 
REMARK    6  A    between atoms: N_16  and  C_17 
ROOT
HETATM    1  C   UNL     1     -46.669 -52.299  14.094  1.00  0.00     0.216 C 
HETATM    2  C   UNL     1     -47.143 -51.746  15.429  1.00  0.00    -0.098 C 
HETATM    3  C   UNL     1     -47.549 -51.271  16.573  1.00  0.00     0.014 C 
ENDROOT
BRANCH   1   4
HETATM    4  N   UNL     1     -45.250 -52.042  13.949  1.00  0.00    -0.346 N 
HETATM    5  C   UNL     1     -44.487 -52.822  13.103  1.00  0.00     0.253 C 
HETATM    6  O   UNL     1     -44.959 -53.786  12.510  1.00  0.00    -0.268 OA
HETATM    7  H   UNL     1     -44.895 -51.182  14.342  1.00  0.00     0.163 HD
BRANCH   5   8
HETATM    8  C   UNL     1     -43.054 -52.463  12.888  1.00  0.00     0.047 A 
HETATM    9  C   UNL     1     -42.094 -53.474  12.923  1.00  0.00     0.022 A 
HETATM   10  C   UNL     1     -40.749 -53.172  12.683  1.00  0.00     0.043 A 
HETATM   11  C   UNL     1     -40.363 -51.853  12.461  1.00  0.00     0.080 A 
HETATM   12  N   UNL     1     -41.275 -50.860  12.444  1.00  0.00    -0.356 N 
HETATM   13  C   UNL     1     -42.586 -51.181  12.647  1.00  0.00     0.106 A 
ATOM     14  HN  UNL     1     -40.993 -49.894  12.283  1.00  0.00     0.166 HD
BRANCH  11  15
HETATM   15  N   UNL     1     -39.016 -51.593  12.173  1.00  0.00    -0.273 NA
HETATM   16  H   UNL     1     -38.422 -52.349  12.493  1.00  0.00     0.129 HD
BRANCH  15  17
HETATM   17  C   UNL     1     -38.494 -50.281  12.600  1.00  0.00     0.081 C 
HETATM   18  C   UNL     1     -37.625 -49.734  11.459  1.00  0.00     0.029 C 
BRANCH  17  19
HETATM   19  C   UNL     1     -37.655 -50.414  13.892  1.00  0.00     0.186 C 
BRANCH  19  20
HETATM   20  O   UNL     1     -37.896 -49.322  14.782  1.00  0.00    -0.394 OA
HETATM   21  C   UNL     1     -39.288 -49.055  14.906  1.00  0.00     0.201 C 
ENDBRANCH  19  20
ENDBRANCH  17  19
ENDBRANCH  15  17
ENDBRANCH  11  15
ENDBRANCH   5   8
ENDBRANCH   1   4
TORSDOF 6
ENDMDL
MODEL 8
REMARK VINA RESULT:      -5.4      2.067      6.868
REMARK  6 active torsions:
REMARK  status: ('A' for Active; 'I' for Inactive)
REMARK    1  A    between atoms: O_2  and  C_3 
REMARK    2  A    between atoms: C_3  and  C_4 
REMARK    3  A    between atoms: C_4  and  N_6 
REMARK    4  A    between atoms: N_6  and  C_7 
REMARK    5  A    between atoms: C_10  and  C_14 
REMARK       I    between atoms: C_14  and  N_16 
REMARK    6  A    between atoms: N_16  and  C_17 
ROOT
HETATM    1  C   UNL     1     -47.210 -52.574  14.828  1.00  0.00     0.216 C 
HETATM    2  C   UNL     1     -47.365 -51.697  16.060  1.00  0.00    -0.098 C 
HETATM    3  C   UNL     1     -47.497 -50.944  17.116  1.00  0.00     0.014 C 
ENDROOT
BRANCH   1   4
HETATM    4  N   UNL     1     -45.825 -52.985  14.706  1.00  0.00    -0.346 N 
HETATM    5  C   UNL     1     -45.252 -53.129  13.458  1.00  0.00     0.253 C 
HETATM    6  O   UNL     1     -45.901 -52.987  12.427  1.00  0.00    -0.268 OA
HETATM    7  H   UNL     1     -45.269 -52.983  15.549  1.00  0.00     0.163 HD
BRANCH   5   8
HETATM    8  C   UNL     1     -43.795 -53.442  13.366  1.00  0.00     0.047 A 
HETATM    9  C   UNL     1     -43.221 -54.264  14.336  1.00  0.00     0.022 A 
HETATM   10  C   UNL     1     -41.867 -54.607  14.250  1.00  0.00     0.043 A 
HETATM   11  C   UNL     1     -41.082 -54.086  13.226  1.00  0.00     0.080 A 
HETATM   12  N   UNL     1     -41.616 -53.273  12.292  1.00  0.00    -0.356 N 
HETATM   13  C   UNL     1     -42.946 -52.977  12.374  1.00  0.00     0.106 A 
ATOM     14  HN  UNL     1     -41.041 -52.889  11.543  1.00  0.00     0.166 HD
BRANCH  11  15
HETATM   15  N   UNL     1     -39.743 -54.492  13.141  1.00  0.00    -0.273 NA
HETATM   16  H   UNL     1     -39.665 -55.501  13.183  1.00  0.00     0.129 HD
BRANCH  15  17
HETATM   17  C   UNL     1     -38.798 -53.840  14.067  1.00  0.00     0.081 C 
HETATM   18  C   UNL     1     -39.012 -54.456  15.457  1.00  0.00     0.029 C 
BRANCH  17  19
HETATM   19  C   UNL     1     -39.040 -52.313  14.119  1.00  0.00     0.186 C 
BRANCH  19  20
HETATM   20  O   UNL     1     -38.408 -51.650  13.021  1.00  0.00    -0.394 OA
HETATM   21  C   UNL     1     -39.220 -50.596  12.519  1.00  0.00     0.201 C 
ENDBRANCH  19  20
ENDBRANCH  17  19
ENDBRANCH  15  17
ENDBRANCH  11  15
ENDBRANCH   5   8
ENDBRANCH   1   4
TORSDOF 6
ENDMDL
MODEL 9
REMARK VINA RESULT:      -5.3      5.062      8.254
REMARK  6 active torsions:
REMARK  status: ('A' for Active; 'I' for Inactive)
REMARK    1  A    between atoms: O_2  and  C_3 
REMARK    2  A    between atoms: C_3  and  C_4 
REMARK    3  A    between atoms: C_4  and  N_6 
REMARK    4  A    between atoms: N_6  and  C_7 
REMARK    5  A    between atoms: C_10  and  C_14 
REMARK       I    between atoms: C_14  and  N_16 
REMARK    6  A    between atoms: N_16  and  C_17 
ROOT
HETATM    1  C   UNL     1     -45.607 -46.908   9.299  1.00  0.00     0.216 C 
HETATM    2  C   UNL     1     -46.219 -48.102   8.582  1.00  0.00    -0.098 C 
HETATM    3  C   UNL     1     -46.743 -49.125   7.969  1.00  0.00     0.014 C 
ENDROOT
BRANCH   1   4
HETATM    4  N   UNL     1     -44.389 -47.325   9.963  1.00  0.00    -0.346 N 
HETATM    5  C   UNL     1     -43.174 -46.788   9.586  1.00  0.00     0.253 C 
HETATM    6  O   UNL     1     -43.077 -46.008   8.644  1.00  0.00    -0.268 OA
HETATM    7  H   UNL     1     -44.488 -47.871  10.807  1.00  0.00     0.163 HD
BRANCH   5   8
HETATM    8  C   UNL     1     -41.952 -47.151  10.362  1.00  0.00     0.047 A 
HETATM    9  C   UNL     1     -41.196 -46.133  10.942  1.00  0.00     0.022 A 
HETATM   10  C   UNL     1     -40.069 -46.448  11.710  1.00  0.00     0.043 A 
HETATM   11  C   UNL     1     -39.675 -47.775  11.852  1.00  0.00     0.080 A 
HETATM   12  N   UNL     1     -40.383 -48.771  11.282  1.00  0.00    -0.356 N 
HETATM   13  C   UNL     1     -41.498 -48.444  10.564  1.00  0.00     0.106 A 
ATOM     14  HN  UNL     1     -40.093 -49.743  11.384  1.00  0.00     0.166 HD
BRANCH  11  15
HETATM   15  N   UNL     1     -38.573 -48.058  12.671  1.00  0.00    -0.273 NA
HETATM   16  H   UNL     1     -37.919 -48.673  12.202  1.00  0.00     0.129 HD
BRANCH  15  17
HETATM   17  C   UNL     1     -38.873 -48.532  14.035  1.00  0.00     0.081 C 
HETATM   18  C   UNL     1     -37.994 -47.733  15.008  1.00  0.00     0.029 C 
BRANCH  17  19
HETATM   19  C   UNL     1     -38.580 -50.044  14.172  1.00  0.00     0.186 C 
BRANCH  19  20
HETATM   20  O   UNL     1     -39.639 -50.829  13.617  1.00  0.00    -0.394 OA
HETATM   21  C   UNL     1     -39.403 -52.219  13.807  1.00  0.00     0.201 C 
ENDBRANCH  19  20
ENDBRANCH  17  19
ENDBRANCH  15  17
ENDBRANCH  11  15
ENDBRANCH   5   8
ENDBRANCH   1   4
TORSDOF 6
ENDMDL
