MODEL 1
REMARK VINA RESULT:      -6.4      0.000      0.000
REMARK  5 active torsions:
REMARK  status: ('A' for Active; 'I' for Inactive)
REMARK    1  A    between atoms: C_5  and  N_9 
REMARK    2  A    between atoms: N_9  and  C_10 
REMARK    3  A    between atoms: C_10  and  C_11 
REMARK    4  A    between atoms: C_11  and  O_13 
REMARK    5  A    between atoms: C_11  and  C_14 
ROOT
HETATM    1  C   UNL     1     -42.044 -49.722  12.324  1.00  0.00     0.312 C 
ENDROOT
BRANCH   1   2
HETATM    2  N   UNL     1     -42.396 -51.138  12.110  1.00  0.00     0.091 N 
HETATM    3  H   UNL     1     -43.247 -51.176  11.554  1.00  0.00     0.316 HD
BRANCH   2   4
HETATM    4  C   UNL     1     -42.626 -51.848  13.385  1.00  0.00     0.221 C 
HETATM    5  C   UNL     1     -42.613 -53.367  13.127  1.00  0.00     0.036 C 
HETATM    6  C   UNL     1     -43.841 -53.858  12.350  1.00  0.00     0.007 C 
HETATM    7  C   UNL     1     -45.178 -53.416  12.981  1.00  0.00    -0.015 C 
HETATM    8  C   UNL     1     -45.482 -54.245  14.236  1.00  0.00     0.010 C 
HETATM    9  C   UNL     1     -45.176 -51.889  13.234  1.00  0.00    -0.013 C 
HETATM   10  C   UNL     1     -43.954 -51.473  14.072  1.00  0.00     0.040 C 
HETATM   11  C   UNL     1     -46.467 -51.369  13.862  1.00  0.00     0.010 C 
ENDBRANCH   2   4
ENDBRANCH   1   2
BRANCH   1  12
HETATM   12  C   UNL     1     -40.931 -49.166  11.379  1.00  0.00     0.110 C 
HETATM   13  C   UNL     1     -39.645 -48.836  12.144  1.00  0.00     0.053 C 
BRANCH  12  14
HETATM   14  O   UNL     1     -40.609 -50.200  10.428  1.00  0.00    -0.383 OA
HETATM   15  H   UNL     1     -40.980 -49.910   9.579  1.00  0.00     0.211 HD
ENDBRANCH  12  14
BRANCH  12  16
HETATM   16  C   UNL     1     -41.474 -47.956  10.660  1.00  0.00     0.011 A 
HETATM   17  C   UNL     1     -40.943 -46.642  10.656  1.00  0.00     0.119 A 
HETATM   18  N   UNL     1     -41.708 -45.773   9.995  1.00  0.00    -0.310 N 
HETATM   19  N   UNL     1     -42.738 -46.522   9.568  1.00  0.00    -0.307 N 
ATOM     20  HN  UNL     1     -41.548 -44.776   9.848  1.00  0.00     0.186 HD
HETATM   21  C   UNL     1     -43.833 -45.910   8.854  1.00  0.00     0.177 C 
HETATM   22  C   UNL     1     -42.637 -47.834   9.922  1.00  0.00     0.121 A 
ENDBRANCH  12  16
ENDBRANCH   1  12
TORSDOF 5
ENDMDL
MODEL 2
REMARK VINA RESULT:      -6.1      1.771      2.703
REMARK  5 active torsions:
REMARK  status: ('A' for Active; 'I' for Inactive)
REMARK    1  A    between atoms: C_5  and  N_9 
REMARK    2  A    between atoms: N_9  and  C_10 
REMARK    3  A    between atoms: C_10  and  C_11 
REMARK    4  A    between atoms: C_11  and  O_13 
REMARK    5  A    between atoms: C_11  and  C_14 
ROOT
HETATM    1  C   UNL     1     -42.262 -51.378  13.095  1.00  0.00     0.312 C 
ENDROOT
BRANCH   1   2
HETATM    2  N   UNL     1     -43.467 -51.965  12.479  1.00  0.00     0.091 N 
HETATM    3  H   UNL     1     -44.096 -51.207  12.222  1.00  0.00     0.316 HD
BRANCH   2   4
HETATM    4  C   UNL     1     -44.171 -52.875  13.406  1.00  0.00     0.221 C 
HETATM    5  C   UNL     1     -45.615 -53.080  12.912  1.00  0.00     0.036 C 
HETATM    6  C   UNL     1     -46.494 -51.835  13.080  1.00  0.00     0.007 C 
HETATM    7  C   UNL     1     -46.477 -51.266  14.515  1.00  0.00    -0.015 C 
HETATM    8  C   UNL     1     -47.317 -52.143  15.452  1.00  0.00     0.010 C 
HETATM    9  C   UNL     1     -45.019 -51.065  14.996  1.00  0.00    -0.013 C 
HETATM   10  C   UNL     1     -44.212 -52.368  14.862  1.00  0.00     0.040 C 
HETATM   11  C   UNL     1     -44.913 -50.506  16.414  1.00  0.00     0.010 C 
ENDBRANCH   2   4
ENDBRANCH   1   2
BRANCH   1  12
HETATM   12  C   UNL     1     -40.969 -51.449  12.218  1.00  0.00     0.110 C 
HETATM   13  C   UNL     1     -39.792 -52.059  12.986  1.00  0.00     0.053 C 
BRANCH  12  14
HETATM   14  O   UNL     1     -41.247 -52.318  11.101  1.00  0.00    -0.383 OA
HETATM   15  H   UNL     1     -42.212 -52.311  10.989  1.00  0.00     0.211 HD
ENDBRANCH  12  14
BRANCH  12  16
HETATM   16  C   UNL     1     -40.649 -50.061  11.723  1.00  0.00     0.011 A 
HETATM   17  C   UNL     1     -39.372 -49.455  11.615  1.00  0.00     0.119 A 
HETATM   18  N   UNL     1     -39.432 -48.180  11.227  1.00  0.00    -0.310 N 
HETATM   19  N   UNL     1     -40.749 -47.957  11.081  1.00  0.00    -0.307 N 
ATOM     20  HN  UNL     1     -38.660 -47.530  11.076  1.00  0.00     0.186 HD
HETATM   21  C   UNL     1     -41.226 -46.643  10.725  1.00  0.00     0.177 C 
HETATM   22  C   UNL     1     -41.516 -49.051  11.347  1.00  0.00     0.121 A 
ENDBRANCH  12  16
ENDBRANCH   1  12
TORSDOF 5
ENDMDL
MODEL 3
REMARK VINA RESULT:      -5.9      2.610      4.091
REMARK  5 active torsions:
REMARK  status: ('A' for Active; 'I' for Inactive)
REMARK    1  A    between atoms: C_5  and  N_9 
REMARK    2  A    between atoms: N_9  and  C_10 
REMARK    3  A    between atoms: C_10  and  C_11 
REMARK    4  A    between atoms: C_11  and  O_13 
REMARK    5  A    between atoms: C_11  and  C_14 
ROOT
HETATM    1  C   UNL     1     -41.787 -54.223  14.212  1.00  0.00     0.312 C 
ENDROOT
BRANCH   1   2
HETATM    2  N   UNL     1     -43.080 -54.245  13.504  1.00  0.00     0.091 N 
HETATM    3  H   UNL     1     -43.100 -53.464  12.851  1.00  0.00     0.316 HD
BRANCH   2   4
HETATM    4  C   UNL     1     -44.220 -54.119  14.434  1.00  0.00     0.221 C 
HETATM    5  C   UNL     1     -45.532 -54.118  13.627  1.00  0.00     0.036 C 
HETATM    6  C   UNL     1     -45.740 -52.834  12.814  1.00  0.00     0.007 C 
HETATM    7  C   UNL     1     -45.610 -51.550  13.659  1.00  0.00    -0.015 C 
HETATM    8  C   UNL     1     -46.856 -51.350  14.532  1.00  0.00     0.010 C 
HETATM    9  C   UNL     1     -44.287 -51.566  14.463  1.00  0.00    -0.013 C 
HETATM   10  C   UNL     1     -44.172 -52.848  15.306  1.00  0.00     0.040 C 
HETATM   11  C   UNL     1     -44.081 -50.327  15.332  1.00  0.00     0.010 C 
ENDBRANCH   2   4
ENDBRANCH   1   2
BRANCH   1  12
HETATM   12  C   UNL     1     -40.584 -53.674  13.378  1.00  0.00     0.110 C 
HETATM   13  C   UNL     1     -39.239 -53.992  14.039  1.00  0.00     0.053 C 
BRANCH  12  14
HETATM   14  O   UNL     1     -40.600 -54.339  12.099  1.00  0.00    -0.383 OA
HETATM   15  H   UNL     1     -39.973 -53.856  11.537  1.00  0.00     0.211 HD
ENDBRANCH  12  14
BRANCH  12  16
HETATM   16  C   UNL     1     -40.771 -52.189  13.189  1.00  0.00     0.011 A 
HETATM   17  C   UNL     1     -40.547 -51.161  14.139  1.00  0.00     0.119 A 
HETATM   18  N   UNL     1     -40.893 -49.954  13.692  1.00  0.00    -0.310 N 
HETATM   19  N   UNL     1     -41.343 -50.196  12.449  1.00  0.00    -0.307 N 
ATOM     20  HN  UNL     1     -40.831 -49.059  14.178  1.00  0.00     0.186 HD
HETATM   21  C   UNL     1     -41.879 -49.121  11.650  1.00  0.00     0.177 C 
HETATM   22  C   UNL     1     -41.274 -51.510  12.094  1.00  0.00     0.121 A 
ENDBRANCH  12  16
ENDBRANCH   1  12
TORSDOF 5
ENDMDL
MODEL 4
REMARK VINA RESULT:      -5.9      3.427      4.494
REMARK  5 active torsions:
REMARK  status: ('A' for Active; 'I' for Inactive)
REMARK    1  A    between atoms: C_5  and  N_9 
REMARK    2  A    between atoms: N_9  and  C_10 
REMARK    3  A    between atoms: C_10  and  C_11 
REMARK    4  A    between atoms: C_11  and  O_13 
REMARK    5  A    between atoms: C_11  and  C_14 
ROOT
HETATM    1  C   UNL     1     -42.328 -51.744  12.981  1.00  0.00     0.312 C 
ENDROOT
BRANCH   1   2
HETATM    2  N   UNL     1     -43.561 -52.359  12.454  1.00  0.00     0.091 N 
HETATM    3  H   UNL     1     -44.168 -51.617  12.112  1.00  0.00     0.316 HD
BRANCH   2   4
HETATM    4  C   UNL     1     -44.281 -53.125  13.492  1.00  0.00     0.221 C 
HETATM    5  C   UNL     1     -45.755 -53.281  13.072  1.00  0.00     0.036 C 
HETATM    6  C   UNL     1     -46.546 -51.970  13.144  1.00  0.00     0.007 C 
HETATM    7  C   UNL     1     -46.434 -51.266  14.512  1.00  0.00    -0.015 C 
HETATM    8  C   UNL     1     -47.289 -51.988  15.562  1.00  0.00     0.010 C 
HETATM    9  C   UNL     1     -44.948 -51.115  14.920  1.00  0.00    -0.013 C 
HETATM   10  C   UNL     1     -44.230 -52.476  14.890  1.00  0.00     0.040 C 
HETATM   11  C   UNL     1     -44.749 -50.427  16.269  1.00  0.00     0.010 C 
ENDBRANCH   2   4
ENDBRANCH   1   2
BRANCH   1  12
HETATM   12  C   UNL     1     -40.997 -52.377  12.461  1.00  0.00     0.110 C 
HETATM   13  C   UNL     1     -40.795 -53.799  12.995  1.00  0.00     0.053 C 
BRANCH  12  14
HETATM   14  O   UNL     1     -41.090 -52.469  11.024  1.00  0.00    -0.383 OA
HETATM   15  H   UNL     1     -40.177 -52.530  10.699  1.00  0.00     0.211 HD
ENDBRANCH  12  14
BRANCH  12  16
HETATM   16  C   UNL     1     -39.854 -51.472  12.845  1.00  0.00     0.011 A 
HETATM   17  C   UNL     1     -39.185 -50.528  12.025  1.00  0.00     0.119 A 
HETATM   18  N   UNL     1     -38.152 -49.947  12.636  1.00  0.00    -0.310 N 
HETATM   19  N   UNL     1     -38.149 -50.513  13.855  1.00  0.00    -0.307 N 
ATOM     20  HN  UNL     1     -37.516 -49.240  12.266  1.00  0.00     0.186 HD
HETATM   21  C   UNL     1     -37.115 -50.181  14.805  1.00  0.00     0.177 C 
HETATM   22  C   UNL     1     -39.153 -51.415  14.037  1.00  0.00     0.121 A 
ENDBRANCH  12  16
ENDBRANCH   1  12
TORSDOF 5
ENDMDL
MODEL 5
REMARK VINA RESULT:      -5.8      3.230      4.268
REMARK  5 active torsions:
REMARK  status: ('A' for Active; 'I' for Inactive)
REMARK    1  A    between atoms: C_5  and  N_9 
REMARK    2  A    between atoms: N_9  and  C_10 
REMARK    3  A    between atoms: C_10  and  C_11 
REMARK    4  A    between atoms: C_11  and  O_13 
REMARK    5  A    between atoms: C_11  and  C_14 
ROOT
HETATM    1  C   UNL     1     -41.600 -53.578  14.511  1.00  0.00     0.312 C 
ENDROOT
BRANCH   1   2
HETATM    2  N   UNL     1     -42.965 -53.320  14.018  1.00  0.00     0.091 N 
HETATM    3  H   UNL     1     -42.926 -53.215  13.006  1.00  0.00     0.316 HD
BRANCH   2   4
HETATM    4  C   UNL     1     -43.540 -52.091  14.604  1.00  0.00     0.221 C 
HETATM    5  C   UNL     1     -44.233 -52.442  15.933  1.00  0.00     0.036 C 
HETATM    6  C   UNL     1     -45.524 -53.248  15.746  1.00  0.00     0.007 C 
HETATM    7  C   UNL     1     -46.516 -52.592  14.763  1.00  0.00    -0.015 C 
HETATM    8  C   UNL     1     -47.210 -51.390  15.417  1.00  0.00     0.010 C 
HETATM    9  C   UNL     1     -45.804 -52.246  13.432  1.00  0.00    -0.013 C 
HETATM   10  C   UNL     1     -44.555 -51.383  13.685  1.00  0.00     0.040 C 
HETATM   11  C   UNL     1     -46.718 -51.588  12.400  1.00  0.00     0.010 C 
ENDBRANCH   2   4
ENDBRANCH   1   2
BRANCH   1  12
HETATM   12  C   UNL     1     -40.503 -53.680  13.401  1.00  0.00     0.110 C 
HETATM   13  C   UNL     1     -39.174 -54.199  13.958  1.00  0.00     0.053 C 
BRANCH  12  14
HETATM   14  O   UNL     1     -40.960 -54.635  12.422  1.00  0.00    -0.383 OA
HETATM   15  H   UNL     1     -40.409 -54.499  11.635  1.00  0.00     0.211 HD
ENDBRANCH  12  14
BRANCH  12  16
HETATM   16  C   UNL     1     -40.344 -52.323  12.760  1.00  0.00     0.011 A 
HETATM   17  C   UNL     1     -41.073 -51.794  11.665  1.00  0.00     0.119 A 
HETATM   18  N   UNL     1     -40.631 -50.598  11.275  1.00  0.00    -0.310 N 
HETATM   19  N   UNL     1     -39.614 -50.349  12.117  1.00  0.00    -0.307 N 
ATOM     20  HN  UNL     1     -40.982 -50.012  10.517  1.00  0.00     0.186 HD
HETATM   21  C   UNL     1     -38.826 -49.149  11.966  1.00  0.00     0.177 C 
HETATM   22  C   UNL     1     -39.414 -51.337  13.033  1.00  0.00     0.121 A 
ENDBRANCH  12  16
ENDBRANCH   1  12
TORSDOF 5
ENDMDL
MODEL 6
REMARK VINA RESULT:      -5.6      2.375      3.749
REMARK  5 active torsions:
REMARK  status: ('A' for Active; 'I' for Inactive)
REMARK    1  A    between atoms: C_5  and  N_9 
REMARK    2  A    between atoms: N_9  and  C_10 
REMARK    3  A    between atoms: C_10  and  C_11 
REMARK    4  A    between atoms: C_11  and  O_13 
REMARK    5  A    between atoms: C_11  and  C_14 
ROOT
HETATM    1  C   UNL     1     -42.483 -52.436  12.385  1.00  0.00     0.312 C 
ENDROOT
BRANCH   1   2
HETATM    2  N   UNL     1     -43.177 -53.216  13.426  1.00  0.00     0.091 N 
HETATM    3  H   UNL     1     -42.866 -54.183  13.362  1.00  0.00     0.316 HD
BRANCH   2   4
HETATM    4  C   UNL     1     -44.644 -53.175  13.260  1.00  0.00     0.221 C 
HETATM    5  C   UNL     1     -45.102 -51.707  13.178  1.00  0.00     0.036 C 
HETATM    6  C   UNL     1     -44.989 -50.964  14.515  1.00  0.00     0.007 C 
HETATM    7  C   UNL     1     -45.686 -51.696  15.680  1.00  0.00    -0.015 C 
HETATM    8  C   UNL     1     -47.209 -51.543  15.579  1.00  0.00     0.010 C 
HETATM    9  C   UNL     1     -45.215 -53.169  15.749  1.00  0.00    -0.013 C 
HETATM   10  C   UNL     1     -45.417 -53.874  14.397  1.00  0.00     0.040 C 
HETATM   11  C   UNL     1     -45.862 -53.968  16.879  1.00  0.00     0.010 C 
ENDBRANCH   2   4
ENDBRANCH   1   2
BRANCH   1  12
HETATM   12  C   UNL     1     -40.929 -52.601  12.359  1.00  0.00     0.110 C 
HETATM   13  C   UNL     1     -40.406 -53.286  13.626  1.00  0.00     0.053 C 
BRANCH  12  14
HETATM   14  O   UNL     1     -40.599 -53.455  11.244  1.00  0.00    -0.383 OA
HETATM   15  H   UNL     1     -39.860 -54.010  11.539  1.00  0.00     0.211 HD
ENDBRANCH  12  14
BRANCH  12  16
HETATM   16  C   UNL     1     -40.306 -51.241  12.166  1.00  0.00     0.011 A 
HETATM   17  C   UNL     1     -38.982 -50.844  12.483  1.00  0.00     0.119 A 
HETATM   18  N   UNL     1     -38.765 -49.544  12.277  1.00  0.00    -0.310 N 
HETATM   19  N   UNL     1     -39.949 -49.096  11.825  1.00  0.00    -0.307 N 
ATOM     20  HN  UNL     1     -37.905 -49.017  12.426  1.00  0.00     0.186 HD
HETATM   21  C   UNL     1     -40.133 -47.692  11.547  1.00  0.00     0.177 C 
HETATM   22  C   UNL     1     -40.895 -50.070  11.723  1.00  0.00     0.121 A 
ENDBRANCH  12  16
ENDBRANCH   1  12
TORSDOF 5
ENDMDL
MODEL 7
REMARK VINA RESULT:      -5.4      1.450      2.339
REMARK  5 active torsions:
REMARK  status: ('A' for Active; 'I' for Inactive)
REMARK    1  A    between atoms: C_5  and  N_9 
REMARK    2  A    between atoms: N_9  and  C_10 
REMARK    3  A    between atoms: C_10  and  C_11 
REMARK    4  A    between atoms: C_11  and  O_13 
REMARK    5  A    between atoms: C_11  and  C_14 
ROOT
HETATM    1  C   UNL     1     -41.476 -50.770  13.363  1.00  0.00     0.312 C 
ENDROOT
BRANCH   1   2
HETATM    2  N   UNL     1     -42.289 -52.000  13.355  1.00  0.00     0.091 N 
HETATM    3  H   UNL     1     -41.864 -52.661  12.708  1.00  0.00     0.316 HD
BRANCH   2   4
HETATM    4  C   UNL     1     -43.679 -51.740  12.926  1.00  0.00     0.221 C 
HETATM    5  C   UNL     1     -44.372 -50.848  13.973  1.00  0.00     0.036 C 
HETATM    6  C   UNL     1     -44.658 -51.577  15.292  1.00  0.00     0.007 C 
HETATM    7  C   UNL     1     -45.423 -52.903  15.102  1.00  0.00    -0.015 C 
HETATM    8  C   UNL     1     -46.900 -52.633  14.784  1.00  0.00     0.010 C 
HETATM    9  C   UNL     1     -44.714 -53.787  14.047  1.00  0.00    -0.013 C 
HETATM   10  C   UNL     1     -44.517 -53.019  12.729  1.00  0.00     0.040 C 
HETATM   11  C   UNL     1     -45.412 -55.123  13.797  1.00  0.00     0.010 C 
ENDBRANCH   2   4
ENDBRANCH   1   2
BRANCH   1  12
HETATM   12  C   UNL     1     -40.436 -50.656  12.201  1.00  0.00     0.110 C 
HETATM   13  C   UNL     1     -39.017 -50.990  12.671  1.00  0.00     0.053 C 
BRANCH  12  14
HETATM   14  O   UNL     1     -40.794 -51.628  11.198  1.00  0.00    -0.383 OA
HETATM   15  H   UNL     1     -41.748 -51.782  11.301  1.00  0.00     0.211 HD
ENDBRANCH  12  14
BRANCH  12  16
HETATM   16  C   UNL     1     -40.516 -49.266  11.622  1.00  0.00     0.011 A 
HETATM   17  C   UNL     1     -39.520 -48.258  11.654  1.00  0.00     0.119 A 
HETATM   18  N   UNL     1     -39.931 -47.102  11.131  1.00  0.00    -0.310 N 
HETATM   19  N   UNL     1     -41.197 -47.358  10.759  1.00  0.00    -0.307 N 
ATOM     20  HN  UNL     1     -39.409 -46.231  11.037  1.00  0.00     0.186 HD
HETATM   21  C   UNL     1     -42.014 -46.309  10.199  1.00  0.00     0.177 C 
HETATM   22  C   UNL     1     -41.588 -48.639  11.013  1.00  0.00     0.121 A 
ENDBRANCH  12  16
ENDBRANCH   1  12
TORSDOF 5
ENDMDL
MODEL 8
REMARK VINA RESULT:      -5.4      1.472      2.309
REMARK  5 active torsions:
REMARK  status: ('A' for Active; 'I' for Inactive)
REMARK    1  A    between atoms: C_5  and  N_9 
REMARK    2  A    between atoms: N_9  and  C_10 
REMARK    3  A    between atoms: C_10  and  C_11 
REMARK    4  A    between atoms: C_11  and  O_13 
REMARK    5  A    between atoms: C_11  and  C_14 
ROOT
HETATM    1  C   UNL     1     -42.021 -49.830  13.104  1.00  0.00     0.312 C 
ENDROOT
BRANCH   1   2
HETATM    2  N   UNL     1     -42.777 -51.096  13.064  1.00  0.00     0.091 N 
HETATM    3  H   UNL     1     -43.680 -50.916  12.630  1.00  0.00     0.316 HD
BRANCH   2   4
HETATM    4  C   UNL     1     -42.999 -51.648  14.417  1.00  0.00     0.221 C 
HETATM    5  C   UNL     1     -41.708 -52.335  14.900  1.00  0.00     0.036 C 
HETATM    6  C   UNL     1     -41.401 -53.638  14.154  1.00  0.00     0.007 C 
HETATM    7  C   UNL     1     -42.584 -54.629  14.146  1.00  0.00    -0.015 C 
HETATM    8  C   UNL     1     -42.734 -55.301  15.517  1.00  0.00     0.010 C 
HETATM    9  C   UNL     1     -43.873 -53.925  13.657  1.00  0.00    -0.013 C 
HETATM   10  C   UNL     1     -44.158 -52.662  14.489  1.00  0.00     0.040 C 
HETATM   11  C   UNL     1     -45.096 -54.838  13.622  1.00  0.00     0.010 C 
ENDBRANCH   2   4
ENDBRANCH   1   2
BRANCH   1  12
HETATM   12  C   UNL     1     -40.846 -49.728  12.078  1.00  0.00     0.110 C 
HETATM   13  C   UNL     1     -39.485 -49.957  12.745  1.00  0.00     0.053 C 
BRANCH  12  14
HETATM   14  O   UNL     1     -41.026 -50.775  11.103  1.00  0.00    -0.383 OA
HETATM   15  H   UNL     1     -41.323 -50.336  10.289  1.00  0.00     0.211 HD
ENDBRANCH  12  14
BRANCH  12  16
HETATM   16  C   UNL     1     -40.914 -48.380  11.405  1.00  0.00     0.011 A 
HETATM   17  C   UNL     1     -41.835 -47.954  10.415  1.00  0.00     0.119 A 
HETATM   18  N   UNL     1     -41.574 -46.731   9.953  1.00  0.00    -0.310 N 
HETATM   19  N   UNL     1     -40.482 -46.361  10.643  1.00  0.00    -0.307 N 
ATOM     20  HN  UNL     1     -42.083 -46.203   9.244  1.00  0.00     0.186 HD
HETATM   21  C   UNL     1     -39.847 -45.094  10.369  1.00  0.00     0.177 C 
HETATM   22  C   UNL     1     -40.059 -47.300  11.534  1.00  0.00     0.121 A 
ENDBRANCH  12  16
ENDBRANCH   1  12
TORSDOF 5
ENDMDL
MODEL 9
REMARK VINA RESULT:      -5.4      3.673      7.279
REMARK  5 active torsions:
REMARK  status: ('A' for Active; 'I' for Inactive)
REMARK    1  A    between atoms: C_5  and  N_9 
REMARK    2  A    between atoms: N_9  and  C_10 
REMARK    3  A    between atoms: C_10  and  C_11 
REMARK    4  A    between atoms: C_11  and  O_13 
REMARK    5  A    between atoms: C_11  and  C_14 
ROOT
HETATM    1  C   UNL     1     -39.879 -52.935  13.736  1.00  0.00     0.312 C 
ENDROOT
BRANCH   1   2
HETATM    2  N   UNL     1     -39.642 -51.641  14.402  1.00  0.00     0.091 N 
HETATM    3  H   UNL     1     -40.370 -50.992  14.109  1.00  0.00     0.316 HD
BRANCH   2   4
HETATM    4  C   UNL     1     -38.325 -51.072  14.046  1.00  0.00     0.221 C 
HETATM    5  C   UNL     1     -37.658 -50.510  15.316  1.00  0.00     0.036 C 
HETATM    6  C   UNL     1     -38.337 -49.240  15.843  1.00  0.00     0.007 C 
HETATM    7  C   UNL     1     -38.494 -48.143  14.770  1.00  0.00    -0.015 C 
HETATM    8  C   UNL     1     -37.147 -47.462  14.495  1.00  0.00     0.010 C 
HETATM    9  C   UNL     1     -39.165 -48.722  13.501  1.00  0.00    -0.013 C 
HETATM   10  C   UNL     1     -38.398 -49.953  12.987  1.00  0.00     0.040 C 
HETATM   11  C   UNL     1     -39.356 -47.697  12.385  1.00  0.00     0.010 C 
ENDBRANCH   2   4
ENDBRANCH   1   2
BRANCH   1  12
HETATM   12  C   UNL     1     -41.088 -52.958  12.745  1.00  0.00     0.110 C 
HETATM   13  C   UNL     1     -41.502 -51.547  12.317  1.00  0.00     0.053 C 
BRANCH  12  14
HETATM   14  O   UNL     1     -40.665 -53.659  11.558  1.00  0.00    -0.383 OA
HETATM   15  H   UNL     1     -39.929 -54.230  11.831  1.00  0.00     0.211 HD
ENDBRANCH  12  14
BRANCH  12  16
HETATM   16  C   UNL     1     -42.229 -53.696  13.399  1.00  0.00     0.011 A 
HETATM   17  C   UNL     1     -42.177 -54.525  14.548  1.00  0.00     0.119 A 
HETATM   18  N   UNL     1     -43.344 -55.109  14.823  1.00  0.00    -0.310 N 
HETATM   19  N   UNL     1     -44.157 -54.658  13.852  1.00  0.00    -0.307 N 
ATOM     20  HN  UNL     1     -43.567 -55.745  15.588  1.00  0.00     0.186 HD
HETATM   21  C   UNL     1     -45.519 -55.128  13.771  1.00  0.00     0.177 C 
HETATM   22  C   UNL     1     -43.546 -53.799  12.989  1.00  0.00     0.121 A 
ENDBRANCH  12  16
ENDBRANCH   1  12
TORSDOF 5
ENDMDL
