MODEL 1
REMARK VINA RESULT:      -5.7      0.000      0.000
REMARK  7 active torsions:
REMARK  status: ('A' for Active; 'I' for Inactive)
REMARK    1  A    between atoms: N_6  and  C_7 
REMARK    2  A    between atoms: C_7  and  C_8 
REMARK    3  A    between atoms: C_8  and  N_9 
REMARK    4  A    between atoms: N_9  and  C_10 
REMARK    5  A    between atoms: C_10  and  C_11 
REMARK    6  A    between atoms: C_11  and  C_12 
REMARK    7  A    between atoms: C_12  and  N_13 
ROOT
HETATM    1  N   UNL     1     -41.966 -50.652  11.763  1.00  0.00     0.085 N 
HETATM    2  H   UNL     1     -41.295 -50.748  11.001  1.00  0.00     0.315 HD
ENDROOT
BRANCH   1   3
HETATM    3  C   UNL     1     -42.235 -49.231  12.032  1.00  0.00     0.291 C 
BRANCH   3   4
HETATM    4  C   UNL     1     -41.768 -48.271  10.934  1.00  0.00     0.178 C 
BRANCH   4   5
HETATM    5  N   UNL     1     -42.852 -47.915  10.040  1.00  0.00    -0.302 N 
HETATM    6  N   UNL     1     -42.664 -47.967   8.710  1.00  0.00    -0.310 N 
HETATM    7  C   UNL     1     -43.850 -47.613   8.209  1.00  0.00     0.115 A 
ATOM      8  HN  UNL     1     -41.815 -48.218   8.203  1.00  0.00     0.186 HD
HETATM    9  C   UNL     1     -44.801 -47.331   9.216  1.00  0.00    -0.028 A 
HETATM   10  C   UNL     1     -46.209 -46.908   9.051  1.00  0.00     0.051 C 
HETATM   11  C   UNL     1     -44.115 -47.539  10.394  1.00  0.00     0.118 A 
ENDBRANCH   4   5
ENDBRANCH   3   4
ENDBRANCH   1   3
BRANCH   1  12
HETATM   12  C   UNL     1     -41.477 -51.363  12.948  1.00  0.00     0.271 C 
BRANCH  12  13
HETATM   13  C   UNL     1     -42.043 -52.777  12.964  1.00  0.00     0.050 C 
BRANCH  13  14
HETATM   14  C   UNL     1     -42.896 -53.023  14.215  1.00  0.00     0.127 C 
BRANCH  14  15
HETATM   15  N   UNL     1     -44.291 -52.705  13.964  1.00  0.00    -0.352 N 
HETATM   16  C   UNL     1     -44.838 -51.420  14.313  1.00  0.00     0.126 C 
HETATM   17  C   UNL     1     -46.187 -51.370  13.626  1.00  0.00     0.029 C 
HETATM   18  C   UNL     1     -46.109 -52.408  12.515  1.00  0.00     0.104 C 
HETATM   19  C   UNL     1     -44.990 -53.321  12.935  1.00  0.00     0.219 C 
HETATM   20  O   UNL     1     -44.691 -54.367  12.378  1.00  0.00    -0.273 OA
ENDBRANCH  14  15
ENDBRANCH  13  14
ENDBRANCH  12  13
ENDBRANCH   1  12
TORSDOF 7
ENDMDL
MODEL 2
REMARK VINA RESULT:      -5.6      1.513      1.834
REMARK  7 active torsions:
REMARK  status: ('A' for Active; 'I' for Inactive)
REMARK    1  A    between atoms: N_6  and  C_7 
REMARK    2  A    between atoms: C_7  and  C_8 
REMARK    3  A    between atoms: C_8  and  N_9 
REMARK    4  A    between atoms: N_9  and  C_10 
REMARK    5  A    between atoms: C_10  and  C_11 
REMARK    6  A    between atoms: C_11  and  C_12 
REMARK    7  A    between atoms: C_12  and  N_13 
ROOT
HETATM    1  N   UNL     1     -41.591 -50.472  11.384  1.00  0.00     0.085 N 
HETATM    2  H   UNL     1     -41.429 -50.531  10.378  1.00  0.00     0.315 HD
ENDROOT
BRANCH   1   3
HETATM    3  C   UNL     1     -41.856 -49.079  11.777  1.00  0.00     0.291 C 
BRANCH   3   4
HETATM    4  C   UNL     1     -41.604 -48.043  10.679  1.00  0.00     0.178 C 
BRANCH   4   5
HETATM    5  N   UNL     1     -42.785 -47.825   9.868  1.00  0.00    -0.302 N 
HETATM    6  N   UNL     1     -42.717 -47.982   8.535  1.00  0.00    -0.310 N 
HETATM    7  C   UNL     1     -43.964 -47.737   8.124  1.00  0.00     0.115 A 
ATOM      8  HN  UNL     1     -41.905 -48.229   7.970  1.00  0.00     0.186 HD
HETATM    9  C   UNL     1     -44.834 -47.421   9.192  1.00  0.00    -0.028 A 
HETATM   10  C   UNL     1     -46.275 -47.091   9.131  1.00  0.00     0.051 C 
HETATM   11  C   UNL     1     -44.031 -47.489  10.311  1.00  0.00     0.118 A 
ENDBRANCH   4   5
ENDBRANCH   3   4
ENDBRANCH   1   3
BRANCH   1  12
HETATM   12  C   UNL     1     -40.454 -51.051  12.105  1.00  0.00     0.271 C 
BRANCH  12  13
HETATM   13  C   UNL     1     -40.961 -51.854  13.297  1.00  0.00     0.050 C 
BRANCH  13  14
HETATM   14  C   UNL     1     -41.440 -53.246  12.869  1.00  0.00     0.127 C 
BRANCH  14  15
HETATM   15  N   UNL     1     -42.788 -53.501  13.347  1.00  0.00    -0.352 N 
HETATM   16  C   UNL     1     -43.935 -53.272  12.507  1.00  0.00     0.126 C 
HETATM   17  C   UNL     1     -45.088 -53.935  13.230  1.00  0.00     0.029 C 
HETATM   18  C   UNL     1     -44.443 -54.939  14.176  1.00  0.00     0.104 C 
HETATM   19  C   UNL     1     -43.029 -54.451  14.331  1.00  0.00     0.219 C 
HETATM   20  O   UNL     1     -42.212 -54.906  15.117  1.00  0.00    -0.273 OA
ENDBRANCH  14  15
ENDBRANCH  13  14
ENDBRANCH  12  13
ENDBRANCH   1  12
TORSDOF 7
ENDMDL
MODEL 3
REMARK VINA RESULT:      -5.4      2.120      3.183
REMARK  7 active torsions:
REMARK  status: ('A' for Active; 'I' for Inactive)
REMARK    1  A    between atoms: N_6  and  C_7 
REMARK    2  A    between atoms: C_7  and  C_8 
REMARK    3  A    between atoms: C_8  and  N_9 
REMARK    4  A    between atoms: N_9  and  C_10 
REMARK    5  A    between atoms: C_10  and  C_11 
REMARK    6  A    between atoms: C_11  and  C_12 
REMARK    7  A    between atoms: C_12  and  N_13 
ROOT
HETATM    1  N   UNL     1     -41.986 -50.222  11.741  1.00  0.00     0.085 N 
HETATM    2  H   UNL     1     -41.439 -51.052  11.975  1.00  0.00     0.315 HD
ENDROOT
BRANCH   1   3
HETATM    3  C   UNL     1     -41.163 -49.266  10.983  1.00  0.00     0.291 C 
BRANCH   3   4
HETATM    4  C   UNL     1     -41.710 -47.836  10.945  1.00  0.00     0.178 C 
BRANCH   4   5
HETATM    5  N   UNL     1     -42.833 -47.718  10.037  1.00  0.00    -0.302 N 
HETATM    6  N   UNL     1     -42.655 -47.942   8.724  1.00  0.00    -0.310 N 
HETATM    7  C   UNL     1     -43.876 -47.778   8.207  1.00  0.00     0.115 A 
ATOM      8  HN  UNL     1     -41.791 -48.181   8.237  1.00  0.00     0.186 HD
HETATM    9  C   UNL     1     -44.839 -47.447   9.187  1.00  0.00    -0.028 A 
HETATM   10  C   UNL     1     -46.283 -47.188   8.999  1.00  0.00     0.051 C 
HETATM   11  C   UNL     1     -44.123 -47.418  10.366  1.00  0.00     0.118 A 
ENDBRANCH   4   5
ENDBRANCH   3   4
ENDBRANCH   1   3
BRANCH   1  12
HETATM   12  C   UNL     1     -42.544 -49.634  12.962  1.00  0.00     0.271 C 
BRANCH  12  13
HETATM   13  C   UNL     1     -42.672 -50.710  14.033  1.00  0.00     0.050 C 
BRANCH  13  14
HETATM   14  C   UNL     1     -42.569 -52.115  13.429  1.00  0.00     0.127 C 
BRANCH  14  15
HETATM   15  N   UNL     1     -41.481 -52.864  14.035  1.00  0.00    -0.352 N 
HETATM   16  C   UNL     1     -41.736 -53.913  14.988  1.00  0.00     0.126 C 
HETATM   17  C   UNL     1     -40.413 -54.634  15.137  1.00  0.00     0.029 C 
HETATM   18  C   UNL     1     -39.621 -54.281  13.886  1.00  0.00     0.104 C 
HETATM   19  C   UNL     1     -40.270 -53.025  13.375  1.00  0.00     0.219 C 
HETATM   20  O   UNL     1     -39.848 -52.340  12.455  1.00  0.00    -0.273 OA
ENDBRANCH  14  15
ENDBRANCH  13  14
ENDBRANCH  12  13
ENDBRANCH   1  12
TORSDOF 7
ENDMDL
MODEL 4
REMARK VINA RESULT:      -5.4      3.282      4.306
REMARK  7 active torsions:
REMARK  status: ('A' for Active; 'I' for Inactive)
REMARK    1  A    between atoms: N_6  and  C_7 
REMARK    2  A    between atoms: C_7  and  C_8 
REMARK    3  A    between atoms: C_8  and  N_9 
REMARK    4  A    between atoms: N_9  and  C_10 
REMARK    5  A    between atoms: C_10  and  C_11 
REMARK    6  A    between atoms: C_11  and  C_12 
REMARK    7  A    between atoms: C_12  and  N_13 
ROOT
HETATM    1  N   UNL     1     -42.111 -54.182  12.968  1.00  0.00     0.085 N 
HETATM    2  H   UNL     1     -42.136 -55.067  12.459  1.00  0.00     0.315 HD
ENDROOT
BRANCH   1   3
HETATM    3  C   UNL     1     -41.020 -53.334  12.463  1.00  0.00     0.291 C 
BRANCH   3   4
HETATM    4  C   UNL     1     -41.472 -52.016  11.829  1.00  0.00     0.178 C 
BRANCH   4   5
HETATM    5  N   UNL     1     -40.447 -50.996  11.928  1.00  0.00    -0.302 N 
HETATM    6  N   UNL     1     -40.239 -50.157  10.899  1.00  0.00    -0.310 N 
HETATM    7  C   UNL     1     -39.268 -49.353  11.338  1.00  0.00     0.115 A 
ATOM      8  HN  UNL     1     -40.713 -50.139   9.995  1.00  0.00     0.186 HD
HETATM    9  C   UNL     1     -38.848 -49.676  12.648  1.00  0.00    -0.028 A 
HETATM   10  C   UNL     1     -37.802 -49.018  13.461  1.00  0.00     0.051 C 
HETATM   11  C   UNL     1     -39.639 -50.750  12.999  1.00  0.00     0.118 A 
ENDBRANCH   4   5
ENDBRANCH   3   4
ENDBRANCH   1   3
BRANCH   1  12
HETATM   12  C   UNL     1     -42.000 -54.440  14.406  1.00  0.00     0.271 C 
BRANCH  12  13
HETATM   13  C   UNL     1     -43.169 -53.787  15.133  1.00  0.00     0.050 C 
BRANCH  13  14
HETATM   14  C   UNL     1     -44.502 -54.437  14.744  1.00  0.00     0.127 C 
BRANCH  14  15
HETATM   15  N   UNL     1     -45.482 -53.431  14.373  1.00  0.00    -0.352 N 
HETATM   16  C   UNL     1     -46.069 -52.560  15.358  1.00  0.00     0.126 C 
HETATM   17  C   UNL     1     -46.773 -51.484  14.559  1.00  0.00     0.029 C 
HETATM   18  C   UNL     1     -46.120 -51.514  13.184  1.00  0.00     0.104 C 
HETATM   19  C   UNL     1     -45.491 -52.878  13.099  1.00  0.00     0.219 C 
HETATM   20  O   UNL     1     -44.978 -53.354  12.098  1.00  0.00    -0.273 OA
ENDBRANCH  14  15
ENDBRANCH  13  14
ENDBRANCH  12  13
ENDBRANCH   1  12
TORSDOF 7
ENDMDL
MODEL 5
REMARK VINA RESULT:      -5.3      2.094      2.904
REMARK  7 active torsions:
REMARK  status: ('A' for Active; 'I' for Inactive)
REMARK    1  A    between atoms: N_6  and  C_7 
REMARK    2  A    between atoms: C_7  and  C_8 
REMARK    3  A    between atoms: C_8  and  N_9 
REMARK    4  A    between atoms: N_9  and  C_10 
REMARK    5  A    between atoms: C_10  and  C_11 
REMARK    6  A    between atoms: C_11  and  C_12 
REMARK    7  A    between atoms: C_12  and  N_13 
ROOT
HETATM    1  N   UNL     1     -40.890 -53.165  11.696  1.00  0.00     0.085 N 
HETATM    2  H   UNL     1     -39.913 -53.200  11.401  1.00  0.00     0.315 HD
ENDROOT
BRANCH   1   3
HETATM    3  C   UNL     1     -41.262 -51.792  12.068  1.00  0.00     0.291 C 
BRANCH   3   4
HETATM    4  C   UNL     1     -40.103 -50.792  12.078  1.00  0.00     0.178 C 
BRANCH   4   5
HETATM    5  N   UNL     1     -40.507 -49.500  11.558  1.00  0.00    -0.302 N 
HETATM    6  N   UNL     1     -41.644 -49.394  10.849  1.00  0.00    -0.310 N 
HETATM    7  C   UNL     1     -41.716 -48.091  10.563  1.00  0.00     0.115 A 
ATOM      8  HN  UNL     1     -42.297 -50.133  10.590  1.00  0.00     0.186 HD
HETATM    9  C   UNL     1     -40.626 -47.360  11.086  1.00  0.00    -0.028 A 
HETATM   10  C   UNL     1     -40.360 -45.909  10.974  1.00  0.00     0.051 C 
HETATM   11  C   UNL     1     -39.861 -48.311  11.728  1.00  0.00     0.118 A 
ENDBRANCH   4   5
ENDBRANCH   3   4
ENDBRANCH   1   3
BRANCH   1  12
HETATM   12  C   UNL     1     -41.113 -54.121  12.784  1.00  0.00     0.271 C 
BRANCH  12  13
HETATM   13  C   UNL     1     -41.824 -53.423  13.937  1.00  0.00     0.050 C 
BRANCH  13  14
HETATM   14  C   UNL     1     -43.131 -54.138  14.301  1.00  0.00     0.127 C 
BRANCH  14  15
HETATM   15  N   UNL     1     -44.248 -53.209  14.304  1.00  0.00    -0.352 N 
HETATM   16  C   UNL     1     -44.385 -52.208  15.330  1.00  0.00     0.126 C 
HETATM   17  C   UNL     1     -45.459 -51.270  14.821  1.00  0.00     0.029 C 
HETATM   18  C   UNL     1     -45.507 -51.496  13.317  1.00  0.00     0.104 C 
HETATM   19  C   UNL     1     -44.882 -52.850  13.122  1.00  0.00     0.219 C 
HETATM   20  O   UNL     1     -44.848 -53.462  12.065  1.00  0.00    -0.273 OA
ENDBRANCH  14  15
ENDBRANCH  13  14
ENDBRANCH  12  13
ENDBRANCH   1  12
TORSDOF 7
ENDMDL
MODEL 6
REMARK VINA RESULT:      -5.2      2.293      4.022
REMARK  7 active torsions:
REMARK  status: ('A' for Active; 'I' for Inactive)
REMARK    1  A    between atoms: N_6  and  C_7 
REMARK    2  A    between atoms: C_7  and  C_8 
REMARK    3  A    between atoms: C_8  and  N_9 
REMARK    4  A    between atoms: N_9  and  C_10 
REMARK    5  A    between atoms: C_10  and  C_11 
REMARK    6  A    between atoms: C_11  and  C_12 
REMARK    7  A    between atoms: C_12  and  N_13 
ROOT
HETATM    1  N   UNL     1     -43.534 -49.673  12.190  1.00  0.00     0.085 N 
HETATM    2  H   UNL     1     -43.098 -50.371  11.585  1.00  0.00     0.315 HD
ENDROOT
BRANCH   1   3
HETATM    3  C   UNL     1     -43.107 -48.321  11.800  1.00  0.00     0.291 C 
BRANCH   3   4
HETATM    4  C   UNL     1     -41.994 -48.276  10.750  1.00  0.00     0.178 C 
BRANCH   4   5
HETATM    5  N   UNL     1     -40.747 -48.802  11.270  1.00  0.00    -0.302 N 
HETATM    6  N   UNL     1     -40.220 -49.917  10.736  1.00  0.00    -0.310 N 
HETATM    7  C   UNL     1     -39.086 -50.089  11.421  1.00  0.00     0.115 A 
ATOM      8  HN  UNL     1     -40.596 -50.495   9.984  1.00  0.00     0.186 HD
HETATM    9  C   UNL     1     -38.886 -49.087  12.397  1.00  0.00    -0.028 A 
HETATM   10  C   UNL     1     -37.758 -48.946  13.344  1.00  0.00     0.051 C 
HETATM   11  C   UNL     1     -39.987 -48.267  12.268  1.00  0.00     0.118 A 
ENDBRANCH   4   5
ENDBRANCH   3   4
ENDBRANCH   1   3
BRANCH   1  12
HETATM   12  C   UNL     1     -43.231 -49.974  13.592  1.00  0.00     0.271 C 
BRANCH  12  13
HETATM   13  C   UNL     1     -42.225 -51.116  13.663  1.00  0.00     0.050 C 
BRANCH  13  14
HETATM   14  C   UNL     1     -42.471 -52.146  12.555  1.00  0.00     0.127 C 
BRANCH  14  15
HETATM   15  N   UNL     1     -42.979 -53.391  13.106  1.00  0.00    -0.352 N 
HETATM   16  C   UNL     1     -42.358 -54.012  14.245  1.00  0.00     0.126 C 
HETATM   17  C   UNL     1     -43.337 -55.078  14.692  1.00  0.00     0.029 C 
HETATM   18  C   UNL     1     -44.678 -54.661  14.104  1.00  0.00     0.104 C 
HETATM   19  C   UNL     1     -44.318 -53.736  12.974  1.00  0.00     0.219 C 
HETATM   20  O   UNL     1     -45.108 -53.284  12.158  1.00  0.00    -0.273 OA
ENDBRANCH  14  15
ENDBRANCH  13  14
ENDBRANCH  12  13
ENDBRANCH   1  12
TORSDOF 7
ENDMDL
MODEL 7
REMARK VINA RESULT:      -5.2      3.997      6.049
REMARK  7 active torsions:
REMARK  status: ('A' for Active; 'I' for Inactive)
REMARK    1  A    between atoms: N_6  and  C_7 
REMARK    2  A    between atoms: C_7  and  C_8 
REMARK    3  A    between atoms: C_8  and  N_9 
REMARK    4  A    between atoms: N_9  and  C_10 
REMARK    5  A    between atoms: C_10  and  C_11 
REMARK    6  A    between atoms: C_11  and  C_12 
REMARK    7  A    between atoms: C_12  and  N_13 
ROOT
HETATM    1  N   UNL     1     -40.563 -53.166  13.874  1.00  0.00     0.085 N 
HETATM    2  H   UNL     1     -39.795 -53.837  13.925  1.00  0.00     0.315 HD
ENDROOT
BRANCH   1   3
HETATM    3  C   UNL     1     -40.826 -52.796  12.475  1.00  0.00     0.291 C 
BRANCH   3   4
HETATM    4  C   UNL     1     -41.727 -51.572  12.293  1.00  0.00     0.178 C 
BRANCH   4   5
HETATM    5  N   UNL     1     -43.115 -51.884  12.574  1.00  0.00    -0.302 N 
HETATM    6  N   UNL     1     -43.661 -53.004  12.070  1.00  0.00    -0.310 N 
HETATM    7  C   UNL     1     -44.910 -52.986  12.544  1.00  0.00     0.115 A 
ATOM      8  HN  UNL     1     -43.225 -53.702  11.468  1.00  0.00     0.186 HD
HETATM    9  C   UNL     1     -45.167 -51.855  13.351  1.00  0.00    -0.028 A 
HETATM   10  C   UNL     1     -46.424 -51.492  14.042  1.00  0.00     0.051 C 
HETATM   11  C   UNL     1     -43.975 -51.161  13.348  1.00  0.00     0.118 A 
ENDBRANCH   4   5
ENDBRANCH   3   4
ENDBRANCH   1   3
BRANCH   1  12
HETATM   12  C   UNL     1     -40.262 -52.004  14.714  1.00  0.00     0.271 C 
BRANCH  12  13
HETATM   13  C   UNL     1     -38.833 -52.106  15.233  1.00  0.00     0.050 C 
BRANCH  13  14
HETATM   14  C   UNL     1     -38.020 -50.854  14.882  1.00  0.00     0.127 C 
BRANCH  14  15
HETATM   15  N   UNL     1     -38.327 -50.395  13.538  1.00  0.00    -0.352 N 
HETATM   16  C   UNL     1     -38.961 -49.124  13.309  1.00  0.00     0.126 C 
HETATM   17  C   UNL     1     -38.824 -48.881  11.821  1.00  0.00     0.029 C 
HETATM   18  C   UNL     1     -37.676 -49.776  11.373  1.00  0.00     0.104 C 
HETATM   19  C   UNL     1     -37.577 -50.821  12.450  1.00  0.00     0.219 C 
HETATM   20  O   UNL     1     -36.862 -51.811  12.403  1.00  0.00    -0.273 OA
ENDBRANCH  14  15
ENDBRANCH  13  14
ENDBRANCH  12  13
ENDBRANCH   1  12
TORSDOF 7
ENDMDL
MODEL 8
REMARK VINA RESULT:      -5.0      3.158      6.522
REMARK  7 active torsions:
REMARK  status: ('A' for Active; 'I' for Inactive)
REMARK    1  A    between atoms: N_6  and  C_7 
REMARK    2  A    between atoms: C_7  and  C_8 
REMARK    3  A    between atoms: C_8  and  N_9 
REMARK    4  A    between atoms: N_9  and  C_10 
REMARK    5  A    between atoms: C_10  and  C_11 
REMARK    6  A    between atoms: C_11  and  C_12 
REMARK    7  A    between atoms: C_12  and  N_13 
ROOT
HETATM    1  N   UNL     1     -42.343 -51.653  12.025  1.00  0.00     0.085 N 
HETATM    2  H   UNL     1     -42.820 -51.629  11.123  1.00  0.00     0.315 HD
ENDROOT
BRANCH   1   3
HETATM    3  C   UNL     1     -42.873 -52.747  12.853  1.00  0.00     0.291 C 
BRANCH   3   4
HETATM    4  C   UNL     1     -44.214 -53.318  12.384  1.00  0.00     0.178 C 
BRANCH   4   5
HETATM    5  N   UNL     1     -45.256 -53.112  13.370  1.00  0.00    -0.302 N 
HETATM    6  N   UNL     1     -46.074 -54.127  13.697  1.00  0.00    -0.310 N 
HETATM    7  C   UNL     1     -46.870 -53.601  14.632  1.00  0.00     0.115 A 
ATOM      8  HN  UNL     1     -46.084 -55.075  13.320  1.00  0.00     0.186 HD
HETATM    9  C   UNL     1     -46.567 -52.249  14.905  1.00  0.00    -0.028 A 
HETATM   10  C   UNL     1     -47.227 -51.340  15.867  1.00  0.00     0.051 C 
HETATM   11  C   UNL     1     -45.510 -51.965  14.065  1.00  0.00     0.118 A 
ENDBRANCH   4   5
ENDBRANCH   3   4
ENDBRANCH   1   3
BRANCH   1  12
HETATM   12  C   UNL     1     -42.457 -50.348  12.682  1.00  0.00     0.271 C 
BRANCH  12  13
HETATM   13  C   UNL     1     -41.712 -49.299  11.865  1.00  0.00     0.050 C 
BRANCH  13  14
HETATM   14  C   UNL     1     -40.502 -49.907  11.145  1.00  0.00     0.127 C 
BRANCH  14  15
HETATM   15  N   UNL     1     -39.307 -49.809  11.965  1.00  0.00    -0.352 N 
HETATM   16  C   UNL     1     -38.837 -48.538  12.451  1.00  0.00     0.126 C 
HETATM   17  C   UNL     1     -37.790 -48.880  13.491  1.00  0.00     0.029 C 
HETATM   18  C   UNL     1     -38.089 -50.315  13.903  1.00  0.00     0.104 C 
HETATM   19  C   UNL     1     -38.899 -50.869  12.764  1.00  0.00     0.219 C 
HETATM   20  O   UNL     1     -39.230 -52.039  12.641  1.00  0.00    -0.273 OA
ENDBRANCH  14  15
ENDBRANCH  13  14
ENDBRANCH  12  13
ENDBRANCH   1  12
TORSDOF 7
ENDMDL
MODEL 9
REMARK VINA RESULT:      -4.9      3.703      5.036
REMARK  7 active torsions:
REMARK  status: ('A' for Active; 'I' for Inactive)
REMARK    1  A    between atoms: N_6  and  C_7 
REMARK    2  A    between atoms: C_7  and  C_8 
REMARK    3  A    between atoms: C_8  and  N_9 
REMARK    4  A    between atoms: N_9  and  C_10 
REMARK    5  A    between atoms: C_10  and  C_11 
REMARK    6  A    between atoms: C_11  and  C_12 
REMARK    7  A    between atoms: C_12  and  N_13 
ROOT
HETATM    1  N   UNL     1     -41.411 -55.328  15.865  1.00  0.00     0.085 N 
HETATM    2  H   UNL     1     -41.544 -55.484  16.865  1.00  0.00     0.315 HD
ENDROOT
BRANCH   1   3
HETATM    3  C   UNL     1     -40.375 -54.308  15.641  1.00  0.00     0.291 C 
BRANCH   3   4
HETATM    4  C   UNL     1     -39.640 -54.420  14.303  1.00  0.00     0.178 C 
BRANCH   4   5
HETATM    5  N   UNL     1     -40.095 -53.420  13.358  1.00  0.00    -0.302 N 
HETATM    6  N   UNL     1     -40.870 -53.785  12.322  1.00  0.00    -0.310 N 
HETATM    7  C   UNL     1     -41.119 -52.634  11.693  1.00  0.00     0.115 A 
ATOM      8  HN  UNL     1     -41.192 -54.722  12.075  1.00  0.00     0.186 HD
HETATM    9  C   UNL     1     -40.503 -51.529  12.321  1.00  0.00    -0.028 A 
HETATM   10  C   UNL     1     -40.547 -50.106  11.918  1.00  0.00     0.051 C 
HETATM   11  C   UNL     1     -39.846 -52.079  13.402  1.00  0.00     0.118 A 
ENDBRANCH   4   5
ENDBRANCH   3   4
ENDBRANCH   1   3
BRANCH   1  12
HETATM   12  C   UNL     1     -42.690 -54.973  15.243  1.00  0.00     0.271 C 
BRANCH  12  13
HETATM   13  C   UNL     1     -43.172 -53.638  15.796  1.00  0.00     0.050 C 
BRANCH  13  14
HETATM   14  C   UNL     1     -43.348 -52.602  14.680  1.00  0.00     0.127 C 
BRANCH  14  15
HETATM   15  N   UNL     1     -44.750 -52.443  14.334  1.00  0.00    -0.352 N 
HETATM   16  C   UNL     1     -45.560 -51.422  14.945  1.00  0.00     0.126 C 
HETATM   17  C   UNL     1     -46.826 -51.380  14.116  1.00  0.00     0.029 C 
HETATM   18  C   UNL     1     -46.454 -52.014  12.782  1.00  0.00     0.104 C 
HETATM   19  C   UNL     1     -45.224 -52.825  13.085  1.00  0.00     0.219 C 
HETATM   20  O   UNL     1     -44.684 -53.598  12.308  1.00  0.00    -0.273 OA
ENDBRANCH  14  15
ENDBRANCH  13  14
ENDBRANCH  12  13
ENDBRANCH   1  12
TORSDOF 7
ENDMDL
