MODEL 1
REMARK VINA RESULT:      -6.0      0.000      0.000
REMARK  2 active torsions:
REMARK  status: ('A' for Active; 'I' for Inactive)
REMARK       I    between atoms: C_2  and  N_3 
REMARK       I    between atoms: C_2  and  N_12 
REMARK    1  A    between atoms: N_3  and  C_4 
REMARK    2  A    between atoms: N_12  and  C_13 
ROOT
HETATM    1  O   UNL     1     -41.639 -52.838  12.120  1.00  0.00    -0.247 OA
HETATM    2  C   UNL     1     -41.682 -51.610  12.101  1.00  0.00     0.322 C 
HETATM    3  N   UNL     1     -42.662 -50.897  12.717  1.00  0.00    -0.330 N 
HETATM    4  N   UNL     1     -40.774 -50.932  11.353  1.00  0.00    -0.288 N 
HETATM    5  H   UNL     1     -42.494 -49.915  12.914  1.00  0.00     0.165 HD
HETATM    6  H   UNL     1     -40.148 -51.501  10.812  1.00  0.00     0.172 HD
ENDROOT
BRANCH   3   7
HETATM    7  C   UNL     1     -43.771 -51.544  13.417  1.00  0.00     0.172 C 
HETATM    8  C   UNL     1     -45.085 -50.857  13.037  1.00  0.00     0.034 C 
HETATM    9  C   UNL     1     -46.300 -51.674  13.458  1.00  0.00     0.004 C 
HETATM   10  C   UNL     1     -46.737 -51.457  14.900  1.00  0.00     0.015 C 
HETATM   11  C   UNL     1     -45.643 -51.103  15.896  1.00  0.00     0.095 C 
HETATM   12  N   UNL     1     -44.438 -51.898  15.819  1.00  0.00    -0.261 NA
HETATM   13  C   UNL     1     -43.444 -51.575  14.924  1.00  0.00     0.220 C 
HETATM   14  H   UNL     1     -44.002 -52.028  16.724  1.00  0.00     0.130 HD
HETATM   15  O   UNL     1     -42.294 -51.456  15.355  1.00  0.00    -0.278 OA
ENDBRANCH   3   7
BRANCH   4  16
HETATM   16  C   UNL     1     -40.750 -49.582  11.167  1.00  0.00     0.168 A 
HETATM   17  N   UNL     1     -41.385 -48.853  10.279  1.00  0.00    -0.279 N 
HETATM   18  N   UNL     1     -41.054 -47.514  10.386  1.00  0.00    -0.303 N 
ATOM     19  HN  UNL     1     -42.041 -49.227   9.595  1.00  0.00     0.189 HD
HETATM   20  C   UNL     1     -40.173 -47.309  11.342  1.00  0.00     0.160 A 
ATOM     21  HN  UNL     1     -41.444 -46.778   9.797  1.00  0.00     0.186 HD
HETATM   22  S   UNL     1     -39.720 -48.715  12.216  1.00  0.00    -0.046 SA
ENDBRANCH   4  16
TORSDOF 2
ENDMDL
MODEL 2
REMARK VINA RESULT:      -5.8      3.206      6.138
REMARK  2 active torsions:
REMARK  status: ('A' for Active; 'I' for Inactive)
REMARK       I    between atoms: C_2  and  N_3 
REMARK       I    between atoms: C_2  and  N_12 
REMARK    1  A    between atoms: N_3  and  C_4 
REMARK    2  A    between atoms: N_12  and  C_13 
ROOT
HETATM    1  O   UNL     1     -38.241 -49.122  11.596  1.00  0.00    -0.247 OA
HETATM    2  C   UNL     1     -39.368 -49.613  11.577  1.00  0.00     0.322 C 
HETATM    3  N   UNL     1     -40.481 -48.893  11.272  1.00  0.00    -0.330 N 
HETATM    4  N   UNL     1     -39.530 -50.901  11.972  1.00  0.00    -0.288 N 
HETATM    5  H   UNL     1     -41.318 -49.395  10.992  1.00  0.00     0.165 HD
HETATM    6  H   UNL     1     -38.702 -51.357  12.312  1.00  0.00     0.172 HD
ENDROOT
BRANCH   3   7
HETATM    7  C   UNL     1     -40.426 -47.461  10.984  1.00  0.00     0.172 C 
HETATM    8  C   UNL     1     -40.236 -46.685  12.289  1.00  0.00     0.034 C 
HETATM    9  C   UNL     1     -39.841 -45.235  12.040  1.00  0.00     0.004 C 
HETATM   10  C   UNL     1     -41.012 -44.296  11.786  1.00  0.00     0.015 C 
HETATM   11  C   UNL     1     -42.238 -44.903  11.120  1.00  0.00     0.095 C 
HETATM   12  N   UNL     1     -41.980 -45.754   9.980  1.00  0.00    -0.261 NA
HETATM   13  C   UNL     1     -41.671 -47.083  10.156  1.00  0.00     0.220 C 
HETATM   14  H   UNL     1     -42.715 -45.702   9.284  1.00  0.00     0.130 HD
HETATM   15  O   UNL     1     -42.327 -47.918   9.526  1.00  0.00    -0.278 OA
ENDBRANCH   3   7
BRANCH   4  16
HETATM   16  C   UNL     1     -40.723 -51.552  12.085  1.00  0.00     0.168 A 
HETATM   17  N   UNL     1     -41.345 -52.308  11.211  1.00  0.00    -0.279 N 
HETATM   18  N   UNL     1     -42.566 -52.746  11.690  1.00  0.00    -0.303 N 
ATOM     19  HN  UNL     1     -40.973 -52.544  10.291  1.00  0.00     0.189 HD
HETATM   20  C   UNL     1     -42.806 -52.282  12.898  1.00  0.00     0.160 A 
ATOM     21  HN  UNL     1     -43.201 -53.353  11.172  1.00  0.00     0.186 HD
HETATM   22  S   UNL     1     -41.546 -51.323  13.563  1.00  0.00    -0.046 SA
ENDBRANCH   4  16
TORSDOF 2
ENDMDL
MODEL 3
REMARK VINA RESULT:      -5.8      2.341      2.743
REMARK  2 active torsions:
REMARK  status: ('A' for Active; 'I' for Inactive)
REMARK       I    between atoms: C_2  and  N_3 
REMARK       I    between atoms: C_2  and  N_12 
REMARK    1  A    between atoms: N_3  and  C_4 
REMARK    2  A    between atoms: N_12  and  C_13 
ROOT
HETATM    1  O   UNL     1     -44.580 -54.073  12.155  1.00  0.00    -0.247 OA
HETATM    2  C   UNL     1     -43.804 -53.210  12.561  1.00  0.00     0.322 C 
HETATM    3  N   UNL     1     -44.019 -52.501  13.701  1.00  0.00    -0.330 N 
HETATM    4  N   UNL     1     -42.736 -52.874  11.793  1.00  0.00    -0.288 N 
HETATM    5  H   UNL     1     -43.231 -52.027  14.131  1.00  0.00     0.165 HD
HETATM    6  H   UNL     1     -42.685 -53.330  10.900  1.00  0.00     0.172 HD
ENDROOT
BRANCH   3   7
HETATM    7  C   UNL     1     -45.221 -52.683  14.514  1.00  0.00     0.172 C 
HETATM    8  C   UNL     1     -45.791 -51.314  14.895  1.00  0.00     0.034 C 
HETATM    9  C   UNL     1     -47.206 -51.419  15.450  1.00  0.00     0.004 C 
HETATM   10  C   UNL     1     -47.278 -51.735  16.937  1.00  0.00     0.015 C 
HETATM   11  C   UNL     1     -46.144 -52.571  17.511  1.00  0.00     0.095 C 
HETATM   12  N   UNL     1     -45.763 -53.732  16.738  1.00  0.00    -0.261 NA
HETATM   13  C   UNL     1     -44.875 -53.614  15.693  1.00  0.00     0.220 C 
HETATM   14  H   UNL     1     -45.448 -54.498  17.321  1.00  0.00     0.130 HD
HETATM   15  O   UNL     1     -43.897 -54.368  15.678  1.00  0.00    -0.278 OA
ENDBRANCH   3   7
BRANCH   4  16
HETATM   16  C   UNL     1     -41.843 -51.883  12.069  1.00  0.00     0.168 A 
HETATM   17  N   UNL     1     -41.875 -50.614  11.730  1.00  0.00    -0.279 N 
HETATM   18  N   UNL     1     -40.747 -49.940  12.161  1.00  0.00    -0.303 N 
ATOM     19  HN  UNL     1     -42.639 -50.180  11.213  1.00  0.00     0.189 HD
HETATM   20  C   UNL     1     -39.915 -50.743  12.790  1.00  0.00     0.160 A 
ATOM     21  HN  UNL     1     -40.581 -48.945  12.010  1.00  0.00     0.186 HD
HETATM   22  S   UNL     1     -40.463 -52.363  12.950  1.00  0.00    -0.046 SA
ENDBRANCH   4  16
TORSDOF 2
ENDMDL
MODEL 4
REMARK VINA RESULT:      -5.7      2.894      3.959
REMARK  2 active torsions:
REMARK  status: ('A' for Active; 'I' for Inactive)
REMARK       I    between atoms: C_2  and  N_3 
REMARK       I    between atoms: C_2  and  N_12 
REMARK    1  A    between atoms: N_3  and  C_4 
REMARK    2  A    between atoms: N_12  and  C_13 
ROOT
HETATM    1  O   UNL     1     -42.225 -48.208  13.395  1.00  0.00    -0.247 OA
HETATM    2  C   UNL     1     -42.585 -48.509  12.259  1.00  0.00     0.322 C 
HETATM    3  N   UNL     1     -42.690 -49.797  11.836  1.00  0.00    -0.330 N 
HETATM    4  N   UNL     1     -42.794 -47.520  11.353  1.00  0.00    -0.288 N 
HETATM    5  H   UNL     1     -43.255 -49.990  11.014  1.00  0.00     0.165 HD
HETATM    6  H   UNL     1     -42.581 -46.591  11.670  1.00  0.00     0.172 HD
ENDROOT
BRANCH   3   7
HETATM    7  C   UNL     1     -42.337 -50.928  12.692  1.00  0.00     0.172 C 
HETATM    8  C   UNL     1     -41.420 -51.883  11.924  1.00  0.00     0.034 C 
HETATM    9  C   UNL     1     -40.751 -52.896  12.844  1.00  0.00     0.004 C 
HETATM   10  C   UNL     1     -41.592 -54.129  13.142  1.00  0.00     0.015 C 
HETATM   11  C   UNL     1     -43.101 -53.937  13.148  1.00  0.00     0.095 C 
HETATM   12  N   UNL     1     -43.586 -52.776  13.860  1.00  0.00    -0.261 NA
HETATM   13  C   UNL     1     -43.638 -51.548  13.240  1.00  0.00     0.220 C 
HETATM   14  H   UNL     1     -44.488 -52.937  14.293  1.00  0.00     0.130 HD
HETATM   15  O   UNL     1     -44.706 -50.929  13.272  1.00  0.00    -0.278 OA
ENDBRANCH   3   7
BRANCH   4  16
HETATM   16  C   UNL     1     -43.111 -47.702  10.040  1.00  0.00     0.168 A 
HETATM   17  N   UNL     1     -42.335 -48.032   9.034  1.00  0.00    -0.279 N 
HETATM   18  N   UNL     1     -43.032 -48.068   7.840  1.00  0.00    -0.303 N 
ATOM     19  HN  UNL     1     -41.340 -48.237   9.122  1.00  0.00     0.189 HD
HETATM   20  C   UNL     1     -44.297 -47.746   8.009  1.00  0.00     0.160 A 
ATOM     21  HN  UNL     1     -42.617 -48.312   6.941  1.00  0.00     0.186 HD
HETATM   22  S   UNL     1     -44.747 -47.429   9.636  1.00  0.00    -0.046 SA
ENDBRANCH   4  16
TORSDOF 2
ENDMDL
MODEL 5
REMARK VINA RESULT:      -5.7      3.627      4.558
REMARK  2 active torsions:
REMARK  status: ('A' for Active; 'I' for Inactive)
REMARK       I    between atoms: C_2  and  N_3 
REMARK       I    between atoms: C_2  and  N_12 
REMARK    1  A    between atoms: N_3  and  C_4 
REMARK    2  A    between atoms: N_12  and  C_13 
ROOT
HETATM    1  O   UNL     1     -46.451 -54.974  14.756  1.00  0.00    -0.247 OA
HETATM    2  C   UNL     1     -45.479 -54.273  14.484  1.00  0.00     0.322 C 
HETATM    3  N   UNL     1     -45.167 -53.145  15.176  1.00  0.00    -0.330 N 
HETATM    4  N   UNL     1     -44.737 -54.575  13.389  1.00  0.00    -0.288 N 
HETATM    5  H   UNL     1     -44.223 -52.778  15.102  1.00  0.00     0.165 HD
HETATM    6  H   UNL     1     -45.076 -55.340  12.833  1.00  0.00     0.172 HD
ENDROOT
BRANCH   3   7
HETATM    7  C   UNL     1     -45.996 -52.652  16.275  1.00  0.00     0.172 C 
HETATM    8  C   UNL     1     -46.923 -51.548  15.761  1.00  0.00     0.034 C 
HETATM    9  C   UNL     1     -48.032 -51.224  16.754  1.00  0.00     0.004 C 
HETATM   10  C   UNL     1     -47.638 -50.229  17.837  1.00  0.00     0.015 C 
HETATM   11  C   UNL     1     -46.177 -50.230  18.261  1.00  0.00     0.095 C 
HETATM   12  N   UNL     1     -45.588 -51.530  18.491  1.00  0.00    -0.261 NA
HETATM   13  C   UNL     1     -45.071 -52.258  17.444  1.00  0.00     0.220 C 
HETATM   14  H   UNL     1     -44.888 -51.513  19.225  1.00  0.00     0.130 HD
HETATM   15  O   UNL     1     -43.918 -52.684  17.549  1.00  0.00    -0.278 OA
ENDBRANCH   3   7
BRANCH   4  16
HETATM   16  C   UNL     1     -43.687 -53.845  12.916  1.00  0.00     0.168 A 
HETATM   17  N   UNL     1     -43.662 -52.946  11.959  1.00  0.00    -0.279 N 
HETATM   18  N   UNL     1     -42.385 -52.465  11.743  1.00  0.00    -0.303 N 
ATOM     19  HN  UNL     1     -44.485 -52.641  11.439  1.00  0.00     0.189 HD
HETATM   20  C   UNL     1     -41.510 -53.039  12.541  1.00  0.00     0.160 A 
ATOM     21  HN  UNL     1     -42.149 -51.753  11.051  1.00  0.00     0.186 HD
HETATM   22  S   UNL     1     -42.180 -54.167  13.648  1.00  0.00    -0.046 SA
ENDBRANCH   4  16
TORSDOF 2
ENDMDL
MODEL 6
REMARK VINA RESULT:      -5.7      1.696      2.382
REMARK  2 active torsions:
REMARK  status: ('A' for Active; 'I' for Inactive)
REMARK       I    between atoms: C_2  and  N_3 
REMARK       I    between atoms: C_2  and  N_12 
REMARK    1  A    between atoms: N_3  and  C_4 
REMARK    2  A    between atoms: N_12  and  C_13 
ROOT
HETATM    1  O   UNL     1     -42.681 -52.510  14.694  1.00  0.00    -0.247 OA
HETATM    2  C   UNL     1     -42.530 -51.717  13.767  1.00  0.00     0.322 C 
HETATM    3  N   UNL     1     -43.569 -51.218  13.046  1.00  0.00    -0.330 N 
HETATM    4  N   UNL     1     -41.270 -51.395  13.377  1.00  0.00    -0.288 N 
HETATM    5  H   UNL     1     -43.419 -50.372  12.506  1.00  0.00     0.165 HD
HETATM    6  H   UNL     1     -40.532 -51.884  13.852  1.00  0.00     0.172 HD
ENDROOT
BRANCH   3   7
HETATM    7  C   UNL     1     -44.952 -51.626  13.291  1.00  0.00     0.172 C 
HETATM    8  C   UNL     1     -45.329 -51.308  14.740  1.00  0.00     0.034 C 
HETATM    9  C   UNL     1     -46.833 -51.394  14.971  1.00  0.00     0.004 C 
HETATM   10  C   UNL     1     -47.346 -52.796  15.266  1.00  0.00     0.015 C 
HETATM   11  C   UNL     1     -46.580 -53.948  14.632  1.00  0.00     0.095 C 
HETATM   12  N   UNL     1     -46.240 -53.787  13.236  1.00  0.00    -0.261 NA
HETATM   13  C   UNL     1     -45.107 -53.100  12.868  1.00  0.00     0.220 C 
HETATM   14  H   UNL     1     -46.239 -54.668  12.734  1.00  0.00     0.130 HD
HETATM   15  O   UNL     1     -44.321 -53.654  12.093  1.00  0.00    -0.278 OA
ENDBRANCH   3   7
BRANCH   4  16
HETATM   16  C   UNL     1     -40.947 -50.601  12.318  1.00  0.00     0.168 A 
HETATM   17  N   UNL     1     -40.736 -50.929  11.064  1.00  0.00    -0.279 N 
HETATM   18  N   UNL     1     -40.378 -49.834  10.301  1.00  0.00    -0.303 N 
ATOM     19  HN  UNL     1     -40.825 -51.877  10.699  1.00  0.00     0.189 HD
HETATM   20  C   UNL     1     -40.324 -48.737  11.026  1.00  0.00     0.160 A 
ATOM     21  HN  UNL     1     -40.181 -49.871   9.301  1.00  0.00     0.186 HD
HETATM   22  S   UNL     1     -40.752 -48.944  12.676  1.00  0.00    -0.046 SA
ENDBRANCH   4  16
TORSDOF 2
ENDMDL
MODEL 7
REMARK VINA RESULT:      -5.4      1.955      2.257
REMARK  2 active torsions:
REMARK  status: ('A' for Active; 'I' for Inactive)
REMARK       I    between atoms: C_2  and  N_3 
REMARK       I    between atoms: C_2  and  N_12 
REMARK    1  A    between atoms: N_3  and  C_4 
REMARK    2  A    between atoms: N_12  and  C_13 
ROOT
HETATM    1  O   UNL     1     -40.555 -53.729  14.332  1.00  0.00    -0.247 OA
HETATM    2  C   UNL     1     -40.935 -52.725  13.733  1.00  0.00     0.322 C 
HETATM    3  N   UNL     1     -42.234 -52.327  13.710  1.00  0.00    -0.330 N 
HETATM    4  N   UNL     1     -40.042 -52.034  12.979  1.00  0.00    -0.288 N 
HETATM    5  H   UNL     1     -42.440 -51.365  13.458  1.00  0.00     0.165 HD
HETATM    6  H   UNL     1     -39.123 -52.434  12.921  1.00  0.00     0.172 HD
ENDROOT
BRANCH   3   7
HETATM    7  C   UNL     1     -43.294 -53.093  14.364  1.00  0.00     0.172 C 
HETATM    8  C   UNL     1     -43.949 -54.030  13.347  1.00  0.00     0.034 C 
HETATM    9  C   UNL     1     -44.822 -55.083  14.018  1.00  0.00     0.004 C 
HETATM   10  C   UNL     1     -46.238 -54.622  14.333  1.00  0.00     0.015 C 
HETATM   11  C   UNL     1     -46.420 -53.142  14.633  1.00  0.00     0.095 C 
HETATM   12  N   UNL     1     -45.456 -52.558  15.539  1.00  0.00    -0.261 NA
HETATM   13  C   UNL     1     -44.244 -52.105  15.072  1.00  0.00     0.220 C 
HETATM   14  H   UNL     1     -45.857 -51.823  16.109  1.00  0.00     0.130 HD
HETATM   15  O   UNL     1     -43.907 -50.953  15.361  1.00  0.00    -0.278 OA
ENDBRANCH   3   7
BRANCH   4  16
HETATM   16  C   UNL     1     -40.333 -50.957  12.195  1.00  0.00     0.168 A 
HETATM   17  N   UNL     1     -40.706 -50.919  10.937  1.00  0.00    -0.279 N 
HETATM   18  N   UNL     1     -40.856 -49.621  10.486  1.00  0.00    -0.303 N 
ATOM     19  HN  UNL     1     -40.866 -51.747  10.363  1.00  0.00     0.189 HD
HETATM   20  C   UNL     1     -40.572 -48.747  11.428  1.00  0.00     0.160 A 
ATOM     21  HN  UNL     1     -41.149 -49.372   9.542  1.00  0.00     0.186 HD
HETATM   22  S   UNL     1     -40.152 -49.434  12.944  1.00  0.00    -0.046 SA
ENDBRANCH   4  16
TORSDOF 2
ENDMDL
MODEL 8
REMARK VINA RESULT:      -5.4      2.971      4.201
REMARK  2 active torsions:
REMARK  status: ('A' for Active; 'I' for Inactive)
REMARK       I    between atoms: C_2  and  N_3 
REMARK       I    between atoms: C_2  and  N_12 
REMARK    1  A    between atoms: N_3  and  C_4 
REMARK    2  A    between atoms: N_12  and  C_13 
ROOT
HETATM    1  O   UNL     1     -42.240 -50.195  13.258  1.00  0.00    -0.247 OA
HETATM    2  C   UNL     1     -41.876 -51.358  13.414  1.00  0.00     0.322 C 
HETATM    3  N   UNL     1     -42.748 -52.385  13.599  1.00  0.00    -0.330 N 
HETATM    4  N   UNL     1     -40.548 -51.624  13.505  1.00  0.00    -0.288 N 
HETATM    5  H   UNL     1     -42.420 -53.332  13.434  1.00  0.00     0.165 HD
HETATM    6  H   UNL     1     -39.944 -50.822  13.492  1.00  0.00     0.172 HD
ENDROOT
BRANCH   3   7
HETATM    7  C   UNL     1     -44.193 -52.175  13.672  1.00  0.00     0.172 C 
HETATM    8  C   UNL     1     -44.586 -51.821  15.108  1.00  0.00     0.034 C 
HETATM    9  C   UNL     1     -46.004 -51.269  15.193  1.00  0.00     0.004 C 
HETATM   10  C   UNL     1     -47.090 -52.332  15.280  1.00  0.00     0.015 C 
HETATM   11  C   UNL     1     -46.801 -53.657  14.590  1.00  0.00     0.095 C 
HETATM   12  N   UNL     1     -46.249 -53.567  13.257  1.00  0.00    -0.261 NA
HETATM   13  C   UNL     1     -44.895 -53.410  13.071  1.00  0.00     0.220 C 
HETATM   14  H   UNL     1     -46.552 -54.329  12.661  1.00  0.00     0.130 HD
HETATM   15  O   UNL     1     -44.320 -54.196  12.313  1.00  0.00    -0.278 OA
ENDBRANCH   3   7
BRANCH   4  16
HETATM   16  C   UNL     1     -40.000 -52.845  13.762  1.00  0.00     0.168 A 
HETATM   17  N   UNL     1     -39.843 -53.873  12.960  1.00  0.00    -0.279 N 
HETATM   18  N   UNL     1     -39.287 -54.955  13.617  1.00  0.00    -0.303 N 
ATOM     19  HN  UNL     1     -40.099 -53.873  11.973  1.00  0.00     0.189 HD
HETATM   20  C   UNL     1     -39.069 -54.689  14.888  1.00  0.00     0.160 A 
ATOM     21  HN  UNL     1     -39.074 -55.848  13.173  1.00  0.00     0.186 HD
HETATM   22  S   UNL     1     -39.473 -53.090  15.367  1.00  0.00    -0.046 SA
ENDBRANCH   4  16
TORSDOF 2
ENDMDL
MODEL 9
REMARK VINA RESULT:      -5.3      2.198      2.726
REMARK  2 active torsions:
REMARK  status: ('A' for Active; 'I' for Inactive)
REMARK       I    between atoms: C_2  and  N_3 
REMARK       I    between atoms: C_2  and  N_12 
REMARK    1  A    between atoms: N_3  and  C_4 
REMARK    2  A    between atoms: N_12  and  C_13 
ROOT
HETATM    1  O   UNL     1     -39.910 -50.498  11.795  1.00  0.00    -0.247 OA
HETATM    2  C   UNL     1     -40.931 -49.874  11.514  1.00  0.00     0.322 C 
HETATM    3  N   UNL     1     -42.148 -50.175  12.041  1.00  0.00    -0.330 N 
HETATM    4  N   UNL     1     -40.869 -48.906  10.564  1.00  0.00    -0.288 N 
HETATM    5  H   UNL     1     -42.877 -49.470  12.005  1.00  0.00     0.165 HD
HETATM    6  H   UNL     1     -39.980 -48.803  10.109  1.00  0.00     0.172 HD
ENDROOT
BRANCH   3   7
HETATM    7  C   UNL     1     -42.343 -51.300  12.954  1.00  0.00     0.172 C 
HETATM    8  C   UNL     1     -42.642 -52.566  12.148  1.00  0.00     0.034 C 
HETATM    9  C   UNL     1     -42.528 -53.826  12.998  1.00  0.00     0.004 C 
HETATM   10  C   UNL     1     -43.783 -54.170  13.787  1.00  0.00     0.015 C 
HETATM   11  C   UNL     1     -44.652 -53.001  14.226  1.00  0.00     0.095 C 
HETATM   12  N   UNL     1     -43.952 -51.875  14.802  1.00  0.00    -0.261 NA
HETATM   13  C   UNL     1     -43.409 -50.903  13.995  1.00  0.00     0.220 C 
HETATM   14  H   UNL     1     -44.495 -51.408  15.519  1.00  0.00     0.130 HD
HETATM   15  O   UNL     1     -43.697 -49.726  14.232  1.00  0.00    -0.278 OA
ENDBRANCH   3   7
BRANCH   4  16
HETATM   16  C   UNL     1     -41.929 -48.193  10.089  1.00  0.00     0.168 A 
HETATM   17  N   UNL     1     -42.601 -48.346   8.971  1.00  0.00    -0.279 N 
HETATM   18  N   UNL     1     -43.582 -47.381   8.828  1.00  0.00    -0.303 N 
ATOM     19  HN  UNL     1     -42.422 -49.085   8.292  1.00  0.00     0.189 HD
HETATM   20  C   UNL     1     -43.586 -46.542   9.842  1.00  0.00     0.160 A 
ATOM     21  HN  UNL     1     -44.222 -47.327   8.036  1.00  0.00     0.186 HD
HETATM   22  S   UNL     1     -42.435 -46.890  11.068  1.00  0.00    -0.046 SA
ENDBRANCH   4  16
TORSDOF 2
ENDMDL
