MODEL 1
REMARK VINA RESULT:      -4.6      0.000      0.000
REMARK  3 active torsions:
REMARK  status: ('A' for Active; 'I' for Inactive)
REMARK       I    between atoms: N_1  and  C_2 
REMARK    1  A    between atoms: C_2  and  C_4 
REMARK    2  A    between atoms: C_4  and  N_5 
REMARK    3  A    between atoms: C_7  and  N_8 
ROOT
HETATM    1  N   UNL     1     -42.705 -47.661   9.709  1.00  0.00    -0.293 N 
HETATM    2  C   UNL     1     -43.933 -47.148  10.024  1.00  0.00     0.141 A 
HETATM    3  C   UNL     1     -44.671 -47.222   8.875  1.00  0.00     0.060 A 
HETATM    4  C   UNL     1     -43.822 -47.806   7.919  1.00  0.00     0.137 A 
HETATM    5  N   UNL     1     -42.616 -48.085   8.422  1.00  0.00    -0.307 N 
ATOM      6  HN  UNL     1     -41.819 -48.514   7.953  1.00  0.00     0.186 HD
ENDROOT
BRANCH   1   7
HETATM    7  C   UNL     1     -41.562 -47.797  10.597  1.00  0.00     0.250 C 
BRANCH   7   8
HETATM    8  C   UNL     1     -41.327 -49.216  11.071  1.00  0.00     0.235 C 
HETATM    9  N   UNL     1     -40.384 -49.954  10.418  1.00  0.00    -0.369 N 
HETATM   10  H   UNL     1     -40.202 -50.904  10.708  1.00  0.00     0.159 HD
HETATM   11  H   UNL     1     -39.802 -49.529   9.695  1.00  0.00     0.159 HD
HETATM   12  O   UNL     1     -42.008 -49.731  11.958  1.00  0.00    -0.272 OA
ENDBRANCH   7   8
ENDBRANCH   1   7
BRANCH   3  13
HETATM   13  N   UNL     1     -45.936 -46.814   8.730  1.00  0.00    -0.397 N 
HETATM   14  H   UNL     1     -46.201 -46.069   8.094  1.00  0.00     0.156 HD
HETATM   15  H   UNL     1     -46.720 -47.286   9.168  1.00  0.00     0.156 HD
ENDBRANCH   3  13
TORSDOF 3
ENDMDL
MODEL 2
REMARK VINA RESULT:      -4.4      2.296      2.353
REMARK  3 active torsions:
REMARK  status: ('A' for Active; 'I' for Inactive)
REMARK       I    between atoms: N_1  and  C_2 
REMARK    1  A    between atoms: C_2  and  C_4 
REMARK    2  A    between atoms: C_4  and  N_5 
REMARK    3  A    between atoms: C_7  and  N_8 
ROOT
HETATM    1  N   UNL     1     -43.275 -47.139   9.816  1.00  0.00    -0.293 N 
HETATM    2  C   UNL     1     -44.611 -47.426   9.862  1.00  0.00     0.141 A 
HETATM    3  C   UNL     1     -44.947 -47.823   8.597  1.00  0.00     0.060 A 
HETATM    4  C   UNL     1     -43.756 -47.765   7.854  1.00  0.00     0.137 A 
HETATM    5  N   UNL     1     -42.722 -47.353   8.595  1.00  0.00    -0.307 N 
ATOM      6  HN  UNL     1     -41.750 -47.228   8.311  1.00  0.00     0.186 HD
ENDROOT
BRANCH   1   7
HETATM    7  C   UNL     1     -42.445 -46.671  10.915  1.00  0.00     0.250 C 
BRANCH   7   8
HETATM    8  C   UNL     1     -41.136 -46.053  10.467  1.00  0.00     0.235 C 
HETATM    9  N   UNL     1     -39.993 -46.763  10.687  1.00  0.00    -0.369 N 
HETATM   10  H   UNL     1     -39.103 -46.381  10.401  1.00  0.00     0.159 HD
HETATM   11  H   UNL     1     -40.035 -47.712  11.060  1.00  0.00     0.159 HD
HETATM   12  O   UNL     1     -41.076 -44.918   9.995  1.00  0.00    -0.272 OA
ENDBRANCH   7   8
ENDBRANCH   1   7
BRANCH   3  13
HETATM   13  N   UNL     1     -46.168 -48.185   8.189  1.00  0.00    -0.397 N 
HETATM   14  H   UNL     1     -46.339 -48.611   7.284  1.00  0.00     0.156 HD
HETATM   15  H   UNL     1     -46.983 -48.149   8.793  1.00  0.00     0.156 HD
ENDBRANCH   3  13
TORSDOF 3
ENDMDL
MODEL 3
REMARK VINA RESULT:      -4.2      5.187      5.861
REMARK  3 active torsions:
REMARK  status: ('A' for Active; 'I' for Inactive)
REMARK       I    between atoms: N_1  and  C_2 
REMARK    1  A    between atoms: C_2  and  C_4 
REMARK    2  A    between atoms: C_4  and  N_5 
REMARK    3  A    between atoms: C_7  and  N_8 
ROOT
HETATM    1  N   UNL     1     -39.786 -51.160  12.521  1.00  0.00    -0.293 N 
HETATM    2  C   UNL     1     -40.957 -51.155  11.815  1.00  0.00     0.141 A 
HETATM    3  C   UNL     1     -41.626 -52.284  12.200  1.00  0.00     0.060 A 
HETATM    4  C   UNL     1     -40.799 -52.906  13.152  1.00  0.00     0.137 A 
HETATM    5  N   UNL     1     -39.670 -52.220  13.361  1.00  0.00    -0.307 N 
ATOM      6  HN  UNL     1     -38.905 -52.441  13.998  1.00  0.00     0.186 HD
ENDROOT
BRANCH   1   7
HETATM    7  C   UNL     1     -38.726 -50.165  12.460  1.00  0.00     0.250 C 
BRANCH   7   8
HETATM    8  C   UNL     1     -37.494 -50.636  11.716  1.00  0.00     0.235 C 
HETATM    9  N   UNL     1     -37.214 -50.046  10.519  1.00  0.00    -0.369 N 
HETATM   10  H   UNL     1     -36.399 -50.335   9.996  1.00  0.00     0.159 HD
HETATM   11  H   UNL     1     -37.770 -49.258  10.186  1.00  0.00     0.159 HD
HETATM   12  O   UNL     1     -36.803 -51.571  12.119  1.00  0.00    -0.272 OA
ENDBRANCH   7   8
ENDBRANCH   1   7
BRANCH   3  13
HETATM   13  N   UNL     1     -42.818 -52.682  11.744  1.00  0.00    -0.397 N 
HETATM   14  H   UNL     1     -42.920 -53.293  10.940  1.00  0.00     0.156 HD
HETATM   15  H   UNL     1     -43.687 -52.480  12.227  1.00  0.00     0.156 HD
ENDBRANCH   3  13
TORSDOF 3
ENDMDL
MODEL 4
REMARK VINA RESULT:      -4.2      5.664      6.691
REMARK  3 active torsions:
REMARK  status: ('A' for Active; 'I' for Inactive)
REMARK       I    between atoms: N_1  and  C_2 
REMARK    1  A    between atoms: C_2  and  C_4 
REMARK    2  A    between atoms: C_4  and  N_5 
REMARK    3  A    between atoms: C_7  and  N_8 
ROOT
HETATM    1  N   UNL     1     -43.716 -53.594  13.190  1.00  0.00    -0.293 N 
HETATM    2  C   UNL     1     -44.393 -54.470  13.992  1.00  0.00     0.141 A 
HETATM    3  C   UNL     1     -45.718 -54.174  13.827  1.00  0.00     0.060 A 
HETATM    4  C   UNL     1     -45.756 -53.120  12.899  1.00  0.00     0.137 A 
HETATM    5  N   UNL     1     -44.533 -52.761  12.496  1.00  0.00    -0.307 N 
ATOM      6  HN  UNL     1     -44.275 -52.035  11.828  1.00  0.00     0.186 HD
ENDROOT
BRANCH   1   7
HETATM    7  C   UNL     1     -42.275 -53.504  13.018  1.00  0.00     0.250 C 
BRANCH   7   8
HETATM    8  C   UNL     1     -41.835 -52.316  12.186  1.00  0.00     0.235 C 
HETATM    9  N   UNL     1     -41.113 -52.566  11.057  1.00  0.00    -0.369 N 
HETATM   10  H   UNL     1     -40.804 -51.798  10.479  1.00  0.00     0.159 HD
HETATM   11  H   UNL     1     -40.954 -53.525  10.744  1.00  0.00     0.159 HD
HETATM   12  O   UNL     1     -42.041 -51.156  12.542  1.00  0.00    -0.272 OA
ENDBRANCH   7   8
ENDBRANCH   1   7
BRANCH   3  13
HETATM   13  N   UNL     1     -46.739 -54.784  14.440  1.00  0.00    -0.397 N 
HETATM   14  H   UNL     1     -47.630 -54.327  14.604  1.00  0.00     0.156 HD
HETATM   15  H   UNL     1     -46.721 -55.766  14.690  1.00  0.00     0.156 HD
ENDBRANCH   3  13
TORSDOF 3
ENDMDL
MODEL 5
REMARK VINA RESULT:      -4.1      2.271      4.205
REMARK  3 active torsions:
REMARK  status: ('A' for Active; 'I' for Inactive)
REMARK       I    between atoms: N_1  and  C_2 
REMARK    1  A    between atoms: C_2  and  C_4 
REMARK    2  A    between atoms: C_4  and  N_5 
REMARK    3  A    between atoms: C_7  and  N_8 
ROOT
HETATM    1  N   UNL     1     -42.377 -47.027   9.874  1.00  0.00    -0.293 N 
HETATM    2  C   UNL     1     -41.848 -46.296  10.901  1.00  0.00     0.141 A 
HETATM    3  C   UNL     1     -40.996 -47.141  11.556  1.00  0.00     0.060 A 
HETATM    4  C   UNL     1     -41.054 -48.356  10.852  1.00  0.00     0.137 A 
HETATM    5  N   UNL     1     -41.894 -48.294   9.814  1.00  0.00    -0.307 N 
ATOM      6  HN  UNL     1     -42.119 -49.025   9.139  1.00  0.00     0.186 HD
ENDROOT
BRANCH   1   7
HETATM    7  C   UNL     1     -43.344 -46.573   8.887  1.00  0.00     0.250 C 
BRANCH   7   8
HETATM    8  C   UNL     1     -43.902 -47.688   8.026  1.00  0.00     0.235 C 
HETATM    9  N   UNL     1     -45.186 -48.083   8.256  1.00  0.00    -0.369 N 
HETATM   10  H   UNL     1     -45.590 -48.823   7.700  1.00  0.00     0.159 HD
HETATM   11  H   UNL     1     -45.771 -47.582   8.925  1.00  0.00     0.159 HD
HETATM   12  O   UNL     1     -43.212 -48.284   7.199  1.00  0.00    -0.272 OA
ENDBRANCH   7   8
ENDBRANCH   1   7
BRANCH   3  13
HETATM   13  N   UNL     1     -40.272 -46.838  12.639  1.00  0.00    -0.397 N 
HETATM   14  H   UNL     1     -39.294 -47.092  12.732  1.00  0.00     0.156 HD
HETATM   15  H   UNL     1     -40.624 -46.252  13.389  1.00  0.00     0.156 HD
ENDBRANCH   3  13
TORSDOF 3
ENDMDL
MODEL 6
REMARK VINA RESULT:      -4.1      6.030      7.641
REMARK  3 active torsions:
REMARK  status: ('A' for Active; 'I' for Inactive)
REMARK       I    between atoms: N_1  and  C_2 
REMARK    1  A    between atoms: C_2  and  C_4 
REMARK    2  A    between atoms: C_4  and  N_5 
REMARK    3  A    between atoms: C_7  and  N_8 
ROOT
HETATM    1  N   UNL     1     -43.459 -53.418  13.798  1.00  0.00    -0.293 N 
HETATM    2  C   UNL     1     -43.156 -52.599  12.745  1.00  0.00     0.141 A 
HETATM    3  C   UNL     1     -41.929 -53.008  12.300  1.00  0.00     0.060 A 
HETATM    4  C   UNL     1     -41.569 -54.087  13.126  1.00  0.00     0.137 A 
HETATM    5  N   UNL     1     -42.504 -54.350  14.044  1.00  0.00    -0.307 N 
ATOM      6  HN  UNL     1     -42.501 -55.078  14.759  1.00  0.00     0.186 HD
ENDROOT
BRANCH   1   7
HETATM    7  C   UNL     1     -44.663 -53.381  14.613  1.00  0.00     0.250 C 
BRANCH   7   8
HETATM    8  C   UNL     1     -45.662 -54.467  14.270  1.00  0.00     0.235 C 
HETATM    9  N   UNL     1     -46.987 -54.156  14.350  1.00  0.00    -0.369 N 
HETATM   10  H   UNL     1     -47.681 -54.856  14.128  1.00  0.00     0.159 HD
HETATM   11  H   UNL     1     -47.285 -53.200  14.549  1.00  0.00     0.159 HD
HETATM   12  O   UNL     1     -45.313 -55.618  14.006  1.00  0.00    -0.272 OA
ENDBRANCH   7   8
ENDBRANCH   1   7
BRANCH   3  13
HETATM   13  N   UNL     1     -41.245 -52.468  11.285  1.00  0.00    -0.397 N 
HETATM   14  H   UNL     1     -41.281 -51.478  11.067  1.00  0.00     0.156 HD
HETATM   15  H   UNL     1     -40.574 -52.993  10.735  1.00  0.00     0.156 HD
ENDBRANCH   3  13
TORSDOF 3
ENDMDL
MODEL 7
REMARK VINA RESULT:      -4.1      2.788      3.722
REMARK  3 active torsions:
REMARK  status: ('A' for Active; 'I' for Inactive)
REMARK       I    between atoms: N_1  and  C_2 
REMARK    1  A    between atoms: C_2  and  C_4 
REMARK    2  A    between atoms: C_4  and  N_5 
REMARK    3  A    between atoms: C_7  and  N_8 
ROOT
HETATM    1  N   UNL     1     -41.032 -49.500  11.809  1.00  0.00    -0.293 N 
HETATM    2  C   UNL     1     -40.162 -48.463  11.614  1.00  0.00     0.141 A 
HETATM    3  C   UNL     1     -40.844 -47.543  10.868  1.00  0.00     0.060 A 
HETATM    4  C   UNL     1     -42.123 -48.091  10.670  1.00  0.00     0.137 A 
HETATM    5  N   UNL     1     -42.251 -49.289  11.250  1.00  0.00    -0.307 N 
ATOM      6  HN  UNL     1     -43.068 -49.899  11.267  1.00  0.00     0.186 HD
ENDROOT
BRANCH   1   7
HETATM    7  C   UNL     1     -40.776 -50.728  12.544  1.00  0.00     0.250 C 
BRANCH   7   8
HETATM    8  C   UNL     1     -41.657 -51.885  12.119  1.00  0.00     0.235 C 
HETATM    9  N   UNL     1     -41.175 -52.731  11.165  1.00  0.00    -0.369 N 
HETATM   10  H   UNL     1     -41.736 -53.514  10.859  1.00  0.00     0.159 HD
HETATM   11  H   UNL     1     -40.220 -52.633  10.819  1.00  0.00     0.159 HD
HETATM   12  O   UNL     1     -42.802 -52.027  12.548  1.00  0.00    -0.272 OA
ENDBRANCH   7   8
ENDBRANCH   1   7
BRANCH   3  13
HETATM   13  N   UNL     1     -40.361 -46.373  10.435  1.00  0.00    -0.397 N 
HETATM   14  H   UNL     1     -40.294 -46.140   9.450  1.00  0.00     0.156 HD
HETATM   15  H   UNL     1     -40.126 -45.610  11.061  1.00  0.00     0.156 HD
ENDBRANCH   3  13
TORSDOF 3
ENDMDL
MODEL 8
REMARK VINA RESULT:      -4.1      1.727      1.937
REMARK  3 active torsions:
REMARK  status: ('A' for Active; 'I' for Inactive)
REMARK       I    between atoms: N_1  and  C_2 
REMARK    1  A    between atoms: C_2  and  C_4 
REMARK    2  A    between atoms: C_4  and  N_5 
REMARK    3  A    between atoms: C_7  and  N_8 
ROOT
HETATM    1  N   UNL     1     -41.285 -47.610  10.780  1.00  0.00    -0.293 N 
HETATM    2  C   UNL     1     -41.898 -46.395  10.911  1.00  0.00     0.141 A 
HETATM    3  C   UNL     1     -42.879 -46.372   9.958  1.00  0.00     0.060 A 
HETATM    4  C   UNL     1     -42.803 -47.615   9.307  1.00  0.00     0.137 A 
HETATM    5  N   UNL     1     -41.832 -48.385   9.809  1.00  0.00    -0.307 N 
ATOM      6  HN  UNL     1     -41.565 -49.329   9.529  1.00  0.00     0.186 HD
ENDROOT
BRANCH   1   7
HETATM    7  C   UNL     1     -40.171 -48.115  11.568  1.00  0.00     0.250 C 
BRANCH   7   8
HETATM    8  C   UNL     1     -39.942 -49.603  11.411  1.00  0.00     0.235 C 
HETATM    9  N   UNL     1     -38.740 -50.009  10.912  1.00  0.00    -0.369 N 
HETATM   10  H   UNL     1     -38.552 -50.995  10.795  1.00  0.00     0.159 HD
HETATM   11  H   UNL     1     -37.996 -49.333  10.736  1.00  0.00     0.159 HD
HETATM   12  O   UNL     1     -40.824 -50.430  11.642  1.00  0.00    -0.272 OA
ENDBRANCH   7   8
ENDBRANCH   1   7
BRANCH   3  13
HETATM   13  N   UNL     1     -43.719 -45.357   9.723  1.00  0.00    -0.397 N 
HETATM   14  H   UNL     1     -44.681 -45.499   9.434  1.00  0.00     0.156 HD
HETATM   15  H   UNL     1     -43.479 -44.391   9.914  1.00  0.00     0.156 HD
ENDBRANCH   3  13
TORSDOF 3
ENDMDL
MODEL 9
REMARK VINA RESULT:      -4.0      5.394      7.095
REMARK  3 active torsions:
REMARK  status: ('A' for Active; 'I' for Inactive)
REMARK       I    between atoms: N_1  and  C_2 
REMARK    1  A    between atoms: C_2  and  C_4 
REMARK    2  A    between atoms: C_4  and  N_5 
REMARK    3  A    between atoms: C_7  and  N_8 
ROOT
HETATM    1  N   UNL     1     -43.265 -53.476  12.714  1.00  0.00    -0.293 N 
HETATM    2  C   UNL     1     -42.302 -54.172  13.392  1.00  0.00     0.141 A 
HETATM    3  C   UNL     1     -41.106 -53.692  12.934  1.00  0.00     0.060 A 
HETATM    4  C   UNL     1     -41.433 -52.698  11.996  1.00  0.00     0.137 A 
HETATM    5  N   UNL     1     -42.755 -52.553  11.859  1.00  0.00    -0.307 N 
ATOM      6  HN  UNL     1     -43.261 -51.904  11.255  1.00  0.00     0.186 HD
ENDROOT
BRANCH   1   7
HETATM    7  C   UNL     1     -44.705 -53.624  12.846  1.00  0.00     0.250 C 
BRANCH   7   8
HETATM    8  C   UNL     1     -45.466 -52.323  12.695  1.00  0.00     0.235 C 
HETATM    9  N   UNL     1     -46.506 -52.297  11.814  1.00  0.00    -0.369 N 
HETATM   10  H   UNL     1     -47.036 -51.446  11.689  1.00  0.00     0.159 HD
HETATM   11  H   UNL     1     -46.810 -53.150  11.344  1.00  0.00     0.159 HD
HETATM   12  O   UNL     1     -45.123 -51.294  13.276  1.00  0.00    -0.272 OA
ENDBRANCH   7   8
ENDBRANCH   1   7
BRANCH   3  13
HETATM   13  N   UNL     1     -39.896 -54.107  13.323  1.00  0.00    -0.397 N 
HETATM   14  H   UNL     1     -39.690 -54.374  14.280  1.00  0.00     0.156 HD
HETATM   15  H   UNL     1     -39.137 -54.275  12.671  1.00  0.00     0.156 HD
ENDBRANCH   3  13
TORSDOF 3
ENDMDL
