MODEL 1
REMARK VINA RESULT:      -6.4      0.000      0.000
REMARK  3 active torsions:
REMARK  status: ('A' for Active; 'I' for Inactive)
REMARK       I    between atoms: C_2  and  N_3 
REMARK       I    between atoms: C_2  and  N_10 
REMARK    1  A    between atoms: N_3  and  C_4 
REMARK    2  A    between atoms: N_10  and  C_11 
REMARK    3  A    between atoms: C_17  and  N_18 
ROOT
HETATM    1  C   UNL     1     -39.513 -50.261  11.678  1.00  0.00     0.060 A 
HETATM    2  C   UNL     1     -38.146 -50.060  11.451  1.00  0.00     0.029 A 
HETATM    3  C   UNL     1     -37.233 -50.364  12.447  1.00  0.00     0.019 A 
HETATM    4  C   UNL     1     -37.726 -50.868  13.634  1.00  0.00     0.090 A 
HETATM    5  N   UNL     1     -39.035 -51.097  13.871  1.00  0.00    -0.351 N 
ATOM      6  HN  UNL     1     -39.339 -51.478  14.767  1.00  0.00     0.166 HD
HETATM    7  C   UNL     1     -39.944 -50.814  12.903  1.00  0.00     0.125 A 
ENDROOT
BRANCH   1   8
HETATM    8  N   UNL     1     -40.428 -49.862  10.665  1.00  0.00    -0.207 NA
HETATM    9  C   UNL     1     -41.012 -48.611  10.767  1.00  0.00     0.299 C 
HETATM   10  O   UNL     1     -40.777 -47.782  11.634  1.00  0.00    -0.254 OA
HETATM   11  N   UNL     1     -41.913 -48.405   9.746  1.00  0.00    -0.343 N 
HETATM   12  H   UNL     1     -42.053 -49.143   9.074  1.00  0.00     0.164 HD
HETATM   13  H   UNL     1     -40.046 -49.965   9.736  1.00  0.00     0.138 HD
BRANCH  11  14
HETATM   14  C   UNL     1     -42.597 -47.130   9.569  1.00  0.00     0.085 C 
HETATM   15  C   UNL     1     -43.766 -46.980  10.549  1.00  0.00     0.025 C 
HETATM   16  C   UNL     1     -44.955 -47.878  10.211  1.00  0.00     0.002 C 
HETATM   17  C   UNL     1     -45.390 -47.731   8.756  1.00  0.00     0.000 C 
HETATM   18  C   UNL     1     -44.225 -47.919   7.789  1.00  0.00     0.002 C 
HETATM   19  C   UNL     1     -43.069 -46.977   8.117  1.00  0.00     0.025 C 
ENDBRANCH  11  14
ENDBRANCH   1   8
BRANCH   7  20
HETATM   20  N   UNL     1     -41.242 -51.183  13.181  1.00  0.00    -0.362 N 
HETATM   21  C   UNL     1     -41.617 -52.596  13.046  1.00  0.00     0.150 C 
HETATM   22  C   UNL     1     -43.030 -52.701  12.453  1.00  0.00     0.187 C 
HETATM   23  O   UNL     1     -43.986 -51.938  13.213  1.00  0.00    -0.388 OA
HETATM   24  C   UNL     1     -43.603 -50.555  13.231  1.00  0.00     0.187 C 
HETATM   25  C   UNL     1     -42.222 -50.351  13.872  1.00  0.00     0.150 C 
ENDBRANCH   7  20
TORSDOF 3
ENDMDL
MODEL 2
REMARK VINA RESULT:      -6.2      4.493      6.625
REMARK  3 active torsions:
REMARK  status: ('A' for Active; 'I' for Inactive)
REMARK       I    between atoms: C_2  and  N_3 
REMARK       I    between atoms: C_2  and  N_10 
REMARK    1  A    between atoms: N_3  and  C_4 
REMARK    2  A    between atoms: N_10  and  C_11 
REMARK    3  A    between atoms: C_17  and  N_18 
ROOT
HETATM    1  C   UNL     1     -41.052 -54.507  16.388  1.00  0.00     0.060 A 
HETATM    2  C   UNL     1     -40.937 -55.220  17.587  1.00  0.00     0.029 A 
HETATM    3  C   UNL     1     -39.862 -56.071  17.781  1.00  0.00     0.019 A 
HETATM    4  C   UNL     1     -38.934 -56.169  16.764  1.00  0.00     0.090 A 
HETATM    5  N   UNL     1     -39.005 -55.474  15.608  1.00  0.00    -0.351 N 
ATOM      6  HN  UNL     1     -38.283 -55.584  14.896  1.00  0.00     0.166 HD
HETATM    7  C   UNL     1     -40.046 -54.628  15.405  1.00  0.00     0.125 A 
ENDROOT
BRANCH   1   8
HETATM    8  N   UNL     1     -42.210 -53.705  16.190  1.00  0.00    -0.207 NA
HETATM    9  C   UNL     1     -43.326 -54.296  15.622  1.00  0.00     0.299 C 
HETATM   10  O   UNL     1     -43.429 -55.474  15.311  1.00  0.00    -0.254 OA
HETATM   11  N   UNL     1     -44.333 -53.374  15.444  1.00  0.00    -0.343 N 
HETATM   12  H   UNL     1     -44.164 -52.420  15.722  1.00  0.00     0.164 HD
HETATM   13  H   UNL     1     -42.494 -53.221  17.030  1.00  0.00     0.138 HD
BRANCH  11  14
HETATM   14  C   UNL     1     -45.649 -53.758  14.949  1.00  0.00     0.085 C 
HETATM   15  C   UNL     1     -45.638 -53.970  13.431  1.00  0.00     0.025 C 
HETATM   16  C   UNL     1     -45.515 -52.667  12.642  1.00  0.00     0.002 C 
HETATM   17  C   UNL     1     -46.546 -51.631  13.080  1.00  0.00     0.000 C 
HETATM   18  C   UNL     1     -46.522 -51.403  14.588  1.00  0.00     0.002 C 
HETATM   19  C   UNL     1     -46.695 -52.713  15.355  1.00  0.00     0.025 C 
ENDBRANCH  11  14
ENDBRANCH   1   8
BRANCH   7  20
HETATM   20  N   UNL     1     -39.982 -53.873  14.254  1.00  0.00    -0.362 N 
HETATM   21  C   UNL     1     -38.937 -52.849  14.140  1.00  0.00     0.150 C 
HETATM   22  C   UNL     1     -39.506 -51.606  13.439  1.00  0.00     0.187 C 
HETATM   23  O   UNL     1     -40.108 -51.935  12.173  1.00  0.00    -0.388 OA
HETATM   24  C   UNL     1     -41.176 -52.874  12.370  1.00  0.00     0.187 C 
HETATM   25  C   UNL     1     -40.680 -54.180  13.009  1.00  0.00     0.150 C 
ENDBRANCH   7  20
TORSDOF 3
ENDMDL
MODEL 3
REMARK VINA RESULT:      -6.2      2.236      5.509
REMARK  3 active torsions:
REMARK  status: ('A' for Active; 'I' for Inactive)
REMARK       I    between atoms: C_2  and  N_3 
REMARK       I    between atoms: C_2  and  N_10 
REMARK    1  A    between atoms: N_3  and  C_4 
REMARK    2  A    between atoms: N_10  and  C_11 
REMARK    3  A    between atoms: C_17  and  N_18 
ROOT
HETATM    1  C   UNL     1     -41.694 -48.129  11.133  1.00  0.00     0.060 A 
HETATM    2  C   UNL     1     -42.398 -47.152  10.419  1.00  0.00     0.029 A 
HETATM    3  C   UNL     1     -41.822 -45.912  10.200  1.00  0.00     0.019 A 
HETATM    4  C   UNL     1     -40.553 -45.700  10.700  1.00  0.00     0.090 A 
HETATM    5  N   UNL     1     -39.840 -46.632  11.369  1.00  0.00    -0.351 N 
ATOM      6  HN  UNL     1     -38.902 -46.418  11.708  1.00  0.00     0.166 HD
HETATM    7  C   UNL     1     -40.385 -47.856  11.584  1.00  0.00     0.125 A 
ENDROOT
BRANCH   1   8
HETATM    8  N   UNL     1     -42.348 -49.361  11.410  1.00  0.00    -0.207 NA
HETATM    9  C   UNL     1     -43.013 -49.493  12.617  1.00  0.00     0.299 C 
HETATM   10  O   UNL     1     -43.135 -48.619  13.464  1.00  0.00    -0.254 OA
HETATM   11  N   UNL     1     -43.537 -50.759  12.754  1.00  0.00    -0.343 N 
HETATM   12  H   UNL     1     -43.385 -51.423  12.011  1.00  0.00     0.164 HD
HETATM   13  H   UNL     1     -42.970 -49.645  10.667  1.00  0.00     0.138 HD
BRANCH  11  14
HETATM   14  C   UNL     1     -44.364 -51.130  13.895  1.00  0.00     0.085 C 
HETATM   15  C   UNL     1     -43.797 -52.351  14.627  1.00  0.00     0.025 C 
HETATM   16  C   UNL     1     -43.963 -53.653  13.845  1.00  0.00     0.002 C 
HETATM   17  C   UNL     1     -45.402 -53.866  13.383  1.00  0.00     0.000 C 
HETATM   18  C   UNL     1     -45.942 -52.657  12.624  1.00  0.00     0.002 C 
HETATM   19  C   UNL     1     -45.810 -51.376  13.445  1.00  0.00     0.025 C 
ENDBRANCH  11  14
ENDBRANCH   1   8
BRANCH   7  20
HETATM   20  N   UNL     1     -39.551 -48.783  12.170  1.00  0.00    -0.362 N 
HETATM   21  C   UNL     1     -39.438 -48.805  13.633  1.00  0.00     0.150 C 
HETATM   22  C   UNL     1     -37.981 -49.084  14.034  1.00  0.00     0.187 C 
HETATM   23  O   UNL     1     -37.476 -50.282  13.416  1.00  0.00    -0.388 OA
HETATM   24  C   UNL     1     -37.537 -50.156  11.988  1.00  0.00     0.187 C 
HETATM   25  C   UNL     1     -38.975 -49.941  11.492  1.00  0.00     0.150 C 
ENDBRANCH   7  20
TORSDOF 3
ENDMDL
MODEL 4
REMARK VINA RESULT:      -6.2      2.113      5.114
REMARK  3 active torsions:
REMARK  status: ('A' for Active; 'I' for Inactive)
REMARK       I    between atoms: C_2  and  N_3 
REMARK       I    between atoms: C_2  and  N_10 
REMARK    1  A    between atoms: N_3  and  C_4 
REMARK    2  A    between atoms: N_10  and  C_11 
REMARK    3  A    between atoms: C_17  and  N_18 
ROOT
HETATM    1  C   UNL     1     -40.083 -50.346  12.837  1.00  0.00     0.060 A 
HETATM    2  C   UNL     1     -39.004 -51.165  13.190  1.00  0.00     0.029 A 
HETATM    3  C   UNL     1     -37.760 -50.944  12.623  1.00  0.00     0.019 A 
HETATM    4  C   UNL     1     -37.643 -49.902  11.726  1.00  0.00     0.090 A 
HETATM    5  N   UNL     1     -38.659 -49.080  11.387  1.00  0.00    -0.351 N 
ATOM      6  HN  UNL     1     -38.509 -48.321  10.723  1.00  0.00     0.166 HD
HETATM    7  C   UNL     1     -39.883 -49.275  11.940  1.00  0.00     0.125 A 
ENDROOT
BRANCH   1   8
HETATM    8  N   UNL     1     -41.363 -50.651  13.376  1.00  0.00    -0.207 NA
HETATM    9  C   UNL     1     -42.131 -51.611  12.737  1.00  0.00     0.299 C 
HETATM   10  O   UNL     1     -41.788 -52.267  11.763  1.00  0.00    -0.254 OA
HETATM   11  N   UNL     1     -43.359 -51.744  13.345  1.00  0.00    -0.343 N 
HETATM   12  H   UNL     1     -43.565 -51.159  14.141  1.00  0.00     0.164 HD
HETATM   13  H   UNL     1     -41.327 -50.872  14.361  1.00  0.00     0.138 HD
BRANCH  11  14
HETATM   14  C   UNL     1     -44.321 -52.754  12.924  1.00  0.00     0.085 C 
HETATM   15  C   UNL     1     -45.656 -52.121  12.513  1.00  0.00     0.025 C 
HETATM   16  C   UNL     1     -46.457 -51.583  13.698  1.00  0.00     0.002 C 
HETATM   17  C   UNL     1     -46.619 -52.624  14.802  1.00  0.00     0.000 C 
HETATM   18  C   UNL     1     -45.280 -53.219  15.227  1.00  0.00     0.002 C 
HETATM   19  C   UNL     1     -44.520 -53.794  14.033  1.00  0.00     0.025 C 
ENDBRANCH  11  14
ENDBRANCH   1   8
BRANCH   7  20
HETATM   20  N   UNL     1     -40.832 -48.326  11.631  1.00  0.00    -0.362 N 
HETATM   21  C   UNL     1     -40.921 -47.120  12.464  1.00  0.00     0.150 C 
HETATM   22  C   UNL     1     -42.395 -46.733  12.656  1.00  0.00     0.187 C 
HETATM   23  O   UNL     1     -43.079 -46.594  11.396  1.00  0.00    -0.388 OA
HETATM   24  C   UNL     1     -43.026 -47.833  10.674  1.00  0.00     0.187 C 
HETATM   25  C   UNL     1     -41.581 -48.264  10.379  1.00  0.00     0.150 C 
ENDBRANCH   7  20
TORSDOF 3
ENDMDL
MODEL 5
REMARK VINA RESULT:      -5.9      3.433      4.964
REMARK  3 active torsions:
REMARK  status: ('A' for Active; 'I' for Inactive)
REMARK       I    between atoms: C_2  and  N_3 
REMARK       I    between atoms: C_2  and  N_10 
REMARK    1  A    between atoms: N_3  and  C_4 
REMARK    2  A    between atoms: N_10  and  C_11 
REMARK    3  A    between atoms: C_17  and  N_18 
ROOT
HETATM    1  C   UNL     1     -40.115 -50.831  12.834  1.00  0.00     0.060 A 
HETATM    2  C   UNL     1     -39.794 -49.988  11.764  1.00  0.00     0.029 A 
HETATM    3  C   UNL     1     -38.466 -49.775  11.432  1.00  0.00     0.019 A 
HETATM    4  C   UNL     1     -37.507 -50.424  12.184  1.00  0.00     0.090 A 
HETATM    5  N   UNL     1     -37.789 -51.263  13.204  1.00  0.00    -0.351 N 
ATOM      6  HN  UNL     1     -37.037 -51.720  13.719  1.00  0.00     0.166 HD
HETATM    7  C   UNL     1     -39.085 -51.492  13.537  1.00  0.00     0.125 A 
ENDROOT
BRANCH   1   8
HETATM    8  N   UNL     1     -41.484 -50.963  13.197  1.00  0.00    -0.207 NA
HETATM    9  C   UNL     1     -42.247 -51.915  12.541  1.00  0.00     0.299 C 
HETATM   10  O   UNL     1     -41.838 -52.698  11.696  1.00  0.00    -0.254 OA
HETATM   11  N   UNL     1     -43.556 -51.873  12.965  1.00  0.00    -0.343 N 
HETATM   12  H   UNL     1     -43.813 -51.191  13.662  1.00  0.00     0.164 HD
HETATM   13  H   UNL     1     -41.611 -51.080  14.192  1.00  0.00     0.138 HD
BRANCH  11  14
HETATM   14  C   UNL     1     -44.547 -52.834  12.497  1.00  0.00     0.085 C 
HETATM   15  C   UNL     1     -45.951 -52.220  12.462  1.00  0.00     0.025 C 
HETATM   16  C   UNL     1     -46.547 -51.999  13.851  1.00  0.00     0.002 C 
HETATM   17  C   UNL     1     -46.482 -53.257  14.711  1.00  0.00     0.000 C 
HETATM   18  C   UNL     1     -45.072 -53.838  14.768  1.00  0.00     0.002 C 
HETATM   19  C   UNL     1     -44.517 -54.096  13.369  1.00  0.00     0.025 C 
ENDBRANCH  11  14
ENDBRANCH   1   8
BRANCH   7  20
HETATM   20  N   UNL     1     -39.289 -52.446  14.509  1.00  0.00    -0.362 N 
HETATM   21  C   UNL     1     -39.441 -53.848  14.100  1.00  0.00     0.150 C 
HETATM   22  C   UNL     1     -40.513 -54.525  14.967  1.00  0.00     0.187 C 
HETATM   23  O   UNL     1     -40.234 -54.379  16.373  1.00  0.00    -0.388 OA
HETATM   24  C   UNL     1     -40.184 -52.987  16.718  1.00  0.00     0.187 C 
HETATM   25  C   UNL     1     -39.088 -52.242  15.941  1.00  0.00     0.150 C 
ENDBRANCH   7  20
TORSDOF 3
ENDMDL
MODEL 6
REMARK VINA RESULT:      -5.8      2.951      6.097
REMARK  3 active torsions:
REMARK  status: ('A' for Active; 'I' for Inactive)
REMARK       I    between atoms: C_2  and  N_3 
REMARK       I    between atoms: C_2  and  N_10 
REMARK    1  A    between atoms: N_3  and  C_4 
REMARK    2  A    between atoms: N_10  and  C_11 
REMARK    3  A    between atoms: C_17  and  N_18 
ROOT
HETATM    1  C   UNL     1     -42.580 -49.540  12.597  1.00  0.00     0.060 A 
HETATM    2  C   UNL     1     -43.300 -48.458  12.078  1.00  0.00     0.029 A 
HETATM    3  C   UNL     1     -42.846 -47.815  10.938  1.00  0.00     0.019 A 
HETATM    4  C   UNL     1     -41.687 -48.287  10.356  1.00  0.00     0.090 A 
HETATM    5  N   UNL     1     -40.987 -49.345  10.820  1.00  0.00    -0.351 N 
ATOM      6  HN  UNL     1     -40.141 -49.653  10.342  1.00  0.00     0.166 HD
HETATM    7  C   UNL     1     -41.422 -49.994  11.930  1.00  0.00     0.125 A 
ENDROOT
BRANCH   1   8
HETATM    8  N   UNL     1     -43.030 -50.125  13.813  1.00  0.00    -0.207 NA
HETATM    9  C   UNL     1     -44.006 -51.105  13.747  1.00  0.00     0.299 C 
HETATM   10  O   UNL     1     -44.495 -51.557  12.721  1.00  0.00    -0.254 OA
HETATM   11  N   UNL     1     -44.371 -51.521  15.007  1.00  0.00    -0.343 N 
HETATM   12  H   UNL     1     -43.924 -51.092  15.802  1.00  0.00     0.164 HD
HETATM   13  H   UNL     1     -42.269 -50.467  14.383  1.00  0.00     0.138 HD
BRANCH  11  14
HETATM   14  C   UNL     1     -45.316 -52.612  15.213  1.00  0.00     0.085 C 
HETATM   15  C   UNL     1     -46.764 -52.143  15.036  1.00  0.00     0.025 C 
HETATM   16  C   UNL     1     -47.253 -51.254  16.178  1.00  0.00     0.002 C 
HETATM   17  C   UNL     1     -47.008 -51.888  17.544  1.00  0.00     0.000 C 
HETATM   18  C   UNL     1     -45.555 -52.317  17.723  1.00  0.00     0.002 C 
HETATM   19  C   UNL     1     -45.104 -53.244  16.595  1.00  0.00     0.025 C 
ENDBRANCH  11  14
ENDBRANCH   1   8
BRANCH   7  20
HETATM   20  N   UNL     1     -40.718 -51.128  12.269  1.00  0.00    -0.362 N 
HETATM   21  C   UNL     1     -41.192 -52.427  11.773  1.00  0.00     0.150 C 
HETATM   22  C   UNL     1     -41.009 -53.493  12.864  1.00  0.00     0.187 C 
HETATM   23  O   UNL     1     -39.652 -53.539  13.345  1.00  0.00    -0.388 OA
HETATM   24  C   UNL     1     -39.285 -52.263  13.891  1.00  0.00     0.187 C 
HETATM   25  C   UNL     1     -39.376 -51.143  12.843  1.00  0.00     0.150 C 
ENDBRANCH   7  20
TORSDOF 3
ENDMDL
MODEL 7
REMARK VINA RESULT:      -5.6      3.016      5.265
REMARK  3 active torsions:
REMARK  status: ('A' for Active; 'I' for Inactive)
REMARK       I    between atoms: C_2  and  N_3 
REMARK       I    between atoms: C_2  and  N_10 
REMARK    1  A    between atoms: N_3  and  C_4 
REMARK    2  A    between atoms: N_10  and  C_11 
REMARK    3  A    between atoms: C_17  and  N_18 
ROOT
HETATM    1  C   UNL     1     -44.818 -51.717  13.712  1.00  0.00     0.060 A 
HETATM    2  C   UNL     1     -46.177 -51.497  13.960  1.00  0.00     0.029 A 
HETATM    3  C   UNL     1     -46.918 -52.456  14.630  1.00  0.00     0.019 A 
HETATM    4  C   UNL     1     -46.262 -53.602  15.034  1.00  0.00     0.090 A 
HETATM    5  N   UNL     1     -44.947 -53.830  14.831  1.00  0.00    -0.351 N 
ATOM      6  HN  UNL     1     -44.516 -54.694  15.161  1.00  0.00     0.166 HD
HETATM    7  C   UNL     1     -44.203 -52.897  14.185  1.00  0.00     0.125 A 
ENDROOT
BRANCH   1   8
HETATM    8  N   UNL     1     -44.107 -50.748  12.951  1.00  0.00    -0.207 NA
HETATM    9  C   UNL     1     -43.514 -49.694  13.624  1.00  0.00     0.299 C 
HETATM   10  O   UNL     1     -43.502 -49.538  14.837  1.00  0.00    -0.254 OA
HETATM   11  N   UNL     1     -42.922 -48.818  12.742  1.00  0.00    -0.343 N 
HETATM   12  H   UNL     1     -42.984 -49.016  11.755  1.00  0.00     0.164 HD
HETATM   13  H   UNL     1     -43.422 -51.164  12.337  1.00  0.00     0.138 HD
BRANCH  11  14
HETATM   14  C   UNL     1     -42.148 -47.670  13.199  1.00  0.00     0.085 C 
HETATM   15  C   UNL     1     -42.675 -46.362  12.600  1.00  0.00     0.025 C 
HETATM   16  C   UNL     1     -42.366 -46.214  11.111  1.00  0.00     0.002 C 
HETATM   17  C   UNL     1     -40.888 -46.443  10.806  1.00  0.00     0.000 C 
HETATM   18  C   UNL     1     -40.385 -47.765  11.376  1.00  0.00     0.002 C 
HETATM   19  C   UNL     1     -40.662 -47.869  12.875  1.00  0.00     0.025 C 
ENDBRANCH  11  14
ENDBRANCH   1   8
BRANCH   7  20
HETATM   20  N   UNL     1     -42.851 -53.154  14.122  1.00  0.00    -0.362 N 
HETATM   21  C   UNL     1     -42.010 -52.793  15.270  1.00  0.00     0.150 C 
HETATM   22  C   UNL     1     -40.666 -52.242  14.772  1.00  0.00     0.187 C 
HETATM   23  O   UNL     1     -40.016 -53.156  13.868  1.00  0.00    -0.388 OA
HETATM   24  C   UNL     1     -40.857 -53.397  12.730  1.00  0.00     0.187 C 
HETATM   25  C   UNL     1     -42.206 -54.013  13.134  1.00  0.00     0.150 C 
ENDBRANCH   7  20
TORSDOF 3
ENDMDL
MODEL 8
REMARK VINA RESULT:      -5.6      3.384      5.905
REMARK  3 active torsions:
REMARK  status: ('A' for Active; 'I' for Inactive)
REMARK       I    between atoms: C_2  and  N_3 
REMARK       I    between atoms: C_2  and  N_10 
REMARK    1  A    between atoms: N_3  and  C_4 
REMARK    2  A    between atoms: N_10  and  C_11 
REMARK    3  A    between atoms: C_17  and  N_18 
ROOT
HETATM    1  C   UNL     1     -43.372 -51.595  13.706  1.00  0.00     0.060 A 
HETATM    2  C   UNL     1     -44.582 -50.933  13.468  1.00  0.00     0.029 A 
HETATM    3  C   UNL     1     -45.682 -51.650  13.027  1.00  0.00     0.019 A 
HETATM    4  C   UNL     1     -45.528 -53.010  12.849  1.00  0.00     0.090 A 
HETATM    5  N   UNL     1     -44.381 -53.679  13.096  1.00  0.00    -0.351 N 
ATOM      6  HN  UNL     1     -44.331 -54.687  12.952  1.00  0.00     0.166 HD
HETATM    7  C   UNL     1     -43.296 -52.994  13.538  1.00  0.00     0.125 A 
ENDROOT
BRANCH   1   8
HETATM    8  N   UNL     1     -42.242 -50.816  14.080  1.00  0.00    -0.207 NA
HETATM    9  C   UNL     1     -41.383 -50.387  13.081  1.00  0.00     0.299 C 
HETATM   10  O   UNL     1     -41.531 -50.578  11.882  1.00  0.00    -0.254 OA
HETATM   11  N   UNL     1     -40.314 -49.701  13.613  1.00  0.00    -0.343 N 
HETATM   12  H   UNL     1     -40.264 -49.594  14.614  1.00  0.00     0.164 HD
HETATM   13  H   UNL     1     -42.490 -50.022  14.653  1.00  0.00     0.138 HD
BRANCH  11  14
HETATM   14  C   UNL     1     -39.312 -49.064  12.768  1.00  0.00     0.085 C 
HETATM   15  C   UNL     1     -37.895 -49.514  13.141  1.00  0.00     0.025 C 
HETATM   16  C   UNL     1     -37.411 -48.938  14.472  1.00  0.00     0.002 C 
HETATM   17  C   UNL     1     -37.579 -47.423  14.536  1.00  0.00     0.000 C 
HETATM   18  C   UNL     1     -39.003 -46.991  14.199  1.00  0.00     0.002 C 
HETATM   19  C   UNL     1     -39.446 -47.538  12.843  1.00  0.00     0.025 C 
ENDBRANCH  11  14
ENDBRANCH   1   8
BRANCH   7  20
HETATM   20  N   UNL     1     -42.205 -53.764  13.875  1.00  0.00    -0.362 N 
HETATM   21  C   UNL     1     -42.259 -54.565  15.104  1.00  0.00     0.150 C 
HETATM   22  C   UNL     1     -40.890 -54.538  15.799  1.00  0.00     0.187 C 
HETATM   23  O   UNL     1     -39.832 -54.947  14.912  1.00  0.00    -0.388 OA
HETATM   24  C   UNL     1     -39.782 -54.070  13.777  1.00  0.00     0.187 C 
HETATM   25  C   UNL     1     -41.096 -54.087  12.981  1.00  0.00     0.150 C 
ENDBRANCH   7  20
TORSDOF 3
ENDMDL
MODEL 9
REMARK VINA RESULT:      -5.6      1.918      3.666
REMARK  3 active torsions:
REMARK  status: ('A' for Active; 'I' for Inactive)
REMARK       I    between atoms: C_2  and  N_3 
REMARK       I    between atoms: C_2  and  N_10 
REMARK    1  A    between atoms: N_3  and  C_4 
REMARK    2  A    between atoms: N_10  and  C_11 
REMARK    3  A    between atoms: C_17  and  N_18 
ROOT
HETATM    1  C   UNL     1     -40.749 -51.741  12.487  1.00  0.00     0.060 A 
HETATM    2  C   UNL     1     -41.321 -52.972  12.147  1.00  0.00     0.029 A 
HETATM    3  C   UNL     1     -40.989 -54.107  12.868  1.00  0.00     0.019 A 
HETATM    4  C   UNL     1     -40.098 -53.962  13.913  1.00  0.00     0.090 A 
HETATM    5  N   UNL     1     -39.551 -52.783  14.280  1.00  0.00    -0.351 N 
ATOM      6  HN  UNL     1     -38.904 -52.737  15.067  1.00  0.00     0.166 HD
HETATM    7  C   UNL     1     -39.873 -51.659  13.591  1.00  0.00     0.125 A 
ENDROOT
BRANCH   1   8
HETATM    8  N   UNL     1     -41.049 -50.613  11.675  1.00  0.00    -0.207 NA
HETATM    9  C   UNL     1     -42.151 -49.842  12.007  1.00  0.00     0.299 C 
HETATM   10  O   UNL     1     -42.876 -50.014  12.976  1.00  0.00    -0.254 OA
HETATM   11  N   UNL     1     -42.337 -48.830  11.091  1.00  0.00    -0.343 N 
HETATM   12  H   UNL     1     -41.697 -48.762  10.315  1.00  0.00     0.164 HD
HETATM   13  H   UNL     1     -40.255 -50.002  11.551  1.00  0.00     0.138 HD
BRANCH  11  14
HETATM   14  C   UNL     1     -43.374 -47.820  11.261  1.00  0.00     0.085 C 
HETATM   15  C   UNL     1     -44.400 -47.872  10.124  1.00  0.00     0.025 C 
HETATM   16  C   UNL     1     -43.853 -47.356   8.794  1.00  0.00     0.002 C 
HETATM   17  C   UNL     1     -43.207 -45.982   8.934  1.00  0.00     0.000 C 
HETATM   18  C   UNL     1     -42.160 -45.953  10.044  1.00  0.00     0.002 C 
HETATM   19  C   UNL     1     -42.744 -46.426  11.374  1.00  0.00     0.025 C 
ENDBRANCH  11  14
ENDBRANCH   1   8
BRANCH   7  20
HETATM   20  N   UNL     1     -39.365 -50.484  14.100  1.00  0.00    -0.362 N 
HETATM   21  C   UNL     1     -38.104 -49.966  13.555  1.00  0.00     0.150 C 
HETATM   22  C   UNL     1     -37.257 -49.371  14.690  1.00  0.00     0.187 C 
HETATM   23  O   UNL     1     -37.989 -48.384  15.442  1.00  0.00    -0.388 OA
HETATM   24  C   UNL     1     -39.162 -48.980  16.016  1.00  0.00     0.187 C 
HETATM   25  C   UNL     1     -40.102 -49.545  14.940  1.00  0.00     0.150 C 
ENDBRANCH   7  20
TORSDOF 3
ENDMDL
