MODEL 1
REMARK VINA RESULT:      -6.6      0.000      0.000
REMARK  6 active torsions:
REMARK  status: ('A' for Active; 'I' for Inactive)
REMARK    1  A    between atoms: O_1  and  C_2 
REMARK    2  A    between atoms: C_2  and  C_3 
REMARK    3  A    between atoms: C_2  and  C_15 
REMARK    4  A    between atoms: C_3  and  N_4 
REMARK       I    between atoms: N_4  and  C_5 
REMARK       I    between atoms: C_5  and  N_7 
REMARK    5  A    between atoms: N_7  and  C_8 
REMARK    6  A    between atoms: C_15  and  N_16 
ROOT
HETATM    1  N   UNL     1     -40.579 -50.550  11.291  1.00  0.00    -0.340 N 
HETATM    2  C   UNL     1     -41.359 -49.415  11.315  1.00  0.00     0.321 C 
HETATM    3  O   UNL     1     -41.937 -49.043  12.336  1.00  0.00    -0.247 OA
HETATM    4  N   UNL     1     -41.445 -48.816  10.086  1.00  0.00    -0.295 N 
HETATM    5  H   UNL     1     -39.716 -50.450  10.766  1.00  0.00     0.164 HD
HETATM    6  H   UNL     1     -41.512 -49.465   9.315  1.00  0.00     0.172 HD
ENDROOT
BRANCH   1   7
HETATM    7  C   UNL     1     -40.504 -51.339  12.505  1.00  0.00     0.157 C 
BRANCH   7   8
HETATM    8  C   UNL     1     -41.168 -52.718  12.401  1.00  0.00     0.164 C 
BRANCH   8   9
HETATM    9  O   UNL     1     -40.603 -53.408  11.277  1.00  0.00    -0.392 OA
HETATM   10  H   UNL     1     -41.275 -53.403  10.573  1.00  0.00     0.210 HD
ENDBRANCH   8   9
BRANCH   8  11
HETATM   11  C   UNL     1     -42.708 -52.619  12.269  1.00  0.00     0.305 C 
BRANCH  11  12
HETATM   12  N   UNL     1     -43.483 -53.047  13.457  1.00  0.00     0.090 N 
HETATM   13  C   UNL     1     -44.772 -53.649  13.073  1.00  0.00     0.272 C 
HETATM   14  C   UNL     1     -45.813 -52.633  12.588  1.00  0.00     0.030 C 
HETATM   15  C   UNL     1     -46.006 -51.501  13.593  1.00  0.00     0.003 C 
HETATM   16  C   UNL     1     -44.667 -50.906  14.018  1.00  0.00     0.030 C 
HETATM   17  C   UNL     1     -43.700 -52.002  14.467  1.00  0.00     0.272 C 
ENDBRANCH  11  12
ENDBRANCH   8  11
ENDBRANCH   7   8
ENDBRANCH   1   7
BRANCH   4  18
HETATM   18  C   UNL     1     -42.245 -47.682   9.897  1.00  0.00     0.108 A 
HETATM   19  C   UNL     1     -43.277 -47.674   8.965  1.00  0.00     0.049 A 
HETATM   20  C   UNL     1     -43.982 -46.494   8.759  1.00  0.00     0.005 A 
HETATM   21  C   UNL     1     -43.626 -45.361   9.476  1.00  0.00     0.017 A 
HETATM   22  C   UNL     1     -42.607 -45.473  10.410  1.00  0.00     0.089 A 
HETATM   23  N   UNL     1     -41.934 -46.617  10.662  1.00  0.00    -0.352 N 
ATOM     24  HN  UNL     1     -41.226 -46.673  11.395  1.00  0.00     0.166 HD
ENDBRANCH   4  18
TORSDOF 6
ENDMDL
MODEL 2
REMARK VINA RESULT:      -6.3      0.781      1.386
REMARK  6 active torsions:
REMARK  status: ('A' for Active; 'I' for Inactive)
REMARK    1  A    between atoms: O_1  and  C_2 
REMARK    2  A    between atoms: C_2  and  C_3 
REMARK    3  A    between atoms: C_2  and  C_15 
REMARK    4  A    between atoms: C_3  and  N_4 
REMARK       I    between atoms: N_4  and  C_5 
REMARK       I    between atoms: C_5  and  N_7 
REMARK    5  A    between atoms: N_7  and  C_8 
REMARK    6  A    between atoms: C_15  and  N_16 
ROOT
HETATM    1  N   UNL     1     -40.552 -50.589  11.277  1.00  0.00    -0.340 N 
HETATM    2  C   UNL     1     -41.324 -49.448  11.310  1.00  0.00     0.321 C 
HETATM    3  O   UNL     1     -41.883 -49.070  12.339  1.00  0.00    -0.247 OA
HETATM    4  N   UNL     1     -41.423 -48.851  10.081  1.00  0.00    -0.295 N 
HETATM    5  H   UNL     1     -39.696 -50.495  10.738  1.00  0.00     0.164 HD
HETATM    6  H   UNL     1     -41.506 -49.501   9.313  1.00  0.00     0.172 HD
ENDROOT
BRANCH   1   7
HETATM    7  C   UNL     1     -40.464 -51.376  12.492  1.00  0.00     0.157 C 
BRANCH   7   8
HETATM    8  C   UNL     1     -41.094 -52.770  12.383  1.00  0.00     0.164 C 
BRANCH   8   9
HETATM    9  O   UNL     1     -40.579 -53.410  11.206  1.00  0.00    -0.392 OA
HETATM   10  H   UNL     1     -39.988 -52.771  10.771  1.00  0.00     0.210 HD
ENDBRANCH   8   9
BRANCH   8  11
HETATM   11  C   UNL     1     -42.641 -52.714  12.346  1.00  0.00     0.305 C 
BRANCH  11  12
HETATM   12  N   UNL     1     -43.303 -52.401  13.635  1.00  0.00     0.090 N 
HETATM   13  C   UNL     1     -43.011 -53.423  14.655  1.00  0.00     0.272 C 
HETATM   14  C   UNL     1     -43.751 -54.748  14.438  1.00  0.00     0.030 C 
HETATM   15  C   UNL     1     -45.254 -54.535  14.280  1.00  0.00     0.003 C 
HETATM   16  C   UNL     1     -45.551 -53.449  13.251  1.00  0.00     0.030 C 
HETATM   17  C   UNL     1     -44.753 -52.179  13.549  1.00  0.00     0.272 C 
ENDBRANCH  11  12
ENDBRANCH   8  11
ENDBRANCH   7   8
ENDBRANCH   1   7
BRANCH   4  18
HETATM   18  C   UNL     1     -42.218 -47.712   9.902  1.00  0.00     0.108 A 
HETATM   19  C   UNL     1     -43.250 -47.692   8.970  1.00  0.00     0.049 A 
HETATM   20  C   UNL     1     -43.950 -46.506   8.774  1.00  0.00     0.005 A 
HETATM   21  C   UNL     1     -43.588 -45.381   9.500  1.00  0.00     0.017 A 
HETATM   22  C   UNL     1     -42.569 -45.505  10.432  1.00  0.00     0.089 A 
HETATM   23  N   UNL     1     -41.901 -46.655  10.676  1.00  0.00    -0.352 N 
ATOM     24  HN  UNL     1     -41.194 -46.719  11.407  1.00  0.00     0.166 HD
ENDBRANCH   4  18
TORSDOF 6
ENDMDL
MODEL 3
REMARK VINA RESULT:      -6.0      3.258      7.057
REMARK  6 active torsions:
REMARK  status: ('A' for Active; 'I' for Inactive)
REMARK    1  A    between atoms: O_1  and  C_2 
REMARK    2  A    between atoms: C_2  and  C_3 
REMARK    3  A    between atoms: C_2  and  C_15 
REMARK    4  A    between atoms: C_3  and  N_4 
REMARK       I    between atoms: N_4  and  C_5 
REMARK       I    between atoms: C_5  and  N_7 
REMARK    5  A    between atoms: N_7  and  C_8 
REMARK    6  A    between atoms: C_15  and  N_16 
ROOT
HETATM    1  N   UNL     1     -40.466 -51.245  11.313  1.00  0.00    -0.340 N 
HETATM    2  C   UNL     1     -41.525 -51.664  12.087  1.00  0.00     0.321 C 
HETATM    3  O   UNL     1     -42.217 -50.874  12.728  1.00  0.00    -0.247 OA
HETATM    4  N   UNL     1     -41.660 -53.028  12.090  1.00  0.00    -0.295 N 
HETATM    5  H   UNL     1     -40.393 -51.717  10.417  1.00  0.00     0.164 HD
HETATM    6  H   UNL     1     -40.783 -53.529  12.110  1.00  0.00     0.172 HD
ENDROOT
BRANCH   1   7
HETATM    7  C   UNL     1     -40.147 -49.830  11.321  1.00  0.00     0.157 C 
BRANCH   7   8
HETATM    8  C   UNL     1     -38.669 -49.520  11.590  1.00  0.00     0.164 C 
BRANCH   8   9
HETATM    9  O   UNL     1     -37.899 -49.982  10.471  1.00  0.00    -0.392 OA
HETATM   10  H   UNL     1     -37.653 -50.904  10.656  1.00  0.00     0.210 HD
ENDBRANCH   8   9
BRANCH   8  11
HETATM   11  C   UNL     1     -38.166 -50.161  12.907  1.00  0.00     0.305 C 
BRANCH  11  12
HETATM   12  N   UNL     1     -38.734 -49.598  14.154  1.00  0.00     0.090 N 
HETATM   13  C   UNL     1     -38.566 -48.135  14.211  1.00  0.00     0.272 C 
HETATM   14  C   UNL     1     -37.129 -47.684  14.498  1.00  0.00     0.030 C 
HETATM   15  C   UNL     1     -36.566 -48.357  15.747  1.00  0.00     0.003 C 
HETATM   16  C   UNL     1     -36.776 -49.867  15.701  1.00  0.00     0.030 C 
HETATM   17  C   UNL     1     -38.235 -50.208  15.394  1.00  0.00     0.272 C 
ENDBRANCH  11  12
ENDBRANCH   8  11
ENDBRANCH   7   8
ENDBRANCH   1   7
BRANCH   4  18
HETATM   18  C   UNL     1     -42.644 -53.647  12.871  1.00  0.00     0.108 A 
HETATM   19  C   UNL     1     -42.323 -54.285  14.064  1.00  0.00     0.049 A 
HETATM   20  C   UNL     1     -43.326 -54.958  14.753  1.00  0.00     0.005 A 
HETATM   21  C   UNL     1     -44.608 -54.984  14.223  1.00  0.00     0.017 A 
HETATM   22  C   UNL     1     -44.842 -54.290  13.045  1.00  0.00     0.089 A 
HETATM   23  N   UNL     1     -43.897 -53.592  12.377  1.00  0.00    -0.352 N 
ATOM     24  HN  UNL     1     -44.120 -53.050  11.542  1.00  0.00     0.166 HD
ENDBRANCH   4  18
TORSDOF 6
ENDMDL
MODEL 4
REMARK VINA RESULT:      -5.9      2.357      7.180
REMARK  6 active torsions:
REMARK  status: ('A' for Active; 'I' for Inactive)
REMARK    1  A    between atoms: O_1  and  C_2 
REMARK    2  A    between atoms: C_2  and  C_3 
REMARK    3  A    between atoms: C_2  and  C_15 
REMARK    4  A    between atoms: C_3  and  N_4 
REMARK       I    between atoms: N_4  and  C_5 
REMARK       I    between atoms: C_5  and  N_7 
REMARK    5  A    between atoms: N_7  and  C_8 
REMARK    6  A    between atoms: C_15  and  N_16 
ROOT
HETATM    1  N   UNL     1     -40.907 -50.767  11.225  1.00  0.00    -0.340 N 
HETATM    2  C   UNL     1     -41.890 -51.223  12.075  1.00  0.00     0.321 C 
HETATM    3  O   UNL     1     -42.334 -50.530  12.990  1.00  0.00    -0.247 OA
HETATM    4  N   UNL     1     -42.249 -52.518  11.807  1.00  0.00    -0.295 N 
HETATM    5  H   UNL     1     -41.052 -51.013  10.250  1.00  0.00     0.164 HD
HETATM    6  H   UNL     1     -41.476 -53.116  11.553  1.00  0.00     0.172 HD
ENDROOT
BRANCH   1   7
HETATM    7  C   UNL     1     -40.359 -49.448  11.479  1.00  0.00     0.157 C 
BRANCH   7   8
HETATM    8  C   UNL     1     -41.249 -48.295  10.996  1.00  0.00     0.164 C 
BRANCH   8   9
HETATM    9  O   UNL     1     -41.596 -48.535   9.624  1.00  0.00    -0.392 OA
HETATM   10  H   UNL     1     -42.417 -49.056   9.626  1.00  0.00     0.210 HD
ENDBRANCH   8   9
BRANCH   8  11
HETATM   11  C   UNL     1     -40.561 -46.917  11.156  1.00  0.00     0.305 C 
BRANCH  11  12
HETATM   12  N   UNL     1     -41.152 -46.019  12.177  1.00  0.00     0.090 N 
HETATM   13  C   UNL     1     -41.306 -44.647  11.665  1.00  0.00     0.272 C 
HETATM   14  C   UNL     1     -39.987 -43.874  11.549  1.00  0.00     0.030 C 
HETATM   15  C   UNL     1     -39.206 -43.893  12.860  1.00  0.00     0.003 C 
HETATM   16  C   UNL     1     -39.082 -45.312  13.406  1.00  0.00     0.030 C 
HETATM   17  C   UNL     1     -40.448 -45.997  13.466  1.00  0.00     0.272 C 
ENDBRANCH  11  12
ENDBRANCH   8  11
ENDBRANCH   7   8
ENDBRANCH   1   7
BRANCH   4  18
HETATM   18  C   UNL     1     -43.192 -53.179  12.605  1.00  0.00     0.108 A 
HETATM   19  C   UNL     1     -42.801 -54.107  13.563  1.00  0.00     0.049 A 
HETATM   20  C   UNL     1     -43.784 -54.795  14.266  1.00  0.00     0.005 A 
HETATM   21  C   UNL     1     -45.118 -54.546  13.979  1.00  0.00     0.017 A 
HETATM   22  C   UNL     1     -45.413 -53.577  13.032  1.00  0.00     0.089 A 
HETATM   23  N   UNL     1     -44.480 -52.861  12.365  1.00  0.00    -0.352 N 
ATOM     24  HN  UNL     1     -44.736 -52.120  11.714  1.00  0.00     0.166 HD
ENDBRANCH   4  18
TORSDOF 6
ENDMDL
MODEL 5
REMARK VINA RESULT:      -5.7      2.130      2.481
REMARK  6 active torsions:
REMARK  status: ('A' for Active; 'I' for Inactive)
REMARK    1  A    between atoms: O_1  and  C_2 
REMARK    2  A    between atoms: C_2  and  C_3 
REMARK    3  A    between atoms: C_2  and  C_15 
REMARK    4  A    between atoms: C_3  and  N_4 
REMARK       I    between atoms: N_4  and  C_5 
REMARK       I    between atoms: C_5  and  N_7 
REMARK    5  A    between atoms: N_7  and  C_8 
REMARK    6  A    between atoms: C_15  and  N_16 
ROOT
HETATM    1  N   UNL     1     -40.849 -50.357  12.735  1.00  0.00    -0.340 N 
HETATM    2  C   UNL     1     -40.205 -49.255  12.217  1.00  0.00     0.321 C 
HETATM    3  O   UNL     1     -39.090 -49.333  11.705  1.00  0.00    -0.247 OA
HETATM    4  N   UNL     1     -40.924 -48.102  12.395  1.00  0.00    -0.295 N 
HETATM    5  H   UNL     1     -41.842 -50.395  12.525  1.00  0.00     0.164 HD
HETATM    6  H   UNL     1     -41.398 -48.044  13.284  1.00  0.00     0.172 HD
ENDROOT
BRANCH   1   7
HETATM    7  C   UNL     1     -40.139 -51.621  12.712  1.00  0.00     0.157 C 
BRANCH   7   8
HETATM    8  C   UNL     1     -41.041 -52.844  12.501  1.00  0.00     0.164 C 
BRANCH   8   9
HETATM    9  O   UNL     1     -40.623 -53.514  11.302  1.00  0.00    -0.392 OA
HETATM   10  H   UNL     1     -41.236 -53.243  10.597  1.00  0.00     0.210 HD
ENDBRANCH   8   9
BRANCH   8  11
HETATM   11  C   UNL     1     -42.540 -52.461  12.423  1.00  0.00     0.305 C 
BRANCH  11  12
HETATM   12  N   UNL     1     -43.401 -53.016  13.494  1.00  0.00     0.090 N 
HETATM   13  C   UNL     1     -44.629 -53.614  12.944  1.00  0.00     0.272 C 
HETATM   14  C   UNL     1     -45.658 -52.587  12.458  1.00  0.00     0.030 C 
HETATM   15  C   UNL     1     -45.978 -51.556  13.537  1.00  0.00     0.003 C 
HETATM   16  C   UNL     1     -44.702 -50.966  14.131  1.00  0.00     0.030 C 
HETATM   17  C   UNL     1     -43.741 -52.073  14.568  1.00  0.00     0.272 C 
ENDBRANCH  11  12
ENDBRANCH   8  11
ENDBRANCH   7   8
ENDBRANCH   1   7
BRANCH   4  18
HETATM   18  C   UNL     1     -40.404 -46.866  11.989  1.00  0.00     0.108 A 
HETATM   19  C   UNL     1     -40.074 -45.883  12.915  1.00  0.00     0.049 A 
HETATM   20  C   UNL     1     -39.644 -44.644  12.451  1.00  0.00     0.005 A 
HETATM   21  C   UNL     1     -39.572 -44.425  11.083  1.00  0.00     0.017 A 
HETATM   22  C   UNL     1     -39.888 -45.476  10.235  1.00  0.00     0.089 A 
HETATM   23  N   UNL     1     -40.266 -46.702  10.658  1.00  0.00    -0.352 N 
ATOM     24  HN  UNL     1     -40.438 -47.466  10.004  1.00  0.00     0.166 HD
ENDBRANCH   4  18
TORSDOF 6
ENDMDL
MODEL 6
REMARK VINA RESULT:      -5.7      2.298      6.979
REMARK  6 active torsions:
REMARK  status: ('A' for Active; 'I' for Inactive)
REMARK    1  A    between atoms: O_1  and  C_2 
REMARK    2  A    between atoms: C_2  and  C_3 
REMARK    3  A    between atoms: C_2  and  C_15 
REMARK    4  A    between atoms: C_3  and  N_4 
REMARK       I    between atoms: N_4  and  C_5 
REMARK       I    between atoms: C_5  and  N_7 
REMARK    5  A    between atoms: N_7  and  C_8 
REMARK    6  A    between atoms: C_15  and  N_16 
ROOT
HETATM    1  N   UNL     1     -42.225 -50.790  11.991  1.00  0.00    -0.340 N 
HETATM    2  C   UNL     1     -42.865 -51.714  12.788  1.00  0.00     0.321 C 
HETATM    3  O   UNL     1     -42.252 -52.421  13.586  1.00  0.00    -0.247 OA
HETATM    4  N   UNL     1     -44.211 -51.773  12.538  1.00  0.00    -0.295 N 
HETATM    5  H   UNL     1     -42.717 -49.906  11.903  1.00  0.00     0.164 HD
HETATM    6  H   UNL     1     -44.453 -51.686  11.562  1.00  0.00     0.172 HD
ENDROOT
BRANCH   1   7
HETATM    7  C   UNL     1     -40.780 -50.714  12.079  1.00  0.00     0.157 C 
BRANCH   7   8
HETATM    8  C   UNL     1     -40.163 -49.553  11.288  1.00  0.00     0.164 C 
BRANCH   8   9
HETATM    9  O   UNL     1     -38.947 -50.014  10.681  1.00  0.00    -0.392 OA
HETATM   10  H   UNL     1     -38.249 -49.945  11.355  1.00  0.00     0.210 HD
ENDBRANCH   8   9
BRANCH   8  11
HETATM   11  C   UNL     1     -39.898 -48.313  12.177  1.00  0.00     0.305 C 
BRANCH  11  12
HETATM   12  N   UNL     1     -40.945 -47.265  12.146  1.00  0.00     0.090 N 
HETATM   13  C   UNL     1     -41.014 -46.610  10.828  1.00  0.00     0.272 C 
HETATM   14  C   UNL     1     -39.851 -45.652  10.547  1.00  0.00     0.030 C 
HETATM   15  C   UNL     1     -39.681 -44.629  11.667  1.00  0.00     0.003 C 
HETATM   16  C   UNL     1     -39.648 -45.308  13.033  1.00  0.00     0.030 C 
HETATM   17  C   UNL     1     -40.840 -46.251  13.204  1.00  0.00     0.272 C 
ENDBRANCH  11  12
ENDBRANCH   8  11
ENDBRANCH   7   8
ENDBRANCH   1   7
BRANCH   4  18
HETATM   18  C   UNL     1     -45.022 -52.698  13.207  1.00  0.00     0.108 A 
HETATM   19  C   UNL     1     -46.091 -52.284  13.994  1.00  0.00     0.049 A 
HETATM   20  C   UNL     1     -46.808 -53.241  14.704  1.00  0.00     0.005 A 
HETATM   21  C   UNL     1     -46.427 -54.572  14.616  1.00  0.00     0.017 A 
HETATM   22  C   UNL     1     -45.371 -54.895  13.778  1.00  0.00     0.089 A 
HETATM   23  N   UNL     1     -44.684 -53.993  13.043  1.00  0.00    -0.352 N 
ATOM     24  HN  UNL     1     -43.947 -54.276  12.397  1.00  0.00     0.166 HD
ENDBRANCH   4  18
TORSDOF 6
ENDMDL
MODEL 7
REMARK VINA RESULT:      -5.6      2.896      4.361
REMARK  6 active torsions:
REMARK  status: ('A' for Active; 'I' for Inactive)
REMARK    1  A    between atoms: O_1  and  C_2 
REMARK    2  A    between atoms: C_2  and  C_3 
REMARK    3  A    between atoms: C_2  and  C_15 
REMARK    4  A    between atoms: C_3  and  N_4 
REMARK       I    between atoms: N_4  and  C_5 
REMARK       I    between atoms: C_5  and  N_7 
REMARK    5  A    between atoms: N_7  and  C_8 
REMARK    6  A    between atoms: C_15  and  N_16 
ROOT
HETATM    1  N   UNL     1     -43.302 -52.901  12.159  1.00  0.00    -0.340 N 
HETATM    2  C   UNL     1     -42.092 -52.303  12.435  1.00  0.00     0.321 C 
HETATM    3  O   UNL     1     -41.346 -52.721  13.320  1.00  0.00    -0.247 OA
HETATM    4  N   UNL     1     -41.871 -51.194  11.661  1.00  0.00    -0.295 N 
HETATM    5  H   UNL     1     -43.509 -52.981  11.168  1.00  0.00     0.164 HD
HETATM    6  H   UNL     1     -42.694 -50.631  11.503  1.00  0.00     0.172 HD
ENDROOT
BRANCH   1   7
HETATM    7  C   UNL     1     -43.705 -54.018  12.992  1.00  0.00     0.157 C 
BRANCH   7   8
HETATM    8  C   UNL     1     -45.223 -54.181  13.132  1.00  0.00     0.164 C 
BRANCH   8   9
HETATM    9  O   UNL     1     -45.862 -53.325  12.173  1.00  0.00    -0.392 OA
HETATM   10  H   UNL     1     -46.240 -53.900  11.486  1.00  0.00     0.210 HD
ENDBRANCH   8   9
BRANCH   8  11
HETATM   11  C   UNL     1     -45.717 -53.867  14.565  1.00  0.00     0.305 C 
BRANCH  11  12
HETATM   12  N   UNL     1     -45.118 -52.671  15.203  1.00  0.00     0.090 N 
HETATM   13  C   UNL     1     -44.944 -52.863  16.653  1.00  0.00     0.272 C 
HETATM   14  C   UNL     1     -46.252 -52.803  17.451  1.00  0.00     0.030 C 
HETATM   15  C   UNL     1     -47.039 -51.530  17.149  1.00  0.00     0.003 C 
HETATM   16  C   UNL     1     -47.184 -51.316  15.646  1.00  0.00     0.030 C 
HETATM   17  C   UNL     1     -45.827 -51.410  14.946  1.00  0.00     0.272 C 
ENDBRANCH  11  12
ENDBRANCH   8  11
ENDBRANCH   7   8
ENDBRANCH   1   7
BRANCH   4  18
HETATM   18  C   UNL     1     -40.721 -50.415  11.840  1.00  0.00     0.108 A 
HETATM   19  C   UNL     1     -40.794 -49.030  11.931  1.00  0.00     0.049 A 
HETATM   20  C   UNL     1     -39.613 -48.302  12.021  1.00  0.00     0.005 A 
HETATM   21  C   UNL     1     -38.401 -48.978  12.002  1.00  0.00     0.017 A 
HETATM   22  C   UNL     1     -38.427 -50.363  11.944  1.00  0.00     0.089 A 
HETATM   23  N   UNL     1     -39.560 -51.099  11.900  1.00  0.00    -0.352 N 
ATOM     24  HN  UNL     1     -39.539 -52.118  11.912  1.00  0.00     0.166 HD
ENDBRANCH   4  18
TORSDOF 6
ENDMDL
MODEL 8
REMARK VINA RESULT:      -5.3      2.387      7.544
REMARK  6 active torsions:
REMARK  status: ('A' for Active; 'I' for Inactive)
REMARK    1  A    between atoms: O_1  and  C_2 
REMARK    2  A    between atoms: C_2  and  C_3 
REMARK    3  A    between atoms: C_2  and  C_15 
REMARK    4  A    between atoms: C_3  and  N_4 
REMARK       I    between atoms: N_4  and  C_5 
REMARK       I    between atoms: C_5  and  N_7 
REMARK    5  A    between atoms: N_7  and  C_8 
REMARK    6  A    between atoms: C_15  and  N_16 
ROOT
HETATM    1  N   UNL     1     -40.803 -48.769  10.697  1.00  0.00    -0.340 N 
HETATM    2  C   UNL     1     -41.241 -49.658  11.654  1.00  0.00     0.321 C 
HETATM    3  O   UNL     1     -41.612 -49.287  12.767  1.00  0.00    -0.247 OA
HETATM    4  N   UNL     1     -41.156 -50.959  11.234  1.00  0.00    -0.295 N 
HETATM    5  H   UNL     1     -41.133 -48.973   9.758  1.00  0.00     0.164 HD
HETATM    6  H   UNL     1     -40.331 -51.163  10.687  1.00  0.00     0.172 HD
ENDROOT
BRANCH   1   7
HETATM    7  C   UNL     1     -40.735 -47.368  11.063  1.00  0.00     0.157 C 
BRANCH   7   8
HETATM    8  C   UNL     1     -41.981 -46.558  10.680  1.00  0.00     0.164 C 
BRANCH   8   9
HETATM    9  O   UNL     1     -41.816 -46.081   9.337  1.00  0.00    -0.392 OA
HETATM   10  H   UNL     1     -40.859 -46.051   9.162  1.00  0.00     0.210 HD
ENDBRANCH   8   9
BRANCH   8  11
HETATM   11  C   UNL     1     -42.238 -45.381  11.654  1.00  0.00     0.305 C 
BRANCH  11  12
HETATM   12  N   UNL     1     -41.931 -44.031  11.125  1.00  0.00     0.090 N 
HETATM   13  C   UNL     1     -40.573 -43.601  11.499  1.00  0.00     0.272 C 
HETATM   14  C   UNL     1     -40.429 -43.206  12.973  1.00  0.00     0.030 C 
HETATM   15  C   UNL     1     -41.473 -42.172  13.384  1.00  0.00     0.003 C 
HETATM   16  C   UNL     1     -42.874 -42.604  12.961  1.00  0.00     0.030 C 
HETATM   17  C   UNL     1     -42.903 -42.989  11.482  1.00  0.00     0.272 C 
ENDBRANCH  11  12
ENDBRANCH   8  11
ENDBRANCH   7   8
ENDBRANCH   1   7
BRANCH   4  18
HETATM   18  C   UNL     1     -41.497 -52.012  12.092  1.00  0.00     0.108 A 
HETATM   19  C   UNL     1     -40.522 -52.812  12.676  1.00  0.00     0.049 A 
HETATM   20  C   UNL     1     -40.922 -53.896  13.451  1.00  0.00     0.005 A 
HETATM   21  C   UNL     1     -42.277 -54.153  13.602  1.00  0.00     0.017 A 
HETATM   22  C   UNL     1     -43.178 -53.280  13.011  1.00  0.00     0.089 A 
HETATM   23  N   UNL     1     -42.818 -52.194  12.291  1.00  0.00    -0.352 N 
ATOM     24  HN  UNL     1     -43.511 -51.546  11.916  1.00  0.00     0.166 HD
ENDBRANCH   4  18
TORSDOF 6
ENDMDL
MODEL 9
REMARK VINA RESULT:      -5.2      3.457      4.845
REMARK  6 active torsions:
REMARK  status: ('A' for Active; 'I' for Inactive)
REMARK    1  A    between atoms: O_1  and  C_2 
REMARK    2  A    between atoms: C_2  and  C_3 
REMARK    3  A    between atoms: C_2  and  C_15 
REMARK    4  A    between atoms: C_3  and  N_4 
REMARK       I    between atoms: N_4  and  C_5 
REMARK       I    between atoms: C_5  and  N_7 
REMARK    5  A    between atoms: N_7  and  C_8 
REMARK    6  A    between atoms: C_15  and  N_16 
ROOT
HETATM    1  N   UNL     1     -41.323 -53.667  15.252  1.00  0.00    -0.340 N 
HETATM    2  C   UNL     1     -40.825 -52.501  14.714  1.00  0.00     0.321 C 
HETATM    3  O   UNL     1     -41.201 -51.394  15.097  1.00  0.00    -0.247 OA
HETATM    4  N   UNL     1     -39.934 -52.735  13.700  1.00  0.00    -0.295 N 
HETATM    5  H   UNL     1     -40.622 -54.385  15.411  1.00  0.00     0.164 HD
HETATM    6  H   UNL     1     -40.186 -53.507  13.100  1.00  0.00     0.172 HD
ENDROOT
BRANCH   1   7
HETATM    7  C   UNL     1     -42.363 -53.552  16.257  1.00  0.00     0.157 C 
BRANCH   7   8
HETATM    8  C   UNL     1     -43.566 -54.475  16.024  1.00  0.00     0.164 C 
BRANCH   8   9
HETATM    9  O   UNL     1     -43.122 -55.618  15.279  1.00  0.00    -0.392 OA
HETATM   10  H   UNL     1     -42.611 -55.283  14.522  1.00  0.00     0.210 HD
ENDBRANCH   8   9
BRANCH   8  11
HETATM   11  C   UNL     1     -44.724 -53.755  15.290  1.00  0.00     0.305 C 
BRANCH  11  12
HETATM   12  N   UNL     1     -44.376 -52.464  14.651  1.00  0.00     0.090 N 
HETATM   13  C   UNL     1     -45.281 -51.386  15.085  1.00  0.00     0.272 C 
HETATM   14  C   UNL     1     -46.684 -51.467  14.473  1.00  0.00     0.030 C 
HETATM   15  C   UNL     1     -46.630 -51.569  12.952  1.00  0.00     0.003 C 
HETATM   16  C   UNL     1     -45.663 -52.661  12.506  1.00  0.00     0.030 C 
HETATM   17  C   UNL     1     -44.302 -52.497  13.184  1.00  0.00     0.272 C 
ENDBRANCH  11  12
ENDBRANCH   8  11
ENDBRANCH   7   8
ENDBRANCH   1   7
BRANCH   4  18
HETATM   18  C   UNL     1     -39.366 -51.672  12.987  1.00  0.00     0.108 A 
HETATM   19  C   UNL     1     -38.065 -51.249  13.237  1.00  0.00     0.049 A 
HETATM   20  C   UNL     1     -37.583 -50.134  12.561  1.00  0.00     0.005 A 
HETATM   21  C   UNL     1     -38.418 -49.471  11.672  1.00  0.00     0.017 A 
HETATM   22  C   UNL     1     -39.688 -49.986  11.461  1.00  0.00     0.089 A 
HETATM   23  N   UNL     1     -40.167 -51.093  12.071  1.00  0.00    -0.352 N 
ATOM     24  HN  UNL     1     -41.088 -51.471  11.849  1.00  0.00     0.166 HD
ENDBRANCH   4  18
TORSDOF 6
ENDMDL
