MODEL 1
REMARK VINA RESULT:      -5.6      0.000      0.000
REMARK  3 active torsions:
REMARK  status: ('A' for Active; 'I' for Inactive)
REMARK    1  A    between atoms: C_2  and  N_3 
REMARK       I    between atoms: N_3  and  C_4 
REMARK    2  A    between atoms: C_4  and  C_6 
REMARK    3  A    between atoms: C_9  and  N_13 
ROOT
HETATM    1  C   UNL     1     -42.022 -47.285  10.327  1.00  0.00     0.047 A 
HETATM    2  C   UNL     1     -41.116 -46.359  10.823  1.00  0.00     0.022 A 
HETATM    3  C   UNL     1     -39.955 -46.808  11.459  1.00  0.00     0.049 A 
HETATM    4  C   UNL     1     -39.687 -48.174  11.581  1.00  0.00     0.103 A 
HETATM    5  N   UNL     1     -40.578 -49.073  11.099  1.00  0.00    -0.351 N 
ATOM      6  HN  UNL     1     -40.407 -50.074  11.196  1.00  0.00     0.166 HD
HETATM    7  C   UNL     1     -41.705 -48.621  10.481  1.00  0.00     0.106 A 
ENDROOT
BRANCH   1   8
HETATM    8  C   UNL     1     -43.238 -46.810   9.626  1.00  0.00     0.253 C 
HETATM    9  N   UNL     1     -44.368 -47.596   9.721  1.00  0.00    -0.357 N 
HETATM   10  H   UNL     1     -44.406 -48.347  10.397  1.00  0.00     0.162 HD
HETATM   11  O   UNL     1     -43.204 -45.745   9.020  1.00  0.00    -0.268 OA
BRANCH   9  12
HETATM   12  C   UNL     1     -45.613 -47.194   9.095  1.00  0.00     0.118 C 
HETATM   13  C   UNL     1     -46.548 -48.372   8.880  1.00  0.00     0.026 C 
ENDBRANCH   9  12
ENDBRANCH   1   8
BRANCH   4  14
HETATM   14  N   UNL     1     -38.555 -48.628  12.219  1.00  0.00    -0.363 N 
HETATM   15  C   UNL     1     -37.683 -49.667  11.656  1.00  0.00     0.150 C 
HETATM   16  C   UNL     1     -37.685 -50.924  12.543  1.00  0.00     0.187 C 
HETATM   17  O   UNL     1     -37.368 -50.615  13.908  1.00  0.00    -0.388 OA
HETATM   18  C   UNL     1     -38.346 -49.705  14.440  1.00  0.00     0.187 C 
HETATM   19  C   UNL     1     -38.369 -48.385  13.657  1.00  0.00     0.150 C 
ENDBRANCH   4  14
TORSDOF 3
ENDMDL
MODEL 2
REMARK VINA RESULT:      -5.4      5.261      7.829
REMARK  3 active torsions:
REMARK  status: ('A' for Active; 'I' for Inactive)
REMARK    1  A    between atoms: C_2  and  N_3 
REMARK       I    between atoms: N_3  and  C_4 
REMARK    2  A    between atoms: C_4  and  C_6 
REMARK    3  A    between atoms: C_9  and  N_13 
ROOT
HETATM    1  C   UNL     1     -40.783 -52.017  12.859  1.00  0.00     0.047 A 
HETATM    2  C   UNL     1     -41.051 -53.319  13.254  1.00  0.00     0.022 A 
HETATM    3  C   UNL     1     -42.375 -53.769  13.281  1.00  0.00     0.049 A 
HETATM    4  C   UNL     1     -43.424 -52.931  12.894  1.00  0.00     0.103 A 
HETATM    5  N   UNL     1     -43.156 -51.659  12.515  1.00  0.00    -0.351 N 
ATOM      6  HN  UNL     1     -43.912 -51.029  12.248  1.00  0.00     0.166 HD
HETATM    7  C   UNL     1     -41.862 -51.234  12.493  1.00  0.00     0.106 A 
ENDROOT
BRANCH   1   8
HETATM    8  C   UNL     1     -39.379 -51.549  12.802  1.00  0.00     0.253 C 
HETATM    9  N   UNL     1     -39.145 -50.323  12.212  1.00  0.00    -0.357 N 
HETATM   10  H   UNL     1     -39.919 -49.703  12.014  1.00  0.00     0.162 HD
HETATM   11  O   UNL     1     -38.494 -52.242  13.292  1.00  0.00    -0.268 OA
BRANCH   9  12
HETATM   12  C   UNL     1     -37.806 -49.771  12.140  1.00  0.00     0.118 C 
HETATM   13  C   UNL     1     -37.163 -50.014  10.786  1.00  0.00     0.026 C 
ENDBRANCH   9  12
ENDBRANCH   1   8
BRANCH   4  14
HETATM   14  N   UNL     1     -44.733 -53.358  12.932  1.00  0.00    -0.363 N 
HETATM   15  C   UNL     1     -45.873 -52.455  12.729  1.00  0.00     0.150 C 
HETATM   16  C   UNL     1     -46.733 -52.364  14.001  1.00  0.00     0.187 C 
HETATM   17  O   UNL     1     -47.130 -53.660  14.471  1.00  0.00    -0.388 OA
HETATM   18  C   UNL     1     -45.965 -54.441  14.788  1.00  0.00     0.187 C 
HETATM   19  C   UNL     1     -45.073 -54.644  13.555  1.00  0.00     0.150 C 
ENDBRANCH   4  14
TORSDOF 3
ENDMDL
MODEL 3
REMARK VINA RESULT:      -5.1      2.127      3.076
REMARK  3 active torsions:
REMARK  status: ('A' for Active; 'I' for Inactive)
REMARK    1  A    between atoms: C_2  and  N_3 
REMARK       I    between atoms: N_3  and  C_4 
REMARK    2  A    between atoms: C_4  and  C_6 
REMARK    3  A    between atoms: C_9  and  N_13 
ROOT
HETATM    1  C   UNL     1     -41.478 -46.728  10.878  1.00  0.00     0.047 A 
HETATM    2  C   UNL     1     -40.408 -46.747  11.761  1.00  0.00     0.022 A 
HETATM    3  C   UNL     1     -39.756 -47.956  12.021  1.00  0.00     0.049 A 
HETATM    4  C   UNL     1     -40.153 -49.136  11.387  1.00  0.00     0.103 A 
HETATM    5  N   UNL     1     -41.201 -49.111  10.531  1.00  0.00    -0.351 N 
ATOM      6  HN  UNL     1     -41.517 -49.967  10.075  1.00  0.00     0.166 HD
HETATM    7  C   UNL     1     -41.828 -47.927  10.286  1.00  0.00     0.106 A 
ENDROOT
BRANCH   1   8
HETATM    8  C   UNL     1     -42.151 -45.443  10.579  1.00  0.00     0.253 C 
HETATM    9  N   UNL     1     -42.144 -44.481  11.569  1.00  0.00    -0.357 N 
HETATM   10  H   UNL     1     -41.538 -44.587  12.372  1.00  0.00     0.162 HD
HETATM   11  O   UNL     1     -42.660 -45.273   9.476  1.00  0.00    -0.268 OA
BRANCH   9  12
HETATM   12  C   UNL     1     -42.751 -43.181  11.353  1.00  0.00     0.118 C 
HETATM   13  C   UNL     1     -41.710 -42.098  11.129  1.00  0.00     0.026 C 
ENDBRANCH   9  12
ENDBRANCH   1   8
BRANCH   4  14
HETATM   14  N   UNL     1     -39.528 -50.335  11.648  1.00  0.00    -0.363 N 
HETATM   15  C   UNL     1     -40.236 -51.503  12.186  1.00  0.00     0.150 C 
HETATM   16  C   UNL     1     -39.705 -51.869  13.583  1.00  0.00     0.187 C 
HETATM   17  O   UNL     1     -38.280 -52.036  13.586  1.00  0.00    -0.388 OA
HETATM   18  C   UNL     1     -37.646 -50.808  13.188  1.00  0.00     0.187 C 
HETATM   19  C   UNL     1     -38.064 -50.394  11.770  1.00  0.00     0.150 C 
ENDBRANCH   4  14
TORSDOF 3
ENDMDL
MODEL 4
REMARK VINA RESULT:      -5.1      4.085      6.155
REMARK  3 active torsions:
REMARK  status: ('A' for Active; 'I' for Inactive)
REMARK    1  A    between atoms: C_2  and  N_3 
REMARK       I    between atoms: N_3  and  C_4 
REMARK    2  A    between atoms: C_4  and  C_6 
REMARK    3  A    between atoms: C_9  and  N_13 
ROOT
HETATM    1  C   UNL     1     -42.883 -51.163  13.226  1.00  0.00     0.047 A 
HETATM    2  C   UNL     1     -43.516 -49.934  13.335  1.00  0.00     0.022 A 
HETATM    3  C   UNL     1     -43.130 -48.886  12.493  1.00  0.00     0.049 A 
HETATM    4  C   UNL     1     -42.133 -49.069  11.532  1.00  0.00     0.103 A 
HETATM    5  N   UNL     1     -41.515 -50.270  11.434  1.00  0.00    -0.351 N 
ATOM      6  HN  UNL     1     -40.772 -50.415  10.750  1.00  0.00     0.166 HD
HETATM    7  C   UNL     1     -41.901 -51.282  12.260  1.00  0.00     0.106 A 
ENDROOT
BRANCH   1   8
HETATM    8  C   UNL     1     -43.310 -52.282  14.097  1.00  0.00     0.253 C 
HETATM    9  N   UNL     1     -43.676 -53.460  13.477  1.00  0.00    -0.357 N 
HETATM   10  H   UNL     1     -43.468 -53.601  12.498  1.00  0.00     0.162 HD
HETATM   11  O   UNL     1     -43.302 -52.133  15.314  1.00  0.00    -0.268 OA
BRANCH   9  12
HETATM   12  C   UNL     1     -44.078 -54.618  14.252  1.00  0.00     0.118 C 
HETATM   13  C   UNL     1     -45.421 -55.165  13.801  1.00  0.00     0.026 C 
ENDBRANCH   9  12
ENDBRANCH   1   8
BRANCH   4  14
HETATM   14  N   UNL     1     -41.734 -48.040  10.708  1.00  0.00    -0.363 N 
HETATM   15  C   UNL     1     -40.648 -47.115  11.055  1.00  0.00     0.150 C 
HETATM   16  C   UNL     1     -41.180 -45.681  11.212  1.00  0.00     0.187 C 
HETATM   17  O   UNL     1     -41.921 -45.257  10.058  1.00  0.00    -0.388 OA
HETATM   18  C   UNL     1     -43.053 -46.122   9.862  1.00  0.00     0.187 C 
HETATM   19  C   UNL     1     -42.615 -47.574   9.627  1.00  0.00     0.150 C 
ENDBRANCH   4  14
TORSDOF 3
ENDMDL
MODEL 5
REMARK VINA RESULT:      -5.1      3.537      4.864
REMARK  3 active torsions:
REMARK  status: ('A' for Active; 'I' for Inactive)
REMARK    1  A    between atoms: C_2  and  N_3 
REMARK       I    between atoms: N_3  and  C_4 
REMARK    2  A    between atoms: C_4  and  C_6 
REMARK    3  A    between atoms: C_9  and  N_13 
ROOT
HETATM    1  C   UNL     1     -41.583 -48.620  11.429  1.00  0.00     0.047 A 
HETATM    2  C   UNL     1     -42.588 -49.015  12.299  1.00  0.00     0.022 A 
HETATM    3  C   UNL     1     -42.706 -50.365  12.644  1.00  0.00     0.049 A 
HETATM    4  C   UNL     1     -41.812 -51.313  12.142  1.00  0.00     0.103 A 
HETATM    5  N   UNL     1     -40.835 -50.922  11.289  1.00  0.00    -0.351 N 
ATOM      6  HN  UNL     1     -40.186 -51.605  10.898  1.00  0.00     0.166 HD
HETATM    7  C   UNL     1     -40.732 -49.604  10.961  1.00  0.00     0.106 A 
ENDROOT
BRANCH   1   8
HETATM    8  C   UNL     1     -41.439 -47.186  11.087  1.00  0.00     0.253 C 
HETATM    9  N   UNL     1     -40.191 -46.755  10.685  1.00  0.00    -0.357 N 
HETATM   10  H   UNL     1     -39.474 -47.430  10.452  1.00  0.00     0.162 HD
HETATM   11  O   UNL     1     -42.420 -46.453  11.147  1.00  0.00    -0.268 OA
BRANCH   9  12
HETATM   12  C   UNL     1     -39.964 -45.375  10.299  1.00  0.00     0.118 C 
HETATM   13  C   UNL     1     -39.591 -44.507  11.488  1.00  0.00     0.026 C 
ENDBRANCH   9  12
ENDBRANCH   1   8
BRANCH   4  14
HETATM   14  N   UNL     1     -41.927 -52.647  12.462  1.00  0.00    -0.363 N 
HETATM   15  C   UNL     1     -43.211 -53.281  12.789  1.00  0.00     0.150 C 
HETATM   16  C   UNL     1     -43.220 -53.782  14.243  1.00  0.00     0.187 C 
HETATM   17  O   UNL     1     -42.096 -54.630  14.523  1.00  0.00    -0.388 OA
HETATM   18  C   UNL     1     -40.874 -53.900  14.321  1.00  0.00     0.187 C 
HETATM   19  C   UNL     1     -40.743 -53.415  12.871  1.00  0.00     0.150 C 
ENDBRANCH   4  14
TORSDOF 3
ENDMDL
MODEL 6
REMARK VINA RESULT:      -5.0      2.907      5.887
REMARK  3 active torsions:
REMARK  status: ('A' for Active; 'I' for Inactive)
REMARK    1  A    between atoms: C_2  and  N_3 
REMARK       I    between atoms: N_3  and  C_4 
REMARK    2  A    between atoms: C_4  and  C_6 
REMARK    3  A    between atoms: C_9  and  N_13 
ROOT
HETATM    1  C   UNL     1     -40.561 -50.351  12.066  1.00  0.00     0.047 A 
HETATM    2  C   UNL     1     -41.834 -49.807  11.975  1.00  0.00     0.022 A 
HETATM    3  C   UNL     1     -41.989 -48.500  11.502  1.00  0.00     0.049 A 
HETATM    4  C   UNL     1     -40.883 -47.747  11.102  1.00  0.00     0.103 A 
HETATM    5  N   UNL     1     -39.643 -48.282  11.198  1.00  0.00    -0.351 N 
ATOM      6  HN  UNL     1     -38.823 -47.739  10.928  1.00  0.00     0.166 HD
HETATM    7  C   UNL     1     -39.506 -49.556  11.660  1.00  0.00     0.106 A 
ENDROOT
BRANCH   1   8
HETATM    8  C   UNL     1     -40.399 -51.745  12.538  1.00  0.00     0.253 C 
HETATM    9  N   UNL     1     -41.542 -52.510  12.653  1.00  0.00    -0.357 N 
HETATM   10  H   UNL     1     -42.409 -52.187  12.245  1.00  0.00     0.162 HD
HETATM   11  O   UNL     1     -39.274 -52.170  12.782  1.00  0.00    -0.268 OA
BRANCH   9  12
HETATM   12  C   UNL     1     -41.474 -53.896  13.077  1.00  0.00     0.118 C 
HETATM   13  C   UNL     1     -42.682 -54.295  13.906  1.00  0.00     0.026 C 
ENDBRANCH   9  12
ENDBRANCH   1   8
BRANCH   4  14
HETATM   14  N   UNL     1     -41.022 -46.453  10.650  1.00  0.00    -0.363 N 
HETATM   15  C   UNL     1     -39.885 -45.540  10.483  1.00  0.00     0.150 C 
HETATM   16  C   UNL     1     -40.001 -44.341  11.439  1.00  0.00     0.187 C 
HETATM   17  O   UNL     1     -41.267 -43.677  11.314  1.00  0.00    -0.388 OA
HETATM   18  C   UNL     1     -42.329 -44.593  11.632  1.00  0.00     0.187 C 
HETATM   19  C   UNL     1     -42.337 -45.797  10.680  1.00  0.00     0.150 C 
ENDBRANCH   4  14
TORSDOF 3
ENDMDL
MODEL 7
REMARK VINA RESULT:      -4.9      3.055      3.631
REMARK  3 active torsions:
REMARK  status: ('A' for Active; 'I' for Inactive)
REMARK    1  A    between atoms: C_2  and  N_3 
REMARK       I    between atoms: N_3  and  C_4 
REMARK    2  A    between atoms: C_4  and  C_6 
REMARK    3  A    between atoms: C_9  and  N_13 
ROOT
HETATM    1  C   UNL     1     -41.456 -49.125  11.214  1.00  0.00     0.047 A 
HETATM    2  C   UNL     1     -42.274 -49.693  12.179  1.00  0.00     0.022 A 
HETATM    3  C   UNL     1     -41.848 -50.845  12.849  1.00  0.00     0.049 A 
HETATM    4  C   UNL     1     -40.602 -51.414  12.574  1.00  0.00     0.103 A 
HETATM    5  N   UNL     1     -39.810 -50.858  11.627  1.00  0.00    -0.351 N 
ATOM      6  HN  UNL     1     -38.907 -51.272  11.400  1.00  0.00     0.166 HD
HETATM    7  C   UNL     1     -40.238 -49.736  10.982  1.00  0.00     0.106 A 
ENDROOT
BRANCH   1   8
HETATM    8  C   UNL     1     -41.893 -47.889  10.525  1.00  0.00     0.253 C 
HETATM    9  N   UNL     1     -42.704 -48.037   9.419  1.00  0.00    -0.357 N 
HETATM   10  H   UNL     1     -43.130 -48.933   9.220  1.00  0.00     0.162 HD
HETATM   11  O   UNL     1     -41.545 -46.800  10.968  1.00  0.00    -0.268 OA
BRANCH   9  12
HETATM   12  C   UNL     1     -43.207 -46.881   8.701  1.00  0.00     0.118 C 
HETATM   13  C   UNL     1     -44.679 -46.635   8.979  1.00  0.00     0.026 C 
ENDBRANCH   9  12
ENDBRANCH   1   8
BRANCH   4  14
HETATM   14  N   UNL     1     -40.179 -52.557  13.215  1.00  0.00    -0.363 N 
HETATM   15  C   UNL     1     -40.851 -53.853  13.062  1.00  0.00     0.150 C 
HETATM   16  C   UNL     1     -41.453 -54.319  14.399  1.00  0.00     0.187 C 
HETATM   17  O   UNL     1     -40.479 -54.321  15.452  1.00  0.00    -0.388 OA
HETATM   18  C   UNL     1     -39.968 -52.991  15.645  1.00  0.00     0.187 C 
HETATM   19  C   UNL     1     -39.283 -52.463  14.377  1.00  0.00     0.150 C 
ENDBRANCH   4  14
TORSDOF 3
ENDMDL
MODEL 8
REMARK VINA RESULT:      -4.8      4.269      5.762
REMARK  3 active torsions:
REMARK  status: ('A' for Active; 'I' for Inactive)
REMARK    1  A    between atoms: C_2  and  N_3 
REMARK       I    between atoms: N_3  and  C_4 
REMARK    2  A    between atoms: C_4  and  C_6 
REMARK    3  A    between atoms: C_9  and  N_13 
ROOT
HETATM    1  C   UNL     1     -41.403 -48.412  12.361  1.00  0.00     0.047 A 
HETATM    2  C   UNL     1     -42.235 -48.243  13.458  1.00  0.00     0.022 A 
HETATM    3  C   UNL     1     -43.086 -49.284  13.841  1.00  0.00     0.049 A 
HETATM    4  C   UNL     1     -43.091 -50.496  13.147  1.00  0.00     0.103 A 
HETATM    5  N   UNL     1     -42.281 -50.653  12.074  1.00  0.00    -0.351 N 
ATOM      6  HN  UNL     1     -42.287 -51.525  11.544  1.00  0.00     0.166 HD
HETATM    7  C   UNL     1     -41.457 -49.631  11.711  1.00  0.00     0.106 A 
ENDROOT
BRANCH   1   8
HETATM    8  C   UNL     1     -40.480 -47.321  11.972  1.00  0.00     0.253 C 
HETATM    9  N   UNL     1     -40.820 -46.572  10.864  1.00  0.00    -0.357 N 
HETATM   10  H   UNL     1     -41.747 -46.646  10.469  1.00  0.00     0.162 HD
HETATM   11  O   UNL     1     -39.480 -47.110  12.650  1.00  0.00    -0.268 OA
BRANCH   9  12
HETATM   12  C   UNL     1     -39.992 -45.463  10.429  1.00  0.00     0.118 C 
HETATM   13  C   UNL     1     -40.458 -44.142  11.015  1.00  0.00     0.026 C 
ENDBRANCH   9  12
ENDBRANCH   1   8
BRANCH   4  14
HETATM   14  N   UNL     1     -43.936 -51.523  13.505  1.00  0.00    -0.363 N 
HETATM   15  C   UNL     1     -43.484 -52.910  13.666  1.00  0.00     0.150 C 
HETATM   16  C   UNL     1     -44.151 -53.829  12.628  1.00  0.00     0.187 C 
HETATM   17  O   UNL     1     -45.581 -53.707  12.648  1.00  0.00    -0.388 OA
HETATM   18  C   UNL     1     -45.958 -52.355  12.340  1.00  0.00     0.187 C 
HETATM   19  C   UNL     1     -45.391 -51.365  13.367  1.00  0.00     0.150 C 
ENDBRANCH   4  14
TORSDOF 3
ENDMDL
MODEL 9
REMARK VINA RESULT:      -4.8      3.429      4.547
REMARK  3 active torsions:
REMARK  status: ('A' for Active; 'I' for Inactive)
REMARK    1  A    between atoms: C_2  and  N_3 
REMARK       I    between atoms: N_3  and  C_4 
REMARK    2  A    between atoms: C_4  and  C_6 
REMARK    3  A    between atoms: C_9  and  N_13 
ROOT
HETATM    1  C   UNL     1     -39.723 -45.193  12.586  1.00  0.00     0.047 A 
HETATM    2  C   UNL     1     -39.293 -46.066  13.574  1.00  0.00     0.022 A 
HETATM    3  C   UNL     1     -39.145 -47.424  13.272  1.00  0.00     0.049 A 
HETATM    4  C   UNL     1     -39.403 -47.904  11.986  1.00  0.00     0.103 A 
HETATM    5  N   UNL     1     -39.827 -47.047  11.028  1.00  0.00    -0.351 N 
ATOM      6  HN  UNL     1     -40.039 -47.385  10.089  1.00  0.00     0.166 HD
HETATM    7  C   UNL     1     -39.968 -45.728  11.335  1.00  0.00     0.106 A 
ENDROOT
BRANCH   1   8
HETATM    8  C   UNL     1     -39.852 -43.750  12.896  1.00  0.00     0.253 C 
HETATM    9  N   UNL     1     -40.268 -42.920  11.875  1.00  0.00    -0.357 N 
HETATM   10  H   UNL     1     -40.650 -43.316  11.026  1.00  0.00     0.162 HD
HETATM   11  O   UNL     1     -39.614 -43.356  14.032  1.00  0.00    -0.268 OA
BRANCH   9  12
HETATM   12  C   UNL     1     -40.454 -41.498  12.095  1.00  0.00     0.118 C 
HETATM   13  C   UNL     1     -41.708 -40.977  11.417  1.00  0.00     0.026 C 
ENDBRANCH   9  12
ENDBRANCH   1   8
BRANCH   4  14
HETATM   14  N   UNL     1     -39.276 -49.241  11.682  1.00  0.00    -0.363 N 
HETATM   15  C   UNL     1     -40.429 -50.127  11.480  1.00  0.00     0.150 C 
HETATM   16  C   UNL     1     -40.472 -51.225  12.557  1.00  0.00     0.187 C 
HETATM   17  O   UNL     1     -39.231 -51.941  12.639  1.00  0.00    -0.388 OA
HETATM   18  C   UNL     1     -38.168 -51.036  12.982  1.00  0.00     0.187 C 
HETATM   19  C   UNL     1     -38.003 -49.936  11.923  1.00  0.00     0.150 C 
ENDBRANCH   4  14
TORSDOF 3
ENDMDL
