MODEL 1
REMARK VINA RESULT:      -5.4      0.000      0.000
REMARK  4 active torsions:
REMARK  status: ('A' for Active; 'I' for Inactive)
REMARK    1  A    between atoms: C_2  and  N_4 
REMARK    2  A    between atoms: C_7  and  N_10 
REMARK       I    between atoms: N_10  and  C_11 
REMARK    3  A    between atoms: C_11  and  C_13 
REMARK    4  A    between atoms: C_13  and  N_14 
ROOT
HETATM    1  N   UNL     1     -42.479 -50.470  12.010  1.00  0.00    -0.355 N 
HETATM    2  C   UNL     1     -41.498 -49.502  11.901  1.00  0.00     0.237 C 
HETATM    3  O   UNL     1     -40.752 -49.188  12.825  1.00  0.00    -0.272 OA
HETATM    4  H   UNL     1     -42.907 -50.811  11.150  1.00  0.00     0.162 HD
ENDROOT
BRANCH   1   5
HETATM    5  C   UNL     1     -42.766 -51.190  13.250  1.00  0.00     0.087 C 
HETATM    6  C   UNL     1     -42.719 -52.705  13.029  1.00  0.00     0.055 C 
HETATM    7  C   UNL     1     -43.968 -53.228  12.311  1.00  0.00     0.275 C 
HETATM    8  N   UNL     1     -45.239 -52.838  12.947  1.00  0.00     0.092 N 
HETATM    9  C   UNL     1     -45.288 -51.368  13.041  1.00  0.00     0.275 C 
HETATM   10  C   UNL     1     -44.119 -50.759  13.821  1.00  0.00     0.055 C 
BRANCH   8  11
HETATM   11  C   UNL     1     -45.537 -53.550  14.215  1.00  0.00     0.215 C 
HETATM   12  C   UNL     1     -46.906 -53.154  14.801  1.00  0.00     0.042 C 
HETATM   13  C   UNL     1     -45.568 -55.078  14.028  1.00  0.00     0.042 C 
ENDBRANCH   8  11
ENDBRANCH   1   5
BRANCH   2  14
HETATM   14  C   UNL     1     -41.382 -48.888  10.507  1.00  0.00     0.255 C 
BRANCH  14  15
HETATM   15  N   UNL     1     -41.304 -47.445  10.597  1.00  0.00    -0.243 N 
HETATM   16  N   UNL     1     -40.083 -46.824  10.715  1.00  0.00    -0.299 N 
HETATM   17  C   UNL     1     -40.267 -45.556  10.894  1.00  0.00     0.162 A 
ATOM     18  HN  UNL     1     -39.177 -47.289  10.669  1.00  0.00     0.187 HD
HETATM   19  S   UNL     1     -41.918 -45.002  10.954  1.00  0.00    -0.021 SA
HETATM   20  C   UNL     1     -42.423 -46.663  10.770  1.00  0.00     0.306 A 
HETATM   21  O   UNL     1     -43.587 -47.032  10.800  1.00  0.00    -0.258 OA
ENDBRANCH  14  15
ENDBRANCH   2  14
TORSDOF 4
ENDMDL
MODEL 2
REMARK VINA RESULT:      -5.2      3.641      4.324
REMARK  4 active torsions:
REMARK  status: ('A' for Active; 'I' for Inactive)
REMARK    1  A    between atoms: C_2  and  N_4 
REMARK    2  A    between atoms: C_7  and  N_10 
REMARK       I    between atoms: N_10  and  C_11 
REMARK    3  A    between atoms: C_11  and  C_13 
REMARK    4  A    between atoms: C_13  and  N_14 
ROOT
HETATM    1  N   UNL     1     -41.074 -52.317  14.552  1.00  0.00    -0.355 N 
HETATM    2  C   UNL     1     -39.844 -52.724  14.066  1.00  0.00     0.237 C 
HETATM    3  O   UNL     1     -39.695 -53.702  13.338  1.00  0.00    -0.272 OA
HETATM    4  H   UNL     1     -41.135 -51.391  14.972  1.00  0.00     0.162 HD
ENDROOT
BRANCH   1   5
HETATM    5  C   UNL     1     -42.322 -53.034  14.287  1.00  0.00     0.087 C 
HETATM    6  C   UNL     1     -42.991 -52.517  13.010  1.00  0.00     0.055 C 
HETATM    7  C   UNL     1     -43.686 -51.167  13.222  1.00  0.00     0.275 C 
HETATM    8  N   UNL     1     -44.636 -51.147  14.349  1.00  0.00     0.092 N 
HETATM    9  C   UNL     1     -43.923 -51.547  15.575  1.00  0.00     0.275 C 
HETATM   10  C   UNL     1     -43.267 -52.927  15.486  1.00  0.00     0.055 C 
BRANCH   8  11
HETATM   11  C   UNL     1     -45.901 -51.882  14.100  1.00  0.00     0.215 C 
HETATM   12  C   UNL     1     -46.990 -51.539  15.135  1.00  0.00     0.042 C 
HETATM   13  C   UNL     1     -46.497 -51.560  12.718  1.00  0.00     0.042 C 
ENDBRANCH   8  11
ENDBRANCH   1   5
BRANCH   2  14
HETATM   14  C   UNL     1     -38.685 -51.817  14.474  1.00  0.00     0.255 C 
BRANCH  14  15
HETATM   15  N   UNL     1     -38.429 -50.832  13.444  1.00  0.00    -0.243 N 
HETATM   16  N   UNL     1     -39.227 -49.718  13.338  1.00  0.00    -0.299 N 
HETATM   17  C   UNL     1     -38.884 -49.048  12.285  1.00  0.00     0.162 A 
ATOM     18  HN  UNL     1     -39.971 -49.461  13.985  1.00  0.00     0.187 HD
HETATM   19  S   UNL     1     -37.588 -49.705  11.324  1.00  0.00    -0.021 SA
HETATM   20  C   UNL     1     -37.531 -51.058  12.425  1.00  0.00     0.306 A 
HETATM   21  O   UNL     1     -36.804 -52.029  12.280  1.00  0.00    -0.258 OA
ENDBRANCH  14  15
ENDBRANCH   2  14
TORSDOF 4
ENDMDL
MODEL 3
REMARK VINA RESULT:      -4.9      4.331      7.291
REMARK  4 active torsions:
REMARK  status: ('A' for Active; 'I' for Inactive)
REMARK    1  A    between atoms: C_2  and  N_4 
REMARK    2  A    between atoms: C_7  and  N_10 
REMARK       I    between atoms: N_10  and  C_11 
REMARK    3  A    between atoms: C_11  and  C_13 
REMARK    4  A    between atoms: C_13  and  N_14 
ROOT
HETATM    1  N   UNL     1     -43.280 -53.576  13.360  1.00  0.00    -0.355 N 
HETATM    2  C   UNL     1     -44.626 -53.781  13.116  1.00  0.00     0.237 C 
HETATM    3  O   UNL     1     -45.201 -53.368  12.112  1.00  0.00    -0.272 OA
HETATM    4  H   UNL     1     -42.844 -54.121  14.102  1.00  0.00     0.162 HD
ENDROOT
BRANCH   1   5
HETATM    5  C   UNL     1     -42.409 -52.805  12.473  1.00  0.00     0.087 C 
HETATM    6  C   UNL     1     -40.983 -53.365  12.482  1.00  0.00     0.055 C 
HETATM    7  C   UNL     1     -40.213 -52.979  13.751  1.00  0.00     0.275 C 
HETATM    8  N   UNL     1     -40.203 -51.531  14.033  1.00  0.00     0.092 N 
HETATM    9  C   UNL     1     -41.596 -51.058  14.122  1.00  0.00     0.275 C 
HETATM   10  C   UNL     1     -42.421 -51.325  12.861  1.00  0.00     0.055 C 
BRANCH   8  11
HETATM   11  C   UNL     1     -39.334 -50.735  13.132  1.00  0.00     0.215 C 
HETATM   12  C   UNL     1     -39.377 -49.229  13.458  1.00  0.00     0.042 C 
HETATM   13  C   UNL     1     -37.858 -51.159  13.226  1.00  0.00     0.042 C 
ENDBRANCH   8  11
ENDBRANCH   1   5
BRANCH   2  14
HETATM   14  C   UNL     1     -45.331 -54.617  14.182  1.00  0.00     0.255 C 
BRANCH  14  15
HETATM   15  N   UNL     1     -45.975 -53.756  15.152  1.00  0.00    -0.243 N 
HETATM   16  N   UNL     1     -46.793 -52.733  14.735  1.00  0.00    -0.299 N 
HETATM   17  C   UNL     1     -47.160 -52.036  15.761  1.00  0.00     0.162 A 
ATOM     18  HN  UNL     1     -47.068 -52.553  13.770  1.00  0.00     0.187 HD
HETATM   19  S   UNL     1     -46.541 -52.535  17.311  1.00  0.00    -0.021 SA
HETATM   20  C   UNL     1     -45.649 -53.790  16.488  1.00  0.00     0.306 A 
HETATM   21  O   UNL     1     -44.868 -54.550  17.042  1.00  0.00    -0.258 OA
ENDBRANCH  14  15
ENDBRANCH   2  14
TORSDOF 4
ENDMDL
MODEL 4
REMARK VINA RESULT:      -4.9      2.770      3.217
REMARK  4 active torsions:
REMARK  status: ('A' for Active; 'I' for Inactive)
REMARK    1  A    between atoms: C_2  and  N_4 
REMARK    2  A    between atoms: C_7  and  N_10 
REMARK       I    between atoms: N_10  and  C_11 
REMARK    3  A    between atoms: C_11  and  C_13 
REMARK    4  A    between atoms: C_13  and  N_14 
ROOT
HETATM    1  N   UNL     1     -42.526 -52.018  12.276  1.00  0.00    -0.355 N 
HETATM    2  C   UNL     1     -41.208 -51.766  11.944  1.00  0.00     0.237 C 
HETATM    3  O   UNL     1     -40.310 -52.597  12.062  1.00  0.00    -0.272 OA
HETATM    4  H   UNL     1     -43.231 -51.355  11.958  1.00  0.00     0.162 HD
ENDROOT
BRANCH   1   5
HETATM    5  C   UNL     1     -42.986 -53.285  12.846  1.00  0.00     0.087 C 
HETATM    6  C   UNL     1     -44.469 -53.516  12.546  1.00  0.00     0.055 C 
HETATM    7  C   UNL     1     -45.383 -52.662  13.433  1.00  0.00     0.275 C 
HETATM    8  N   UNL     1     -45.120 -52.797  14.878  1.00  0.00     0.092 N 
HETATM    9  C   UNL     1     -43.708 -52.461  15.134  1.00  0.00     0.275 C 
HETATM   10  C   UNL     1     -42.715 -53.326  14.352  1.00  0.00     0.055 C 
BRANCH   8  11
HETATM   11  C   UNL     1     -45.568 -54.083  15.467  1.00  0.00     0.215 C 
HETATM   12  C   UNL     1     -45.786 -53.985  16.990  1.00  0.00     0.042 C 
HETATM   13  C   UNL     1     -46.900 -54.564  14.866  1.00  0.00     0.042 C 
ENDBRANCH   8  11
ENDBRANCH   1   5
BRANCH   2  14
HETATM   14  C   UNL     1     -40.968 -50.373  11.365  1.00  0.00     0.255 C 
BRANCH  14  15
HETATM   15  N   UNL     1     -39.687 -49.859  11.803  1.00  0.00    -0.243 N 
HETATM   16  N   UNL     1     -38.546 -50.145  11.091  1.00  0.00    -0.299 N 
HETATM   17  C   UNL     1     -37.519 -49.682  11.728  1.00  0.00     0.162 A 
ATOM     18  HN  UNL     1     -38.514 -50.643  10.202  1.00  0.00     0.187 HD
HETATM   19  S   UNL     1     -37.832 -48.880  13.243  1.00  0.00    -0.021 SA
HETATM   20  C   UNL     1     -39.524 -49.251  13.027  1.00  0.00     0.306 A 
HETATM   21  O   UNL     1     -40.390 -49.001  13.851  1.00  0.00    -0.258 OA
ENDBRANCH  14  15
ENDBRANCH   2  14
TORSDOF 4
ENDMDL
MODEL 5
REMARK VINA RESULT:      -4.9      4.422      7.673
REMARK  4 active torsions:
REMARK  status: ('A' for Active; 'I' for Inactive)
REMARK    1  A    between atoms: C_2  and  N_4 
REMARK    2  A    between atoms: C_7  and  N_10 
REMARK       I    between atoms: N_10  and  C_11 
REMARK    3  A    between atoms: C_11  and  C_13 
REMARK    4  A    between atoms: C_13  and  N_14 
ROOT
HETATM    1  N   UNL     1     -39.985 -52.205  13.813  1.00  0.00    -0.355 N 
HETATM    2  C   UNL     1     -40.596 -53.258  13.156  1.00  0.00     0.237 C 
HETATM    3  O   UNL     1     -40.515 -53.437  11.944  1.00  0.00    -0.272 OA
HETATM    4  H   UNL     1     -39.931 -52.247  14.829  1.00  0.00     0.162 HD
ENDROOT
BRANCH   1   5
HETATM    5  C   UNL     1     -39.215 -51.167  13.128  1.00  0.00     0.087 C 
HETATM    6  C   UNL     1     -37.941 -50.825  13.905  1.00  0.00     0.055 C 
HETATM    7  C   UNL     1     -38.224 -49.955  15.135  1.00  0.00     0.275 C 
HETATM    8  N   UNL     1     -38.997 -48.733  14.846  1.00  0.00     0.092 N 
HETATM    9  C   UNL     1     -40.262 -49.118  14.196  1.00  0.00     0.275 C 
HETATM   10  C   UNL     1     -40.075 -49.920  12.905  1.00  0.00     0.055 C 
BRANCH   8  11
HETATM   11  C   UNL     1     -38.233 -47.675  14.138  1.00  0.00     0.215 C 
HETATM   12  C   UNL     1     -38.936 -46.305  14.199  1.00  0.00     0.042 C 
HETATM   13  C   UNL     1     -36.831 -47.472  14.739  1.00  0.00     0.042 C 
ENDBRANCH   8  11
ENDBRANCH   1   5
BRANCH   2  14
HETATM   14  C   UNL     1     -41.343 -54.217  14.081  1.00  0.00     0.255 C 
BRANCH  14  15
HETATM   15  N   UNL     1     -42.741 -54.287  13.710  1.00  0.00    -0.243 N 
HETATM   16  N   UNL     1     -43.217 -53.543  12.657  1.00  0.00    -0.299 N 
HETATM   17  C   UNL     1     -44.502 -53.677  12.587  1.00  0.00     0.162 A 
ATOM     18  HN  UNL     1     -42.647 -52.975  12.030  1.00  0.00     0.187 HD
HETATM   19  S   UNL     1     -45.251 -54.693  13.787  1.00  0.00    -0.021 SA
HETATM   20  C   UNL     1     -43.674 -54.924  14.497  1.00  0.00     0.306 A 
HETATM   21  O   UNL     1     -43.471 -55.551  15.526  1.00  0.00    -0.258 OA
ENDBRANCH  14  15
ENDBRANCH   2  14
TORSDOF 4
ENDMDL
MODEL 6
REMARK VINA RESULT:      -4.9      3.242      7.262
REMARK  4 active torsions:
REMARK  status: ('A' for Active; 'I' for Inactive)
REMARK    1  A    between atoms: C_2  and  N_4 
REMARK    2  A    between atoms: C_7  and  N_10 
REMARK       I    between atoms: N_10  and  C_11 
REMARK    3  A    between atoms: C_11  and  C_13 
REMARK    4  A    between atoms: C_13  and  N_14 
ROOT
HETATM    1  N   UNL     1     -42.455 -50.326  12.366  1.00  0.00    -0.355 N 
HETATM    2  C   UNL     1     -42.080 -51.559  12.866  1.00  0.00     0.237 C 
HETATM    3  O   UNL     1     -41.317 -51.698  13.819  1.00  0.00    -0.272 OA
HETATM    4  H   UNL     1     -43.241 -50.295  11.718  1.00  0.00     0.162 HD
ENDROOT
BRANCH   1   5
HETATM    5  C   UNL     1     -41.947 -49.056  12.886  1.00  0.00     0.087 C 
HETATM    6  C   UNL     1     -43.004 -47.954  12.772  1.00  0.00     0.055 C 
HETATM    7  C   UNL     1     -43.147 -47.431  11.337  1.00  0.00     0.275 C 
HETATM    8  N   UNL     1     -41.879 -46.998  10.723  1.00  0.00     0.092 N 
HETATM    9  C   UNL     1     -40.929 -48.124  10.759  1.00  0.00     0.275 C 
HETATM   10  C   UNL     1     -40.656 -48.659  12.167  1.00  0.00     0.055 C 
BRANCH   8  11
HETATM   11  C   UNL     1     -41.344 -45.719  11.251  1.00  0.00     0.215 C 
HETATM   12  C   UNL     1     -40.063 -45.273  10.520  1.00  0.00     0.042 C 
HETATM   13  C   UNL     1     -42.352 -44.565  11.106  1.00  0.00     0.042 C 
ENDBRANCH   8  11
ENDBRANCH   1   5
BRANCH   2  14
HETATM   14  C   UNL     1     -42.741 -52.742  12.163  1.00  0.00     0.255 C 
BRANCH  14  15
HETATM   15  N   UNL     1     -43.547 -53.499  13.099  1.00  0.00    -0.243 N 
HETATM   16  N   UNL     1     -42.946 -54.297  14.042  1.00  0.00    -0.299 N 
HETATM   17  C   UNL     1     -43.856 -54.957  14.683  1.00  0.00     0.162 A 
ATOM     18  HN  UNL     1     -41.942 -54.360  14.211  1.00  0.00     0.187 HD
HETATM   19  S   UNL     1     -45.508 -54.690  14.198  1.00  0.00    -0.021 SA
HETATM   20  C   UNL     1     -44.912 -53.611  12.962  1.00  0.00     0.306 A 
HETATM   21  O   UNL     1     -45.620 -53.068  12.127  1.00  0.00    -0.258 OA
ENDBRANCH  14  15
ENDBRANCH   2  14
TORSDOF 4
ENDMDL
MODEL 7
REMARK VINA RESULT:      -4.8      2.049      2.165
REMARK  4 active torsions:
REMARK  status: ('A' for Active; 'I' for Inactive)
REMARK    1  A    between atoms: C_2  and  N_4 
REMARK    2  A    between atoms: C_7  and  N_10 
REMARK       I    between atoms: N_10  and  C_11 
REMARK    3  A    between atoms: C_11  and  C_13 
REMARK    4  A    between atoms: C_13  and  N_14 
ROOT
HETATM    1  N   UNL     1     -41.399 -51.304  12.713  1.00  0.00    -0.355 N 
HETATM    2  C   UNL     1     -40.106 -51.039  12.301  1.00  0.00     0.237 C 
HETATM    3  O   UNL     1     -39.139 -51.722  12.628  1.00  0.00    -0.272 OA
HETATM    4  H   UNL     1     -42.158 -50.820  12.236  1.00  0.00     0.162 HD
ENDROOT
BRANCH   1   5
HETATM    5  C   UNL     1     -41.748 -52.398  13.620  1.00  0.00     0.087 C 
HETATM    6  C   UNL     1     -42.400 -53.555  12.859  1.00  0.00     0.055 C 
HETATM    7  C   UNL     1     -43.857 -53.259  12.484  1.00  0.00     0.275 C 
HETATM    8  N   UNL     1     -44.701 -52.846  13.621  1.00  0.00     0.092 N 
HETATM    9  C   UNL     1     -44.091 -51.665  14.256  1.00  0.00     0.275 C 
HETATM   10  C   UNL     1     -42.658 -51.894  14.743  1.00  0.00     0.055 C 
BRANCH   8  11
HETATM   11  C   UNL     1     -45.051 -53.943  14.557  1.00  0.00     0.215 C 
HETATM   12  C   UNL     1     -46.194 -53.553  15.514  1.00  0.00     0.042 C 
HETATM   13  C   UNL     1     -45.514 -55.211  13.819  1.00  0.00     0.042 C 
ENDBRANCH   8  11
ENDBRANCH   1   5
BRANCH   2  14
HETATM   14  C   UNL     1     -39.988 -49.847  11.354  1.00  0.00     0.255 C 
BRANCH  14  15
HETATM   15  N   UNL     1     -39.680 -48.642  12.096  1.00  0.00    -0.243 N 
HETATM   16  N   UNL     1     -39.034 -48.721  13.307  1.00  0.00    -0.299 N 
HETATM   17  C   UNL     1     -38.971 -47.541  13.833  1.00  0.00     0.162 A 
ATOM     18  HN  UNL     1     -38.664 -49.574  13.725  1.00  0.00     0.187 HD
HETATM   19  S   UNL     1     -39.695 -46.239  12.930  1.00  0.00    -0.021 SA
HETATM   20  C   UNL     1     -40.185 -47.414  11.736  1.00  0.00     0.306 A 
HETATM   21  O   UNL     1     -40.868 -47.151  10.757  1.00  0.00    -0.258 OA
ENDBRANCH  14  15
ENDBRANCH   2  14
TORSDOF 4
ENDMDL
MODEL 8
REMARK VINA RESULT:      -4.7      3.649      7.323
REMARK  4 active torsions:
REMARK  status: ('A' for Active; 'I' for Inactive)
REMARK    1  A    between atoms: C_2  and  N_4 
REMARK    2  A    between atoms: C_7  and  N_10 
REMARK       I    between atoms: N_10  and  C_11 
REMARK    3  A    between atoms: C_11  and  C_13 
REMARK    4  A    between atoms: C_13  and  N_14 
ROOT
HETATM    1  N   UNL     1     -40.536 -51.396  13.471  1.00  0.00    -0.355 N 
HETATM    2  C   UNL     1     -40.807 -52.722  13.188  1.00  0.00     0.237 C 
HETATM    3  O   UNL     1     -40.446 -53.281  12.155  1.00  0.00    -0.272 OA
HETATM    4  H   UNL     1     -40.688 -51.074  14.425  1.00  0.00     0.162 HD
ENDROOT
BRANCH   1   5
HETATM    5  C   UNL     1     -39.832 -50.504  12.550  1.00  0.00     0.087 C 
HETATM    6  C   UNL     1     -39.115 -49.384  13.310  1.00  0.00     0.055 C 
HETATM    7  C   UNL     1     -40.082 -48.297  13.794  1.00  0.00     0.275 C 
HETATM    8  N   UNL     1     -40.939 -47.736  12.734  1.00  0.00     0.092 N 
HETATM    9  C   UNL     1     -41.689 -48.836  12.102  1.00  0.00     0.275 C 
HETATM   10  C   UNL     1     -40.799 -49.932  11.511  1.00  0.00     0.055 C 
BRANCH   8  11
HETATM   11  C   UNL     1     -40.235 -46.840  11.784  1.00  0.00     0.215 C 
HETATM   12  C   UNL     1     -41.172 -46.296  10.688  1.00  0.00     0.042 C 
HETATM   13  C   UNL     1     -39.627 -45.612  12.485  1.00  0.00     0.042 C 
ENDBRANCH   8  11
ENDBRANCH   1   5
BRANCH   2  14
HETATM   14  C   UNL     1     -41.554 -53.455  14.301  1.00  0.00     0.255 C 
BRANCH  14  15
HETATM   15  N   UNL     1     -42.874 -53.842  13.851  1.00  0.00    -0.243 N 
HETATM   16  N   UNL     1     -43.479 -53.167  12.818  1.00  0.00    -0.299 N 
HETATM   17  C   UNL     1     -44.687 -53.609  12.670  1.00  0.00     0.162 A 
ATOM     18  HN  UNL     1     -43.046 -52.435  12.256  1.00  0.00     0.187 HD
HETATM   19  S   UNL     1     -45.205 -54.858  13.768  1.00  0.00    -0.021 SA
HETATM   20  C   UNL     1     -43.648 -54.741  14.548  1.00  0.00     0.306 A 
HETATM   21  O   UNL     1     -43.336 -55.368  15.549  1.00  0.00    -0.258 OA
ENDBRANCH  14  15
ENDBRANCH   2  14
TORSDOF 4
ENDMDL
MODEL 9
REMARK VINA RESULT:      -4.6      5.293      7.349
REMARK  4 active torsions:
REMARK  status: ('A' for Active; 'I' for Inactive)
REMARK    1  A    between atoms: C_2  and  N_4 
REMARK    2  A    between atoms: C_7  and  N_10 
REMARK       I    between atoms: N_10  and  C_11 
REMARK    3  A    between atoms: C_11  and  C_13 
REMARK    4  A    between atoms: C_13  and  N_14 
ROOT
HETATM    1  N   UNL     1     -41.270 -53.397  14.070  1.00  0.00    -0.355 N 
HETATM    2  C   UNL     1     -40.144 -53.477  14.870  1.00  0.00     0.237 C 
HETATM    3  O   UNL     1     -39.753 -52.555  15.581  1.00  0.00    -0.272 OA
HETATM    4  H   UNL     1     -41.635 -54.263  13.678  1.00  0.00     0.162 HD
ENDROOT
BRANCH   1   5
HETATM    5  C   UNL     1     -42.090 -52.191  13.952  1.00  0.00     0.087 C 
HETATM    6  C   UNL     1     -43.118 -52.112  15.084  1.00  0.00     0.055 C 
HETATM    7  C   UNL     1     -44.299 -53.066  14.866  1.00  0.00     0.275 C 
HETATM    8  N   UNL     1     -44.959 -52.919  13.556  1.00  0.00     0.092 N 
HETATM    9  C   UNL     1     -43.953 -53.109  12.496  1.00  0.00     0.275 C 
HETATM   10  C   UNL     1     -42.772 -52.138  12.583  1.00  0.00     0.055 C 
BRANCH   8  11
HETATM   11  C   UNL     1     -45.783 -51.693  13.416  1.00  0.00     0.215 C 
HETATM   12  C   UNL     1     -46.692 -51.738  12.172  1.00  0.00     0.042 C 
HETATM   13  C   UNL     1     -46.709 -51.475  14.625  1.00  0.00     0.042 C 
ENDBRANCH   8  11
ENDBRANCH   1   5
BRANCH   2  14
HETATM   14  C   UNL     1     -39.451 -54.838  14.832  1.00  0.00     0.255 C 
BRANCH  14  15
HETATM   15  N   UNL     1     -39.508 -55.468  16.134  1.00  0.00    -0.243 N 
HETATM   16  N   UNL     1     -40.662 -55.418  16.878  1.00  0.00    -0.299 N 
HETATM   17  C   UNL     1     -40.443 -55.942  18.041  1.00  0.00     0.162 A 
ATOM     18  HN  UNL     1     -41.551 -55.030  16.565  1.00  0.00     0.187 HD
HETATM   19  S   UNL     1     -38.829 -56.523  18.348  1.00  0.00    -0.021 SA
HETATM   20  C   UNL     1     -38.382 -55.954  16.759  1.00  0.00     0.306 A 
HETATM   21  O   UNL     1     -37.245 -55.994  16.313  1.00  0.00    -0.258 OA
ENDBRANCH  14  15
ENDBRANCH   2  14
TORSDOF 4
ENDMDL
