MODEL 1
REMARK VINA RESULT:      -6.6      0.000      0.000
REMARK  5 active torsions:
REMARK  status: ('A' for Active; 'I' for Inactive)
REMARK       I    between atoms: N_2  and  C_3 
REMARK    1  A    between atoms: C_3  and  C_5 
REMARK    2  A    between atoms: C_5  and  N_6 
REMARK    3  A    between atoms: C_9  and  N_12 
REMARK       I    between atoms: N_12  and  C_13 
REMARK    4  A    between atoms: C_13  and  C_15 
REMARK    5  A    between atoms: C_15  and  N_16 
ROOT
HETATM    1  N   UNL     1     -40.301 -51.507  13.596  1.00  0.00     0.097 N 
HETATM    2  C   UNL     1     -41.236 -51.657  14.725  1.00  0.00     0.275 C 
HETATM    3  C   UNL     1     -41.205 -53.034  15.391  1.00  0.00     0.055 C 
HETATM    4  C   UNL     1     -41.413 -54.164  14.382  1.00  0.00     0.087 C 
HETATM    5  C   UNL     1     -40.494 -53.994  13.169  1.00  0.00     0.055 C 
HETATM    6  C   UNL     1     -40.535 -52.569  12.602  1.00  0.00     0.275 C 
ENDROOT
BRANCH   4   7
HETATM    7  N   UNL     1     -42.816 -54.250  13.979  1.00  0.00    -0.355 N 
HETATM    8  C   UNL     1     -43.716 -55.103  14.584  1.00  0.00     0.236 C 
HETATM    9  O   UNL     1     -43.418 -55.873  15.495  1.00  0.00    -0.272 OA
HETATM   10  H   UNL     1     -43.103 -53.805  13.110  1.00  0.00     0.162 HD
BRANCH   8  11
HETATM   11  C   UNL     1     -45.124 -55.060  13.989  1.00  0.00     0.234 C 
BRANCH  11  12
HETATM   12  N   UNL     1     -45.747 -53.764  14.233  1.00  0.00    -0.316 N 
HETATM   13  C   UNL     1     -46.293 -53.491  15.476  1.00  0.00     0.095 A 
HETATM   14  C   UNL     1     -46.876 -52.314  15.732  1.00  0.00     0.017 A 
HETATM   15  C   UNL     1     -46.933 -51.303  14.705  1.00  0.00     0.007 A 
HETATM   16  C   UNL     1     -46.436 -51.543  13.484  1.00  0.00     0.074 A 
HETATM   17  C   UNL     1     -45.816 -52.862  13.175  1.00  0.00     0.247 A 
HETATM   18  O   UNL     1     -45.407 -53.096  12.041  1.00  0.00    -0.268 OA
ENDBRANCH  11  12
ENDBRANCH   8  11
ENDBRANCH   4   7
BRANCH   1  19
HETATM   19  C   UNL     1     -38.880 -51.481  14.025  1.00  0.00     0.374 C 
BRANCH  19  20
HETATM   20  C   UNL     1     -37.934 -51.269  12.840  1.00  0.00     0.245 C 
HETATM   21  N   UNL     1     -38.201 -50.132  12.108  1.00  0.00    -0.364 N 
HETATM   22  C   UNL     1     -37.359 -49.750  11.004  1.00  0.00     0.149 C 
HETATM   23  H   UNL     1     -38.793 -49.439  12.554  1.00  0.00     0.161 HD
HETATM   24  O   UNL     1     -37.036 -52.061  12.563  1.00  0.00    -0.272 OA
ENDBRANCH  19  20
ENDBRANCH   1  19
TORSDOF 5
ENDMDL
MODEL 2
REMARK VINA RESULT:      -5.9      4.596      5.092
REMARK  5 active torsions:
REMARK  status: ('A' for Active; 'I' for Inactive)
REMARK       I    between atoms: N_2  and  C_3 
REMARK    1  A    between atoms: C_3  and  C_5 
REMARK    2  A    between atoms: C_5  and  N_6 
REMARK    3  A    between atoms: C_9  and  N_12 
REMARK       I    between atoms: N_12  and  C_13 
REMARK    4  A    between atoms: C_13  and  C_15 
REMARK    5  A    between atoms: C_15  and  N_16 
ROOT
HETATM    1  N   UNL     1     -42.572 -46.905  12.379  1.00  0.00     0.097 N 
HETATM    2  C   UNL     1     -42.355 -47.854  13.484  1.00  0.00     0.275 C 
HETATM    3  C   UNL     1     -41.225 -48.856  13.242  1.00  0.00     0.055 C 
HETATM    4  C   UNL     1     -41.403 -49.614  11.925  1.00  0.00     0.087 C 
HETATM    5  C   UNL     1     -41.693 -48.649  10.772  1.00  0.00     0.055 C 
HETATM    6  C   UNL     1     -42.792 -47.638  11.120  1.00  0.00     0.275 C 
ENDROOT
BRANCH   4   7
HETATM    7  N   UNL     1     -42.448 -50.628  12.046  1.00  0.00    -0.355 N 
HETATM    8  C   UNL     1     -42.190 -51.923  12.450  1.00  0.00     0.236 C 
HETATM    9  O   UNL     1     -41.066 -52.340  12.723  1.00  0.00    -0.272 OA
HETATM   10  H   UNL     1     -43.365 -50.436  11.650  1.00  0.00     0.162 HD
BRANCH   8  11
HETATM   11  C   UNL     1     -43.419 -52.832  12.477  1.00  0.00     0.234 C 
BRANCH  11  12
HETATM   12  N   UNL     1     -44.437 -52.296  13.373  1.00  0.00    -0.316 N 
HETATM   13  C   UNL     1     -44.079 -51.881  14.645  1.00  0.00     0.095 A 
HETATM   14  C   UNL     1     -44.990 -51.389  15.494  1.00  0.00     0.017 A 
HETATM   15  C   UNL     1     -46.367 -51.274  15.082  1.00  0.00     0.007 A 
HETATM   16  C   UNL     1     -46.751 -51.687  13.866  1.00  0.00     0.074 A 
HETATM   17  C   UNL     1     -45.756 -52.271  12.925  1.00  0.00     0.247 A 
HETATM   18  O   UNL     1     -46.121 -52.694  11.831  1.00  0.00    -0.268 OA
ENDBRANCH  11  12
ENDBRANCH   8  11
ENDBRANCH   4   7
BRANCH   1  19
HETATM   19  C   UNL     1     -41.470 -45.921  12.240  1.00  0.00     0.374 C 
BRANCH  19  20
HETATM   20  C   UNL     1     -41.825 -44.808  11.250  1.00  0.00     0.245 C 
HETATM   21  N   UNL     1     -42.825 -43.967  11.689  1.00  0.00    -0.364 N 
HETATM   22  C   UNL     1     -43.227 -42.827  10.908  1.00  0.00     0.149 C 
HETATM   23  H   UNL     1     -43.034 -43.997  12.682  1.00  0.00     0.161 HD
HETATM   24  O   UNL     1     -41.277 -44.699  10.156  1.00  0.00    -0.272 OA
ENDBRANCH  19  20
ENDBRANCH   1  19
TORSDOF 5
ENDMDL
MODEL 3
REMARK VINA RESULT:      -5.8      2.807      3.190
REMARK  5 active torsions:
REMARK  status: ('A' for Active; 'I' for Inactive)
REMARK       I    between atoms: N_2  and  C_3 
REMARK    1  A    between atoms: C_3  and  C_5 
REMARK    2  A    between atoms: C_5  and  N_6 
REMARK    3  A    between atoms: C_9  and  N_12 
REMARK       I    between atoms: N_12  and  C_13 
REMARK    4  A    between atoms: C_13  and  C_15 
REMARK    5  A    between atoms: C_15  and  N_16 
ROOT
HETATM    1  N   UNL     1     -40.808 -48.791  12.979  1.00  0.00     0.097 N 
HETATM    2  C   UNL     1     -40.415 -49.429  14.248  1.00  0.00     0.275 C 
HETATM    3  C   UNL     1     -39.683 -50.762  14.084  1.00  0.00     0.055 C 
HETATM    4  C   UNL     1     -40.474 -51.748  13.222  1.00  0.00     0.087 C 
HETATM    5  C   UNL     1     -40.946 -51.087  11.925  1.00  0.00     0.055 C 
HETATM    6  C   UNL     1     -41.610 -49.727  12.172  1.00  0.00     0.275 C 
ENDROOT
BRANCH   4   7
HETATM    7  N   UNL     1     -41.595 -52.311  13.972  1.00  0.00    -0.355 N 
HETATM    8  C   UNL     1     -42.044 -53.603  13.788  1.00  0.00     0.236 C 
HETATM    9  O   UNL     1     -41.557 -54.383  12.971  1.00  0.00    -0.272 OA
HETATM   10  H   UNL     1     -42.183 -51.684  14.516  1.00  0.00     0.162 HD
BRANCH   8  11
HETATM   11  C   UNL     1     -43.249 -53.981  14.649  1.00  0.00     0.234 C 
BRANCH  11  12
HETATM   12  N   UNL     1     -44.388 -53.122  14.346  1.00  0.00    -0.316 N 
HETATM   13  C   UNL     1     -44.763 -52.141  15.250  1.00  0.00     0.095 A 
HETATM   14  C   UNL     1     -45.806 -51.338  15.005  1.00  0.00     0.017 A 
HETATM   15  C   UNL     1     -46.551 -51.483  13.779  1.00  0.00     0.007 A 
HETATM   16  C   UNL     1     -46.229 -52.436  12.894  1.00  0.00     0.074 A 
HETATM   17  C   UNL     1     -45.094 -53.360  13.170  1.00  0.00     0.247 A 
HETATM   18  O   UNL     1     -44.833 -54.264  12.380  1.00  0.00    -0.268 OA
ENDBRANCH  11  12
ENDBRANCH   8  11
ENDBRANCH   4   7
BRANCH   1  19
HETATM   19  C   UNL     1     -39.647 -48.279  12.210  1.00  0.00     0.374 C 
BRANCH  19  20
HETATM   20  C   UNL     1     -39.768 -46.777  11.935  1.00  0.00     0.245 C 
HETATM   21  N   UNL     1     -39.741 -46.449  10.597  1.00  0.00    -0.364 N 
HETATM   22  C   UNL     1     -39.916 -45.087  10.167  1.00  0.00     0.149 C 
HETATM   23  H   UNL     1     -39.907 -47.209   9.945  1.00  0.00     0.161 HD
HETATM   24  O   UNL     1     -39.857 -45.947  12.837  1.00  0.00    -0.272 OA
ENDBRANCH  19  20
ENDBRANCH   1  19
TORSDOF 5
ENDMDL
MODEL 4
REMARK VINA RESULT:      -5.7      1.979      7.003
REMARK  5 active torsions:
REMARK  status: ('A' for Active; 'I' for Inactive)
REMARK       I    between atoms: N_2  and  C_3 
REMARK    1  A    between atoms: C_3  and  C_5 
REMARK    2  A    between atoms: C_5  and  N_6 
REMARK    3  A    between atoms: C_9  and  N_12 
REMARK       I    between atoms: N_12  and  C_13 
REMARK    4  A    between atoms: C_13  and  C_15 
REMARK    5  A    between atoms: C_15  and  N_16 
ROOT
HETATM    1  N   UNL     1     -44.598 -52.783  15.104  1.00  0.00     0.097 N 
HETATM    2  C   UNL     1     -43.747 -52.145  14.084  1.00  0.00     0.275 C 
HETATM    3  C   UNL     1     -43.147 -53.115  13.066  1.00  0.00     0.055 C 
HETATM    4  C   UNL     1     -42.390 -54.259  13.741  1.00  0.00     0.087 C 
HETATM    5  C   UNL     1     -43.233 -54.898  14.848  1.00  0.00     0.055 C 
HETATM    6  C   UNL     1     -43.850 -53.853  15.787  1.00  0.00     0.275 C 
ENDROOT
BRANCH   4   7
HETATM    7  N   UNL     1     -41.100 -53.799  14.252  1.00  0.00    -0.355 N 
HETATM    8  C   UNL     1     -40.126 -53.253  13.440  1.00  0.00     0.236 C 
HETATM    9  O   UNL     1     -40.247 -53.125  12.224  1.00  0.00    -0.272 OA
HETATM   10  H   UNL     1     -40.832 -54.050  15.201  1.00  0.00     0.162 HD
BRANCH   8  11
HETATM   11  C   UNL     1     -38.839 -52.868  14.170  1.00  0.00     0.234 C 
BRANCH  11  12
HETATM   12  N   UNL     1     -38.578 -51.439  14.035  1.00  0.00    -0.316 N 
HETATM   13  C   UNL     1     -39.303 -50.537  14.797  1.00  0.00     0.095 A 
HETATM   14  C   UNL     1     -39.092 -49.219  14.694  1.00  0.00     0.017 A 
HETATM   15  C   UNL     1     -38.089 -48.722  13.786  1.00  0.00     0.007 A 
HETATM   16  C   UNL     1     -37.386 -49.566  13.018  1.00  0.00     0.074 A 
HETATM   17  C   UNL     1     -37.636 -51.031  13.095  1.00  0.00     0.247 A 
HETATM   18  O   UNL     1     -37.025 -51.797  12.354  1.00  0.00    -0.268 OA
ENDBRANCH  11  12
ENDBRANCH   8  11
ENDBRANCH   4   7
BRANCH   1  19
HETATM   19  C   UNL     1     -45.876 -53.293  14.549  1.00  0.00     0.374 C 
BRANCH  19  20
HETATM   20  C   UNL     1     -46.575 -52.244  13.680  1.00  0.00     0.245 C 
HETATM   21  N   UNL     1     -46.612 -52.562  12.340  1.00  0.00    -0.364 N 
HETATM   22  C   UNL     1     -47.298 -51.716  11.398  1.00  0.00     0.149 C 
HETATM   23  H   UNL     1     -46.424 -53.531  12.103  1.00  0.00     0.161 HD
HETATM   24  O   UNL     1     -47.038 -51.204  14.145  1.00  0.00    -0.272 OA
ENDBRANCH  19  20
ENDBRANCH   1  19
TORSDOF 5
ENDMDL
MODEL 5
REMARK VINA RESULT:      -5.4      3.688      5.506
REMARK  5 active torsions:
REMARK  status: ('A' for Active; 'I' for Inactive)
REMARK       I    between atoms: N_2  and  C_3 
REMARK    1  A    between atoms: C_3  and  C_5 
REMARK    2  A    between atoms: C_5  and  N_6 
REMARK    3  A    between atoms: C_9  and  N_12 
REMARK       I    between atoms: N_12  and  C_13 
REMARK    4  A    between atoms: C_13  and  C_15 
REMARK    5  A    between atoms: C_15  and  N_16 
ROOT
HETATM    1  N   UNL     1     -41.545 -49.219  11.253  1.00  0.00     0.097 N 
HETATM    2  C   UNL     1     -42.051 -49.846  12.487  1.00  0.00     0.275 C 
HETATM    3  C   UNL     1     -41.124 -49.701  13.694  1.00  0.00     0.055 C 
HETATM    4  C   UNL     1     -39.708 -50.197  13.394  1.00  0.00     0.087 C 
HETATM    5  C   UNL     1     -39.186 -49.605  12.082  1.00  0.00     0.055 C 
HETATM    6  C   UNL     1     -40.201 -49.735  10.939  1.00  0.00     0.275 C 
ENDROOT
BRANCH   4   7
HETATM    7  N   UNL     1     -39.663 -51.658  13.375  1.00  0.00    -0.355 N 
HETATM    8  C   UNL     1     -39.153 -52.404  14.419  1.00  0.00     0.236 C 
HETATM    9  O   UNL     1     -38.679 -51.910  15.440  1.00  0.00    -0.272 OA
HETATM   10  H   UNL     1     -39.842 -52.142  12.498  1.00  0.00     0.162 HD
BRANCH   8  11
HETATM   11  C   UNL     1     -39.169 -53.914  14.182  1.00  0.00     0.234 C 
BRANCH  11  12
HETATM   12  N   UNL     1     -40.284 -54.534  14.888  1.00  0.00    -0.316 N 
HETATM   13  C   UNL     1     -40.049 -55.218  16.070  1.00  0.00     0.095 A 
HETATM   14  C   UNL     1     -41.048 -55.803  16.741  1.00  0.00     0.017 A 
HETATM   15  C   UNL     1     -42.397 -55.717  16.238  1.00  0.00     0.007 A 
HETATM   16  C   UNL     1     -42.656 -55.083  15.086  1.00  0.00     0.074 A 
HETATM   17  C   UNL     1     -41.548 -54.459  14.311  1.00  0.00     0.247 A 
HETATM   18  O   UNL     1     -41.783 -53.923  13.231  1.00  0.00    -0.268 OA
ENDBRANCH  11  12
ENDBRANCH   8  11
ENDBRANCH   4   7
BRANCH   1  19
HETATM   19  C   UNL     1     -41.547 -47.737  11.319  1.00  0.00     0.374 C 
BRANCH  19  20
HETATM   20  C   UNL     1     -42.269 -47.117  10.119  1.00  0.00     0.245 C 
HETATM   21  N   UNL     1     -42.740 -48.042   9.211  1.00  0.00    -0.364 N 
HETATM   22  C   UNL     1     -43.505 -47.628   8.064  1.00  0.00     0.149 C 
HETATM   23  H   UNL     1     -42.799 -49.001   9.538  1.00  0.00     0.161 HD
HETATM   24  O   UNL     1     -42.391 -45.903   9.977  1.00  0.00    -0.272 OA
ENDBRANCH  19  20
ENDBRANCH   1  19
TORSDOF 5
ENDMDL
MODEL 6
REMARK VINA RESULT:      -5.3      2.268      7.141
REMARK  5 active torsions:
REMARK  status: ('A' for Active; 'I' for Inactive)
REMARK       I    between atoms: N_2  and  C_3 
REMARK    1  A    between atoms: C_3  and  C_5 
REMARK    2  A    between atoms: C_5  and  N_6 
REMARK    3  A    between atoms: C_9  and  N_12 
REMARK       I    between atoms: N_12  and  C_13 
REMARK    4  A    between atoms: C_13  and  C_15 
REMARK    5  A    between atoms: C_15  and  N_16 
ROOT
HETATM    1  N   UNL     1     -42.265 -53.566  13.236  1.00  0.00     0.097 N 
HETATM    2  C   UNL     1     -40.931 -54.095  12.904  1.00  0.00     0.275 C 
HETATM    3  C   UNL     1     -39.965 -54.161  14.088  1.00  0.00     0.055 C 
HETATM    4  C   UNL     1     -39.834 -52.811  14.796  1.00  0.00     0.087 C 
HETATM    5  C   UNL     1     -41.211 -52.213  15.096  1.00  0.00     0.055 C 
HETATM    6  C   UNL     1     -42.138 -52.244  13.875  1.00  0.00     0.275 C 
ENDROOT
BRANCH   4   7
HETATM    7  N   UNL     1     -39.012 -51.891  14.013  1.00  0.00    -0.355 N 
HETATM    8  C   UNL     1     -38.171 -50.961  14.592  1.00  0.00     0.236 C 
HETATM    9  O   UNL     1     -38.055 -50.813  15.807  1.00  0.00    -0.272 OA
HETATM   10  H   UNL     1     -39.192 -51.801  13.016  1.00  0.00     0.162 HD
BRANCH   8  11
HETATM   11  C   UNL     1     -37.427 -50.075  13.594  1.00  0.00     0.234 C 
BRANCH  11  12
HETATM   12  N   UNL     1     -38.208 -48.882  13.282  1.00  0.00    -0.316 N 
HETATM   13  C   UNL     1     -38.143 -47.784  14.123  1.00  0.00     0.095 A 
HETATM   14  C   UNL     1     -38.850 -46.676  13.870  1.00  0.00     0.017 A 
HETATM   15  C   UNL     1     -39.687 -46.612  12.697  1.00  0.00     0.007 A 
HETATM   16  C   UNL     1     -39.790 -47.664  11.874  1.00  0.00     0.074 A 
HETATM   17  C   UNL     1     -39.038 -48.916  12.165  1.00  0.00     0.247 A 
HETATM   18  O   UNL     1     -39.174 -49.896  11.436  1.00  0.00    -0.268 OA
ENDBRANCH  11  12
ENDBRANCH   8  11
ENDBRANCH   4   7
BRANCH   1  19
HETATM   19  C   UNL     1     -43.058 -54.494  14.080  1.00  0.00     0.374 C 
BRANCH  19  20
HETATM   20  C   UNL     1     -44.560 -54.362  13.809  1.00  0.00     0.245 C 
HETATM   21  N   UNL     1     -45.295 -53.977  14.910  1.00  0.00    -0.364 N 
HETATM   22  C   UNL     1     -46.710 -53.737  14.806  1.00  0.00     0.149 C 
HETATM   23  H   UNL     1     -44.771 -53.578  15.683  1.00  0.00     0.161 HD
HETATM   24  O   UNL     1     -45.056 -54.602  12.711  1.00  0.00    -0.272 OA
ENDBRANCH  19  20
ENDBRANCH   1  19
TORSDOF 5
ENDMDL
MODEL 7
REMARK VINA RESULT:      -5.2      4.423      5.295
REMARK  5 active torsions:
REMARK  status: ('A' for Active; 'I' for Inactive)
REMARK       I    between atoms: N_2  and  C_3 
REMARK    1  A    between atoms: C_3  and  C_5 
REMARK    2  A    between atoms: C_5  and  N_6 
REMARK    3  A    between atoms: C_9  and  N_12 
REMARK       I    between atoms: N_12  and  C_13 
REMARK    4  A    between atoms: C_13  and  C_15 
REMARK    5  A    between atoms: C_15  and  N_16 
ROOT
HETATM    1  N   UNL     1     -40.822 -46.696  12.329  1.00  0.00     0.097 N 
HETATM    2  C   UNL     1     -39.974 -47.832  12.731  1.00  0.00     0.275 C 
HETATM    3  C   UNL     1     -40.010 -49.018  11.766  1.00  0.00     0.055 C 
HETATM    4  C   UNL     1     -41.438 -49.496  11.499  1.00  0.00     0.087 C 
HETATM    5  C   UNL     1     -42.352 -48.322  11.140  1.00  0.00     0.055 C 
HETATM    6  C   UNL     1     -42.208 -47.150  12.119  1.00  0.00     0.275 C 
ENDROOT
BRANCH   4   7
HETATM    7  N   UNL     1     -41.957 -50.246  12.642  1.00  0.00    -0.355 N 
HETATM    8  C   UNL     1     -41.974 -51.626  12.685  1.00  0.00     0.236 C 
HETATM    9  O   UNL     1     -41.575 -52.341  11.768  1.00  0.00    -0.272 OA
HETATM   10  H   UNL     1     -42.490 -49.749  13.352  1.00  0.00     0.162 HD
BRANCH   8  11
HETATM   11  C   UNL     1     -42.590 -52.209  13.956  1.00  0.00     0.234 C 
BRANCH  11  12
HETATM   12  N   UNL     1     -44.033 -51.999  13.973  1.00  0.00    -0.316 N 
HETATM   13  C   UNL     1     -44.792 -52.375  12.876  1.00  0.00     0.095 A 
HETATM   14  C   UNL     1     -46.117 -52.192  12.856  1.00  0.00     0.017 A 
HETATM   15  C   UNL     1     -46.777 -51.604  13.996  1.00  0.00     0.007 A 
HETATM   16  C   UNL     1     -46.071 -51.208  15.064  1.00  0.00     0.074 A 
HETATM   17  C   UNL     1     -44.592 -51.372  15.084  1.00  0.00     0.247 A 
HETATM   18  O   UNL     1     -43.942 -50.963  16.043  1.00  0.00    -0.268 OA
ENDBRANCH  11  12
ENDBRANCH   8  11
ENDBRANCH   4   7
BRANCH   1  19
HETATM   19  C   UNL     1     -40.305 -45.987  11.133  1.00  0.00     0.374 C 
BRANCH  19  20
HETATM   20  C   UNL     1     -40.836 -44.553  11.050  1.00  0.00     0.245 C 
HETATM   21  N   UNL     1     -40.146 -43.654  11.836  1.00  0.00    -0.364 N 
HETATM   22  C   UNL     1     -40.474 -42.253  11.816  1.00  0.00     0.149 C 
HETATM   23  H   UNL     1     -39.235 -43.955  12.167  1.00  0.00     0.161 HD
HETATM   24  O   UNL     1     -41.806 -44.247  10.360  1.00  0.00    -0.272 OA
ENDBRANCH  19  20
ENDBRANCH   1  19
TORSDOF 5
ENDMDL
MODEL 8
REMARK VINA RESULT:      -5.1      2.114      7.312
REMARK  5 active torsions:
REMARK  status: ('A' for Active; 'I' for Inactive)
REMARK       I    between atoms: N_2  and  C_3 
REMARK    1  A    between atoms: C_3  and  C_5 
REMARK    2  A    between atoms: C_5  and  N_6 
REMARK    3  A    between atoms: C_9  and  N_12 
REMARK       I    between atoms: N_12  and  C_13 
REMARK    4  A    between atoms: C_13  and  C_15 
REMARK    5  A    between atoms: C_15  and  N_16 
ROOT
HETATM    1  N   UNL     1     -45.135 -52.398  14.869  1.00  0.00     0.097 N 
HETATM    2  C   UNL     1     -45.227 -52.071  13.436  1.00  0.00     0.275 C 
HETATM    3  C   UNL     1     -44.556 -53.087  12.512  1.00  0.00     0.055 C 
HETATM    4  C   UNL     1     -43.098 -53.340  12.900  1.00  0.00     0.087 C 
HETATM    5  C   UNL     1     -42.971 -53.622  14.400  1.00  0.00     0.055 C 
HETATM    6  C   UNL     1     -43.725 -52.594  15.252  1.00  0.00     0.275 C 
ENDROOT
BRANCH   4   7
HETATM    7  N   UNL     1     -42.250 -52.221  12.495  1.00  0.00    -0.355 N 
HETATM    8  C   UNL     1     -40.889 -52.345  12.303  1.00  0.00     0.236 C 
HETATM    9  O   UNL     1     -40.270 -53.394  12.474  1.00  0.00    -0.272 OA
HETATM   10  H   UNL     1     -42.634 -51.279  12.528  1.00  0.00     0.162 HD
BRANCH   8  11
HETATM   11  C   UNL     1     -40.185 -51.046  11.913  1.00  0.00     0.234 C 
BRANCH  11  12
HETATM   12  N   UNL     1     -39.412 -50.522  13.034  1.00  0.00    -0.316 N 
HETATM   13  C   UNL     1     -40.039 -49.739  13.990  1.00  0.00     0.095 A 
HETATM   14  C   UNL     1     -39.360 -49.238  15.028  1.00  0.00     0.017 A 
HETATM   15  C   UNL     1     -37.953 -49.522  15.168  1.00  0.00     0.007 A 
HETATM   16  C   UNL     1     -37.310 -50.256  14.250  1.00  0.00     0.074 A 
HETATM   17  C   UNL     1     -38.047 -50.789  13.070  1.00  0.00     0.247 A 
HETATM   18  O   UNL     1     -37.444 -51.419  12.205  1.00  0.00    -0.268 OA
ENDBRANCH  11  12
ENDBRANCH   8  11
ENDBRANCH   4   7
BRANCH   1  19
HETATM   19  C   UNL     1     -45.959 -53.573  15.245  1.00  0.00     0.374 C 
BRANCH  19  20
HETATM   20  C   UNL     1     -46.038 -53.747  16.765  1.00  0.00     0.245 C 
HETATM   21  N   UNL     1     -46.566 -52.658  17.426  1.00  0.00    -0.364 N 
HETATM   22  C   UNL     1     -46.775 -52.689  18.849  1.00  0.00     0.149 C 
HETATM   23  H   UNL     1     -47.074 -51.990  16.855  1.00  0.00     0.161 HD
HETATM   24  O   UNL     1     -45.642 -54.761  17.335  1.00  0.00    -0.272 OA
ENDBRANCH  19  20
ENDBRANCH   1  19
TORSDOF 5
ENDMDL
MODEL 9
REMARK VINA RESULT:      -5.1      3.223      5.056
REMARK  5 active torsions:
REMARK  status: ('A' for Active; 'I' for Inactive)
REMARK       I    between atoms: N_2  and  C_3 
REMARK    1  A    between atoms: C_3  and  C_5 
REMARK    2  A    between atoms: C_5  and  N_6 
REMARK    3  A    between atoms: C_9  and  N_12 
REMARK       I    between atoms: N_12  and  C_13 
REMARK    4  A    between atoms: C_13  and  C_15 
REMARK    5  A    between atoms: C_15  and  N_16 
ROOT
HETATM    1  N   UNL     1     -39.890 -54.379  16.744  1.00  0.00     0.097 N 
HETATM    2  C   UNL     1     -41.244 -54.571  16.196  1.00  0.00     0.275 C 
HETATM    3  C   UNL     1     -41.302 -54.635  14.669  1.00  0.00     0.055 C 
HETATM    4  C   UNL     1     -40.638 -53.420  14.018  1.00  0.00     0.087 C 
HETATM    5  C   UNL     1     -39.253 -53.165  14.618  1.00  0.00     0.055 C 
HETATM    6  C   UNL     1     -39.270 -53.181  16.151  1.00  0.00     0.275 C 
ENDROOT
BRANCH   4   7
HETATM    7  N   UNL     1     -41.492 -52.239  14.128  1.00  0.00    -0.355 N 
HETATM    8  C   UNL     1     -42.289 -51.794  13.093  1.00  0.00     0.236 C 
HETATM    9  O   UNL     1     -42.336 -52.334  11.989  1.00  0.00    -0.272 OA
HETATM   10  H   UNL     1     -41.366 -51.617  14.923  1.00  0.00     0.162 HD
BRANCH   8  11
HETATM   11  C   UNL     1     -43.077 -50.522  13.405  1.00  0.00     0.234 C 
BRANCH  11  12
HETATM   12  N   UNL     1     -44.377 -50.850  13.981  1.00  0.00    -0.316 N 
HETATM   13  C   UNL     1     -45.402 -51.279  13.153  1.00  0.00     0.095 A 
HETATM   14  C   UNL     1     -46.608 -51.584  13.647  1.00  0.00     0.017 A 
HETATM   15  C   UNL     1     -46.851 -51.476  15.065  1.00  0.00     0.007 A 
HETATM   16  C   UNL     1     -45.888 -51.042  15.890  1.00  0.00     0.074 A 
HETATM   17  C   UNL     1     -44.553 -50.665  15.349  1.00  0.00     0.247 A 
HETATM   18  O   UNL     1     -43.690 -50.221  16.102  1.00  0.00    -0.268 OA
ENDBRANCH  11  12
ENDBRANCH   8  11
ENDBRANCH   4   7
BRANCH   1  19
HETATM   19  C   UNL     1     -39.024 -55.572  16.568  1.00  0.00     0.374 C 
BRANCH  19  20
HETATM   20  C   UNL     1     -39.523 -56.760  17.396  1.00  0.00     0.245 C 
HETATM   21  N   UNL     1     -39.498 -56.544  18.757  1.00  0.00    -0.364 N 
HETATM   22  C   UNL     1     -40.002 -57.535  19.671  1.00  0.00     0.149 C 
HETATM   23  H   UNL     1     -39.412 -55.578  19.057  1.00  0.00     0.161 HD
HETATM   24  O   UNL     1     -39.888 -57.815  16.882  1.00  0.00    -0.272 OA
ENDBRANCH  19  20
ENDBRANCH   1  19
TORSDOF 5
ENDMDL
