MODEL 1
REMARK VINA RESULT:      -5.4      0.000      0.000
REMARK  6 active torsions:
REMARK  status: ('A' for Active; 'I' for Inactive)
REMARK    1  A    between atoms: O_2  and  C_3 
REMARK    2  A    between atoms: C_3  and  C_4 
REMARK    3  A    between atoms: C_4  and  O_5 
REMARK    4  A    between atoms: O_5  and  C_6 
REMARK    5  A    between atoms: C_9  and  N_10 
REMARK       I    between atoms: N_10  and  C_11 
REMARK    6  A    between atoms: C_11  and  C_13 
ROOT
HETATM    1  C   UNL     1     -38.938 -55.260  15.343  1.00  0.00     0.141 A 
HETATM    2  C   UNL     1     -39.984 -54.976  16.201  1.00  0.00     0.058 A 
HETATM    3  C   UNL     1     -41.076 -54.267  15.703  1.00  0.00     0.035 A 
HETATM    4  C   UNL     1     -41.115 -53.885  14.363  1.00  0.00     0.050 A 
HETATM    5  C   UNL     1     -40.005 -54.218  13.587  1.00  0.00     0.119 A 
HETATM    6  N   UNL     1     -38.922 -54.897  14.043  1.00  0.00    -0.345 N 
ATOM      7  HN  UNL     1     -38.136 -55.123  13.434  1.00  0.00     0.167 HD
ENDROOT
BRANCH   4   8
HETATM    8  N   UNL     1     -42.197 -53.181  13.787  1.00  0.00    -0.324 N 
HETATM    9  C   UNL     1     -43.488 -53.649  13.669  1.00  0.00     0.251 C 
HETATM   10  O   UNL     1     -43.882 -54.778  13.970  1.00  0.00    -0.270 OA
HETATM   11  H   UNL     1     -42.016 -52.279  13.353  1.00  0.00     0.169 HD
BRANCH   9  12
HETATM   12  C   UNL     1     -44.472 -52.635  13.075  1.00  0.00     0.213 C 
HETATM   13  C   UNL     1     -45.125 -51.803  14.171  1.00  0.00     0.044 C 
HETATM   14  C   UNL     1     -46.505 -51.483  13.637  1.00  0.00     0.029 C 
HETATM   15  C   UNL     1     -46.522 -52.104  12.257  1.00  0.00     0.168 C 
HETATM   16  O   UNL     1     -45.559 -53.169  12.314  1.00  0.00    -0.376 OA
ENDBRANCH   9  12
ENDBRANCH   4   8
BRANCH   1  17
HETATM   17  O   UNL     1     -37.889 -55.983  15.876  1.00  0.00    -0.334 OA
BRANCH  17  18
HETATM   18  C   UNL     1     -38.060 -56.229  17.272  1.00  0.00     0.203 C 
BRANCH  18  19
HETATM   19  C   UNL     1     -36.690 -56.376  17.926  1.00  0.00     0.193 C 
BRANCH  19  20
HETATM   20  O   UNL     1     -35.684 -56.175  16.933  1.00  0.00    -0.394 OA
HETATM   21  C   UNL     1     -34.390 -56.052  17.503  1.00  0.00     0.201 C 
ENDBRANCH  19  20
ENDBRANCH  18  19
ENDBRANCH  17  18
ENDBRANCH   1  17
TORSDOF 6
ENDMDL
MODEL 2
REMARK VINA RESULT:      -5.3      6.527      9.300
REMARK  6 active torsions:
REMARK  status: ('A' for Active; 'I' for Inactive)
REMARK    1  A    between atoms: O_2  and  C_3 
REMARK    2  A    between atoms: C_3  and  C_4 
REMARK    3  A    between atoms: C_4  and  O_5 
REMARK    4  A    between atoms: O_5  and  C_6 
REMARK    5  A    between atoms: C_9  and  N_10 
REMARK       I    between atoms: N_10  and  C_11 
REMARK    6  A    between atoms: C_11  and  C_13 
ROOT
HETATM    1  C   UNL     1     -42.337 -46.039  11.019  1.00  0.00     0.141 A 
HETATM    2  C   UNL     1     -42.670 -46.550  12.260  1.00  0.00     0.058 A 
HETATM    3  C   UNL     1     -42.574 -47.926  12.457  1.00  0.00     0.035 A 
HETATM    4  C   UNL     1     -42.124 -48.754  11.431  1.00  0.00     0.050 A 
HETATM    5  C   UNL     1     -41.820 -48.136  10.219  1.00  0.00     0.119 A 
HETATM    6  N   UNL     1     -41.912 -46.801   9.990  1.00  0.00    -0.345 N 
ATOM      7  HN  UNL     1     -41.672 -46.394   9.086  1.00  0.00     0.167 HD
ENDROOT
BRANCH   4   8
HETATM    8  N   UNL     1     -41.985 -50.154  11.567  1.00  0.00    -0.324 N 
HETATM    9  C   UNL     1     -40.813 -50.822  11.854  1.00  0.00     0.251 C 
HETATM   10  O   UNL     1     -39.695 -50.314  11.955  1.00  0.00    -0.270 OA
HETATM   11  H   UNL     1     -42.789 -50.746  11.371  1.00  0.00     0.169 HD
BRANCH   9  12
HETATM   12  C   UNL     1     -40.977 -52.336  12.021  1.00  0.00     0.213 C 
HETATM   13  C   UNL     1     -42.371 -52.680  12.532  1.00  0.00     0.044 C 
HETATM   14  C   UNL     1     -42.176 -53.928  13.365  1.00  0.00     0.029 C 
HETATM   15  C   UNL     1     -40.702 -54.241  13.225  1.00  0.00     0.168 C 
HETATM   16  O   UNL     1     -40.079 -52.982  12.928  1.00  0.00    -0.376 OA
ENDBRANCH   9  12
ENDBRANCH   4   8
BRANCH   1  17
HETATM   17  O   UNL     1     -42.427 -44.668  10.879  1.00  0.00    -0.334 OA
BRANCH  17  18
HETATM   18  C   UNL     1     -41.705 -43.975  11.897  1.00  0.00     0.203 C 
BRANCH  18  19
HETATM   19  C   UNL     1     -40.250 -43.822  11.465  1.00  0.00     0.193 C 
BRANCH  19  20
HETATM   20  O   UNL     1     -40.185 -43.895  10.040  1.00  0.00    -0.394 OA
HETATM   21  C   UNL     1     -39.128 -44.732   9.597  1.00  0.00     0.201 C 
ENDBRANCH  19  20
ENDBRANCH  18  19
ENDBRANCH  17  18
ENDBRANCH   1  17
TORSDOF 6
ENDMDL
MODEL 3
REMARK VINA RESULT:      -5.3      6.531      9.448
REMARK  6 active torsions:
REMARK  status: ('A' for Active; 'I' for Inactive)
REMARK    1  A    between atoms: O_2  and  C_3 
REMARK    2  A    between atoms: C_3  and  C_4 
REMARK    3  A    between atoms: C_4  and  O_5 
REMARK    4  A    between atoms: O_5  and  C_6 
REMARK    5  A    between atoms: C_9  and  N_10 
REMARK       I    between atoms: N_10  and  C_11 
REMARK    6  A    between atoms: C_11  and  C_13 
ROOT
HETATM    1  C   UNL     1     -41.058 -45.926  10.507  1.00  0.00     0.141 A 
HETATM    2  C   UNL     1     -40.062 -46.422  11.328  1.00  0.00     0.058 A 
HETATM    3  C   UNL     1     -40.035 -47.791  11.584  1.00  0.00     0.035 A 
HETATM    4  C   UNL     1     -40.978 -48.636  10.999  1.00  0.00     0.050 A 
HETATM    5  C   UNL     1     -41.941 -48.030  10.193  1.00  0.00     0.119 A 
HETATM    6  N   UNL     1     -42.001 -46.700   9.931  1.00  0.00    -0.345 N 
ATOM      7  HN  UNL     1     -42.723 -46.305   9.328  1.00  0.00     0.167 HD
ENDROOT
BRANCH   4   8
HETATM    8  N   UNL     1     -40.999 -50.034  11.201  1.00  0.00    -0.324 N 
HETATM    9  C   UNL     1     -41.699 -50.693  12.190  1.00  0.00     0.251 C 
HETATM   10  O   UNL     1     -42.344 -50.164  13.097  1.00  0.00    -0.270 OA
HETATM   11  H   UNL     1     -40.399 -50.620  10.625  1.00  0.00     0.169 HD
BRANCH   9  12
HETATM   12  C   UNL     1     -41.600 -52.220  12.118  1.00  0.00     0.213 C 
HETATM   13  C   UNL     1     -42.716 -52.876  12.922  1.00  0.00     0.044 C 
HETATM   14  C   UNL     1     -42.114 -54.169  13.428  1.00  0.00     0.029 C 
HETATM   15  C   UNL     1     -40.722 -54.188  12.833  1.00  0.00     0.168 C 
HETATM   16  O   UNL     1     -40.393 -52.808  12.610  1.00  0.00    -0.376 OA
ENDBRANCH   9  12
ENDBRANCH   4   8
BRANCH   1  17
HETATM   17  O   UNL     1     -41.030 -44.567  10.264  1.00  0.00    -0.334 OA
BRANCH  17  18
HETATM   18  C   UNL     1     -41.204 -43.804  11.458  1.00  0.00     0.203 C 
BRANCH  18  19
HETATM   19  C   UNL     1     -42.638 -43.286  11.516  1.00  0.00     0.193 C 
BRANCH  19  20
HETATM   20  O   UNL     1     -43.082 -43.317  12.873  1.00  0.00    -0.394 OA
HETATM   21  C   UNL     1     -42.670 -44.499  13.542  1.00  0.00     0.201 C 
ENDBRANCH  19  20
ENDBRANCH  18  19
ENDBRANCH  17  18
ENDBRANCH   1  17
TORSDOF 6
ENDMDL
MODEL 4
REMARK VINA RESULT:      -5.3      4.839      9.600
REMARK  6 active torsions:
REMARK  status: ('A' for Active; 'I' for Inactive)
REMARK    1  A    between atoms: O_2  and  C_3 
REMARK    2  A    between atoms: C_3  and  C_4 
REMARK    3  A    between atoms: C_4  and  O_5 
REMARK    4  A    between atoms: O_5  and  C_6 
REMARK    5  A    between atoms: C_9  and  N_10 
REMARK       I    between atoms: N_10  and  C_11 
REMARK    6  A    between atoms: C_11  and  C_13 
ROOT
HETATM    1  C   UNL     1     -42.718 -47.659  10.247  1.00  0.00     0.141 A 
HETATM    2  C   UNL     1     -43.458 -47.919  11.385  1.00  0.00     0.058 A 
HETATM    3  C   UNL     1     -43.016 -48.919  12.249  1.00  0.00     0.035 A 
HETATM    4  C   UNL     1     -41.839 -49.615  11.976  1.00  0.00     0.050 A 
HETATM    5  C   UNL     1     -41.173 -49.277  10.798  1.00  0.00     0.119 A 
HETATM    6  N   UNL     1     -41.582 -48.315   9.931  1.00  0.00    -0.345 N 
ATOM      7  HN  UNL     1     -41.057 -48.100   9.084  1.00  0.00     0.167 HD
ENDROOT
BRANCH   4   8
HETATM    8  N   UNL     1     -41.323 -50.628  12.816  1.00  0.00    -0.324 N 
HETATM    9  C   UNL     1     -41.657 -51.964  12.761  1.00  0.00     0.251 C 
HETATM   10  O   UNL     1     -42.512 -52.470  12.032  1.00  0.00    -0.270 OA
HETATM   11  H   UNL     1     -40.705 -50.361  13.579  1.00  0.00     0.169 HD
BRANCH   9  12
HETATM   12  C   UNL     1     -40.879 -52.847  13.743  1.00  0.00     0.213 C 
HETATM   13  C   UNL     1     -40.285 -52.013  14.871  1.00  0.00     0.044 C 
HETATM   14  C   UNL     1     -39.008 -52.734  15.248  1.00  0.00     0.029 C 
HETATM   15  C   UNL     1     -38.992 -53.953  14.351  1.00  0.00     0.168 C 
HETATM   16  O   UNL     1     -39.778 -53.586  13.207  1.00  0.00    -0.376 OA
ENDBRANCH   9  12
ENDBRANCH   4   8
BRANCH   1  17
HETATM   17  O   UNL     1     -43.183 -46.644   9.434  1.00  0.00    -0.334 OA
BRANCH  17  18
HETATM   18  C   UNL     1     -44.295 -47.058   8.639  1.00  0.00     0.203 C 
BRANCH  18  19
HETATM   19  C   UNL     1     -45.474 -46.127   8.904  1.00  0.00     0.193 C 
BRANCH  19  20
HETATM   20  O   UNL     1     -46.686 -46.864   8.738  1.00  0.00    -0.394 OA
HETATM   21  C   UNL     1     -46.466 -48.266   8.771  1.00  0.00     0.201 C 
ENDBRANCH  19  20
ENDBRANCH  18  19
ENDBRANCH  17  18
ENDBRANCH   1  17
TORSDOF 6
ENDMDL
MODEL 5
REMARK VINA RESULT:      -5.1      6.167      8.180
REMARK  6 active torsions:
REMARK  status: ('A' for Active; 'I' for Inactive)
REMARK    1  A    between atoms: O_2  and  C_3 
REMARK    2  A    between atoms: C_3  and  C_4 
REMARK    3  A    between atoms: C_4  and  O_5 
REMARK    4  A    between atoms: O_5  and  C_6 
REMARK    5  A    between atoms: C_9  and  N_10 
REMARK       I    between atoms: N_10  and  C_11 
REMARK    6  A    between atoms: C_11  and  C_13 
ROOT
HETATM    1  C   UNL     1     -41.756 -51.516  12.235  1.00  0.00     0.141 A 
HETATM    2  C   UNL     1     -42.435 -50.539  12.939  1.00  0.00     0.058 A 
HETATM    3  C   UNL     1     -42.039 -49.213  12.782  1.00  0.00     0.035 A 
HETATM    4  C   UNL     1     -41.001 -48.886  11.910  1.00  0.00     0.050 A 
HETATM    5  C   UNL     1     -40.381 -49.949  11.254  1.00  0.00     0.119 A 
HETATM    6  N   UNL     1     -40.736 -51.252  11.393  1.00  0.00    -0.345 N 
ATOM      7  HN  UNL     1     -40.255 -51.995  10.885  1.00  0.00     0.167 HD
ENDROOT
BRANCH   4   8
HETATM    8  N   UNL     1     -40.560 -47.562  11.689  1.00  0.00    -0.324 N 
HETATM    9  C   UNL     1     -41.102 -46.675  10.782  1.00  0.00     0.251 C 
HETATM   10  O   UNL     1     -41.995 -46.922   9.970  1.00  0.00    -0.270 OA
HETATM   11  H   UNL     1     -39.729 -47.237  12.177  1.00  0.00     0.169 HD
BRANCH   9  12
HETATM   12  C   UNL     1     -40.471 -45.279  10.815  1.00  0.00     0.213 C 
HETATM   13  C   UNL     1     -39.702 -45.060  12.112  1.00  0.00     0.044 C 
HETATM   14  C   UNL     1     -39.831 -43.577  12.387  1.00  0.00     0.029 C 
HETATM   15  C   UNL     1     -40.611 -43.047  11.203  1.00  0.00     0.168 C 
HETATM   16  O   UNL     1     -41.367 -44.169  10.721  1.00  0.00    -0.376 OA
ENDBRANCH   9  12
ENDBRANCH   4   8
BRANCH   1  17
HETATM   17  O   UNL     1     -42.199 -52.813  12.406  1.00  0.00    -0.334 OA
BRANCH  17  18
HETATM   18  C   UNL     1     -43.352 -52.881  13.245  1.00  0.00     0.203 C 
BRANCH  18  19
HETATM   19  C   UNL     1     -44.566 -53.253  12.398  1.00  0.00     0.193 C 
BRANCH  19  20
HETATM   20  O   UNL     1     -45.099 -54.487  12.880  1.00  0.00    -0.394 OA
HETATM   21  C   UNL     1     -44.707 -54.751  14.218  1.00  0.00     0.201 C 
ENDBRANCH  19  20
ENDBRANCH  18  19
ENDBRANCH  17  18
ENDBRANCH   1  17
TORSDOF 6
ENDMDL
MODEL 6
REMARK VINA RESULT:      -4.9      4.341      7.716
REMARK  6 active torsions:
REMARK  status: ('A' for Active; 'I' for Inactive)
REMARK    1  A    between atoms: O_2  and  C_3 
REMARK    2  A    between atoms: C_3  and  C_4 
REMARK    3  A    between atoms: C_4  and  O_5 
REMARK    4  A    between atoms: O_5  and  C_6 
REMARK    5  A    between atoms: C_9  and  N_10 
REMARK       I    between atoms: N_10  and  C_11 
REMARK    6  A    between atoms: C_11  and  C_13 
ROOT
HETATM    1  C   UNL     1     -43.651 -53.186  12.715  1.00  0.00     0.141 A 
HETATM    2  C   UNL     1     -42.539 -53.922  13.079  1.00  0.00     0.058 A 
HETATM    3  C   UNL     1     -41.344 -53.244  13.310  1.00  0.00     0.035 A 
HETATM    4  C   UNL     1     -41.289 -51.855  13.202  1.00  0.00     0.050 A 
HETATM    5  C   UNL     1     -42.468 -51.213  12.824  1.00  0.00     0.119 A 
HETATM    6  N   UNL     1     -43.646 -51.844  12.582  1.00  0.00    -0.345 N 
ATOM      7  HN  UNL     1     -44.484 -51.328  12.314  1.00  0.00     0.167 HD
ENDROOT
BRANCH   4   8
HETATM    8  N   UNL     1     -40.117 -51.103  13.438  1.00  0.00    -0.324 N 
HETATM    9  C   UNL     1     -39.487 -50.287  12.522  1.00  0.00     0.251 C 
HETATM   10  O   UNL     1     -39.798 -50.151  11.337  1.00  0.00    -0.270 OA
HETATM   11  H   UNL     1     -39.639 -51.212  14.330  1.00  0.00     0.169 HD
BRANCH   9  12
HETATM   12  C   UNL     1     -38.278 -49.530  13.082  1.00  0.00     0.213 C 
HETATM   13  C   UNL     1     -37.649 -50.291  14.243  1.00  0.00     0.044 C 
HETATM   14  C   UNL     1     -37.089 -49.214  15.147  1.00  0.00     0.029 C 
HETATM   15  C   UNL     1     -37.385 -47.923  14.414  1.00  0.00     0.168 C 
HETATM   16  O   UNL     1     -38.523 -48.215  13.588  1.00  0.00    -0.376 OA
ENDBRANCH   9  12
ENDBRANCH   4   8
BRANCH   1  17
HETATM   17  O   UNL     1     -44.818 -53.899  12.520  1.00  0.00    -0.334 OA
BRANCH  17  18
HETATM   18  C   UNL     1     -45.165 -54.685  13.660  1.00  0.00     0.203 C 
BRANCH  18  19
HETATM   19  C   UNL     1     -45.793 -53.783  14.718  1.00  0.00     0.193 C 
BRANCH  19  20
HETATM   20  O   UNL     1     -46.813 -52.996  14.102  1.00  0.00    -0.394 OA
HETATM   21  C   UNL     1     -46.739 -51.632  14.489  1.00  0.00     0.201 C 
ENDBRANCH  19  20
ENDBRANCH  18  19
ENDBRANCH  17  18
ENDBRANCH   1  17
TORSDOF 6
ENDMDL
MODEL 7
REMARK VINA RESULT:      -4.8      6.604      9.356
REMARK  6 active torsions:
REMARK  status: ('A' for Active; 'I' for Inactive)
REMARK    1  A    between atoms: O_2  and  C_3 
REMARK    2  A    between atoms: C_3  and  C_4 
REMARK    3  A    between atoms: C_4  and  O_5 
REMARK    4  A    between atoms: O_5  and  C_6 
REMARK    5  A    between atoms: C_9  and  N_10 
REMARK       I    between atoms: N_10  and  C_11 
REMARK    6  A    between atoms: C_11  and  C_13 
ROOT
HETATM    1  C   UNL     1     -41.279 -46.051  10.367  1.00  0.00     0.141 A 
HETATM    2  C   UNL     1     -42.653 -46.103  10.500  1.00  0.00     0.058 A 
HETATM    3  C   UNL     1     -43.229 -47.282  10.971  1.00  0.00     0.035 A 
HETATM    4  C   UNL     1     -42.426 -48.366  11.323  1.00  0.00     0.050 A 
HETATM    5  C   UNL     1     -41.053 -48.208  11.144  1.00  0.00     0.119 A 
HETATM    6  N   UNL     1     -40.461 -47.078  10.678  1.00  0.00    -0.345 N 
ATOM      7  HN  UNL     1     -39.449 -47.009  10.571  1.00  0.00     0.167 HD
ENDROOT
BRANCH   4   8
HETATM    8  N   UNL     1     -42.941 -49.583  11.823  1.00  0.00    -0.324 N 
HETATM    9  C   UNL     1     -43.352 -49.810  13.119  1.00  0.00     0.251 C 
HETATM   10  O   UNL     1     -43.258 -49.019  14.059  1.00  0.00    -0.270 OA
HETATM   11  H   UNL     1     -42.953 -50.396  11.210  1.00  0.00     0.169 HD
BRANCH   9  12
HETATM   12  C   UNL     1     -43.941 -51.205  13.356  1.00  0.00     0.213 C 
HETATM   13  C   UNL     1     -45.457 -51.188  13.202  1.00  0.00     0.044 C 
HETATM   14  C   UNL     1     -45.951 -52.250  14.162  1.00  0.00     0.029 C 
HETATM   15  C   UNL     1     -44.685 -52.834  14.751  1.00  0.00     0.168 C 
HETATM   16  O   UNL     1     -43.704 -51.791  14.639  1.00  0.00    -0.376 OA
ENDBRANCH   9  12
ENDBRANCH   4   8
BRANCH   1  17
HETATM   17  O   UNL     1     -40.752 -44.855   9.919  1.00  0.00    -0.334 OA
BRANCH  17  18
HETATM   18  C   UNL     1     -40.038 -44.165  10.944  1.00  0.00     0.203 C 
BRANCH  18  19
HETATM   19  C   UNL     1     -40.824 -42.923  11.353  1.00  0.00     0.193 C 
BRANCH  19  20
HETATM   20  O   UNL     1     -41.700 -43.267  12.426  1.00  0.00    -0.394 OA
HETATM   21  C   UNL     1     -42.935 -42.572  12.351  1.00  0.00     0.201 C 
ENDBRANCH  19  20
ENDBRANCH  18  19
ENDBRANCH  17  18
ENDBRANCH   1  17
TORSDOF 6
ENDMDL
MODEL 8
REMARK VINA RESULT:      -4.8     21.809     22.944
REMARK  6 active torsions:
REMARK  status: ('A' for Active; 'I' for Inactive)
REMARK    1  A    between atoms: O_2  and  C_3 
REMARK    2  A    between atoms: C_3  and  C_4 
REMARK    3  A    between atoms: C_4  and  O_5 
REMARK    4  A    between atoms: O_5  and  C_6 
REMARK    5  A    between atoms: C_9  and  N_10 
REMARK       I    between atoms: N_10  and  C_11 
REMARK    6  A    between atoms: C_11  and  C_13 
ROOT
HETATM    1  C   UNL     1     -26.937 -42.608  -0.723  1.00  0.00     0.141 A 
HETATM    2  C   UNL     1     -26.681 -43.965  -0.782  1.00  0.00     0.058 A 
HETATM    3  C   UNL     1     -27.593 -44.783  -1.446  1.00  0.00     0.035 A 
HETATM    4  C   UNL     1     -28.718 -44.232  -2.058  1.00  0.00     0.050 A 
HETATM    5  C   UNL     1     -28.882 -42.853  -1.932  1.00  0.00     0.119 A 
HETATM    6  N   UNL     1     -28.019 -42.029  -1.284  1.00  0.00    -0.345 N 
ATOM      7  HN  UNL     1     -28.180 -41.024  -1.225  1.00  0.00     0.167 HD
ENDROOT
BRANCH   4   8
HETATM    8  N   UNL     1     -29.673 -44.998  -2.762  1.00  0.00    -0.324 N 
HETATM    9  C   UNL     1     -30.448 -46.006  -2.227  1.00  0.00     0.251 C 
HETATM   10  O   UNL     1     -30.372 -46.449  -1.079  1.00  0.00    -0.270 OA
HETATM   11  H   UNL     1     -29.764 -44.862  -3.766  1.00  0.00     0.169 HD
BRANCH   9  12
HETATM   12  C   UNL     1     -31.458 -46.611  -3.208  1.00  0.00     0.213 C 
HETATM   13  C   UNL     1     -32.502 -45.580  -3.620  1.00  0.00     0.044 C 
HETATM   14  C   UNL     1     -33.759 -46.387  -3.866  1.00  0.00     0.029 C 
HETATM   15  C   UNL     1     -33.331 -47.820  -3.635  1.00  0.00     0.168 C 
HETATM   16  O   UNL     1     -32.208 -47.736  -2.743  1.00  0.00    -0.376 OA
ENDBRANCH   9  12
ENDBRANCH   4   8
BRANCH   1  17
HETATM   17  O   UNL     1     -25.994 -41.836  -0.074  1.00  0.00    -0.334 OA
BRANCH  17  18
HETATM   18  C   UNL     1     -25.861 -42.192   1.302  1.00  0.00     0.203 C 
BRANCH  18  19
HETATM   19  C   UNL     1     -26.260 -41.001   2.168  1.00  0.00     0.193 C 
BRANCH  19  20
HETATM   20  O   UNL     1     -25.134 -40.607   2.952  1.00  0.00    -0.394 OA
HETATM   21  C   UNL     1     -24.410 -39.546   2.349  1.00  0.00     0.201 C 
ENDBRANCH  19  20
ENDBRANCH  18  19
ENDBRANCH  17  18
ENDBRANCH   1  17
TORSDOF 6
ENDMDL
MODEL 9
REMARK VINA RESULT:      -4.8      7.582      8.697
REMARK  6 active torsions:
REMARK  status: ('A' for Active; 'I' for Inactive)
REMARK    1  A    between atoms: O_2  and  C_3 
REMARK    2  A    between atoms: C_3  and  C_4 
REMARK    3  A    between atoms: C_4  and  O_5 
REMARK    4  A    between atoms: O_5  and  C_6 
REMARK    5  A    between atoms: C_9  and  N_10 
REMARK       I    between atoms: N_10  and  C_11 
REMARK    6  A    between atoms: C_11  and  C_13 
ROOT
HETATM    1  C   UNL     1     -39.952 -49.287  11.512  1.00  0.00     0.141 A 
HETATM    2  C   UNL     1     -39.341 -48.448  12.425  1.00  0.00     0.058 A 
HETATM    3  C   UNL     1     -39.771 -47.125  12.500  1.00  0.00     0.035 A 
HETATM    4  C   UNL     1     -40.813 -46.677  11.690  1.00  0.00     0.050 A 
HETATM    5  C   UNL     1     -41.355 -47.604  10.802  1.00  0.00     0.119 A 
HETATM    6  N   UNL     1     -40.953 -48.897  10.696  1.00  0.00    -0.345 N 
ATOM      7  HN  UNL     1     -41.386 -49.540  10.033  1.00  0.00     0.167 HD
ENDROOT
BRANCH   4   8
HETATM    8  N   UNL     1     -41.311 -45.354  11.727  1.00  0.00    -0.324 N 
HETATM    9  C   UNL     1     -40.943 -44.333  10.876  1.00  0.00     0.251 C 
HETATM   10  O   UNL     1     -40.068 -44.390  10.010  1.00  0.00    -0.270 OA
HETATM   11  H   UNL     1     -41.943 -45.092  12.479  1.00  0.00     0.169 HD
BRANCH   9  12
HETATM   12  C   UNL     1     -41.707 -43.024  11.099  1.00  0.00     0.213 C 
HETATM   13  C   UNL     1     -41.982 -42.799  12.580  1.00  0.00     0.044 C 
HETATM   14  C   UNL     1     -43.294 -42.045  12.616  1.00  0.00     0.029 C 
HETATM   15  C   UNL     1     -43.645 -41.843  11.158  1.00  0.00     0.168 C 
HETATM   16  O   UNL     1     -42.983 -42.911  10.462  1.00  0.00    -0.376 OA
ENDBRANCH   9  12
ENDBRANCH   4   8
BRANCH   1  17
HETATM   17  O   UNL     1     -39.508 -50.595  11.490  1.00  0.00    -0.334 OA
BRANCH  17  18
HETATM   18  C   UNL     1     -39.051 -51.029  12.771  1.00  0.00     0.203 C 
BRANCH  18  19
HETATM   19  C   UNL     1     -40.067 -52.002  13.361  1.00  0.00     0.193 C 
BRANCH  19  20
HETATM   20  O   UNL     1     -40.186 -53.126  12.489  1.00  0.00    -0.394 OA
HETATM   21  C   UNL     1     -41.059 -54.115  13.011  1.00  0.00     0.201 C 
ENDBRANCH  19  20
ENDBRANCH  18  19
ENDBRANCH  17  18
ENDBRANCH   1  17
TORSDOF 6
ENDMDL
