MODEL 1
REMARK VINA RESULT:      -4.9      0.000      0.000
REMARK  3 active torsions:
REMARK  status: ('A' for Active; 'I' for Inactive)
REMARK       I    between atoms: N_2  and  C_3 
REMARK    1  A    between atoms: C_3  and  C_5 
REMARK    2  A    between atoms: C_5  and  N_6 
REMARK    3  A    between atoms: C_10  and  N_11 
ROOT
HETATM    1  N   UNL     1     -43.531 -47.515   9.515  1.00  0.00    -0.264 N 
HETATM    2  C   UNL     1     -43.708 -47.840   8.210  1.00  0.00     0.218 A 
HETATM    3  N   UNL     1     -44.987 -47.770   7.919  1.00  0.00    -0.185 N 
ATOM      4  HN  UNL     1     -45.446 -47.964   7.029  1.00  0.00     0.185 HD
HETATM    5  C   UNL     1     -45.551 -47.377   9.091  1.00  0.00     0.691 A 
HETATM    6  N   UNL     1     -44.706 -47.213  10.104  1.00  0.00    -0.129 N 
ATOM      7  HN  UNL     1     -44.894 -46.935  11.067  1.00  0.00     0.206 HD
ENDROOT
BRANCH   1   8
HETATM    8  C   UNL     1     -42.299 -47.471  10.261  1.00  0.00     0.253 C 
BRANCH   8   9
HETATM    9  C   UNL     1     -41.682 -46.096  10.204  1.00  0.00     0.237 C 
HETATM   10  N   UNL     1     -40.303 -46.074  10.201  1.00  0.00    -0.364 N 
HETATM   11  C   UNL     1     -39.580 -44.829  10.224  1.00  0.00     0.149 C 
HETATM   12  H   UNL     1     -39.808 -46.929  10.452  1.00  0.00     0.161 HD
HETATM   13  O   UNL     1     -42.372 -45.081  10.126  1.00  0.00    -0.272 OA
ENDBRANCH   8   9
ENDBRANCH   1   8
BRANCH   5  14
HETATM   14  N   UNL     1     -46.870 -47.221   9.142  1.00  0.00    -0.233 N 
HETATM   15  H   UNL     1     -47.203 -46.367   9.569  1.00  0.00     0.174 HD
HETATM   16  H   UNL     1     -47.400 -47.524   8.337  1.00  0.00     0.174 HD
ENDBRANCH   5  14
TORSDOF 3
ENDMDL
MODEL 2
REMARK VINA RESULT:      -4.8      2.143      4.724
REMARK  3 active torsions:
REMARK  status: ('A' for Active; 'I' for Inactive)
REMARK       I    between atoms: N_2  and  C_3 
REMARK    1  A    between atoms: C_3  and  C_5 
REMARK    2  A    between atoms: C_5  and  N_6 
REMARK    3  A    between atoms: C_10  and  N_11 
ROOT
HETATM    1  N   UNL     1     -42.097 -47.119  10.273  1.00  0.00    -0.264 N 
HETATM    2  C   UNL     1     -40.925 -46.777  10.866  1.00  0.00     0.218 A 
HETATM    3  N   UNL     1     -40.205 -47.860  11.049  1.00  0.00    -0.185 N 
ATOM      4  HN  UNL     1     -39.283 -47.943  11.478  1.00  0.00     0.185 HD
HETATM    5  C   UNL     1     -40.986 -48.844  10.531  1.00  0.00     0.691 A 
HETATM    6  N   UNL     1     -42.159 -48.446  10.048  1.00  0.00    -0.129 N 
ATOM      7  HN  UNL     1     -42.906 -48.997   9.623  1.00  0.00     0.206 HD
ENDROOT
BRANCH   1   8
HETATM    8  C   UNL     1     -43.188 -46.254   9.899  1.00  0.00     0.253 C 
BRANCH   8   9
HETATM    9  C   UNL     1     -44.221 -47.006   9.098  1.00  0.00     0.237 C 
HETATM   10  N   UNL     1     -45.503 -46.955   9.605  1.00  0.00    -0.364 N 
HETATM   11  C   UNL     1     -46.576 -47.687   8.985  1.00  0.00     0.149 C 
HETATM   12  H   UNL     1     -45.630 -46.620  10.559  1.00  0.00     0.161 HD
HETATM   13  O   UNL     1     -43.933 -47.583   8.052  1.00  0.00    -0.272 OA
ENDBRANCH   8   9
ENDBRANCH   1   8
BRANCH   5  14
HETATM   14  N   UNL     1     -40.543 -50.097  10.572  1.00  0.00    -0.233 N 
HETATM   15  H   UNL     1     -41.247 -50.821  10.522  1.00  0.00     0.174 HD
HETATM   16  H   UNL     1     -39.693 -50.301  10.066  1.00  0.00     0.174 HD
ENDBRANCH   5  14
TORSDOF 3
ENDMDL
MODEL 3
REMARK VINA RESULT:      -4.6      1.942      2.391
REMARK  3 active torsions:
REMARK  status: ('A' for Active; 'I' for Inactive)
REMARK       I    between atoms: N_2  and  C_3 
REMARK    1  A    between atoms: C_3  and  C_5 
REMARK    2  A    between atoms: C_5  and  N_6 
REMARK    3  A    between atoms: C_10  and  N_11 
ROOT
HETATM    1  N   UNL     1     -43.657 -47.437   9.317  1.00  0.00    -0.264 N 
HETATM    2  C   UNL     1     -43.879 -47.875   8.052  1.00  0.00     0.218 A 
HETATM    3  N   UNL     1     -45.174 -47.935   7.840  1.00  0.00    -0.185 N 
ATOM      4  HN  UNL     1     -45.665 -48.235   6.997  1.00  0.00     0.185 HD
HETATM    5  C   UNL     1     -45.702 -47.504   9.016  1.00  0.00     0.691 A 
HETATM    6  N   UNL     1     -44.817 -47.193   9.958  1.00  0.00    -0.129 N 
ATOM      7  HN  UNL     1     -44.974 -46.860  10.909  1.00  0.00     0.206 HD
ENDROOT
BRANCH   1   8
HETATM    8  C   UNL     1     -42.392 -47.234   9.977  1.00  0.00     0.253 C 
BRANCH   8   9
HETATM    9  C   UNL     1     -42.073 -48.384  10.898  1.00  0.00     0.237 C 
HETATM   10  N   UNL     1     -40.896 -49.047  10.617  1.00  0.00    -0.364 N 
HETATM   11  C   UNL     1     -40.502 -50.211  11.368  1.00  0.00     0.149 C 
HETATM   12  H   UNL     1     -40.449 -48.874   9.718  1.00  0.00     0.161 HD
HETATM   13  O   UNL     1     -42.798 -48.672  11.847  1.00  0.00    -0.272 OA
ENDBRANCH   8   9
ENDBRANCH   1   8
BRANCH   5  14
HETATM   14  N   UNL     1     -47.025 -47.457   9.140  1.00  0.00    -0.233 N 
HETATM   15  H   UNL     1     -47.391 -46.729   9.739  1.00  0.00     0.174 HD
HETATM   16  H   UNL     1     -47.571 -47.633   8.309  1.00  0.00     0.174 HD
ENDBRANCH   5  14
TORSDOF 3
ENDMDL
MODEL 4
REMARK VINA RESULT:      -4.5      6.761      8.116
REMARK  3 active torsions:
REMARK  status: ('A' for Active; 'I' for Inactive)
REMARK       I    between atoms: N_2  and  C_3 
REMARK    1  A    between atoms: C_3  and  C_5 
REMARK    2  A    between atoms: C_5  and  N_6 
REMARK    3  A    between atoms: C_10  and  N_11 
ROOT
HETATM    1  N   UNL     1     -43.015 -53.572  12.746  1.00  0.00    -0.264 N 
HETATM    2  C   UNL     1     -41.858 -53.875  13.387  1.00  0.00     0.218 A 
HETATM    3  N   UNL     1     -40.890 -53.134  12.897  1.00  0.00    -0.185 N 
ATOM      4  HN  UNL     1     -39.903 -53.129  13.156  1.00  0.00     0.185 HD
HETATM    5  C   UNL     1     -41.521 -52.376  11.961  1.00  0.00     0.691 A 
HETATM    6  N   UNL     1     -42.823 -52.610  11.822  1.00  0.00    -0.129 N 
ATOM      7  HN  UNL     1     -43.494 -52.178  11.187  1.00  0.00     0.206 HD
ENDROOT
BRANCH   1   8
HETATM    8  C   UNL     1     -44.321 -54.147  12.952  1.00  0.00     0.253 C 
BRANCH   8   9
HETATM    9  C   UNL     1     -45.386 -53.080  12.951  1.00  0.00     0.237 C 
HETATM   10  N   UNL     1     -45.564 -52.433  14.156  1.00  0.00    -0.364 N 
HETATM   11  C   UNL     1     -46.597 -51.443  14.322  1.00  0.00     0.149 C 
HETATM   12  H   UNL     1     -45.146 -52.843  14.990  1.00  0.00     0.161 HD
HETATM   13  O   UNL     1     -46.014 -52.794  11.934  1.00  0.00    -0.272 OA
ENDBRANCH   8   9
ENDBRANCH   1   8
BRANCH   5  14
HETATM   14  N   UNL     1     -40.803 -51.508  11.255  1.00  0.00    -0.233 N 
HETATM   15  H   UNL     1     -40.506 -50.673  11.743  1.00  0.00     0.174 HD
HETATM   16  H   UNL     1     -40.119 -51.889  10.617  1.00  0.00     0.174 HD
ENDBRANCH   5  14
TORSDOF 3
ENDMDL
MODEL 5
REMARK VINA RESULT:      -4.4      1.474      2.068
REMARK  3 active torsions:
REMARK  status: ('A' for Active; 'I' for Inactive)
REMARK       I    between atoms: N_2  and  C_3 
REMARK    1  A    between atoms: C_3  and  C_5 
REMARK    2  A    between atoms: C_5  and  N_6 
REMARK    3  A    between atoms: C_10  and  N_11 
ROOT
HETATM    1  N   UNL     1     -42.307 -46.990  10.587  1.00  0.00    -0.264 N 
HETATM    2  C   UNL     1     -43.371 -47.605  11.165  1.00  0.00     0.218 A 
HETATM    3  N   UNL     1     -44.228 -47.947  10.231  1.00  0.00    -0.185 N 
ATOM      4  HN  UNL     1     -45.129 -48.413  10.338  1.00  0.00     0.185 HD
HETATM    5  C   UNL     1     -43.626 -47.528   9.087  1.00  0.00     0.691 A 
HETATM    6  N   UNL     1     -42.450 -46.928   9.248  1.00  0.00    -0.129 N 
ATOM      7  HN  UNL     1     -41.825 -46.528   8.548  1.00  0.00     0.206 HD
ENDROOT
BRANCH   1   8
HETATM    8  C   UNL     1     -41.141 -46.442  11.232  1.00  0.00     0.253 C 
BRANCH   8   9
HETATM    9  C   UNL     1     -40.571 -45.296  10.433  1.00  0.00     0.237 C 
HETATM   10  N   UNL     1     -39.381 -45.568   9.791  1.00  0.00    -0.364 N 
HETATM   11  C   UNL     1     -38.686 -44.545   9.053  1.00  0.00     0.149 C 
HETATM   12  H   UNL     1     -38.869 -46.406  10.060  1.00  0.00     0.161 HD
HETATM   13  O   UNL     1     -41.157 -44.219  10.340  1.00  0.00    -0.272 OA
ENDBRANCH   8   9
ENDBRANCH   1   8
BRANCH   5  14
HETATM   14  N   UNL     1     -44.254 -47.716   7.930  1.00  0.00    -0.233 N 
HETATM   15  H   UNL     1     -44.067 -48.590   7.458  1.00  0.00     0.174 HD
HETATM   16  H   UNL     1     -45.213 -47.402   7.872  1.00  0.00     0.174 HD
ENDBRANCH   5  14
TORSDOF 3
ENDMDL
MODEL 6
REMARK VINA RESULT:      -4.4      3.039      3.675
REMARK  3 active torsions:
REMARK  status: ('A' for Active; 'I' for Inactive)
REMARK       I    between atoms: N_2  and  C_3 
REMARK    1  A    between atoms: C_3  and  C_5 
REMARK    2  A    between atoms: C_5  and  N_6 
REMARK    3  A    between atoms: C_10  and  N_11 
ROOT
HETATM    1  N   UNL     1     -42.105 -48.572  10.994  1.00  0.00    -0.264 N 
HETATM    2  C   UNL     1     -43.172 -47.911  11.511  1.00  0.00     0.218 A 
HETATM    3  N   UNL     1     -43.669 -47.114  10.593  1.00  0.00    -0.185 N 
ATOM      4  HN  UNL     1     -44.462 -46.477  10.669  1.00  0.00     0.185 HD
HETATM    5  C   UNL     1     -42.869 -47.341   9.518  1.00  0.00     0.691 A 
HETATM    6  N   UNL     1     -41.890 -48.220   9.711  1.00  0.00    -0.129 N 
ATOM      7  HN  UNL     1     -41.170 -48.541   9.063  1.00  0.00     0.206 HD
ENDROOT
BRANCH   1   8
HETATM    8  C   UNL     1     -41.255 -49.534  11.648  1.00  0.00     0.253 C 
BRANCH   8   9
HETATM    9  C   UNL     1     -39.808 -49.115  11.572  1.00  0.00     0.237 C 
HETATM   10  N   UNL     1     -38.930 -50.114  11.207  1.00  0.00    -0.364 N 
HETATM   11  C   UNL     1     -37.511 -49.876  11.165  1.00  0.00     0.149 C 
HETATM   12  H   UNL     1     -39.261 -51.077  11.228  1.00  0.00     0.161 HD
HETATM   13  O   UNL     1     -39.459 -47.956  11.785  1.00  0.00    -0.272 OA
ENDBRANCH   8   9
ENDBRANCH   1   8
BRANCH   5  14
HETATM   14  N   UNL     1     -43.100 -46.663   8.398  1.00  0.00    -0.233 N 
HETATM   15  H   UNL     1     -42.284 -46.366   7.879  1.00  0.00     0.174 HD
HETATM   16  H   UNL     1     -43.873 -46.972   7.825  1.00  0.00     0.174 HD
ENDBRANCH   5  14
TORSDOF 3
ENDMDL
MODEL 7
REMARK VINA RESULT:      -4.3      3.768      5.136
REMARK  3 active torsions:
REMARK  status: ('A' for Active; 'I' for Inactive)
REMARK       I    between atoms: N_2  and  C_3 
REMARK    1  A    between atoms: C_3  and  C_5 
REMARK    2  A    between atoms: C_5  and  N_6 
REMARK    3  A    between atoms: C_10  and  N_11 
ROOT
HETATM    1  N   UNL     1     -41.371 -49.841  11.678  1.00  0.00    -0.264 N 
HETATM    2  C   UNL     1     -42.266 -50.296  12.592  1.00  0.00     0.218 A 
HETATM    3  N   UNL     1     -42.197 -51.607  12.644  1.00  0.00    -0.185 N 
ATOM      4  HN  UNL     1     -42.743 -52.247  13.220  1.00  0.00     0.185 HD
HETATM    5  C   UNL     1     -41.223 -51.903  11.744  1.00  0.00     0.691 A 
HETATM    6  N   UNL     1     -40.688 -50.859  11.118  1.00  0.00    -0.129 N 
ATOM      7  HN  UNL     1     -39.959 -50.835  10.405  1.00  0.00     0.206 HD
ENDROOT
BRANCH   1   8
HETATM    8  C   UNL     1     -41.116 -48.477  11.289  1.00  0.00     0.253 C 
BRANCH   8   9
HETATM    9  C   UNL     1     -42.321 -47.875  10.611  1.00  0.00     0.237 C 
HETATM   10  N   UNL     1     -42.458 -48.191   9.275  1.00  0.00    -0.364 N 
HETATM   11  C   UNL     1     -43.520 -47.627   8.484  1.00  0.00     0.149 C 
HETATM   12  H   UNL     1     -41.661 -48.605   8.795  1.00  0.00     0.161 HD
HETATM   13  O   UNL     1     -43.133 -47.188  11.228  1.00  0.00    -0.272 OA
ENDBRANCH   8   9
ENDBRANCH   1   8
BRANCH   5  14
HETATM   14  N   UNL     1     -40.910 -53.179  11.541  1.00  0.00    -0.233 N 
HETATM   15  H   UNL     1     -40.034 -53.492  11.936  1.00  0.00     0.174 HD
HETATM   16  H   UNL     1     -41.663 -53.852  11.600  1.00  0.00     0.174 HD
ENDBRANCH   5  14
TORSDOF 3
ENDMDL
MODEL 8
REMARK VINA RESULT:      -4.3      3.047      4.102
REMARK  3 active torsions:
REMARK  status: ('A' for Active; 'I' for Inactive)
REMARK       I    between atoms: N_2  and  C_3 
REMARK    1  A    between atoms: C_3  and  C_5 
REMARK    2  A    between atoms: C_5  and  N_6 
REMARK    3  A    between atoms: C_10  and  N_11 
ROOT
HETATM    1  N   UNL     1     -42.547 -48.085  10.728  1.00  0.00    -0.264 N 
HETATM    2  C   UNL     1     -43.799 -47.562  10.718  1.00  0.00     0.218 A 
HETATM    3  N   UNL     1     -44.155 -47.325   9.476  1.00  0.00    -0.185 N 
ATOM      4  HN  UNL     1     -45.028 -46.925   9.132  1.00  0.00     0.185 HD
HETATM    5  C   UNL     1     -43.078 -47.740   8.759  1.00  0.00     0.691 A 
HETATM    6  N   UNL     1     -42.061 -48.208   9.477  1.00  0.00    -0.129 N 
ATOM      7  HN  UNL     1     -41.157 -48.563   9.166  1.00  0.00     0.206 HD
ENDROOT
BRANCH   1   8
HETATM    8  C   UNL     1     -41.760 -48.482  11.869  1.00  0.00     0.253 C 
BRANCH   8   9
HETATM    9  C   UNL     1     -41.119 -49.828  11.639  1.00  0.00     0.237 C 
HETATM   10  N   UNL     1     -41.916 -50.912  11.942  1.00  0.00    -0.364 N 
HETATM   11  C   UNL     1     -41.410 -52.256  11.842  1.00  0.00     0.149 C 
HETATM   12  H   UNL     1     -42.763 -50.751  12.485  1.00  0.00     0.161 HD
HETATM   13  O   UNL     1     -39.984 -49.933  11.180  1.00  0.00    -0.272 OA
ENDBRANCH   8   9
ENDBRANCH   1   8
BRANCH   5  14
HETATM   14  N   UNL     1     -43.109 -47.622   7.435  1.00  0.00    -0.233 N 
HETATM   15  H   UNL     1     -42.574 -46.859   7.042  1.00  0.00     0.174 HD
HETATM   16  H   UNL     1     -43.083 -48.476   6.897  1.00  0.00     0.174 HD
ENDBRANCH   5  14
TORSDOF 3
ENDMDL
MODEL 9
REMARK VINA RESULT:      -4.2      1.873      2.072
REMARK  3 active torsions:
REMARK  status: ('A' for Active; 'I' for Inactive)
REMARK       I    between atoms: N_2  and  C_3 
REMARK    1  A    between atoms: C_3  and  C_5 
REMARK    2  A    between atoms: C_5  and  N_6 
REMARK    3  A    between atoms: C_10  and  N_11 
ROOT
HETATM    1  N   UNL     1     -43.736 -46.969   9.305  1.00  0.00    -0.264 N 
HETATM    2  C   UNL     1     -43.718 -47.684   8.151  1.00  0.00     0.218 A 
HETATM    3  N   UNL     1     -44.927 -48.134   7.905  1.00  0.00    -0.185 N 
ATOM      4  HN  UNL     1     -45.242 -48.710   7.125  1.00  0.00     0.185 HD
HETATM    5  C   UNL     1     -45.658 -47.645   8.942  1.00  0.00     0.691 A 
HETATM    6  N   UNL     1     -44.976 -46.931   9.833  1.00  0.00    -0.129 N 
ATOM      7  HN  UNL     1     -45.302 -46.478  10.686  1.00  0.00     0.206 HD
ENDROOT
BRANCH   1   8
HETATM    8  C   UNL     1     -42.635 -46.308   9.957  1.00  0.00     0.253 C 
BRANCH   8   9
HETATM    9  C   UNL     1     -42.757 -46.408  11.457  1.00  0.00     0.237 C 
HETATM   10  N   UNL     1     -42.730 -45.202  12.126  1.00  0.00    -0.364 N 
HETATM   11  C   UNL     1     -42.763 -45.150  13.564  1.00  0.00     0.149 C 
HETATM   12  H   UNL     1     -42.420 -44.376  11.617  1.00  0.00     0.161 HD
HETATM   13  O   UNL     1     -42.908 -47.489  12.022  1.00  0.00    -0.272 OA
ENDBRANCH   8   9
ENDBRANCH   1   8
BRANCH   5  14
HETATM   14  N   UNL     1     -46.953 -47.936   9.001  1.00  0.00    -0.233 N 
HETATM   15  H   UNL     1     -47.492 -47.746   8.167  1.00  0.00     0.174 HD
HETATM   16  H   UNL     1     -47.212 -48.784   9.486  1.00  0.00     0.174 HD
ENDBRANCH   5  14
TORSDOF 3
ENDMDL
