MODEL 1
REMARK VINA RESULT:      -7.5      0.000      0.000
REMARK  7 active torsions:
REMARK  status: ('A' for Active; 'I' for Inactive)
REMARK    1  A    between atoms: C_4  and  N_5 
REMARK    2  A    between atoms: C_8  and  S_9 
REMARK    3  A    between atoms: S_9  and  C_10 
REMARK    4  A    between atoms: C_10  and  C_11 
REMARK    5  A    between atoms: C_11  and  O_12 
REMARK    6  A    between atoms: C_11  and  C_13 
REMARK    7  A    between atoms: C_13  and  N_14 
ROOT
HETATM    1  C   UNL     1     -42.178 -51.903  12.136  1.00  0.00     0.146 C 
ENDROOT
BRANCH   1   2
HETATM    2  C   UNL     1     -41.624 -50.545  12.632  1.00  0.00     0.115 C 
BRANCH   2   3
HETATM    3  S   UNL     1     -40.462 -49.886  11.384  1.00  0.00    -0.091 SA
BRANCH   3   4
HETATM    4  C   UNL     1     -41.261 -48.404  10.817  1.00  0.00     0.145 A 
HETATM    5  N   UNL     1     -40.563 -47.273  10.623  1.00  0.00    -0.328 N 
HETATM    6  C   UNL     1     -41.268 -46.210  10.200  1.00  0.00     0.081 A 
ATOM      7  HN  UNL     1     -39.558 -47.224  10.787  1.00  0.00     0.169 HD
HETATM    8  C   UNL     1     -42.624 -46.253   9.948  1.00  0.00     0.066 A 
HETATM    9  C   UNL     1     -43.256 -47.451  10.184  1.00  0.00     0.010 A 
HETATM   10  C   UNL     1     -44.725 -47.623   9.946  1.00  0.00     0.068 C 
HETATM   11  N   UNL     1     -42.585 -48.531  10.621  1.00  0.00    -0.341 N 
ATOM     12  HN  UNL     1     -43.062 -49.415  10.797  1.00  0.00     0.167 HD
BRANCH   6  13
HETATM   13  N   UNL     1     -40.563 -45.034   9.941  1.00  0.00    -0.289 NA
HETATM   14  H   UNL     1     -39.559 -45.178   9.930  1.00  0.00     0.125 HD
HETATM   15  H   UNL     1     -40.905 -44.629   9.075  1.00  0.00     0.125 HD
ENDBRANCH   6  13
ENDBRANCH   3   4
ENDBRANCH   2   3
ENDBRANCH   1   2
BRANCH   1  16
HETATM   16  O   UNL     1     -41.235 -52.540  11.260  1.00  0.00    -0.393 OA
HETATM   17  H   UNL     1     -41.353 -52.204  10.355  1.00  0.00     0.210 HD
ENDBRANCH   1  16
BRANCH   1  18
HETATM   18  C   UNL     1     -42.478 -52.851  13.305  1.00  0.00     0.162 C 
BRANCH  18  19
HETATM   19  N   UNL     1     -43.904 -53.023  13.543  1.00  0.00    -0.339 N 
HETATM   20  C   UNL     1     -44.701 -53.931  12.897  1.00  0.00     0.184 A 
HETATM   21  N   UNL     1     -45.931 -53.916  13.355  1.00  0.00    -0.350 N 
HETATM   22  C   UNL     1     -45.940 -52.942  14.322  1.00  0.00     0.060 A 
ATOM     23  HN  UNL     1     -46.711 -54.502  13.058  1.00  0.00     0.166 HD
HETATM   24  C   UNL     1     -46.998 -52.499  15.127  1.00  0.00     0.039 A 
HETATM   25  C   UNL     1     -44.683 -52.363  14.464  1.00  0.00     0.062 A 
HETATM   26  C   UNL     1     -46.782 -51.474  16.070  1.00  0.00    -0.054 A 
HETATM   27  C   UNL     1     -47.945 -51.028  16.916  1.00  0.00     0.049 C 
HETATM   28  C   UNL     1     -45.499 -50.898  16.196  1.00  0.00    -0.054 A 
HETATM   29  C   UNL     1     -45.197 -49.796  17.180  1.00  0.00     0.049 C 
HETATM   30  C   UNL     1     -44.431 -51.341  15.386  1.00  0.00     0.039 A 
ENDBRANCH  18  19
ENDBRANCH   1  18
TORSDOF 7
ENDMDL
MODEL 2
REMARK VINA RESULT:      -7.2      3.478      4.272
REMARK  7 active torsions:
REMARK  status: ('A' for Active; 'I' for Inactive)
REMARK    1  A    between atoms: C_4  and  N_5 
REMARK    2  A    between atoms: C_8  and  S_9 
REMARK    3  A    between atoms: S_9  and  C_10 
REMARK    4  A    between atoms: C_10  and  C_11 
REMARK    5  A    between atoms: C_11  and  O_12 
REMARK    6  A    between atoms: C_11  and  C_13 
REMARK    7  A    between atoms: C_13  and  N_14 
ROOT
HETATM    1  C   UNL     1     -40.639 -50.022  11.536  1.00  0.00     0.146 C 
ENDROOT
BRANCH   1   2
HETATM    2  C   UNL     1     -40.918 -48.672  12.239  1.00  0.00     0.115 C 
BRANCH   2   3
HETATM    3  S   UNL     1     -42.726 -48.409  12.321  1.00  0.00    -0.091 SA
BRANCH   3   4
HETATM    4  C   UNL     1     -43.066 -47.426  10.881  1.00  0.00     0.145 A 
HETATM    5  N   UNL     1     -43.243 -46.097  10.976  1.00  0.00    -0.328 N 
HETATM    6  C   UNL     1     -43.502 -45.453   9.825  1.00  0.00     0.081 A 
ATOM      7  HN  UNL     1     -43.184 -45.607  11.868  1.00  0.00     0.169 HD
HETATM    8  C   UNL     1     -43.565 -46.086   8.601  1.00  0.00     0.066 A 
HETATM    9  C   UNL     1     -43.381 -47.449   8.603  1.00  0.00     0.010 A 
HETATM   10  C   UNL     1     -43.424 -48.248   7.336  1.00  0.00     0.068 C 
HETATM   11  N   UNL     1     -43.133 -48.128   9.737  1.00  0.00    -0.341 N 
ATOM     12  HN  UNL     1     -43.001 -49.139   9.729  1.00  0.00     0.167 HD
BRANCH   6  13
HETATM   13  N   UNL     1     -43.641 -44.066   9.884  1.00  0.00    -0.289 NA
HETATM   14  H   UNL     1     -44.417 -43.778  10.470  1.00  0.00     0.125 HD
HETATM   15  H   UNL     1     -42.760 -43.660  10.182  1.00  0.00     0.125 HD
ENDBRANCH   6  13
ENDBRANCH   3   4
ENDBRANCH   2   3
ENDBRANCH   1   2
BRANCH   1  16
HETATM   16  O   UNL     1     -40.573 -49.845  10.113  1.00  0.00    -0.393 OA
HETATM   17  H   UNL     1     -40.395 -48.911   9.909  1.00  0.00     0.210 HD
ENDBRANCH   1  16
BRANCH   1  18
HETATM   18  C   UNL     1     -39.319 -50.645  12.013  1.00  0.00     0.162 C 
BRANCH  18  19
HETATM   19  N   UNL     1     -39.506 -51.634  13.065  1.00  0.00    -0.339 N 
HETATM   20  C   UNL     1     -38.595 -51.911  14.049  1.00  0.00     0.184 A 
HETATM   21  N   UNL     1     -39.051 -52.797  14.904  1.00  0.00    -0.350 N 
HETATM   22  C   UNL     1     -40.301 -53.127  14.442  1.00  0.00     0.060 A 
ATOM     23  HN  UNL     1     -38.580 -53.161  15.731  1.00  0.00     0.166 HD
HETATM   24  C   UNL     1     -41.230 -54.036  14.966  1.00  0.00     0.039 A 
HETATM   25  C   UNL     1     -40.616 -52.414  13.290  1.00  0.00     0.062 A 
HETATM   26  C   UNL     1     -42.472 -54.220  14.325  1.00  0.00    -0.054 A 
HETATM   27  C   UNL     1     -43.442 -55.204  14.921  1.00  0.00     0.049 C 
HETATM   28  C   UNL     1     -42.770 -53.488  13.155  1.00  0.00    -0.054 A 
HETATM   29  C   UNL     1     -44.075 -53.636  12.415  1.00  0.00     0.049 C 
HETATM   30  C   UNL     1     -41.836 -52.572  12.624  1.00  0.00     0.039 A 
ENDBRANCH  18  19
ENDBRANCH   1  18
TORSDOF 7
ENDMDL
MODEL 3
REMARK VINA RESULT:      -7.1      2.037      2.864
REMARK  7 active torsions:
REMARK  status: ('A' for Active; 'I' for Inactive)
REMARK    1  A    between atoms: C_4  and  N_5 
REMARK    2  A    between atoms: C_8  and  S_9 
REMARK    3  A    between atoms: S_9  and  C_10 
REMARK    4  A    between atoms: C_10  and  C_11 
REMARK    5  A    between atoms: C_11  and  O_12 
REMARK    6  A    between atoms: C_11  and  C_13 
REMARK    7  A    between atoms: C_13  and  N_14 
ROOT
HETATM    1  C   UNL     1     -41.241 -50.193  11.676  1.00  0.00     0.146 C 
ENDROOT
BRANCH   1   2
HETATM    2  C   UNL     1     -41.634 -48.840  12.319  1.00  0.00     0.115 C 
BRANCH   2   3
HETATM    3  S   UNL     1     -40.764 -47.492  11.442  1.00  0.00    -0.091 SA
BRANCH   3   4
HETATM    4  C   UNL     1     -42.009 -46.833  10.359  1.00  0.00     0.145 A 
HETATM    5  N   UNL     1     -42.491 -45.591  10.534  1.00  0.00    -0.328 N 
HETATM    6  C   UNL     1     -43.434 -45.196   9.661  1.00  0.00     0.081 A 
ATOM      7  HN  UNL     1     -42.161 -44.985  11.284  1.00  0.00     0.169 HD
HETATM    8  C   UNL     1     -43.883 -45.987   8.623  1.00  0.00     0.066 A 
HETATM    9  C   UNL     1     -43.339 -47.247   8.529  1.00  0.00     0.010 A 
HETATM   10  C   UNL     1     -43.744 -48.196   7.443  1.00  0.00     0.068 C 
HETATM   11  N   UNL     1     -42.403 -47.680   9.392  1.00  0.00    -0.341 N 
ATOM     12  HN  UNL     1     -42.007 -48.616   9.317  1.00  0.00     0.167 HD
BRANCH   6  13
HETATM   13  N   UNL     1     -43.919 -43.894   9.786  1.00  0.00    -0.289 NA
HETATM   14  H   UNL     1     -43.628 -43.297   9.020  1.00  0.00     0.125 HD
HETATM   15  H   UNL     1     -44.928 -43.928   9.889  1.00  0.00     0.125 HD
ENDBRANCH   6  13
ENDBRANCH   3   4
ENDBRANCH   2   3
ENDBRANCH   1   2
BRANCH   1  16
HETATM   16  O   UNL     1     -40.342 -49.985  10.576  1.00  0.00    -0.393 OA
HETATM   17  H   UNL     1     -40.826 -49.596   9.828  1.00  0.00     0.210 HD
ENDBRANCH   1  16
BRANCH   1  18
HETATM   18  C   UNL     1     -40.566 -51.126  12.692  1.00  0.00     0.162 C 
BRANCH  18  19
HETATM   19  N   UNL     1     -41.278 -52.384  12.865  1.00  0.00    -0.339 N 
HETATM   20  C   UNL     1     -40.749 -53.622  12.616  1.00  0.00     0.184 A 
HETATM   21  N   UNL     1     -41.588 -54.584  12.922  1.00  0.00    -0.350 N 
HETATM   22  C   UNL     1     -42.718 -53.943  13.365  1.00  0.00     0.060 A 
ATOM     23  HN  UNL     1     -41.434 -55.590  12.848  1.00  0.00     0.166 HD
HETATM   24  C   UNL     1     -43.931 -54.487  13.810  1.00  0.00     0.039 A 
HETATM   25  C   UNL     1     -42.555 -52.562  13.342  1.00  0.00     0.062 A 
HETATM   26  C   UNL     1     -44.972 -53.634  14.228  1.00  0.00    -0.054 A 
HETATM   27  C   UNL     1     -46.258 -54.259  14.700  1.00  0.00     0.049 C 
HETATM   28  C   UNL     1     -44.786 -52.235  14.193  1.00  0.00    -0.054 A 
HETATM   29  C   UNL     1     -45.857 -51.263  14.621  1.00  0.00     0.049 C 
HETATM   30  C   UNL     1     -43.566 -51.684  13.745  1.00  0.00     0.039 A 
ENDBRANCH  18  19
ENDBRANCH   1  18
TORSDOF 7
ENDMDL
MODEL 4
REMARK VINA RESULT:      -7.0      2.167      7.134
REMARK  7 active torsions:
REMARK  status: ('A' for Active; 'I' for Inactive)
REMARK    1  A    between atoms: C_4  and  N_5 
REMARK    2  A    between atoms: C_8  and  S_9 
REMARK    3  A    between atoms: S_9  and  C_10 
REMARK    4  A    between atoms: C_10  and  C_11 
REMARK    5  A    between atoms: C_11  and  O_12 
REMARK    6  A    between atoms: C_11  and  C_13 
REMARK    7  A    between atoms: C_13  and  N_14 
ROOT
HETATM    1  C   UNL     1     -41.051 -52.897  12.473  1.00  0.00     0.146 C 
ENDROOT
BRANCH   1   2
HETATM    2  C   UNL     1     -42.094 -53.823  13.145  1.00  0.00     0.115 C 
BRANCH   2   3
HETATM    3  S   UNL     1     -42.683 -53.035  14.685  1.00  0.00    -0.091 SA
BRANCH   3   4
HETATM    4  C   UNL     1     -44.345 -52.546  14.290  1.00  0.00     0.145 A 
HETATM    5  N   UNL     1     -44.824 -52.672  13.041  1.00  0.00    -0.328 N 
HETATM    6  C   UNL     1     -46.091 -52.265  12.852  1.00  0.00     0.081 A 
ATOM      7  HN  UNL     1     -44.260 -53.053  12.282  1.00  0.00     0.169 HD
HETATM    8  C   UNL     1     -46.885 -51.766  13.866  1.00  0.00     0.066 A 
HETATM    9  C   UNL     1     -46.305 -51.666  15.109  1.00  0.00     0.010 A 
HETATM   10  C   UNL     1     -47.066 -51.142  16.289  1.00  0.00     0.068 C 
HETATM   11  N   UNL     1     -45.036 -52.050  15.331  1.00  0.00    -0.341 N 
ATOM     12  HN  UNL     1     -44.613 -51.969  16.255  1.00  0.00     0.167 HD
BRANCH   6  13
HETATM   13  N   UNL     1     -46.634 -52.428  11.578  1.00  0.00    -0.289 NA
HETATM   14  H   UNL     1     -45.974 -52.834  10.924  1.00  0.00     0.125 HD
HETATM   15  H   UNL     1     -47.489 -52.971  11.652  1.00  0.00     0.125 HD
ENDBRANCH   6  13
ENDBRANCH   3   4
ENDBRANCH   2   3
ENDBRANCH   1   2
BRANCH   1  16
HETATM   16  O   UNL     1     -40.488 -53.531  11.314  1.00  0.00    -0.393 OA
HETATM   17  H   UNL     1     -40.567 -54.496  11.399  1.00  0.00     0.210 HD
ENDBRANCH   1  16
BRANCH   1  18
HETATM   18  C   UNL     1     -41.675 -51.561  12.046  1.00  0.00     0.162 C 
BRANCH  18  19
HETATM   19  N   UNL     1     -40.760 -50.437  12.188  1.00  0.00    -0.339 N 
HETATM   20  C   UNL     1     -39.558 -50.485  12.844  1.00  0.00     0.184 A 
HETATM   21  N   UNL     1     -38.908 -49.348  12.760  1.00  0.00    -0.350 N 
HETATM   22  C   UNL     1     -39.733 -48.519  12.040  1.00  0.00     0.060 A 
ATOM     23  HN  UNL     1     -37.990 -49.128  13.145  1.00  0.00     0.166 HD
HETATM   24  C   UNL     1     -39.539 -47.183  11.664  1.00  0.00     0.039 A 
HETATM   25  C   UNL     1     -40.902 -49.174  11.667  1.00  0.00     0.062 A 
HETATM   26  C   UNL     1     -40.528 -46.514  10.913  1.00  0.00    -0.054 A 
HETATM   27  C   UNL     1     -40.280 -45.080  10.528  1.00  0.00     0.049 C 
HETATM   28  C   UNL     1     -41.708 -47.197  10.547  1.00  0.00    -0.054 A 
HETATM   29  C   UNL     1     -42.808 -46.544   9.749  1.00  0.00     0.049 C 
HETATM   30  C   UNL     1     -41.906 -48.542  10.925  1.00  0.00     0.039 A 
ENDBRANCH  18  19
ENDBRANCH   1  18
TORSDOF 7
ENDMDL
MODEL 5
REMARK VINA RESULT:      -6.9      3.859      5.093
REMARK  7 active torsions:
REMARK  status: ('A' for Active; 'I' for Inactive)
REMARK    1  A    between atoms: C_4  and  N_5 
REMARK    2  A    between atoms: C_8  and  S_9 
REMARK    3  A    between atoms: S_9  and  C_10 
REMARK    4  A    between atoms: C_10  and  C_11 
REMARK    5  A    between atoms: C_11  and  O_12 
REMARK    6  A    between atoms: C_11  and  C_13 
REMARK    7  A    between atoms: C_13  and  N_14 
ROOT
HETATM    1  C   UNL     1     -41.895 -49.823  12.109  1.00  0.00     0.146 C 
ENDROOT
BRANCH   1   2
HETATM    2  C   UNL     1     -42.850 -48.730  12.645  1.00  0.00     0.115 C 
BRANCH   2   3
HETATM    3  S   UNL     1     -42.571 -47.186  11.708  1.00  0.00    -0.091 SA
BRANCH   3   4
HETATM    4  C   UNL     1     -43.419 -47.474  10.174  1.00  0.00     0.145 A 
HETATM    5  N   UNL     1     -42.750 -47.866   9.076  1.00  0.00    -0.328 N 
HETATM    6  C   UNL     1     -43.489 -48.048   7.969  1.00  0.00     0.081 A 
ATOM      7  HN  UNL     1     -41.741 -48.016   9.084  1.00  0.00     0.169 HD
HETATM    8  C   UNL     1     -44.858 -47.874   7.936  1.00  0.00     0.066 A 
HETATM    9  C   UNL     1     -45.455 -47.463   9.104  1.00  0.00     0.010 A 
HETATM   10  C   UNL     1     -46.934 -47.243   9.194  1.00  0.00     0.068 C 
HETATM   11  N   UNL     1     -44.744 -47.258  10.227  1.00  0.00    -0.341 N 
ATOM     12  HN  UNL     1     -45.195 -46.950  11.089  1.00  0.00     0.167 HD
BRANCH   6  13
HETATM   13  N   UNL     1     -42.831 -48.503   6.826  1.00  0.00    -0.289 NA
HETATM   14  H   UNL     1     -42.126 -47.851   6.499  1.00  0.00     0.125 HD
HETATM   15  H   UNL     1     -42.449 -49.424   7.011  1.00  0.00     0.125 HD
ENDBRANCH   6  13
ENDBRANCH   3   4
ENDBRANCH   2   3
ENDBRANCH   1   2
BRANCH   1  16
HETATM   16  O   UNL     1     -41.130 -49.324  11.001  1.00  0.00    -0.393 OA
HETATM   17  H   UNL     1     -40.701 -48.488  11.252  1.00  0.00     0.210 HD
ENDBRANCH   1  16
BRANCH   1  18
HETATM   18  C   UNL     1     -40.924 -50.308  13.195  1.00  0.00     0.162 C 
BRANCH  18  19
HETATM   19  N   UNL     1     -40.714 -51.748  13.166  1.00  0.00    -0.339 N 
HETATM   20  C   UNL     1     -41.111 -52.576  12.149  1.00  0.00     0.184 A 
HETATM   21  N   UNL     1     -40.734 -53.817  12.353  1.00  0.00    -0.350 N 
HETATM   22  C   UNL     1     -40.088 -53.799  13.563  1.00  0.00     0.060 A 
ATOM     23  HN  UNL     1     -40.887 -54.620  11.743  1.00  0.00     0.166 HD
HETATM   24  C   UNL     1     -39.494 -54.855  14.269  1.00  0.00     0.039 A 
HETATM   25  C   UNL     1     -40.059 -52.515  14.099  1.00  0.00     0.062 A 
HETATM   26  C   UNL     1     -38.874 -54.609  15.511  1.00  0.00    -0.054 A 
HETATM   27  C   UNL     1     -38.247 -55.770  16.235  1.00  0.00     0.049 C 
HETATM   28  C   UNL     1     -38.859 -53.299  16.038  1.00  0.00    -0.054 A 
HETATM   29  C   UNL     1     -38.218 -52.964  17.361  1.00  0.00     0.049 C 
HETATM   30  C   UNL     1     -39.457 -52.234  15.330  1.00  0.00     0.039 A 
ENDBRANCH  18  19
ENDBRANCH   1  18
TORSDOF 7
ENDMDL
MODEL 6
REMARK VINA RESULT:      -6.8      3.532      3.992
REMARK  7 active torsions:
REMARK  status: ('A' for Active; 'I' for Inactive)
REMARK    1  A    between atoms: C_4  and  N_5 
REMARK    2  A    between atoms: C_8  and  S_9 
REMARK    3  A    between atoms: S_9  and  C_10 
REMARK    4  A    between atoms: C_10  and  C_11 
REMARK    5  A    between atoms: C_11  and  O_12 
REMARK    6  A    between atoms: C_11  and  C_13 
REMARK    7  A    between atoms: C_13  and  N_14 
ROOT
HETATM    1  C   UNL     1     -39.857 -49.843  11.489  1.00  0.00     0.146 C 
ENDROOT
BRANCH   1   2
HETATM    2  C   UNL     1     -40.292 -48.410  11.879  1.00  0.00     0.115 C 
BRANCH   2   3
HETATM    3  S   UNL     1     -42.100 -48.390  12.142  1.00  0.00    -0.091 SA
BRANCH   3   4
HETATM    4  C   UNL     1     -42.707 -47.435  10.772  1.00  0.00     0.145 A 
HETATM    5  N   UNL     1     -42.970 -46.124  10.906  1.00  0.00    -0.328 N 
HETATM    6  C   UNL     1     -43.432 -45.501   9.808  1.00  0.00     0.081 A 
ATOM      7  HN  UNL     1     -42.828 -45.632  11.787  1.00  0.00     0.169 HD
HETATM    8  C   UNL     1     -43.612 -46.137   8.596  1.00  0.00     0.066 A 
HETATM    9  C   UNL     1     -43.326 -47.482   8.558  1.00  0.00     0.010 A 
HETATM   10  C   UNL     1     -43.480 -48.280   7.300  1.00  0.00     0.068 C 
HETATM   11  N   UNL     1     -42.876 -48.140   9.640  1.00  0.00    -0.341 N 
ATOM     12  HN  UNL     1     -42.669 -49.138   9.604  1.00  0.00     0.167 HD
BRANCH   6  13
HETATM   13  N   UNL     1     -43.667 -44.129   9.900  1.00  0.00    -0.289 NA
HETATM   14  H   UNL     1     -43.145 -43.696  10.654  1.00  0.00     0.125 HD
HETATM   15  H   UNL     1     -43.473 -43.701   9.000  1.00  0.00     0.125 HD
ENDBRANCH   6  13
ENDBRANCH   3   4
ENDBRANCH   2   3
ENDBRANCH   1   2
BRANCH   1  16
HETATM   16  O   UNL     1     -38.623 -49.812  10.755  1.00  0.00    -0.393 OA
HETATM   17  H   UNL     1     -38.452 -48.907  10.443  1.00  0.00     0.210 HD
ENDBRANCH   1  16
BRANCH   1  18
HETATM   18  C   UNL     1     -39.668 -50.732  12.726  1.00  0.00     0.162 C 
BRANCH  18  19
HETATM   19  N   UNL     1     -40.653 -51.801  12.812  1.00  0.00    -0.339 N 
HETATM   20  C   UNL     1     -41.536 -52.132  11.818  1.00  0.00     0.184 A 
HETATM   21  N   UNL     1     -42.263 -53.177  12.137  1.00  0.00    -0.350 N 
HETATM   22  C   UNL     1     -41.853 -53.524  13.400  1.00  0.00     0.060 A 
ATOM     23  HN  UNL     1     -42.978 -53.633  11.570  1.00  0.00     0.166 HD
HETATM   24  C   UNL     1     -42.305 -54.563  14.226  1.00  0.00     0.039 A 
HETATM   25  C   UNL     1     -40.844 -52.680  13.851  1.00  0.00     0.062 A 
HETATM   26  C   UNL     1     -41.734 -54.743  15.503  1.00  0.00    -0.054 A 
HETATM   27  C   UNL     1     -42.246 -55.871  16.358  1.00  0.00     0.049 C 
HETATM   28  C   UNL     1     -40.713 -53.873  15.942  1.00  0.00    -0.054 A 
HETATM   29  C   UNL     1     -40.061 -54.004  17.295  1.00  0.00     0.049 C 
HETATM   30  C   UNL     1     -40.257 -52.825  15.112  1.00  0.00     0.039 A 
ENDBRANCH  18  19
ENDBRANCH   1  18
TORSDOF 7
ENDMDL
MODEL 7
REMARK VINA RESULT:      -6.6      2.438      3.219
REMARK  7 active torsions:
REMARK  status: ('A' for Active; 'I' for Inactive)
REMARK    1  A    between atoms: C_4  and  N_5 
REMARK    2  A    between atoms: C_8  and  S_9 
REMARK    3  A    between atoms: S_9  and  C_10 
REMARK    4  A    between atoms: C_10  and  C_11 
REMARK    5  A    between atoms: C_11  and  O_12 
REMARK    6  A    between atoms: C_11  and  C_13 
REMARK    7  A    between atoms: C_13  and  N_14 
ROOT
HETATM    1  C   UNL     1     -41.314 -53.726  13.189  1.00  0.00     0.146 C 
ENDROOT
BRANCH   1   2
HETATM    2  C   UNL     1     -40.240 -53.557  14.290  1.00  0.00     0.115 C 
BRANCH   2   3
HETATM    3  S   UNL     1     -39.522 -51.881  14.167  1.00  0.00    -0.091 SA
BRANCH   3   4
HETATM    4  C   UNL     1     -40.932 -50.850  13.842  1.00  0.00     0.145 A 
HETATM    5  N   UNL     1     -41.158 -50.353  12.615  1.00  0.00    -0.328 N 
HETATM    6  C   UNL     1     -42.249 -49.580  12.483  1.00  0.00     0.081 A 
ATOM      7  HN  UNL     1     -40.538 -50.551  11.830  1.00  0.00     0.169 HD
HETATM    8  C   UNL     1     -43.118 -49.314  13.522  1.00  0.00     0.066 A 
HETATM    9  C   UNL     1     -42.799 -49.857  14.745  1.00  0.00     0.010 A 
HETATM   10  C   UNL     1     -43.666 -49.641  15.948  1.00  0.00     0.068 C 
HETATM   11  N   UNL     1     -41.709 -50.624  14.916  1.00  0.00    -0.341 N 
ATOM     12  HN  UNL     1     -41.479 -51.021  15.827  1.00  0.00     0.167 HD
BRANCH   6  13
HETATM   13  N   UNL     1     -42.539 -49.090  11.210  1.00  0.00    -0.289 NA
HETATM   14  H   UNL     1     -42.209 -48.140  11.075  1.00  0.00     0.125 HD
HETATM   15  H   UNL     1     -42.164 -49.731  10.518  1.00  0.00     0.125 HD
ENDBRANCH   6  13
ENDBRANCH   3   4
ENDBRANCH   2   3
ENDBRANCH   1   2
BRANCH   1  16
HETATM   16  O   UNL     1     -40.842 -54.605  12.156  1.00  0.00    -0.393 OA
HETATM   17  H   UNL     1     -40.630 -54.088  11.361  1.00  0.00     0.210 HD
ENDBRANCH   1  16
BRANCH   1  18
HETATM   18  C   UNL     1     -42.622 -54.296  13.758  1.00  0.00     0.162 C 
BRANCH  18  19
HETATM   19  N   UNL     1     -43.754 -53.398  13.584  1.00  0.00    -0.339 N 
HETATM   20  C   UNL     1     -44.140 -52.848  12.390  1.00  0.00     0.184 A 
HETATM   21  N   UNL     1     -45.233 -52.131  12.512  1.00  0.00    -0.350 N 
HETATM   22  C   UNL     1     -45.556 -52.198  13.844  1.00  0.00     0.060 A 
ATOM     23  HN  UNL     1     -45.734 -51.633  11.777  1.00  0.00     0.166 HD
HETATM   24  C   UNL     1     -46.626 -51.605  14.530  1.00  0.00     0.039 A 
HETATM   25  C   UNL     1     -44.648 -52.986  14.544  1.00  0.00     0.062 A 
HETATM   26  C   UNL     1     -46.772 -51.810  15.917  1.00  0.00    -0.054 A 
HETATM   27  C   UNL     1     -47.935 -51.157  16.614  1.00  0.00     0.049 C 
HETATM   28  C   UNL     1     -45.836 -52.611  16.607  1.00  0.00    -0.054 A 
HETATM   29  C   UNL     1     -45.928 -52.871  18.090  1.00  0.00     0.049 C 
HETATM   30  C   UNL     1     -44.758 -53.209  15.920  1.00  0.00     0.039 A 
ENDBRANCH  18  19
ENDBRANCH   1  18
TORSDOF 7
ENDMDL
MODEL 8
REMARK VINA RESULT:      -6.5      3.263      5.812
REMARK  7 active torsions:
REMARK  status: ('A' for Active; 'I' for Inactive)
REMARK    1  A    between atoms: C_4  and  N_5 
REMARK    2  A    between atoms: C_8  and  S_9 
REMARK    3  A    between atoms: S_9  and  C_10 
REMARK    4  A    between atoms: C_10  and  C_11 
REMARK    5  A    between atoms: C_11  and  O_12 
REMARK    6  A    between atoms: C_11  and  C_13 
REMARK    7  A    between atoms: C_13  and  N_14 
ROOT
HETATM    1  C   UNL     1     -40.490 -48.952  14.001  1.00  0.00     0.146 C 
ENDROOT
BRANCH   1   2
HETATM    2  C   UNL     1     -38.984 -49.281  13.865  1.00  0.00     0.115 C 
BRANCH   2   3
HETATM    3  S   UNL     1     -38.459 -50.271  15.309  1.00  0.00    -0.091 SA
BRANCH   3   4
HETATM    4  C   UNL     1     -39.278 -51.829  15.060  1.00  0.00     0.145 A 
HETATM    5  N   UNL     1     -38.739 -52.775  14.273  1.00  0.00    -0.328 N 
HETATM    6  C   UNL     1     -39.446 -53.912  14.150  1.00  0.00     0.081 A 
ATOM      7  HN  UNL     1     -37.848 -52.639  13.797  1.00  0.00     0.169 HD
HETATM    8  C   UNL     1     -40.644 -54.132  14.800  1.00  0.00     0.066 A 
HETATM    9  C   UNL     1     -41.121 -53.103  15.577  1.00  0.00     0.010 A 
HETATM   10  C   UNL     1     -42.409 -53.224  16.333  1.00  0.00     0.068 C 
HETATM   11  N   UNL     1     -40.448 -51.947  15.712  1.00  0.00    -0.341 N 
ATOM     12  HN  UNL     1     -40.811 -51.188  16.287  1.00  0.00     0.167 HD
BRANCH   6  13
HETATM   13  N   UNL     1     -38.890 -54.933  13.379  1.00  0.00    -0.289 NA
HETATM   14  H   UNL     1     -38.477 -54.589  12.519  1.00  0.00     0.125 HD
HETATM   15  H   UNL     1     -38.226 -55.449  13.947  1.00  0.00     0.125 HD
ENDBRANCH   6  13
ENDBRANCH   3   4
ENDBRANCH   2   3
ENDBRANCH   1   2
BRANCH   1  16
HETATM   16  O   UNL     1     -40.672 -47.614  14.489  1.00  0.00    -0.393 OA
HETATM   17  H   UNL     1     -40.353 -46.979  13.826  1.00  0.00     0.210 HD
ENDBRANCH   1  16
BRANCH   1  18
HETATM   18  C   UNL     1     -41.221 -49.087  12.658  1.00  0.00     0.162 C 
BRANCH  18  19
HETATM   19  N   UNL     1     -41.589 -50.461  12.348  1.00  0.00    -0.339 N 
HETATM   20  C   UNL     1     -40.844 -51.315  11.578  1.00  0.00     0.184 A 
HETATM   21  N   UNL     1     -41.378 -52.513  11.518  1.00  0.00    -0.350 N 
HETATM   22  C   UNL     1     -42.530 -52.427  12.260  1.00  0.00     0.060 A 
ATOM     23  HN  UNL     1     -41.016 -53.331  11.029  1.00  0.00     0.166 HD
HETATM   24  C   UNL     1     -43.493 -53.411  12.522  1.00  0.00     0.039 A 
HETATM   25  C   UNL     1     -42.690 -51.152  12.794  1.00  0.00     0.062 A 
HETATM   26  C   UNL     1     -44.612 -53.103  13.322  1.00  0.00    -0.054 A 
HETATM   27  C   UNL     1     -45.622 -54.188  13.582  1.00  0.00     0.049 C 
HETATM   28  C   UNL     1     -44.757 -51.802  13.851  1.00  0.00    -0.054 A 
HETATM   29  C   UNL     1     -45.929 -51.401  14.711  1.00  0.00     0.049 C 
HETATM   30  C   UNL     1     -43.789 -50.808  13.588  1.00  0.00     0.039 A 
ENDBRANCH  18  19
ENDBRANCH   1  18
TORSDOF 7
ENDMDL
MODEL 9
REMARK VINA RESULT:      -6.4      2.894      8.379
REMARK  7 active torsions:
REMARK  status: ('A' for Active; 'I' for Inactive)
REMARK    1  A    between atoms: C_4  and  N_5 
REMARK    2  A    between atoms: C_8  and  S_9 
REMARK    3  A    between atoms: S_9  and  C_10 
REMARK    4  A    between atoms: C_10  and  C_11 
REMARK    5  A    between atoms: C_11  and  O_12 
REMARK    6  A    between atoms: C_11  and  C_13 
REMARK    7  A    between atoms: C_13  and  N_14 
ROOT
HETATM    1  C   UNL     1     -40.579 -49.371  11.422  1.00  0.00     0.146 C 
ENDROOT
BRANCH   1   2
HETATM    2  C   UNL     1     -41.586 -50.237  12.217  1.00  0.00     0.115 C 
BRANCH   2   3
HETATM    3  S   UNL     1     -41.187 -52.001  11.955  1.00  0.00    -0.091 SA
BRANCH   3   4
HETATM    4  C   UNL     1     -42.595 -52.848  12.632  1.00  0.00     0.145 A 
HETATM    5  N   UNL     1     -43.833 -52.618  12.163  1.00  0.00    -0.328 N 
HETATM    6  C   UNL     1     -44.825 -53.307  12.753  1.00  0.00     0.081 A 
ATOM      7  HN  UNL     1     -44.009 -51.959  11.405  1.00  0.00     0.169 HD
HETATM    8  C   UNL     1     -44.613 -54.221  13.765  1.00  0.00     0.066 A 
HETATM    9  C   UNL     1     -43.314 -54.383  14.186  1.00  0.00     0.010 A 
HETATM   10  C   UNL     1     -42.958 -55.348  15.275  1.00  0.00     0.068 C 
HETATM   11  N   UNL     1     -42.299 -53.701  13.628  1.00  0.00    -0.341 N 
ATOM     12  HN  UNL     1     -41.339 -53.825  13.949  1.00  0.00     0.167 HD
BRANCH   6  13
HETATM   13  N   UNL     1     -46.115 -53.127  12.254  1.00  0.00    -0.289 NA
HETATM   14  H   UNL     1     -46.496 -52.216  12.484  1.00  0.00     0.125 HD
HETATM   15  H   UNL     1     -46.109 -53.302  11.255  1.00  0.00     0.125 HD
ENDBRANCH   6  13
ENDBRANCH   3   4
ENDBRANCH   2   3
ENDBRANCH   1   2
BRANCH   1  16
HETATM   16  O   UNL     1     -40.374 -49.914  10.109  1.00  0.00    -0.393 OA
HETATM   17  H   UNL     1     -40.737 -49.304   9.444  1.00  0.00     0.210 HD
ENDBRANCH   1  16
BRANCH   1  18
HETATM   18  C   UNL     1     -41.066 -47.922  11.282  1.00  0.00     0.162 C 
BRANCH  18  19
HETATM   19  N   UNL     1     -40.332 -46.993  12.129  1.00  0.00    -0.339 N 
HETATM   20  C   UNL     1     -39.390 -47.356  13.055  1.00  0.00     0.184 A 
HETATM   21  N   UNL     1     -38.839 -46.311  13.629  1.00  0.00    -0.350 N 
HETATM   22  C   UNL     1     -39.468 -45.226  13.071  1.00  0.00     0.060 A 
ATOM     23  HN  UNL     1     -38.104 -46.306  14.335  1.00  0.00     0.166 HD
HETATM   24  C   UNL     1     -39.278 -43.861  13.326  1.00  0.00     0.039 A 
HETATM   25  C   UNL     1     -40.410 -45.620  12.126  1.00  0.00     0.062 A 
HETATM   26  C   UNL     1     -40.039 -42.902  12.628  1.00  0.00    -0.054 A 
HETATM   27  C   UNL     1     -39.803 -41.447  12.931  1.00  0.00     0.049 C 
HETATM   28  C   UNL     1     -40.992 -43.325  11.675  1.00  0.00    -0.054 A 
HETATM   29  C   UNL     1     -41.844 -42.356  10.895  1.00  0.00     0.049 C 
HETATM   30  C   UNL     1     -41.187 -44.699  11.416  1.00  0.00     0.039 A 
ENDBRANCH  18  19
ENDBRANCH   1  18
TORSDOF 7
ENDMDL
