MODEL 1
REMARK VINA RESULT:      -6.2      0.000      0.000
REMARK  7 active torsions:
REMARK  status: ('A' for Active; 'I' for Inactive)
REMARK    1  A    between atoms: S_2  and  N_5 
REMARK    2  A    between atoms: N_5  and  C_6 
REMARK    3  A    between atoms: C_6  and  C_7 
REMARK    4  A    between atoms: C_7  and  C_8 
REMARK    5  A    between atoms: C_8  and  N_9 
REMARK       I    between atoms: N_9  and  C_10 
REMARK    6  A    between atoms: C_10  and  C_12 
REMARK    7  A    between atoms: C_18  and  N_19 
ROOT
HETATM    1  C   UNL     1     -43.996 -51.426  13.270  1.00  0.00     0.075 A 
HETATM    2  C   UNL     1     -45.385 -51.665  13.358  1.00  0.00     0.022 A 
HETATM    3  C   UNL     1     -45.908 -52.906  13.040  1.00  0.00     0.018 A 
HETATM    4  C   UNL     1     -45.025 -53.867  12.607  1.00  0.00     0.089 A 
HETATM    5  N   UNL     1     -43.693 -53.668  12.507  1.00  0.00    -0.352 N 
ATOM      6  HN  UNL     1     -43.092 -54.426  12.182  1.00  0.00     0.166 HD
HETATM    7  C   UNL     1     -43.143 -52.462  12.838  1.00  0.00     0.119 A 
ENDROOT
BRANCH   1   8
HETATM    8  C   UNL     1     -43.549 -50.025  13.509  1.00  0.00     0.255 C 
HETATM    9  N   UNL     1     -43.411 -49.221  12.388  1.00  0.00    -0.357 N 
HETATM   10  H   UNL     1     -43.699 -49.565  11.480  1.00  0.00     0.162 HD
HETATM   11  O   UNL     1     -43.256 -49.626  14.631  1.00  0.00    -0.268 OA
BRANCH   9  12
HETATM   12  C   UNL     1     -42.933 -47.853  12.479  1.00  0.00     0.124 C 
BRANCH  12  13
HETATM   13  C   UNL     1     -41.551 -47.631  11.860  1.00  0.00     0.035 C 
BRANCH  13  14
HETATM   14  C   UNL     1     -41.577 -47.352  10.361  1.00  0.00     0.105 C 
BRANCH  14  15
HETATM   15  N   UNL     1     -42.652 -48.124   9.709  1.00  0.00    -0.220 NA
HETATM   16  H   UNL     1     -42.375 -49.031   9.329  1.00  0.00     0.139 HD
BRANCH  15  17
HETATM   17  S   UNL     1     -43.569 -47.320   8.543  1.00  0.00     0.205 S 
HETATM   18  C   UNL     1     -45.219 -47.474   9.189  1.00  0.00     0.179 C 
HETATM   19  O   UNL     1     -43.456 -48.113   7.342  1.00  0.00    -0.212 OA
HETATM   20  O   UNL     1     -43.162 -45.933   8.563  1.00  0.00    -0.212 OA
ENDBRANCH  15  17
ENDBRANCH  14  15
ENDBRANCH  13  14
ENDBRANCH  12  13
ENDBRANCH   9  12
ENDBRANCH   1   8
BRANCH   7  21
HETATM   21  N   UNL     1     -41.773 -52.448  12.769  1.00  0.00    -0.362 N 
HETATM   22  C   UNL     1     -41.011 -53.416  13.578  1.00  0.00     0.150 C 
HETATM   23  C   UNL     1     -39.785 -52.725  14.193  1.00  0.00     0.187 C 
HETATM   24  O   UNL     1     -38.965 -52.110  13.185  1.00  0.00    -0.388 OA
HETATM   25  C   UNL     1     -39.726 -51.127  12.465  1.00  0.00     0.187 C 
HETATM   26  C   UNL     1     -40.960 -51.739  11.777  1.00  0.00     0.150 C 
ENDBRANCH   7  21
TORSDOF 7
ENDMDL
MODEL 2
REMARK VINA RESULT:      -5.7      1.732      2.349
REMARK  7 active torsions:
REMARK  status: ('A' for Active; 'I' for Inactive)
REMARK    1  A    between atoms: S_2  and  N_5 
REMARK    2  A    between atoms: N_5  and  C_6 
REMARK    3  A    between atoms: C_6  and  C_7 
REMARK    4  A    between atoms: C_7  and  C_8 
REMARK    5  A    between atoms: C_8  and  N_9 
REMARK       I    between atoms: N_9  and  C_10 
REMARK    6  A    between atoms: C_10  and  C_12 
REMARK    7  A    between atoms: C_18  and  N_19 
ROOT
HETATM    1  C   UNL     1     -41.939 -51.744  13.545  1.00  0.00     0.075 A 
HETATM    2  C   UNL     1     -42.814 -52.849  13.642  1.00  0.00     0.022 A 
HETATM    3  C   UNL     1     -42.324 -54.142  13.579  1.00  0.00     0.018 A 
HETATM    4  C   UNL     1     -40.973 -54.293  13.382  1.00  0.00     0.089 A 
HETATM    5  N   UNL     1     -40.111 -53.257  13.281  1.00  0.00    -0.352 N 
ATOM      6  HN  UNL     1     -39.117 -53.439  13.140  1.00  0.00     0.166 HD
HETATM    7  C   UNL     1     -40.559 -51.969  13.366  1.00  0.00     0.119 A 
ENDROOT
BRANCH   1   8
HETATM    8  C   UNL     1     -42.576 -50.399  13.497  1.00  0.00     0.255 C 
HETATM    9  N   UNL     1     -42.633 -49.787  12.254  1.00  0.00    -0.357 N 
HETATM   10  H   UNL     1     -42.338 -50.292  11.427  1.00  0.00     0.162 HD
HETATM   11  O   UNL     1     -42.968 -49.835  14.512  1.00  0.00    -0.268 OA
BRANCH   9  12
HETATM   12  C   UNL     1     -43.181 -48.454  12.078  1.00  0.00     0.124 C 
BRANCH  12  13
HETATM   13  C   UNL     1     -42.127 -47.372  11.831  1.00  0.00     0.035 C 
BRANCH  13  14
HETATM   14  C   UNL     1     -41.725 -47.216  10.368  1.00  0.00     0.105 C 
BRANCH  14  15
HETATM   15  N   UNL     1     -42.540 -48.097   9.510  1.00  0.00    -0.220 NA
HETATM   16  H   UNL     1     -42.029 -48.838   9.028  1.00  0.00     0.139 HD
BRANCH  15  17
HETATM   17  S   UNL     1     -43.560 -47.345   8.396  1.00  0.00     0.205 S 
HETATM   18  C   UNL     1     -45.149 -47.490   9.182  1.00  0.00     0.179 C 
HETATM   19  O   UNL     1     -43.536 -48.181   7.219  1.00  0.00    -0.212 OA
HETATM   20  O   UNL     1     -43.170 -45.954   8.333  1.00  0.00    -0.212 OA
ENDBRANCH  15  17
ENDBRANCH  14  15
ENDBRANCH  13  14
ENDBRANCH  12  13
ENDBRANCH   9  12
ENDBRANCH   1   8
BRANCH   7  21
HETATM   21  N   UNL     1     -39.553 -51.037  13.334  1.00  0.00    -0.362 N 
HETATM   22  C   UNL     1     -38.804 -50.758  14.572  1.00  0.00     0.150 C 
HETATM   23  C   UNL     1     -38.564 -49.247  14.701  1.00  0.00     0.187 C 
HETATM   24  O   UNL     1     -37.896 -48.717  13.543  1.00  0.00    -0.388 OA
HETATM   25  C   UNL     1     -38.689 -48.952  12.368  1.00  0.00     0.187 C 
HETATM   26  C   UNL     1     -38.950 -50.451  12.134  1.00  0.00     0.150 C 
ENDBRANCH   7  21
TORSDOF 7
ENDMDL
MODEL 3
REMARK VINA RESULT:      -5.6      3.278      6.866
REMARK  7 active torsions:
REMARK  status: ('A' for Active; 'I' for Inactive)
REMARK    1  A    between atoms: S_2  and  N_5 
REMARK    2  A    between atoms: N_5  and  C_6 
REMARK    3  A    between atoms: C_6  and  C_7 
REMARK    4  A    between atoms: C_7  and  C_8 
REMARK    5  A    between atoms: C_8  and  N_9 
REMARK       I    between atoms: N_9  and  C_10 
REMARK    6  A    between atoms: C_10  and  C_12 
REMARK    7  A    between atoms: C_18  and  N_19 
ROOT
HETATM    1  C   UNL     1     -42.365 -47.225  10.286  1.00  0.00     0.075 A 
HETATM    2  C   UNL     1     -43.067 -47.827   9.217  1.00  0.00     0.022 A 
HETATM    3  C   UNL     1     -43.968 -47.094   8.465  1.00  0.00     0.018 A 
HETATM    4  C   UNL     1     -44.171 -45.785   8.830  1.00  0.00     0.089 A 
HETATM    5  N   UNL     1     -43.521 -45.182   9.849  1.00  0.00    -0.352 N 
ATOM      6  HN  UNL     1     -43.715 -44.204  10.064  1.00  0.00     0.166 HD
HETATM    7  C   UNL     1     -42.605 -45.871  10.593  1.00  0.00     0.119 A 
ENDROOT
BRANCH   1   8
HETATM    8  C   UNL     1     -41.516 -48.129  11.110  1.00  0.00     0.255 C 
HETATM    9  N   UNL     1     -42.127 -49.271  11.605  1.00  0.00    -0.357 N 
HETATM   10  H   UNL     1     -43.073 -49.501  11.323  1.00  0.00     0.162 HD
HETATM   11  O   UNL     1     -40.357 -47.843  11.393  1.00  0.00    -0.268 OA
BRANCH   9  12
HETATM   12  C   UNL     1     -41.426 -50.206  12.465  1.00  0.00     0.124 C 
BRANCH  12  13
HETATM   13  C   UNL     1     -40.745 -51.355  11.716  1.00  0.00     0.035 C 
BRANCH  13  14
HETATM   14  C   UNL     1     -41.355 -52.725  11.990  1.00  0.00     0.105 C 
BRANCH  14  15
HETATM   15  N   UNL     1     -42.802 -52.716  11.700  1.00  0.00    -0.220 NA
HETATM   16  H   UNL     1     -43.168 -51.844  11.314  1.00  0.00     0.139 HD
BRANCH  15  17
HETATM   17  S   UNL     1     -43.830 -53.219  12.939  1.00  0.00     0.205 S 
HETATM   18  C   UNL     1     -44.828 -51.772  13.212  1.00  0.00     0.179 C 
HETATM   19  O   UNL     1     -42.982 -53.432  14.087  1.00  0.00    -0.212 OA
HETATM   20  O   UNL     1     -44.649 -54.285  12.407  1.00  0.00    -0.212 OA
ENDBRANCH  15  17
ENDBRANCH  14  15
ENDBRANCH  13  14
ENDBRANCH  12  13
ENDBRANCH   9  12
ENDBRANCH   1   8
BRANCH   7  21
HETATM   21  N   UNL     1     -41.968 -45.096  11.529  1.00  0.00    -0.362 N 
HETATM   22  C   UNL     1     -40.856 -44.230  11.098  1.00  0.00     0.150 C 
HETATM   23  C   UNL     1     -39.724 -44.288  12.134  1.00  0.00     0.187 C 
HETATM   24  O   UNL     1     -40.192 -43.940  13.448  1.00  0.00    -0.388 OA
HETATM   25  C   UNL     1     -41.228 -44.848  13.857  1.00  0.00     0.187 C 
HETATM   26  C   UNL     1     -42.430 -44.829  12.895  1.00  0.00     0.150 C 
ENDBRANCH   7  21
TORSDOF 7
ENDMDL
MODEL 4
REMARK VINA RESULT:      -5.6      1.486      1.803
REMARK  7 active torsions:
REMARK  status: ('A' for Active; 'I' for Inactive)
REMARK    1  A    between atoms: S_2  and  N_5 
REMARK    2  A    between atoms: N_5  and  C_6 
REMARK    3  A    between atoms: C_6  and  C_7 
REMARK    4  A    between atoms: C_7  and  C_8 
REMARK    5  A    between atoms: C_8  and  N_9 
REMARK       I    between atoms: N_9  and  C_10 
REMARK    6  A    between atoms: C_10  and  C_12 
REMARK    7  A    between atoms: C_18  and  N_19 
ROOT
HETATM    1  C   UNL     1     -44.212 -51.151  13.864  1.00  0.00     0.075 A 
HETATM    2  C   UNL     1     -45.617 -51.086  13.998  1.00  0.00     0.022 A 
HETATM    3  C   UNL     1     -46.432 -51.956  13.295  1.00  0.00     0.018 A 
HETATM    4  C   UNL     1     -45.817 -52.845  12.446  1.00  0.00     0.089 A 
HETATM    5  N   UNL     1     -44.478 -52.929  12.292  1.00  0.00    -0.352 N 
ATOM      6  HN  UNL     1     -44.085 -53.615  11.648  1.00  0.00     0.166 HD
HETATM    7  C   UNL     1     -43.644 -52.102  12.992  1.00  0.00     0.119 A 
ENDROOT
BRANCH   1   8
HETATM    8  C   UNL     1     -43.432 -50.092  14.563  1.00  0.00     0.255 C 
HETATM    9  N   UNL     1     -43.140 -48.954  13.828  1.00  0.00    -0.357 N 
HETATM   10  H   UNL     1     -43.533 -48.835  12.902  1.00  0.00     0.162 HD
HETATM   11  O   UNL     1     -43.012 -50.249  15.705  1.00  0.00    -0.268 OA
BRANCH   9  12
HETATM   12  C   UNL     1     -42.342 -47.870  14.374  1.00  0.00     0.124 C 
BRANCH  12  13
HETATM   13  C   UNL     1     -42.867 -46.473  14.032  1.00  0.00     0.035 C 
BRANCH  13  14
HETATM   14  C   UNL     1     -42.543 -46.016  12.614  1.00  0.00     0.105 C 
BRANCH  14  15
HETATM   15  N   UNL     1     -43.508 -46.586  11.653  1.00  0.00    -0.220 NA
HETATM   16  H   UNL     1     -44.045 -47.386  11.990  1.00  0.00     0.139 HD
BRANCH  15  17
HETATM   17  S   UNL     1     -42.924 -46.950  10.113  1.00  0.00     0.205 S 
HETATM   18  C   UNL     1     -41.657 -48.148  10.464  1.00  0.00     0.179 C 
HETATM   19  O   UNL     1     -42.307 -45.737   9.632  1.00  0.00    -0.212 OA
HETATM   20  O   UNL     1     -44.004 -47.579   9.386  1.00  0.00    -0.212 OA
ENDBRANCH  15  17
ENDBRANCH  14  15
ENDBRANCH  13  14
ENDBRANCH  12  13
ENDBRANCH   9  12
ENDBRANCH   1   8
BRANCH   7  21
HETATM   21  N   UNL     1     -42.314 -52.372  12.793  1.00  0.00    -0.362 N 
HETATM   22  C   UNL     1     -41.784 -53.681  13.212  1.00  0.00     0.150 C 
HETATM   23  C   UNL     1     -40.411 -53.496  13.873  1.00  0.00     0.187 C 
HETATM   24  O   UNL     1     -39.496 -52.804  13.006  1.00  0.00    -0.388 OA
HETATM   25  C   UNL     1     -40.019 -51.507  12.676  1.00  0.00     0.187 C 
HETATM   26  C   UNL     1     -41.384 -51.595  11.969  1.00  0.00     0.150 C 
ENDBRANCH   7  21
TORSDOF 7
ENDMDL
MODEL 5
REMARK VINA RESULT:      -5.5      3.342      4.222
REMARK  7 active torsions:
REMARK  status: ('A' for Active; 'I' for Inactive)
REMARK    1  A    between atoms: S_2  and  N_5 
REMARK    2  A    between atoms: N_5  and  C_6 
REMARK    3  A    between atoms: C_6  and  C_7 
REMARK    4  A    between atoms: C_7  and  C_8 
REMARK    5  A    between atoms: C_8  and  N_9 
REMARK       I    between atoms: N_9  and  C_10 
REMARK    6  A    between atoms: C_10  and  C_12 
REMARK    7  A    between atoms: C_18  and  N_19 
ROOT
HETATM    1  C   UNL     1     -44.664 -51.558  14.485  1.00  0.00     0.075 A 
HETATM    2  C   UNL     1     -46.027 -51.213  14.620  1.00  0.00     0.022 A 
HETATM    3  C   UNL     1     -46.981 -52.188  14.855  1.00  0.00     0.018 A 
HETATM    4  C   UNL     1     -46.546 -53.490  14.911  1.00  0.00     0.089 A 
HETATM    5  N   UNL     1     -45.251 -53.853  14.781  1.00  0.00    -0.352 N 
ATOM      6  HN  UNL     1     -44.995 -54.839  14.837  1.00  0.00     0.166 HD
HETATM    7  C   UNL     1     -44.283 -52.912  14.575  1.00  0.00     0.119 A 
ENDROOT
BRANCH   1   8
HETATM    8  C   UNL     1     -43.737 -50.455  14.109  1.00  0.00     0.255 C 
HETATM    9  N   UNL     1     -43.480 -50.299  12.755  1.00  0.00    -0.357 N 
HETATM   10  H   UNL     1     -43.986 -50.856  12.077  1.00  0.00     0.162 HD
HETATM   11  O   UNL     1     -43.179 -49.766  14.956  1.00  0.00    -0.268 OA
BRANCH   9  12
HETATM   12  C   UNL     1     -42.555 -49.296  12.260  1.00  0.00     0.124 C 
BRANCH  12  13
HETATM   13  C   UNL     1     -41.273 -49.873  11.653  1.00  0.00     0.035 C 
BRANCH  13  14
HETATM   14  C   UNL     1     -40.272 -50.385  12.683  1.00  0.00     0.105 C 
BRANCH  14  15
HETATM   15  N   UNL     1     -39.224 -51.192  12.029  1.00  0.00    -0.220 NA
HETATM   16  H   UNL     1     -39.245 -52.192  12.234  1.00  0.00     0.139 HD
BRANCH  15  17
HETATM   17  S   UNL     1     -37.634 -50.652  12.194  1.00  0.00     0.205 S 
HETATM   18  C   UNL     1     -37.651 -49.917  13.813  1.00  0.00     0.179 C 
HETATM   19  O   UNL     1     -37.470 -49.614  11.205  1.00  0.00    -0.212 OA
HETATM   20  O   UNL     1     -36.785 -51.822  12.197  1.00  0.00    -0.212 OA
ENDBRANCH  15  17
ENDBRANCH  14  15
ENDBRANCH  13  14
ENDBRANCH  12  13
ENDBRANCH   9  12
ENDBRANCH   1   8
BRANCH   7  21
HETATM   21  N   UNL     1     -43.013 -53.430  14.553  1.00  0.00    -0.362 N 
HETATM   22  C   UNL     1     -42.159 -53.268  15.743  1.00  0.00     0.150 C 
HETATM   23  C   UNL     1     -40.728 -52.919  15.310  1.00  0.00     0.187 C 
HETATM   24  O   UNL     1     -40.197 -53.900  14.403  1.00  0.00    -0.388 OA
HETATM   25  C   UNL     1     -41.020 -53.979  13.228  1.00  0.00     0.187 C 
HETATM   26  C   UNL     1     -42.473 -54.365  13.562  1.00  0.00     0.150 C 
ENDBRANCH   7  21
TORSDOF 7
ENDMDL
MODEL 6
REMARK VINA RESULT:      -5.5      1.846      2.312
REMARK  7 active torsions:
REMARK  status: ('A' for Active; 'I' for Inactive)
REMARK    1  A    between atoms: S_2  and  N_5 
REMARK    2  A    between atoms: N_5  and  C_6 
REMARK    3  A    between atoms: C_6  and  C_7 
REMARK    4  A    between atoms: C_7  and  C_8 
REMARK    5  A    between atoms: C_8  and  N_9 
REMARK       I    between atoms: N_9  and  C_10 
REMARK    6  A    between atoms: C_10  and  C_12 
REMARK    7  A    between atoms: C_18  and  N_19 
ROOT
HETATM    1  C   UNL     1     -44.342 -51.382  13.533  1.00  0.00     0.075 A 
HETATM    2  C   UNL     1     -45.734 -51.336  13.769  1.00  0.00     0.022 A 
HETATM    3  C   UNL     1     -46.489 -52.497  13.760  1.00  0.00     0.018 A 
HETATM    4  C   UNL     1     -45.831 -53.670  13.477  1.00  0.00     0.089 A 
HETATM    5  N   UNL     1     -44.503 -53.746  13.243  1.00  0.00    -0.352 N 
ATOM      6  HN  UNL     1     -44.077 -54.651  13.043  1.00  0.00     0.166 HD
HETATM    7  C   UNL     1     -43.727 -52.622  13.271  1.00  0.00     0.119 A 
ENDROOT
BRANCH   1   8
HETATM    8  C   UNL     1     -43.645 -50.069  13.439  1.00  0.00     0.255 C 
HETATM    9  N   UNL     1     -43.491 -49.542  12.165  1.00  0.00    -0.357 N 
HETATM   10  H   UNL     1     -43.926 -49.999  11.373  1.00  0.00     0.162 HD
HETATM   11  O   UNL     1     -43.173 -49.518  14.427  1.00  0.00    -0.268 OA
BRANCH   9  12
HETATM   12  C   UNL     1     -42.784 -48.296  11.930  1.00  0.00     0.124 C 
BRANCH  12  13
HETATM   13  C   UNL     1     -43.504 -47.339  10.977  1.00  0.00     0.035 C 
BRANCH  13  14
HETATM   14  C   UNL     1     -42.635 -46.831   9.831  1.00  0.00     0.105 C 
BRANCH  14  15
HETATM   15  N   UNL     1     -41.212 -46.835  10.218  1.00  0.00    -0.220 NA
HETATM   16  H   UNL     1     -40.949 -47.523  10.925  1.00  0.00     0.139 HD
BRANCH  15  17
HETATM   17  S   UNL     1     -40.535 -45.350  10.648  1.00  0.00     0.205 S 
HETATM   18  C   UNL     1     -40.177 -45.584  12.375  1.00  0.00     0.179 C 
HETATM   19  O   UNL     1     -41.599 -44.383  10.513  1.00  0.00    -0.212 OA
HETATM   20  O   UNL     1     -39.302 -45.212   9.907  1.00  0.00    -0.212 OA
ENDBRANCH  15  17
ENDBRANCH  14  15
ENDBRANCH  13  14
ENDBRANCH  12  13
ENDBRANCH   9  12
ENDBRANCH   1   8
BRANCH   7  21
HETATM   21  N   UNL     1     -42.389 -52.877  13.102  1.00  0.00    -0.362 N 
HETATM   22  C   UNL     1     -41.770 -53.964  13.881  1.00  0.00     0.150 C 
HETATM   23  C   UNL     1     -40.390 -53.517  14.385  1.00  0.00     0.187 C 
HETATM   24  O   UNL     1     -39.546 -53.088  13.304  1.00  0.00    -0.388 OA
HETATM   25  C   UNL     1     -40.155 -51.986  12.613  1.00  0.00     0.187 C 
HETATM   26  C   UNL     1     -41.533 -52.354  12.034  1.00  0.00     0.150 C 
ENDBRANCH   7  21
TORSDOF 7
ENDMDL
MODEL 7
REMARK VINA RESULT:      -5.5      2.360      2.887
REMARK  7 active torsions:
REMARK  status: ('A' for Active; 'I' for Inactive)
REMARK    1  A    between atoms: S_2  and  N_5 
REMARK    2  A    between atoms: N_5  and  C_6 
REMARK    3  A    between atoms: C_6  and  C_7 
REMARK    4  A    between atoms: C_7  and  C_8 
REMARK    5  A    between atoms: C_8  and  N_9 
REMARK       I    between atoms: N_9  and  C_10 
REMARK    6  A    between atoms: C_10  and  C_12 
REMARK    7  A    between atoms: C_18  and  N_19 
ROOT
HETATM    1  C   UNL     1     -43.550 -51.857  13.382  1.00  0.00     0.075 A 
HETATM    2  C   UNL     1     -44.852 -51.336  13.209  1.00  0.00     0.022 A 
HETATM    3  C   UNL     1     -45.957 -52.166  13.280  1.00  0.00     0.018 A 
HETATM    4  C   UNL     1     -45.724 -53.505  13.486  1.00  0.00     0.089 A 
HETATM    5  N   UNL     1     -44.492 -54.034  13.650  1.00  0.00    -0.352 N 
ATOM      6  HN  UNL     1     -44.390 -55.037  13.804  1.00  0.00     0.166 HD
HETATM    7  C   UNL     1     -43.383 -53.237  13.612  1.00  0.00     0.119 A 
ENDROOT
BRANCH   1   8
HETATM    8  C   UNL     1     -42.424 -50.907  13.161  1.00  0.00     0.255 C 
HETATM    9  N   UNL     1     -41.963 -50.787  11.859  1.00  0.00    -0.357 N 
HETATM   10  H   UNL     1     -42.449 -51.258  11.105  1.00  0.00     0.162 HD
HETATM   11  O   UNL     1     -41.889 -50.315  14.092  1.00  0.00    -0.268 OA
BRANCH   9  12
HETATM   12  C   UNL     1     -40.838 -49.936  11.518  1.00  0.00     0.124 C 
BRANCH  12  13
HETATM   13  C   UNL     1     -41.233 -48.599  10.886  1.00  0.00     0.035 C 
BRANCH  13  14
HETATM   14  C   UNL     1     -40.586 -47.384  11.543  1.00  0.00     0.105 C 
BRANCH  14  15
HETATM   15  N   UNL     1     -39.808 -46.613  10.553  1.00  0.00    -0.220 NA
HETATM   16  H   UNL     1     -38.794 -46.698  10.628  1.00  0.00     0.139 HD
BRANCH  15  17
HETATM   17  S   UNL     1     -40.193 -44.979  10.388  1.00  0.00     0.205 S 
HETATM   18  C   UNL     1     -39.695 -44.314  11.961  1.00  0.00     0.179 C 
HETATM   19  O   UNL     1     -41.632 -44.925  10.287  1.00  0.00    -0.212 OA
HETATM   20  O   UNL     1     -39.350 -44.446   9.342  1.00  0.00    -0.212 OA
ENDBRANCH  15  17
ENDBRANCH  14  15
ENDBRANCH  13  14
ENDBRANCH  12  13
ENDBRANCH   9  12
ENDBRANCH   1   8
BRANCH   7  21
HETATM   21  N   UNL     1     -42.218 -53.909  13.884  1.00  0.00    -0.362 N 
HETATM   22  C   UNL     1     -42.124 -54.693  15.128  1.00  0.00     0.150 C 
HETATM   23  C   UNL     1     -40.742 -54.489  15.765  1.00  0.00     0.187 C 
HETATM   24  O   UNL     1     -39.684 -54.816  14.847  1.00  0.00    -0.388 OA
HETATM   25  C   UNL     1     -39.773 -53.984  13.679  1.00  0.00     0.187 C 
HETATM   26  C   UNL     1     -41.117 -54.152  12.948  1.00  0.00     0.150 C 
ENDBRANCH   7  21
TORSDOF 7
ENDMDL
MODEL 8
REMARK VINA RESULT:      -5.5      3.254      6.038
REMARK  7 active torsions:
REMARK  status: ('A' for Active; 'I' for Inactive)
REMARK    1  A    between atoms: S_2  and  N_5 
REMARK    2  A    between atoms: N_5  and  C_6 
REMARK    3  A    between atoms: C_6  and  C_7 
REMARK    4  A    between atoms: C_7  and  C_8 
REMARK    5  A    between atoms: C_8  and  N_9 
REMARK       I    between atoms: N_9  and  C_10 
REMARK    6  A    between atoms: C_10  and  C_12 
REMARK    7  A    between atoms: C_18  and  N_19 
ROOT
HETATM    1  C   UNL     1     -41.170 -48.883  11.487  1.00  0.00     0.075 A 
HETATM    2  C   UNL     1     -42.060 -48.129  10.690  1.00  0.00     0.022 A 
HETATM    3  C   UNL     1     -41.769 -46.817  10.358  1.00  0.00     0.018 A 
HETATM    4  C   UNL     1     -40.610 -46.283  10.868  1.00  0.00     0.089 A 
HETATM    5  N   UNL     1     -39.741 -46.975  11.636  1.00  0.00    -0.352 N 
ATOM      6  HN  UNL     1     -38.895 -46.520  11.979  1.00  0.00     0.166 HD
HETATM    7  C   UNL     1     -39.986 -48.280  11.960  1.00  0.00     0.119 A 
ENDROOT
BRANCH   1   8
HETATM    8  C   UNL     1     -41.633 -50.239  11.892  1.00  0.00     0.255 C 
HETATM    9  N   UNL     1     -40.903 -51.312  11.404  1.00  0.00    -0.357 N 
HETATM   10  H   UNL     1     -40.050 -51.148  10.883  1.00  0.00     0.162 HD
HETATM   11  O   UNL     1     -42.645 -50.400  12.566  1.00  0.00    -0.268 OA
BRANCH   9  12
HETATM   12  C   UNL     1     -41.280 -52.687  11.680  1.00  0.00     0.124 C 
BRANCH  12  13
HETATM   13  C   UNL     1     -40.951 -53.152  13.101  1.00  0.00     0.035 C 
BRANCH  13  14
HETATM   14  C   UNL     1     -42.037 -54.008  13.744  1.00  0.00     0.105 C 
BRANCH  14  15
HETATM   15  N   UNL     1     -43.170 -54.190  12.816  1.00  0.00    -0.220 NA
HETATM   16  H   UNL     1     -43.019 -53.853  11.865  1.00  0.00     0.139 HD
BRANCH  15  17
HETATM   17  S   UNL     1     -44.677 -53.640  13.338  1.00  0.00     0.205 S 
HETATM   18  C   UNL     1     -45.479 -55.150  13.830  1.00  0.00     0.179 C 
HETATM   19  O   UNL     1     -45.332 -53.119  12.162  1.00  0.00    -0.212 OA
HETATM   20  O   UNL     1     -44.449 -52.807  14.498  1.00  0.00    -0.212 OA
ENDBRANCH  15  17
ENDBRANCH  14  15
ENDBRANCH  13  14
ENDBRANCH  12  13
ENDBRANCH   9  12
ENDBRANCH   1   8
BRANCH   7  21
HETATM   21  N   UNL     1     -38.970 -48.868  12.669  1.00  0.00    -0.362 N 
HETATM   22  C   UNL     1     -37.867 -49.509  11.932  1.00  0.00     0.150 C 
HETATM   23  C   UNL     1     -37.488 -50.831  12.614  1.00  0.00     0.187 C 
HETATM   24  O   UNL     1     -37.160 -50.635  14.000  1.00  0.00    -0.388 OA
HETATM   25  C   UNL     1     -38.283 -50.072  14.696  1.00  0.00     0.187 C 
HETATM   26  C   UNL     1     -38.711 -48.716  14.104  1.00  0.00     0.150 C 
ENDBRANCH   7  21
TORSDOF 7
ENDMDL
MODEL 9
REMARK VINA RESULT:      -5.5      3.229      5.577
REMARK  7 active torsions:
REMARK  status: ('A' for Active; 'I' for Inactive)
REMARK    1  A    between atoms: S_2  and  N_5 
REMARK    2  A    between atoms: N_5  and  C_6 
REMARK    3  A    between atoms: C_6  and  C_7 
REMARK    4  A    between atoms: C_7  and  C_8 
REMARK    5  A    between atoms: C_8  and  N_9 
REMARK       I    between atoms: N_9  and  C_10 
REMARK    6  A    between atoms: C_10  and  C_12 
REMARK    7  A    between atoms: C_18  and  N_19 
ROOT
HETATM    1  C   UNL     1     -42.625 -48.831  12.319  1.00  0.00     0.075 A 
HETATM    2  C   UNL     1     -43.543 -47.909  11.769  1.00  0.00     0.022 A 
HETATM    3  C   UNL     1     -43.390 -47.452  10.471  1.00  0.00     0.018 A 
HETATM    4  C   UNL     1     -42.296 -47.904   9.772  1.00  0.00     0.089 A 
HETATM    5  N   UNL     1     -41.398 -48.780  10.271  1.00  0.00    -0.352 N 
ATOM      6  HN  UNL     1     -40.610 -49.078   9.696  1.00  0.00     0.166 HD
HETATM    7  C   UNL     1     -41.536 -49.271  11.539  1.00  0.00     0.119 A 
ENDROOT
BRANCH   1   8
HETATM    8  C   UNL     1     -42.805 -49.162  13.760  1.00  0.00     0.255 C 
HETATM    9  N   UNL     1     -43.635 -50.235  14.048  1.00  0.00    -0.357 N 
HETATM   10  H   UNL     1     -44.007 -50.803  13.296  1.00  0.00     0.162 HD
HETATM   11  O   UNL     1     -42.299 -48.482  14.645  1.00  0.00    -0.268 OA
BRANCH   9  12
HETATM   12  C   UNL     1     -43.936 -50.628  15.412  1.00  0.00     0.124 C 
BRANCH  12  13
HETATM   13  C   UNL     1     -42.947 -51.635  16.005  1.00  0.00     0.035 C 
BRANCH  13  14
HETATM   14  C   UNL     1     -43.283 -53.091  15.702  1.00  0.00     0.105 C 
BRANCH  14  15
HETATM   15  N   UNL     1     -43.617 -53.259  14.274  1.00  0.00    -0.220 NA
HETATM   16  H   UNL     1     -43.804 -52.397  13.761  1.00  0.00     0.139 HD
BRANCH  15  17
HETATM   17  S   UNL     1     -44.831 -54.370  13.902  1.00  0.00     0.205 S 
HETATM   18  C   UNL     1     -46.271 -53.609  14.617  1.00  0.00     0.179 C 
HETATM   19  O   UNL     1     -44.509 -55.564  14.647  1.00  0.00    -0.212 OA
HETATM   20  O   UNL     1     -44.956 -54.399  12.462  1.00  0.00    -0.212 OA
ENDBRANCH  15  17
ENDBRANCH  14  15
ENDBRANCH  13  14
ENDBRANCH  12  13
ENDBRANCH   9  12
ENDBRANCH   1   8
BRANCH   7  21
HETATM   21  N   UNL     1     -40.597 -50.215  11.865  1.00  0.00    -0.362 N 
HETATM   22  C   UNL     1     -41.008 -51.628  11.949  1.00  0.00     0.150 C 
HETATM   23  C   UNL     1     -40.343 -52.289  13.164  1.00  0.00     0.187 C 
HETATM   24  O   UNL     1     -38.913 -52.153  13.123  1.00  0.00    -0.388 OA
HETATM   25  C   UNL     1     -38.552 -50.762  13.110  1.00  0.00     0.187 C 
HETATM   26  C   UNL     1     -39.144 -50.021  11.897  1.00  0.00     0.150 C 
ENDBRANCH   7  21
TORSDOF 7
ENDMDL
