MODEL 1
REMARK VINA RESULT:      -6.6      0.000      0.000
REMARK  7 active torsions:
REMARK  status: ('A' for Active; 'I' for Inactive)
REMARK    1  A    between atoms: N_2  and  C_3 
REMARK       I    between atoms: N_2  and  C_7 
REMARK    2  A    between atoms: C_3  and  C_4 
REMARK    3  A    between atoms: C_7  and  C_9 
REMARK    4  A    between atoms: C_9  and  N_10 
REMARK    5  A    between atoms: C_14  and  C_15 
REMARK    6  A    between atoms: C_15  and  N_16 
REMARK    7  A    between atoms: N_16  and  C_17 
ROOT
HETATM    1  C   UNL     1     -46.295 -52.164  13.353  1.00  0.00     0.143 C 
HETATM    2  C   UNL     1     -46.897 -51.858  12.050  1.00  0.00     0.060 C 
HETATM    3  N   UNL     1     -47.371 -51.620  11.019  1.00  0.00    -0.197 NA
ENDROOT
BRANCH   1   4
HETATM    4  C   UNL     1     -44.859 -52.649  13.175  1.00  0.00     0.139 C 
BRANCH   4   5
HETATM    5  N   UNL     1     -44.618 -53.952  13.810  1.00  0.00    -0.354 N 
HETATM    6  C   UNL     1     -45.746 -54.860  13.933  1.00  0.00     0.152 C 
HETATM    7  C   UNL     1     -43.421 -54.359  14.398  1.00  0.00     0.247 C 
HETATM    8  O   UNL     1     -43.326 -55.436  14.991  1.00  0.00    -0.271 OA
BRANCH   7   9
HETATM    9  C   UNL     1     -42.182 -53.457  14.278  1.00  0.00     0.374 C 
BRANCH   9  10
HETATM   10  N   UNL     1     -41.267 -53.879  13.195  1.00  0.00     0.101 N 
HETATM   11  C   UNL     1     -40.018 -54.450  13.745  1.00  0.00     0.299 C 
HETATM   12  C   UNL     1     -39.061 -53.404  14.342  1.00  0.00     0.198 C 
HETATM   13  O   UNL     1     -38.755 -52.377  13.392  1.00  0.00    -0.381 OA
HETATM   14  C   UNL     1     -39.963 -51.734  12.920  1.00  0.00     0.163 C 
HETATM   15  C   UNL     1     -40.905 -52.770  12.280  1.00  0.00     0.306 C 
BRANCH  14  16
HETATM   16  C   UNL     1     -39.566 -50.656  11.901  1.00  0.00     0.127 C 
BRANCH  16  17
HETATM   17  N   UNL     1     -40.753 -50.323  11.110  1.00  0.00    -0.275 NA
HETATM   18  H   UNL     1     -41.581 -50.729  11.548  1.00  0.00     0.129 HD
BRANCH  17  19
HETATM   19  C   UNL     1     -40.962 -48.949  10.915  1.00  0.00     0.094 A 
HETATM   20  C   UNL     1     -40.359 -48.071  11.806  1.00  0.00     0.045 A 
HETATM   21  C   UNL     1     -40.538 -46.703  11.646  1.00  0.00     0.022 A 
HETATM   22  C   UNL     1     -41.321 -46.272  10.597  1.00  0.00     0.107 A 
HETATM   23  N   UNL     1     -41.921 -47.127   9.749  1.00  0.00    -0.311 N 
HETATM   24  N   UNL     1     -41.744 -48.475   9.921  1.00  0.00    -0.290 N 
ATOM     25  HN  UNL     1     -42.500 -46.775   8.986  1.00  0.00     0.186 HD
ATOM     26  HN  UNL     1     -42.210 -49.128   9.292  1.00  0.00     0.188 HD
ENDBRANCH  17  19
ENDBRANCH  16  17
ENDBRANCH  14  16
ENDBRANCH   9  10
ENDBRANCH   7   9
ENDBRANCH   4   5
ENDBRANCH   1   4
TORSDOF 7
ENDMDL
MODEL 2
REMARK VINA RESULT:      -6.4      1.638      2.317
REMARK  7 active torsions:
REMARK  status: ('A' for Active; 'I' for Inactive)
REMARK    1  A    between atoms: N_2  and  C_3 
REMARK       I    between atoms: N_2  and  C_7 
REMARK    2  A    between atoms: C_3  and  C_4 
REMARK    3  A    between atoms: C_7  and  C_9 
REMARK    4  A    between atoms: C_9  and  N_10 
REMARK    5  A    between atoms: C_14  and  C_15 
REMARK    6  A    between atoms: C_15  and  N_16 
REMARK    7  A    between atoms: N_16  and  C_17 
ROOT
HETATM    1  C   UNL     1     -43.698 -49.929  13.166  1.00  0.00     0.143 C 
HETATM    2  C   UNL     1     -42.827 -49.172  14.072  1.00  0.00     0.060 C 
HETATM    3  N   UNL     1     -42.137 -48.576  14.790  1.00  0.00    -0.197 NA
ENDROOT
BRANCH   1   4
HETATM    4  C   UNL     1     -44.513 -50.956  13.947  1.00  0.00     0.139 C 
BRANCH   4   5
HETATM    5  N   UNL     1     -44.844 -52.144  13.148  1.00  0.00    -0.354 N 
HETATM    6  C   UNL     1     -46.163 -52.201  12.541  1.00  0.00     0.152 C 
HETATM    7  C   UNL     1     -44.039 -53.272  13.002  1.00  0.00     0.247 C 
HETATM    8  O   UNL     1     -44.427 -54.269  12.387  1.00  0.00    -0.271 OA
BRANCH   7   9
HETATM    9  C   UNL     1     -42.620 -53.265  13.596  1.00  0.00     0.374 C 
BRANCH   9  10
HETATM   10  N   UNL     1     -41.580 -53.608  12.602  1.00  0.00     0.101 N 
HETATM   11  C   UNL     1     -40.434 -54.290  13.244  1.00  0.00     0.299 C 
HETATM   12  C   UNL     1     -39.537 -53.357  14.075  1.00  0.00     0.198 C 
HETATM   13  O   UNL     1     -39.075 -52.249  13.295  1.00  0.00    -0.381 OA
HETATM   14  C   UNL     1     -40.189 -51.506  12.744  1.00  0.00     0.163 C 
HETATM   15  C   UNL     1     -41.065 -52.425  11.873  1.00  0.00     0.306 C 
BRANCH  14  16
HETATM   16  C   UNL     1     -39.626 -50.343  11.913  1.00  0.00     0.127 C 
BRANCH  16  17
HETATM   17  N   UNL     1     -40.550 -50.091  10.805  1.00  0.00    -0.275 NA
HETATM   18  H   UNL     1     -41.376 -50.681  10.907  1.00  0.00     0.129 HD
BRANCH  17  19
HETATM   19  C   UNL     1     -40.953 -48.753  10.670  1.00  0.00     0.094 A 
HETATM   20  C   UNL     1     -40.447 -47.831  11.577  1.00  0.00     0.045 A 
HETATM   21  C   UNL     1     -40.819 -46.496  11.476  1.00  0.00     0.022 A 
HETATM   22  C   UNL     1     -41.689 -46.143  10.467  1.00  0.00     0.107 A 
HETATM   23  N   UNL     1     -42.193 -47.043   9.604  1.00  0.00    -0.311 N 
HETATM   24  N   UNL     1     -41.827 -48.358   9.719  1.00  0.00    -0.290 N 
ATOM     25  HN  UNL     1     -42.841 -46.750   8.873  1.00  0.00     0.186 HD
ATOM     26  HN  UNL     1     -42.219 -49.048   9.078  1.00  0.00     0.188 HD
ENDBRANCH  17  19
ENDBRANCH  16  17
ENDBRANCH  14  16
ENDBRANCH   9  10
ENDBRANCH   7   9
ENDBRANCH   4   5
ENDBRANCH   1   4
TORSDOF 7
ENDMDL
MODEL 3
REMARK VINA RESULT:      -6.3      2.398      6.571
REMARK  7 active torsions:
REMARK  status: ('A' for Active; 'I' for Inactive)
REMARK    1  A    between atoms: N_2  and  C_3 
REMARK       I    between atoms: N_2  and  C_7 
REMARK    2  A    between atoms: C_3  and  C_4 
REMARK    3  A    between atoms: C_7  and  C_9 
REMARK    4  A    between atoms: C_9  and  N_10 
REMARK    5  A    between atoms: C_14  and  C_15 
REMARK    6  A    between atoms: C_15  and  N_16 
REMARK    7  A    between atoms: N_16  and  C_17 
ROOT
HETATM    1  C   UNL     1     -43.821 -46.924   8.930  1.00  0.00     0.143 C 
HETATM    2  C   UNL     1     -45.183 -47.472   8.952  1.00  0.00     0.060 C 
HETATM    3  N   UNL     1     -46.259 -47.905   8.972  1.00  0.00    -0.197 NA
ENDROOT
BRANCH   1   4
HETATM    4  C   UNL     1     -42.957 -47.606   9.987  1.00  0.00     0.139 C 
BRANCH   4   5
HETATM    5  N   UNL     1     -42.037 -46.674  10.654  1.00  0.00    -0.354 N 
HETATM    6  C   UNL     1     -42.384 -45.263  10.643  1.00  0.00     0.152 C 
HETATM    7  C   UNL     1     -40.806 -47.011  11.213  1.00  0.00     0.247 C 
HETATM    8  O   UNL     1     -40.049 -46.153  11.675  1.00  0.00    -0.271 OA
BRANCH   7   9
HETATM    9  C   UNL     1     -40.392 -48.490  11.281  1.00  0.00     0.374 C 
BRANCH   9  10
HETATM   10  N   UNL     1     -40.475 -49.047  12.649  1.00  0.00     0.101 N 
HETATM   11  C   UNL     1     -39.128 -49.313  13.199  1.00  0.00     0.299 C 
HETATM   12  C   UNL     1     -38.433 -50.541  12.586  1.00  0.00     0.198 C 
HETATM   13  O   UNL     1     -39.249 -51.712  12.700  1.00  0.00    -0.381 OA
HETATM   14  C   UNL     1     -40.538 -51.504  12.072  1.00  0.00     0.163 C 
HETATM   15  C   UNL     1     -41.258 -50.304  12.714  1.00  0.00     0.306 C 
BRANCH  14  16
HETATM   16  C   UNL     1     -41.364 -52.789  12.240  1.00  0.00     0.127 C 
BRANCH  16  17
HETATM   17  N   UNL     1     -42.722 -52.516  11.762  1.00  0.00    -0.275 NA
HETATM   18  H   UNL     1     -42.803 -52.793  10.783  1.00  0.00     0.129 HD
BRANCH  17  19
HETATM   19  C   UNL     1     -43.740 -53.138  12.503  1.00  0.00     0.094 A 
HETATM   20  C   UNL     1     -43.368 -54.108  13.425  1.00  0.00     0.045 A 
HETATM   21  C   UNL     1     -44.344 -54.745  14.180  1.00  0.00     0.022 A 
HETATM   22  C   UNL     1     -45.658 -54.383  13.974  1.00  0.00     0.107 A 
HETATM   23  N   UNL     1     -46.016 -53.459  13.065  1.00  0.00    -0.311 N 
HETATM   24  N   UNL     1     -45.045 -52.843  12.319  1.00  0.00    -0.290 N 
ATOM     25  HN  UNL     1     -46.998 -53.219  12.932  1.00  0.00     0.186 HD
ATOM     26  HN  UNL     1     -45.311 -52.153  11.616  1.00  0.00     0.188 HD
ENDBRANCH  17  19
ENDBRANCH  16  17
ENDBRANCH  14  16
ENDBRANCH   9  10
ENDBRANCH   7   9
ENDBRANCH   4   5
ENDBRANCH   1   4
TORSDOF 7
ENDMDL
MODEL 4
REMARK VINA RESULT:      -6.3      1.811      2.120
REMARK  7 active torsions:
REMARK  status: ('A' for Active; 'I' for Inactive)
REMARK    1  A    between atoms: N_2  and  C_3 
REMARK       I    between atoms: N_2  and  C_7 
REMARK    2  A    between atoms: C_3  and  C_4 
REMARK    3  A    between atoms: C_7  and  C_9 
REMARK    4  A    between atoms: C_9  and  N_10 
REMARK    5  A    between atoms: C_14  and  C_15 
REMARK    6  A    between atoms: C_15  and  N_16 
REMARK    7  A    between atoms: N_16  and  C_17 
ROOT
HETATM    1  C   UNL     1     -46.211 -51.218  15.339  1.00  0.00     0.143 C 
HETATM    2  C   UNL     1     -47.326 -51.409  16.273  1.00  0.00     0.060 C 
HETATM    3  N   UNL     1     -48.205 -51.562  17.014  1.00  0.00    -0.197 NA
ENDROOT
BRANCH   1   4
HETATM    4  C   UNL     1     -45.221 -52.374  15.448  1.00  0.00     0.139 C 
BRANCH   4   5
HETATM    5  N   UNL     1     -45.468 -53.427  14.453  1.00  0.00    -0.354 N 
HETATM    6  C   UNL     1     -46.483 -54.420  14.762  1.00  0.00     0.152 C 
HETATM    7  C   UNL     1     -44.743 -53.619  13.278  1.00  0.00     0.247 C 
HETATM    8  O   UNL     1     -44.954 -54.583  12.538  1.00  0.00    -0.271 OA
BRANCH   7   9
HETATM    9  C   UNL     1     -43.674 -52.588  12.878  1.00  0.00     0.374 C 
BRANCH   9  10
HETATM   10  N   UNL     1     -42.363 -53.205  12.584  1.00  0.00     0.101 N 
HETATM   11  C   UNL     1     -41.704 -53.675  13.822  1.00  0.00     0.299 C 
HETATM   12  C   UNL     1     -41.137 -52.544  14.697  1.00  0.00     0.198 C 
HETATM   13  O   UNL     1     -40.244 -51.709  13.952  1.00  0.00    -0.381 OA
HETATM   14  C   UNL     1     -40.905 -51.155  12.790  1.00  0.00     0.163 C 
HETATM   15  C   UNL     1     -41.435 -52.284  11.887  1.00  0.00     0.306 C 
BRANCH  14  16
HETATM   16  C   UNL     1     -39.892 -50.282  12.033  1.00  0.00     0.127 C 
BRANCH  16  17
HETATM   17  N   UNL     1     -40.467 -49.952  10.727  1.00  0.00    -0.275 NA
HETATM   18  H   UNL     1     -41.240 -50.586  10.523  1.00  0.00     0.129 HD
BRANCH  17  19
HETATM   19  C   UNL     1     -40.912 -48.627  10.600  1.00  0.00     0.094 A 
HETATM   20  C   UNL     1     -40.298 -47.661  11.387  1.00  0.00     0.045 A 
HETATM   21  C   UNL     1     -40.707 -46.337  11.289  1.00  0.00     0.022 A 
HETATM   22  C   UNL     1     -41.722 -46.038  10.406  1.00  0.00     0.107 A 
HETATM   23  N   UNL     1     -42.328 -46.980   9.662  1.00  0.00    -0.311 N 
HETATM   24  N   UNL     1     -41.923 -48.284   9.772  1.00  0.00    -0.290 N 
ATOM     25  HN  UNL     1     -43.082 -46.726   9.022  1.00  0.00     0.186 HD
ATOM     26  HN  UNL     1     -42.390 -49.005   9.223  1.00  0.00     0.188 HD
ENDBRANCH  17  19
ENDBRANCH  16  17
ENDBRANCH  14  16
ENDBRANCH   9  10
ENDBRANCH   7   9
ENDBRANCH   4   5
ENDBRANCH   1   4
TORSDOF 7
ENDMDL
MODEL 5
REMARK VINA RESULT:      -6.3      1.935      2.263
REMARK  7 active torsions:
REMARK  status: ('A' for Active; 'I' for Inactive)
REMARK    1  A    between atoms: N_2  and  C_3 
REMARK       I    between atoms: N_2  and  C_7 
REMARK    2  A    between atoms: C_3  and  C_4 
REMARK    3  A    between atoms: C_7  and  C_9 
REMARK    4  A    between atoms: C_9  and  N_10 
REMARK    5  A    between atoms: C_14  and  C_15 
REMARK    6  A    between atoms: C_15  and  N_16 
REMARK    7  A    between atoms: N_16  and  C_17 
ROOT
HETATM    1  C   UNL     1     -45.933 -51.334  15.528  1.00  0.00     0.143 C 
HETATM    2  C   UNL     1     -47.148 -51.379  16.349  1.00  0.00     0.060 C 
HETATM    3  N   UNL     1     -48.107 -51.415  17.001  1.00  0.00    -0.197 NA
ENDROOT
BRANCH   1   4
HETATM    4  C   UNL     1     -45.164 -52.647  15.645  1.00  0.00     0.139 C 
BRANCH   4   5
HETATM    5  N   UNL     1     -45.393 -53.541  14.501  1.00  0.00    -0.354 N 
HETATM    6  C   UNL     1     -46.604 -54.344  14.507  1.00  0.00     0.152 C 
HETATM    7  C   UNL     1     -44.500 -53.765  13.455  1.00  0.00     0.247 C 
HETATM    8  O   UNL     1     -44.728 -54.602  12.578  1.00  0.00    -0.271 OA
BRANCH   7   9
HETATM    9  C   UNL     1     -43.212 -52.929  13.375  1.00  0.00     0.374 C 
BRANCH   9  10
HETATM   10  N   UNL     1     -41.987 -53.758  13.384  1.00  0.00     0.101 N 
HETATM   11  C   UNL     1     -41.678 -54.239  14.749  1.00  0.00     0.299 C 
HETATM   12  C   UNL     1     -41.123 -53.151  15.685  1.00  0.00     0.198 C 
HETATM   13  O   UNL     1     -39.973 -52.515  15.117  1.00  0.00    -0.381 OA
HETATM   14  C   UNL     1     -40.285 -51.945  13.823  1.00  0.00     0.163 C 
HETATM   15  C   UNL     1     -40.799 -53.038  12.868  1.00  0.00     0.306 C 
BRANCH  14  16
HETATM   16  C   UNL     1     -39.011 -51.291  13.267  1.00  0.00     0.127 C 
BRANCH  16  17
HETATM   17  N   UNL     1     -39.188 -51.112  11.824  1.00  0.00    -0.275 NA
HETATM   18  H   UNL     1     -39.721 -51.896  11.444  1.00  0.00     0.129 HD
BRANCH  17  19
HETATM   19  C   UNL     1     -39.810 -49.910  11.454  1.00  0.00     0.094 A 
HETATM   20  C   UNL     1     -39.501 -48.770  12.185  1.00  0.00     0.045 A 
HETATM   21  C   UNL     1     -40.093 -47.559  11.850  1.00  0.00     0.022 A 
HETATM   22  C   UNL     1     -40.977 -47.544  10.792  1.00  0.00     0.107 A 
HETATM   23  N   UNL     1     -41.290 -48.653  10.100  1.00  0.00    -0.311 N 
HETATM   24  N   UNL     1     -40.707 -49.844  10.446  1.00  0.00    -0.290 N 
ATOM     25  HN  UNL     1     -41.954 -48.609   9.327  1.00  0.00     0.186 HD
ATOM     26  HN  UNL     1     -40.952 -50.693   9.935  1.00  0.00     0.188 HD
ENDBRANCH  17  19
ENDBRANCH  16  17
ENDBRANCH  14  16
ENDBRANCH   9  10
ENDBRANCH   7   9
ENDBRANCH   4   5
ENDBRANCH   1   4
TORSDOF 7
ENDMDL
MODEL 6
REMARK VINA RESULT:      -5.9      2.124      3.092
REMARK  7 active torsions:
REMARK  status: ('A' for Active; 'I' for Inactive)
REMARK    1  A    between atoms: N_2  and  C_3 
REMARK       I    between atoms: N_2  and  C_7 
REMARK    2  A    between atoms: C_3  and  C_4 
REMARK    3  A    between atoms: C_7  and  C_9 
REMARK    4  A    between atoms: C_9  and  N_10 
REMARK    5  A    between atoms: C_14  and  C_15 
REMARK    6  A    between atoms: C_15  and  N_16 
REMARK    7  A    between atoms: N_16  and  C_17 
ROOT
HETATM    1  C   UNL     1     -44.228 -51.169  14.678  1.00  0.00     0.143 C 
HETATM    2  C   UNL     1     -45.687 -51.247  14.533  1.00  0.00     0.060 C 
HETATM    3  N   UNL     1     -46.839 -51.311  14.416  1.00  0.00    -0.197 NA
ENDROOT
BRANCH   1   4
HETATM    4  C   UNL     1     -43.564 -51.049  13.310  1.00  0.00     0.139 C 
BRANCH   4   5
HETATM    5  N   UNL     1     -42.929 -52.301  12.876  1.00  0.00    -0.354 N 
HETATM    6  C   UNL     1     -43.795 -53.360  12.387  1.00  0.00     0.152 C 
HETATM    7  C   UNL     1     -41.572 -52.603  12.985  1.00  0.00     0.247 C 
HETATM    8  O   UNL     1     -41.131 -53.713  12.680  1.00  0.00    -0.271 OA
BRANCH   7   9
HETATM    9  C   UNL     1     -40.598 -51.516  13.468  1.00  0.00     0.374 C 
BRANCH   9  10
HETATM   10  N   UNL     1     -39.521 -51.235  12.494  1.00  0.00     0.101 N 
HETATM   11  C   UNL     1     -38.225 -51.027  13.177  1.00  0.00     0.299 C 
HETATM   12  C   UNL     1     -38.113 -49.678  13.908  1.00  0.00     0.198 C 
HETATM   13  O   UNL     1     -38.383 -48.584  13.025  1.00  0.00    -0.381 OA
HETATM   14  C   UNL     1     -39.695 -48.718  12.426  1.00  0.00     0.163 C 
HETATM   15  C   UNL     1     -39.798 -50.046  11.654  1.00  0.00     0.306 C 
BRANCH  14  16
HETATM   16  C   UNL     1     -39.917 -47.523  11.486  1.00  0.00     0.127 C 
BRANCH  16  17
HETATM   17  N   UNL     1     -41.306 -47.082  11.636  1.00  0.00    -0.275 NA
HETATM   18  H   UNL     1     -41.326 -46.141  12.030  1.00  0.00     0.129 HD
BRANCH  17  19
HETATM   19  C   UNL     1     -42.059 -47.103  10.452  1.00  0.00     0.094 A 
HETATM   20  C   UNL     1     -42.898 -46.025  10.201  1.00  0.00     0.045 A 
HETATM   21  C   UNL     1     -43.659 -46.006   9.039  1.00  0.00     0.022 A 
HETATM   22  C   UNL     1     -43.547 -47.075   8.176  1.00  0.00     0.107 A 
HETATM   23  N   UNL     1     -42.748 -48.126   8.433  1.00  0.00    -0.311 N 
HETATM   24  N   UNL     1     -42.010 -48.139   9.587  1.00  0.00    -0.290 N 
ATOM     25  HN  UNL     1     -42.693 -48.905   7.776  1.00  0.00     0.186 HD
ATOM     26  HN  UNL     1     -41.415 -48.941   9.796  1.00  0.00     0.188 HD
ENDBRANCH  17  19
ENDBRANCH  16  17
ENDBRANCH  14  16
ENDBRANCH   9  10
ENDBRANCH   7   9
ENDBRANCH   4   5
ENDBRANCH   1   4
TORSDOF 7
ENDMDL
MODEL 7
REMARK VINA RESULT:      -5.6      2.577      4.824
REMARK  7 active torsions:
REMARK  status: ('A' for Active; 'I' for Inactive)
REMARK    1  A    between atoms: N_2  and  C_3 
REMARK       I    between atoms: N_2  and  C_7 
REMARK    2  A    between atoms: C_3  and  C_4 
REMARK    3  A    between atoms: C_7  and  C_9 
REMARK    4  A    between atoms: C_9  and  N_10 
REMARK    5  A    between atoms: C_14  and  C_15 
REMARK    6  A    between atoms: C_15  and  N_16 
REMARK    7  A    between atoms: N_16  and  C_17 
ROOT
HETATM    1  C   UNL     1     -41.494 -53.285  13.872  1.00  0.00     0.143 C 
HETATM    2  C   UNL     1     -40.037 -53.424  13.771  1.00  0.00     0.060 C 
HETATM    3  N   UNL     1     -38.885 -53.537  13.690  1.00  0.00    -0.197 NA
ENDROOT
BRANCH   1   4
HETATM    4  C   UNL     1     -42.131 -54.620  14.247  1.00  0.00     0.139 C 
BRANCH   4   5
HETATM    5  N   UNL     1     -42.622 -54.645  15.632  1.00  0.00    -0.354 N 
HETATM    6  C   UNL     1     -41.667 -54.969  16.679  1.00  0.00     0.152 C 
HETATM    7  C   UNL     1     -43.949 -54.483  16.026  1.00  0.00     0.247 C 
HETATM    8  O   UNL     1     -44.294 -54.607  17.203  1.00  0.00    -0.271 OA
BRANCH   7   9
HETATM    9  C   UNL     1     -45.004 -54.111  14.971  1.00  0.00     0.374 C 
BRANCH   9  10
HETATM   10  N   UNL     1     -45.732 -52.866  15.301  1.00  0.00     0.101 N 
HETATM   11  C   UNL     1     -46.864 -52.648  14.373  1.00  0.00     0.299 C 
HETATM   12  C   UNL     1     -46.439 -52.197  12.964  1.00  0.00     0.198 C 
HETATM   13  O   UNL     1     -45.616 -51.026  13.019  1.00  0.00    -0.381 OA
HETATM   14  C   UNL     1     -44.447 -51.257  13.841  1.00  0.00     0.163 C 
HETATM   15  C   UNL     1     -44.866 -51.664  15.266  1.00  0.00     0.306 C 
BRANCH  14  16
HETATM   16  C   UNL     1     -43.617 -49.964  13.866  1.00  0.00     0.127 C 
BRANCH  16  17
HETATM   17  N   UNL     1     -43.267 -49.626  12.485  1.00  0.00    -0.275 NA
HETATM   18  H   UNL     1     -43.599 -48.685  12.268  1.00  0.00     0.129 HD
BRANCH  17  19
HETATM   19  C   UNL     1     -41.898 -49.711  12.189  1.00  0.00     0.094 A 
HETATM   20  C   UNL     1     -41.005 -49.719  13.253  1.00  0.00     0.045 A 
HETATM   21  C   UNL     1     -39.642 -49.805  13.003  1.00  0.00     0.022 A 
HETATM   22  C   UNL     1     -39.229 -49.877  11.690  1.00  0.00     0.107 A 
HETATM   23  N   UNL     1     -40.095 -49.848  10.661  1.00  0.00    -0.311 N 
HETATM   24  N   UNL     1     -41.438 -49.753  10.919  1.00  0.00    -0.290 N 
ATOM     25  HN  UNL     1     -39.757 -49.896   9.700  1.00  0.00     0.186 HD
ATOM     26  HN  UNL     1     -42.099 -49.714  10.143  1.00  0.00     0.188 HD
ENDBRANCH  17  19
ENDBRANCH  16  17
ENDBRANCH  14  16
ENDBRANCH   9  10
ENDBRANCH   7   9
ENDBRANCH   4   5
ENDBRANCH   1   4
TORSDOF 7
ENDMDL
MODEL 8
REMARK VINA RESULT:      -5.3      4.504      8.086
REMARK  7 active torsions:
REMARK  status: ('A' for Active; 'I' for Inactive)
REMARK    1  A    between atoms: N_2  and  C_3 
REMARK       I    between atoms: N_2  and  C_7 
REMARK    2  A    between atoms: C_3  and  C_4 
REMARK    3  A    between atoms: C_7  and  C_9 
REMARK    4  A    between atoms: C_9  and  N_10 
REMARK    5  A    between atoms: C_14  and  C_15 
REMARK    6  A    between atoms: C_15  and  N_16 
REMARK    7  A    between atoms: N_16  and  C_17 
ROOT
HETATM    1  C   UNL     1     -36.821 -46.621  18.213  1.00  0.00     0.143 C 
HETATM    2  C   UNL     1     -35.370 -46.822  18.307  1.00  0.00     0.060 C 
HETATM    3  N   UNL     1     -34.223 -46.980  18.378  1.00  0.00    -0.197 NA
ENDROOT
BRANCH   1   4
HETATM    4  C   UNL     1     -37.395 -47.427  17.052  1.00  0.00     0.139 C 
BRANCH   4   5
HETATM    5  N   UNL     1     -38.255 -46.622  16.174  1.00  0.00    -0.354 N 
HETATM    6  C   UNL     1     -38.902 -45.455  16.750  1.00  0.00     0.152 C 
HETATM    7  C   UNL     1     -38.588 -46.935  14.857  1.00  0.00     0.247 C 
HETATM    8  O   UNL     1     -39.391 -46.254  14.214  1.00  0.00    -0.271 OA
BRANCH   7   9
HETATM    9  C   UNL     1     -37.917 -48.140  14.178  1.00  0.00     0.374 C 
BRANCH   9  10
HETATM   10  N   UNL     1     -38.513 -49.432  14.584  1.00  0.00     0.101 N 
HETATM   11  C   UNL     1     -37.540 -50.537  14.437  1.00  0.00     0.299 C 
HETATM   12  C   UNL     1     -37.278 -50.951  12.979  1.00  0.00     0.198 C 
HETATM   13  O   UNL     1     -38.497 -51.278  12.304  1.00  0.00    -0.381 OA
HETATM   14  C   UNL     1     -39.424 -50.166  12.347  1.00  0.00     0.163 C 
HETATM   15  C   UNL     1     -39.726 -49.778  13.805  1.00  0.00     0.306 C 
BRANCH  14  16
HETATM   16  C   UNL     1     -40.710 -50.586  11.617  1.00  0.00     0.127 C 
BRANCH  16  17
HETATM   17  N   UNL     1     -40.663 -52.037  11.420  1.00  0.00    -0.275 NA
HETATM   18  H   UNL     1     -39.752 -52.393  11.712  1.00  0.00     0.129 HD
BRANCH  17  19
HETATM   19  C   UNL     1     -41.672 -52.752  12.085  1.00  0.00     0.094 A 
HETATM   20  C   UNL     1     -41.301 -53.535  13.171  1.00  0.00     0.045 A 
HETATM   21  C   UNL     1     -42.269 -54.256  13.858  1.00  0.00     0.022 A 
HETATM   22  C   UNL     1     -43.573 -54.163  13.422  1.00  0.00     0.107 A 
HETATM   23  N   UNL     1     -43.925 -53.421  12.358  1.00  0.00    -0.311 N 
HETATM   24  N   UNL     1     -42.960 -52.721  11.682  1.00  0.00    -0.290 N 
ATOM     25  HN  UNL     1     -44.899 -53.379  12.057  1.00  0.00     0.186 HD
ATOM     26  HN  UNL     1     -43.218 -52.169  10.863  1.00  0.00     0.188 HD
ENDBRANCH  17  19
ENDBRANCH  16  17
ENDBRANCH  14  16
ENDBRANCH   9  10
ENDBRANCH   7   9
ENDBRANCH   4   5
ENDBRANCH   1   4
TORSDOF 7
ENDMDL
MODEL 9
REMARK VINA RESULT:      -5.2      2.534      6.907
REMARK  7 active torsions:
REMARK  status: ('A' for Active; 'I' for Inactive)
REMARK    1  A    between atoms: N_2  and  C_3 
REMARK       I    between atoms: N_2  and  C_7 
REMARK    2  A    between atoms: C_3  and  C_4 
REMARK    3  A    between atoms: C_7  and  C_9 
REMARK    4  A    between atoms: C_9  and  N_10 
REMARK    5  A    between atoms: C_14  and  C_15 
REMARK    6  A    between atoms: C_15  and  N_16 
REMARK    7  A    between atoms: N_16  and  C_17 
ROOT
HETATM    1  C   UNL     1     -41.790 -44.676  11.402  1.00  0.00     0.143 C 
HETATM    2  C   UNL     1     -40.497 -44.245  11.946  1.00  0.00     0.060 C 
HETATM    3  N   UNL     1     -39.474 -43.907  12.375  1.00  0.00    -0.197 NA
ENDROOT
BRANCH   1   4
HETATM    4  C   UNL     1     -42.021 -46.157  11.690  1.00  0.00     0.139 C 
BRANCH   4   5
HETATM    5  N   UNL     1     -42.202 -46.434  13.122  1.00  0.00    -0.354 N 
HETATM    6  C   UNL     1     -43.107 -45.574  13.865  1.00  0.00     0.152 C 
HETATM    7  C   UNL     1     -41.503 -47.391  13.857  1.00  0.00     0.247 C 
HETATM    8  O   UNL     1     -41.647 -47.501  15.077  1.00  0.00    -0.271 OA
BRANCH   7   9
HETATM    9  C   UNL     1     -40.550 -48.351  13.126  1.00  0.00     0.374 C 
BRANCH   9  10
HETATM   10  N   UNL     1     -40.061 -49.445  13.993  1.00  0.00     0.101 N 
HETATM   11  C   UNL     1     -38.614 -49.679  13.790  1.00  0.00     0.299 C 
HETATM   12  C   UNL     1     -38.274 -50.382  12.464  1.00  0.00     0.198 C 
HETATM   13  O   UNL     1     -38.993 -51.613  12.330  1.00  0.00    -0.381 OA
HETATM   14  C   UNL     1     -40.421 -51.388  12.422  1.00  0.00     0.163 C 
HETATM   15  C   UNL     1     -40.772 -50.725  13.766  1.00  0.00     0.306 C 
BRANCH  14  16
HETATM   16  C   UNL     1     -41.130 -52.743  12.281  1.00  0.00     0.127 C 
BRANCH  16  17
HETATM   17  N   UNL     1     -42.488 -52.494  11.792  1.00  0.00    -0.275 NA
HETATM   18  H   UNL     1     -42.552 -52.759  10.808  1.00  0.00     0.129 HD
BRANCH  17  19
HETATM   19  C   UNL     1     -43.500 -53.147  12.512  1.00  0.00     0.094 A 
HETATM   20  C   UNL     1     -43.119 -54.137  13.409  1.00  0.00     0.045 A 
HETATM   21  C   UNL     1     -44.090 -54.806  14.143  1.00  0.00     0.022 A 
HETATM   22  C   UNL     1     -45.408 -54.454  13.943  1.00  0.00     0.107 A 
HETATM   23  N   UNL     1     -45.774 -53.510  13.058  1.00  0.00    -0.311 N 
HETATM   24  N   UNL     1     -44.808 -52.863  12.332  1.00  0.00    -0.290 N 
ATOM     25  HN  UNL     1     -46.759 -53.278  12.928  1.00  0.00     0.186 HD
ATOM     26  HN  UNL     1     -45.080 -52.158  11.647  1.00  0.00     0.188 HD
ENDBRANCH  17  19
ENDBRANCH  16  17
ENDBRANCH  14  16
ENDBRANCH   9  10
ENDBRANCH   7   9
ENDBRANCH   4   5
ENDBRANCH   1   4
TORSDOF 7
ENDMDL
