MODEL 1
REMARK VINA RESULT:      -6.2      0.000      0.000
REMARK  1 active torsions:
REMARK  status: ('A' for Active; 'I' for Inactive)
REMARK       I    between atoms: N_8  and  C_9 
REMARK       I    between atoms: C_9  and  N_11 
REMARK    1  A    between atoms: N_11  and  C_12 
ROOT
HETATM    1  C   UNL     1     -42.868 -50.774  14.779  1.00  0.00     0.078 C 
HETATM    2  C   UNL     1     -42.571 -49.862  13.649  1.00  0.00     0.066 A 
HETATM    3  N   UNL     1     -43.043 -50.026  12.431  1.00  0.00    -0.296 N 
ATOM      4  HN  UNL     1     -43.623 -50.814  12.144  1.00  0.00     0.187 HD
HETATM    5  N   UNL     1     -42.659 -49.009  11.595  1.00  0.00    -0.279 N 
ATOM      6  HN  UNL     1     -42.922 -48.952  10.611  1.00  0.00     0.189 HD
HETATM    7  C   UNL     1     -41.915 -48.117  12.208  1.00  0.00     0.169 A 
HETATM    8  N   UNL     1     -41.422 -46.956  11.693  1.00  0.00    -0.288 N 
HETATM    9  C   UNL     1     -41.803 -46.433  10.489  1.00  0.00     0.322 C 
HETATM   10  O   UNL     1     -41.338 -45.367  10.099  1.00  0.00    -0.247 OA
HETATM   11  N   UNL     1     -42.783 -47.108   9.813  1.00  0.00    -0.337 N 
HETATM   12  S   UNL     1     -41.578 -48.462  13.840  1.00  0.00    -0.038 SA
HETATM   13  H   UNL     1     -40.807 -46.385  12.255  1.00  0.00     0.172 HD
HETATM   14  H   UNL     1     -42.944 -48.076  10.077  1.00  0.00     0.164 HD
ENDROOT
BRANCH  11  15
HETATM   15  C   UNL     1     -43.440 -46.603   8.624  1.00  0.00     0.104 C 
HETATM   16  C   UNL     1     -44.869 -46.157   8.956  1.00  0.00     0.036 C 
HETATM   17  C   UNL     1     -45.840 -47.322   9.106  1.00  0.00     0.105 C 
HETATM   18  C   UNL     1     -45.750 -48.312   7.970  1.00  0.00     0.217 C 
HETATM   19  O   UNL     1     -46.726 -48.908   7.527  1.00  0.00    -0.274 OA
HETATM   20  N   UNL     1     -44.489 -48.611   7.530  1.00  0.00    -0.359 N 
HETATM   21  C   UNL     1     -43.431 -47.619   7.476  1.00  0.00     0.147 C 
HETATM   22  H   UNL     1     -44.503 -49.302   6.788  1.00  0.00     0.162 HD
ENDBRANCH  11  15
TORSDOF 1
ENDMDL
MODEL 2
REMARK VINA RESULT:      -5.8      3.240      4.237
REMARK  1 active torsions:
REMARK  status: ('A' for Active; 'I' for Inactive)
REMARK       I    between atoms: N_8  and  C_9 
REMARK       I    between atoms: C_9  and  N_11 
REMARK    1  A    between atoms: N_11  and  C_12 
ROOT
HETATM    1  C   UNL     1     -43.519 -54.055  13.029  1.00  0.00     0.078 C 
HETATM    2  C   UNL     1     -42.649 -52.934  12.600  1.00  0.00     0.066 A 
HETATM    3  N   UNL     1     -43.086 -51.714  12.370  1.00  0.00    -0.296 N 
ATOM      4  HN  UNL     1     -44.066 -51.437  12.427  1.00  0.00     0.187 HD
HETATM    5  N   UNL     1     -42.064 -50.860  12.043  1.00  0.00    -0.279 N 
ATOM      6  HN  UNL     1     -42.195 -49.871  11.828  1.00  0.00     0.189 HD
HETATM    7  C   UNL     1     -40.898 -51.463  12.038  1.00  0.00     0.169 A 
HETATM    8  N   UNL     1     -39.675 -50.899  11.819  1.00  0.00    -0.288 N 
HETATM    9  C   UNL     1     -39.456 -49.551  11.769  1.00  0.00     0.322 C 
HETATM   10  O   UNL     1     -38.323 -49.112  11.597  1.00  0.00    -0.247 OA
HETATM   11  N   UNL     1     -40.535 -48.747  12.016  1.00  0.00    -0.337 N 
HETATM   12  S   UNL     1     -40.948 -53.129  12.383  1.00  0.00    -0.038 SA
HETATM   13  H   UNL     1     -38.857 -51.489  11.780  1.00  0.00     0.172 HD
HETATM   14  H   UNL     1     -41.456 -49.166  11.918  1.00  0.00     0.164 HD
ENDROOT
BRANCH  11  15
HETATM   15  C   UNL     1     -40.450 -47.311  12.191  1.00  0.00     0.104 C 
HETATM   16  C   UNL     1     -41.786 -46.758  12.698  1.00  0.00     0.036 C 
HETATM   17  C   UNL     1     -42.843 -46.652  11.606  1.00  0.00     0.105 C 
HETATM   18  C   UNL     1     -42.331 -45.978  10.356  1.00  0.00     0.217 C 
HETATM   19  O   UNL     1     -43.028 -45.249   9.659  1.00  0.00    -0.274 OA
HETATM   20  N   UNL     1     -41.067 -46.323   9.961  1.00  0.00    -0.359 N 
HETATM   21  C   UNL     1     -40.004 -46.591  10.912  1.00  0.00     0.147 C 
HETATM   22  H   UNL     1     -40.801 -45.856   9.102  1.00  0.00     0.162 HD
ENDBRANCH  11  15
TORSDOF 1
ENDMDL
MODEL 3
REMARK VINA RESULT:      -5.7      4.235      6.461
REMARK  1 active torsions:
REMARK  status: ('A' for Active; 'I' for Inactive)
REMARK       I    between atoms: N_8  and  C_9 
REMARK       I    between atoms: C_9  and  N_11 
REMARK    1  A    between atoms: N_11  and  C_12 
ROOT
HETATM    1  C   UNL     1     -41.227 -47.071  10.616  1.00  0.00     0.078 C 
HETATM    2  C   UNL     1     -41.585 -48.366  11.241  1.00  0.00     0.066 A 
HETATM    3  N   UNL     1     -42.773 -48.635  11.742  1.00  0.00    -0.296 N 
ATOM      4  HN  UNL     1     -43.542 -47.966  11.779  1.00  0.00     0.187 HD
HETATM    5  N   UNL     1     -42.851 -49.923  12.206  1.00  0.00    -0.279 N 
ATOM      6  HN  UNL     1     -43.687 -50.326  12.630  1.00  0.00     0.189 HD
HETATM    7  C   UNL     1     -41.725 -50.578  12.041  1.00  0.00     0.169 A 
HETATM    8  N   UNL     1     -41.479 -51.887  12.331  1.00  0.00    -0.288 N 
HETATM    9  C   UNL     1     -42.450 -52.791  12.658  1.00  0.00     0.322 C 
HETATM   10  O   UNL     1     -42.160 -53.962  12.879  1.00  0.00    -0.247 OA
HETATM   11  N   UNL     1     -43.741 -52.338  12.626  1.00  0.00    -0.337 N 
HETATM   12  S   UNL     1     -40.460 -49.671  11.352  1.00  0.00    -0.038 SA
HETATM   13  H   UNL     1     -40.545 -52.254  12.215  1.00  0.00     0.172 HD
HETATM   14  H   UNL     1     -43.880 -51.332  12.666  1.00  0.00     0.164 HD
ENDROOT
BRANCH  11  15
HETATM   15  C   UNL     1     -44.902 -53.196  12.758  1.00  0.00     0.104 C 
HETATM   16  C   UNL     1     -46.179 -52.415  12.429  1.00  0.00     0.036 C 
HETATM   17  C   UNL     1     -46.623 -51.491  13.557  1.00  0.00     0.105 C 
HETATM   18  C   UNL     1     -46.648 -52.176  14.902  1.00  0.00     0.217 C 
HETATM   19  O   UNL     1     -47.483 -51.923  15.763  1.00  0.00    -0.274 OA
HETATM   20  N   UNL     1     -45.602 -53.018  15.168  1.00  0.00    -0.359 N 
HETATM   21  C   UNL     1     -44.994 -53.847  14.143  1.00  0.00     0.147 C 
HETATM   22  H   UNL     1     -45.668 -53.419  16.096  1.00  0.00     0.162 HD
ENDBRANCH  11  15
TORSDOF 1
ENDMDL
MODEL 4
REMARK VINA RESULT:      -5.7      3.069      5.632
REMARK  1 active torsions:
REMARK  status: ('A' for Active; 'I' for Inactive)
REMARK       I    between atoms: N_8  and  C_9 
REMARK       I    between atoms: C_9  and  N_11 
REMARK    1  A    between atoms: N_11  and  C_12 
ROOT
HETATM    1  C   UNL     1     -46.440 -47.838   8.792  1.00  0.00     0.078 C 
HETATM    2  C   UNL     1     -45.127 -47.517   9.398  1.00  0.00     0.066 A 
HETATM    3  N   UNL     1     -44.608 -48.174  10.414  1.00  0.00    -0.296 N 
ATOM      4  HN  UNL     1     -45.076 -48.938  10.900  1.00  0.00     0.187 HD
HETATM    5  N   UNL     1     -43.360 -47.706  10.740  1.00  0.00    -0.279 N 
ATOM      6  HN  UNL     1     -42.791 -48.083  11.498  1.00  0.00     0.189 HD
HETATM    7  C   UNL     1     -42.984 -46.717   9.963  1.00  0.00     0.169 A 
HETATM    8  N   UNL     1     -41.784 -46.069   9.970  1.00  0.00    -0.288 N 
HETATM    9  C   UNL     1     -40.692 -46.495  10.672  1.00  0.00     0.322 C 
HETATM   10  O   UNL     1     -39.634 -45.877  10.611  1.00  0.00    -0.247 OA
HETATM   11  N   UNL     1     -40.824 -47.677  11.350  1.00  0.00    -0.337 N 
HETATM   12  S   UNL     1     -44.132 -46.239   8.801  1.00  0.00    -0.038 SA
HETATM   13  H   UNL     1     -41.644 -45.278   9.358  1.00  0.00     0.172 HD
HETATM   14  H   UNL     1     -41.770 -47.996  11.541  1.00  0.00     0.164 HD
ENDROOT
BRANCH  11  15
HETATM   15  C   UNL     1     -39.724 -48.371  11.987  1.00  0.00     0.104 C 
HETATM   16  C   UNL     1     -39.644 -49.816  11.482  1.00  0.00     0.036 C 
HETATM   17  C   UNL     1     -40.696 -50.726  12.105  1.00  0.00     0.105 C 
HETATM   18  C   UNL     1     -40.766 -50.600  13.608  1.00  0.00     0.217 C 
HETATM   19  O   UNL     1     -41.005 -51.550  14.345  1.00  0.00    -0.274 OA
HETATM   20  N   UNL     1     -40.671 -49.331  14.111  1.00  0.00    -0.359 N 
HETATM   21  C   UNL     1     -39.810 -48.325  13.517  1.00  0.00     0.147 C 
HETATM   22  H   UNL     1     -40.755 -49.319  15.121  1.00  0.00     0.162 HD
ENDBRANCH  11  15
TORSDOF 1
ENDMDL
MODEL 5
REMARK VINA RESULT:      -5.6      4.630      6.140
REMARK  1 active torsions:
REMARK  status: ('A' for Active; 'I' for Inactive)
REMARK       I    between atoms: N_8  and  C_9 
REMARK       I    between atoms: C_9  and  N_11 
REMARK    1  A    between atoms: N_11  and  C_12 
ROOT
HETATM    1  C   UNL     1     -46.696 -51.565  13.469  1.00  0.00     0.078 C 
HETATM    2  C   UNL     1     -45.248 -51.718  13.196  1.00  0.00     0.066 A 
HETATM    3  N   UNL     1     -44.466 -50.731  12.812  1.00  0.00    -0.296 N 
ATOM      4  HN  UNL     1     -44.791 -49.781  12.631  1.00  0.00     0.187 HD
HETATM    5  N   UNL     1     -43.161 -51.134  12.685  1.00  0.00    -0.279 N 
ATOM      6  HN  UNL     1     -42.400 -50.518  12.398  1.00  0.00     0.189 HD
HETATM    7  C   UNL     1     -43.005 -52.405  12.975  1.00  0.00     0.169 A 
HETATM    8  N   UNL     1     -41.838 -53.108  13.013  1.00  0.00    -0.288 N 
HETATM    9  C   UNL     1     -40.600 -52.534  12.948  1.00  0.00     0.322 C 
HETATM   10  O   UNL     1     -39.589 -53.226  13.016  1.00  0.00    -0.247 OA
HETATM   11  N   UNL     1     -40.562 -51.167  12.903  1.00  0.00    -0.337 N 
HETATM   12  S   UNL     1     -44.437 -53.231  13.381  1.00  0.00    -0.038 SA
HETATM   13  H   UNL     1     -41.863 -54.102  13.189  1.00  0.00     0.172 HD
HETATM   14  H   UNL     1     -41.414 -50.690  12.619  1.00  0.00     0.164 HD
ENDROOT
BRANCH  11  15
HETATM   15  C   UNL     1     -39.347 -50.387  13.022  1.00  0.00     0.104 C 
HETATM   16  C   UNL     1     -39.578 -49.179  13.937  1.00  0.00     0.036 C 
HETATM   17  C   UNL     1     -40.342 -48.050  13.256  1.00  0.00     0.105 C 
HETATM   18  C   UNL     1     -39.784 -47.697  11.899  1.00  0.00     0.217 C 
HETATM   19  O   UNL     1     -39.764 -46.551  11.464  1.00  0.00    -0.274 OA
HETATM   20  N   UNL     1     -39.407 -48.751  11.111  1.00  0.00    -0.359 N 
HETATM   21  C   UNL     1     -38.797 -49.949  11.659  1.00  0.00     0.147 C 
HETATM   22  H   UNL     1     -39.069 -48.443  10.206  1.00  0.00     0.162 HD
ENDBRANCH  11  15
TORSDOF 1
ENDMDL
MODEL 6
REMARK VINA RESULT:      -5.4      4.030      5.996
REMARK  1 active torsions:
REMARK  status: ('A' for Active; 'I' for Inactive)
REMARK       I    between atoms: N_8  and  C_9 
REMARK       I    between atoms: C_9  and  N_11 
REMARK    1  A    between atoms: N_11  and  C_12 
ROOT
HETATM    1  C   UNL     1     -45.334 -55.007  13.621  1.00  0.00     0.078 C 
HETATM    2  C   UNL     1     -43.987 -54.390  13.607  1.00  0.00     0.066 A 
HETATM    3  N   UNL     1     -43.587 -53.523  12.701  1.00  0.00    -0.296 N 
ATOM      4  HN  UNL     1     -44.151 -53.226  11.905  1.00  0.00     0.187 HD
HETATM    5  N   UNL     1     -42.318 -53.068  12.956  1.00  0.00    -0.279 N 
ATOM      6  HN  UNL     1     -41.828 -52.391  12.371  1.00  0.00     0.189 HD
HETATM    7  C   UNL     1     -41.808 -53.605  14.040  1.00  0.00     0.169 A 
HETATM    8  N   UNL     1     -40.602 -53.329  14.612  1.00  0.00    -0.288 N 
HETATM    9  C   UNL     1     -39.807 -52.279  14.245  1.00  0.00     0.322 C 
HETATM   10  O   UNL     1     -38.745 -52.072  14.823  1.00  0.00    -0.247 OA
HETATM   11  N   UNL     1     -40.307 -51.440  13.286  1.00  0.00    -0.337 N 
HETATM   12  S   UNL     1     -42.807 -54.745  14.816  1.00  0.00    -0.038 SA
HETATM   13  H   UNL     1     -40.299 -53.861  15.415  1.00  0.00     0.172 HD
HETATM   14  H   UNL     1     -41.061 -51.799  12.706  1.00  0.00     0.164 HD
ENDROOT
BRANCH  11  15
HETATM   15  C   UNL     1     -39.693 -50.182  12.913  1.00  0.00     0.104 C 
HETATM   16  C   UNL     1     -40.608 -49.012  13.292  1.00  0.00     0.036 C 
HETATM   17  C   UNL     1     -41.776 -48.830  12.331  1.00  0.00     0.105 C 
HETATM   18  C   UNL     1     -41.352 -48.837  10.882  1.00  0.00     0.217 C 
HETATM   19  O   UNL     1     -41.888 -48.140  10.028  1.00  0.00    -0.274 OA
HETATM   20  N   UNL     1     -40.406 -49.764  10.537  1.00  0.00    -0.359 N 
HETATM   21  C   UNL     1     -39.320 -50.132  11.427  1.00  0.00     0.147 C 
HETATM   22  H   UNL     1     -40.191 -49.731   9.547  1.00  0.00     0.162 HD
ENDBRANCH  11  15
TORSDOF 1
ENDMDL
MODEL 7
REMARK VINA RESULT:      -4.9      4.338      7.002
REMARK  1 active torsions:
REMARK  status: ('A' for Active; 'I' for Inactive)
REMARK       I    between atoms: N_8  and  C_9 
REMARK       I    between atoms: C_9  and  N_11 
REMARK    1  A    between atoms: N_11  and  C_12 
ROOT
HETATM    1  C   UNL     1     -43.223 -54.885  14.637  1.00  0.00     0.078 C 
HETATM    2  C   UNL     1     -42.768 -53.581  14.101  1.00  0.00     0.066 A 
HETATM    3  N   UNL     1     -41.816 -52.854  14.649  1.00  0.00    -0.296 N 
ATOM      4  HN  UNL     1     -41.332 -53.103  15.511  1.00  0.00     0.187 HD
HETATM    5  N   UNL     1     -41.556 -51.722  13.919  1.00  0.00    -0.279 N 
ATOM      6  HN  UNL     1     -40.852 -51.029  14.176  1.00  0.00     0.189 HD
HETATM    7  C   UNL     1     -42.316 -51.635  12.852  1.00  0.00     0.169 A 
HETATM    8  N   UNL     1     -42.274 -50.677  11.883  1.00  0.00    -0.288 N 
HETATM    9  C   UNL     1     -41.276 -49.751  11.769  1.00  0.00     0.322 C 
HETATM   10  O   UNL     1     -41.287 -48.934  10.854  1.00  0.00    -0.247 OA
HETATM   11  N   UNL     1     -40.241 -49.855  12.659  1.00  0.00    -0.337 N 
HETATM   12  S   UNL     1     -43.445 -52.895  12.669  1.00  0.00    -0.038 SA
HETATM   13  H   UNL     1     -42.961 -50.690  11.143  1.00  0.00     0.172 HD
HETATM   14  H   UNL     1     -40.413 -50.388  13.507  1.00  0.00     0.164 HD
ENDROOT
BRANCH  11  15
HETATM   15  C   UNL     1     -39.017 -49.086  12.569  1.00  0.00     0.104 C 
HETATM   16  C   UNL     1     -37.823 -50.015  12.322  1.00  0.00     0.036 C 
HETATM   17  C   UNL     1     -37.371 -50.755  13.575  1.00  0.00     0.105 C 
HETATM   18  C   UNL     1     -37.208 -49.845  14.768  1.00  0.00     0.217 C 
HETATM   19  O   UNL     1     -36.337 -50.007  15.615  1.00  0.00    -0.274 OA
HETATM   20  N   UNL     1     -38.172 -48.886  14.930  1.00  0.00    -0.359 N 
HETATM   21  C   UNL     1     -38.786 -48.207  13.804  1.00  0.00     0.147 C 
HETATM   22  H   UNL     1     -38.015 -48.333  15.765  1.00  0.00     0.162 HD
ENDBRANCH  11  15
TORSDOF 1
ENDMDL
MODEL 8
REMARK VINA RESULT:      -4.9      6.263      8.790
REMARK  1 active torsions:
REMARK  status: ('A' for Active; 'I' for Inactive)
REMARK       I    between atoms: N_8  and  C_9 
REMARK       I    between atoms: C_9  and  N_11 
REMARK    1  A    between atoms: N_11  and  C_12 
ROOT
HETATM    1  C   UNL     1     -46.790 -51.743  11.899  1.00  0.00     0.078 C 
HETATM    2  C   UNL     1     -45.825 -52.638  12.580  1.00  0.00     0.066 A 
HETATM    3  N   UNL     1     -44.563 -52.762  12.225  1.00  0.00    -0.296 N 
ATOM      4  HN  UNL     1     -44.144 -52.283  11.427  1.00  0.00     0.187 HD
HETATM    5  N   UNL     1     -43.880 -53.611  13.057  1.00  0.00    -0.279 N 
ATOM      6  HN  UNL     1     -42.891 -53.839  12.951  1.00  0.00     0.189 HD
HETATM    7  C   UNL     1     -44.647 -54.097  14.006  1.00  0.00     0.169 A 
HETATM    8  N   UNL     1     -44.276 -54.915  15.032  1.00  0.00    -0.288 N 
HETATM    9  C   UNL     1     -42.977 -55.197  15.350  1.00  0.00     0.322 C 
HETATM   10  O   UNL     1     -42.715 -55.920  16.306  1.00  0.00    -0.247 OA
HETATM   11  N   UNL     1     -42.015 -54.560  14.615  1.00  0.00    -0.337 N 
HETATM   12  S   UNL     1     -46.273 -53.601  13.941  1.00  0.00    -0.038 SA
HETATM   13  H   UNL     1     -44.980 -55.271  15.662  1.00  0.00     0.172 HD
HETATM   14  H   UNL     1     -42.299 -54.175  13.718  1.00  0.00     0.164 HD
ENDROOT
BRANCH  11  15
HETATM   15  C   UNL     1     -40.602 -54.591  14.931  1.00  0.00     0.104 C 
HETATM   16  C   UNL     1     -40.306 -53.683  16.130  1.00  0.00     0.036 C 
HETATM   17  C   UNL     1     -40.283 -52.203  15.768  1.00  0.00     0.105 C 
HETATM   18  C   UNL     1     -39.443 -51.909  14.549  1.00  0.00     0.217 C 
HETATM   19  O   UNL     1     -38.780 -50.885  14.428  1.00  0.00    -0.274 OA
HETATM   20  N   UNL     1     -39.554 -52.797  13.513  1.00  0.00    -0.359 N 
HETATM   21  C   UNL     1     -39.725 -54.222  13.729  1.00  0.00     0.147 C 
HETATM   22  H   UNL     1     -38.986 -52.522  12.720  1.00  0.00     0.162 HD
ENDBRANCH  11  15
TORSDOF 1
ENDMDL
MODEL 9
REMARK VINA RESULT:      -4.9      6.535      8.265
REMARK  1 active torsions:
REMARK  status: ('A' for Active; 'I' for Inactive)
REMARK       I    between atoms: N_8  and  C_9 
REMARK       I    between atoms: C_9  and  N_11 
REMARK    1  A    between atoms: N_11  and  C_12 
ROOT
HETATM    1  C   UNL     1     -47.727 -51.762  19.947  1.00  0.00     0.078 C 
HETATM    2  C   UNL     1     -47.260 -51.757  18.541  1.00  0.00     0.066 A 
HETATM    3  N   UNL     1     -46.213 -52.431  18.113  1.00  0.00    -0.296 N 
ATOM      4  HN  UNL     1     -45.606 -52.986  18.716  1.00  0.00     0.187 HD
HETATM    5  N   UNL     1     -46.038 -52.295  16.760  1.00  0.00    -0.279 N 
ATOM      6  HN  UNL     1     -45.283 -52.740  16.236  1.00  0.00     0.189 HD
HETATM    7  C   UNL     1     -46.954 -51.527  16.216  1.00  0.00     0.169 A 
HETATM    8  N   UNL     1     -47.111 -51.236  14.893  1.00  0.00    -0.288 N 
HETATM    9  C   UNL     1     -46.444 -51.877  13.888  1.00  0.00     0.322 C 
HETATM   10  O   UNL     1     -46.656 -51.583  12.716  1.00  0.00    -0.247 OA
HETATM   11  N   UNL     1     -45.622 -52.906  14.258  1.00  0.00    -0.337 N 
HETATM   12  S   UNL     1     -48.078 -50.865  17.309  1.00  0.00    -0.038 SA
HETATM   13  H   UNL     1     -47.822 -50.577  14.612  1.00  0.00     0.172 HD
HETATM   14  H   UNL     1     -45.325 -52.933  15.230  1.00  0.00     0.164 HD
ENDROOT
BRANCH  11  15
HETATM   15  C   UNL     1     -44.987 -53.812  13.322  1.00  0.00     0.104 C 
HETATM   16  C   UNL     1     -44.566 -55.102  14.034  1.00  0.00     0.036 C 
HETATM   17  C   UNL     1     -43.302 -54.938  14.869  1.00  0.00     0.105 C 
HETATM   18  C   UNL     1     -42.185 -54.255  14.118  1.00  0.00     0.217 C 
HETATM   19  O   UNL     1     -41.003 -54.544  14.272  1.00  0.00    -0.274 OA
HETATM   20  N   UNL     1     -42.549 -53.194  13.333  1.00  0.00    -0.359 N 
HETATM   21  C   UNL     1     -43.800 -53.167  12.598  1.00  0.00     0.147 C 
HETATM   22  H   UNL     1     -41.747 -52.766  12.883  1.00  0.00     0.162 HD
ENDBRANCH  11  15
TORSDOF 1
ENDMDL
