MODEL 1
REMARK VINA RESULT:      -6.3      0.000      0.000
REMARK  6 active torsions:
REMARK  status: ('A' for Active; 'I' for Inactive)
REMARK    1  A    between atoms: C_2  and  C_5 
REMARK    2  A    between atoms: C_9  and  N_10 
REMARK       I    between atoms: N_10  and  C_11 
REMARK       I    between atoms: C_11  and  N_13 
REMARK    3  A    between atoms: N_13  and  C_14 
REMARK    4  A    between atoms: C_14  and  C_16 
REMARK    5  A    between atoms: C_14  and  C_18 
REMARK    6  A    between atoms: C_16  and  O_17 
ROOT
HETATM    1  N   UNL     1     -41.962 -50.344  11.767  1.00  0.00    -0.306 N 
HETATM    2  C   UNL     1     -43.041 -50.703  12.548  1.00  0.00     0.321 C 
HETATM    3  O   UNL     1     -43.699 -49.916  13.218  1.00  0.00    -0.247 OA
HETATM    4  N   UNL     1     -43.346 -52.045  12.527  1.00  0.00    -0.332 N 
HETATM    5  H   UNL     1     -41.447 -51.071  11.297  1.00  0.00     0.171 HD
HETATM    6  H   UNL     1     -42.838 -52.674  11.926  1.00  0.00     0.165 HD
ENDROOT
BRANCH   1   7
HETATM    7  C   UNL     1     -41.499 -49.005  11.635  1.00  0.00     0.067 A 
HETATM    8  C   UNL     1     -40.692 -48.349  12.544  1.00  0.00     0.120 A 
HETATM    9  N   UNL     1     -40.259 -47.076  12.412  1.00  0.00    -0.353 N 
HETATM   10  C   UNL     1     -40.624 -46.411  11.307  1.00  0.00     0.088 A 
ATOM     11  HN  UNL     1     -39.677 -46.639  13.126  1.00  0.00     0.166 HD
HETATM   12  N   UNL     1     -41.429 -46.937  10.360  1.00  0.00    -0.353 N 
HETATM   13  C   UNL     1     -41.841 -48.223  10.550  1.00  0.00     0.120 A 
ATOM     14  HN  UNL     1     -41.715 -46.400   9.542  1.00  0.00     0.166 HD
BRANCH  10  15
HETATM   15  C   UNL     1     -40.145 -44.964  11.196  1.00  0.00     0.007 C 
HETATM   16  C   UNL     1     -41.354 -44.001  11.176  1.00  0.00     0.022 C 
HETATM   17  C   UNL     1     -39.359 -44.796   9.885  1.00  0.00     0.022 C 
HETATM   18  C   UNL     1     -39.251 -44.573  12.385  1.00  0.00     0.022 C 
ENDBRANCH  10  15
ENDBRANCH   1   7
BRANCH   4  19
HETATM   19  C   UNL     1     -44.491 -52.580  13.307  1.00  0.00     0.055 C 
HETATM   20  C   UNL     1     -44.336 -52.241  14.815  1.00  0.00     0.041 C 
BRANCH  19  21
HETATM   21  C   UNL     1     -45.840 -51.954  12.818  1.00  0.00     0.195 C 
BRANCH  21  22
HETATM   22  O   UNL     1     -46.344 -52.584  11.636  1.00  0.00    -0.398 OA
HETATM   23  H   UNL     1     -45.598 -53.066  11.245  1.00  0.00     0.209 HD
ENDBRANCH  21  22
ENDBRANCH  19  21
BRANCH  19  24
HETATM   24  C   UNL     1     -44.448 -54.110  13.211  1.00  0.00     0.015 A 
HETATM   25  C   UNL     1     -45.430 -55.055  13.866  1.00  0.00     0.007 A 
HETATM   26  C   UNL     1     -44.015 -54.988  14.368  1.00  0.00     0.007 A 
ENDBRANCH  19  24
ENDBRANCH   4  19
TORSDOF 6
ENDMDL
MODEL 2
REMARK VINA RESULT:      -6.1      1.202      2.001
REMARK  6 active torsions:
REMARK  status: ('A' for Active; 'I' for Inactive)
REMARK    1  A    between atoms: C_2  and  C_5 
REMARK    2  A    between atoms: C_9  and  N_10 
REMARK       I    between atoms: N_10  and  C_11 
REMARK       I    between atoms: C_11  and  N_13 
REMARK    3  A    between atoms: N_13  and  C_14 
REMARK    4  A    between atoms: C_14  and  C_16 
REMARK    5  A    between atoms: C_14  and  C_18 
REMARK    6  A    between atoms: C_16  and  O_17 
ROOT
HETATM    1  N   UNL     1     -41.870 -50.182  11.624  1.00  0.00    -0.306 N 
HETATM    2  C   UNL     1     -42.768 -50.576  12.594  1.00  0.00     0.321 C 
HETATM    3  O   UNL     1     -43.229 -49.830  13.449  1.00  0.00    -0.247 OA
HETATM    4  N   UNL     1     -43.130 -51.903  12.540  1.00  0.00    -0.332 N 
HETATM    5  H   UNL     1     -41.502 -50.881  11.000  1.00  0.00     0.171 HD
HETATM    6  H   UNL     1     -42.793 -52.494  11.797  1.00  0.00     0.165 HD
ENDROOT
BRANCH   1   7
HETATM    7  C   UNL     1     -41.388 -48.850  11.495  1.00  0.00     0.067 A 
HETATM    8  C   UNL     1     -40.466 -48.252  12.332  1.00  0.00     0.120 A 
HETATM    9  N   UNL     1     -40.015 -46.986  12.203  1.00  0.00    -0.353 N 
HETATM   10  C   UNL     1     -40.483 -46.265  11.174  1.00  0.00     0.088 A 
ATOM     11  HN  UNL     1     -39.345 -46.593  12.863  1.00  0.00     0.166 HD
HETATM   12  N   UNL     1     -41.404 -46.732  10.303  1.00  0.00    -0.353 N 
HETATM   13  C   UNL     1     -41.827 -48.015  10.487  1.00  0.00     0.120 A 
ATOM     14  HN  UNL     1     -41.764 -46.153   9.544  1.00  0.00     0.166 HD
BRANCH  10  15
HETATM   15  C   UNL     1     -39.979 -44.827  11.067  1.00  0.00     0.007 C 
HETATM   16  C   UNL     1     -41.172 -43.843  11.051  1.00  0.00     0.022 C 
HETATM   17  C   UNL     1     -39.192 -44.667   9.756  1.00  0.00     0.022 C 
HETATM   18  C   UNL     1     -39.077 -44.454  12.256  1.00  0.00     0.022 C 
ENDBRANCH  10  15
ENDBRANCH   1   7
BRANCH   4  19
HETATM   19  C   UNL     1     -44.101 -52.469  13.511  1.00  0.00     0.055 C 
HETATM   20  C   UNL     1     -44.671 -53.819  12.995  1.00  0.00     0.041 C 
BRANCH  19  21
HETATM   21  C   UNL     1     -43.414 -52.742  14.891  1.00  0.00     0.195 C 
BRANCH  21  22
HETATM   22  O   UNL     1     -43.535 -51.640  15.795  1.00  0.00    -0.398 OA
HETATM   23  H   UNL     1     -44.332 -51.806  16.322  1.00  0.00     0.209 HD
ENDBRANCH  21  22
ENDBRANCH  19  21
BRANCH  19  24
HETATM   24  C   UNL     1     -45.295 -51.509  13.593  1.00  0.00     0.015 A 
HETATM   25  C   UNL     1     -46.666 -51.864  14.122  1.00  0.00     0.007 A 
HETATM   26  C   UNL     1     -46.480 -51.601  12.653  1.00  0.00     0.007 A 
ENDBRANCH  19  24
ENDBRANCH   4  19
TORSDOF 6
ENDMDL
MODEL 3
REMARK VINA RESULT:      -6.0      3.556      4.599
REMARK  6 active torsions:
REMARK  status: ('A' for Active; 'I' for Inactive)
REMARK    1  A    between atoms: C_2  and  C_5 
REMARK    2  A    between atoms: C_9  and  N_10 
REMARK       I    between atoms: N_10  and  C_11 
REMARK       I    between atoms: C_11  and  N_13 
REMARK    3  A    between atoms: N_13  and  C_14 
REMARK    4  A    between atoms: C_14  and  C_16 
REMARK    5  A    between atoms: C_14  and  C_18 
REMARK    6  A    between atoms: C_16  and  O_17 
ROOT
HETATM    1  N   UNL     1     -41.088 -49.858  13.270  1.00  0.00    -0.306 N 
HETATM    2  C   UNL     1     -41.102 -51.224  13.467  1.00  0.00     0.321 C 
HETATM    3  O   UNL     1     -41.703 -52.017  12.752  1.00  0.00    -0.247 OA
HETATM    4  N   UNL     1     -40.373 -51.658  14.551  1.00  0.00    -0.332 N 
HETATM    5  H   UNL     1     -40.613 -49.282  13.945  1.00  0.00     0.171 HD
HETATM    6  H   UNL     1     -39.833 -51.005  15.096  1.00  0.00     0.165 HD
ENDROOT
BRANCH   1   7
HETATM    7  C   UNL     1     -41.760 -49.213  12.195  1.00  0.00     0.067 A 
HETATM    8  C   UNL     1     -43.072 -48.783  12.220  1.00  0.00     0.120 A 
HETATM    9  N   UNL     1     -43.703 -48.173  11.194  1.00  0.00    -0.353 N 
HETATM   10  C   UNL     1     -42.995 -47.951  10.077  1.00  0.00     0.088 A 
ATOM     11  HN  UNL     1     -44.681 -47.892  11.266  1.00  0.00     0.166 HD
HETATM   12  N   UNL     1     -41.713 -48.346   9.925  1.00  0.00    -0.353 N 
HETATM   13  C   UNL     1     -41.130 -48.963  10.992  1.00  0.00     0.120 A 
ATOM     14  HN  UNL     1     -41.205 -48.189   9.055  1.00  0.00     0.166 HD
BRANCH  10  15
HETATM   15  C   UNL     1     -43.740 -47.286   8.921  1.00  0.00     0.007 C 
HETATM   16  C   UNL     1     -43.375 -45.785   8.845  1.00  0.00     0.022 C 
HETATM   17  C   UNL     1     -45.254 -47.412   9.161  1.00  0.00     0.022 C 
HETATM   18  C   UNL     1     -43.378 -47.928   7.572  1.00  0.00     0.022 C 
ENDBRANCH  10  15
ENDBRANCH   1   7
BRANCH   4  19
HETATM   19  C   UNL     1     -40.282 -53.103  14.881  1.00  0.00     0.055 C 
HETATM   20  C   UNL     1     -41.680 -53.775  14.798  1.00  0.00     0.041 C 
BRANCH  19  21
HETATM   21  C   UNL     1     -39.339 -53.846  13.876  1.00  0.00     0.195 C 
BRANCH  21  22
HETATM   22  O   UNL     1     -40.048 -54.417  12.773  1.00  0.00    -0.398 OA
HETATM   23  H   UNL     1     -40.969 -54.515  13.062  1.00  0.00     0.209 HD
ENDBRANCH  21  22
ENDBRANCH  19  21
BRANCH  19  24
HETATM   24  C   UNL     1     -39.843 -53.221  16.346  1.00  0.00     0.015 A 
HETATM   25  C   UNL     1     -38.640 -52.537  16.954  1.00  0.00     0.007 A 
HETATM   26  C   UNL     1     -38.634 -54.029  16.771  1.00  0.00     0.007 A 
ENDBRANCH  19  24
ENDBRANCH   4  19
TORSDOF 6
ENDMDL
MODEL 4
REMARK VINA RESULT:      -6.0      3.245      7.422
REMARK  6 active torsions:
REMARK  status: ('A' for Active; 'I' for Inactive)
REMARK    1  A    between atoms: C_2  and  C_5 
REMARK    2  A    between atoms: C_9  and  N_10 
REMARK       I    between atoms: N_10  and  C_11 
REMARK       I    between atoms: C_11  and  N_13 
REMARK    3  A    between atoms: N_13  and  C_14 
REMARK    4  A    between atoms: C_14  and  C_16 
REMARK    5  A    between atoms: C_14  and  C_18 
REMARK    6  A    between atoms: C_16  and  O_17 
ROOT
HETATM    1  N   UNL     1     -40.916 -50.242  10.903  1.00  0.00    -0.306 N 
HETATM    2  C   UNL     1     -41.583 -49.052  11.105  1.00  0.00     0.321 C 
HETATM    3  O   UNL     1     -42.045 -48.695  12.182  1.00  0.00    -0.247 OA
HETATM    4  N   UNL     1     -41.700 -48.260   9.986  1.00  0.00    -0.332 N 
HETATM    5  H   UNL     1     -40.623 -50.475   9.968  1.00  0.00     0.171 HD
HETATM    6  H   UNL     1     -41.265 -48.533   9.119  1.00  0.00     0.165 HD
ENDROOT
BRANCH   1   7
HETATM    7  C   UNL     1     -40.670 -51.190  11.936  1.00  0.00     0.067 A 
HETATM    8  C   UNL     1     -41.509 -52.233  12.276  1.00  0.00     0.120 A 
HETATM    9  N   UNL     1     -41.269 -53.126  13.259  1.00  0.00    -0.353 N 
HETATM   10  C   UNL     1     -40.122 -53.002  13.940  1.00  0.00     0.088 A 
ATOM     11  HN  UNL     1     -41.936 -53.867  13.475  1.00  0.00     0.166 HD
HETATM   12  N   UNL     1     -39.233 -52.010  13.716  1.00  0.00    -0.353 N 
HETATM   13  C   UNL     1     -39.532 -51.134  12.716  1.00  0.00     0.120 A 
ATOM     14  HN  UNL     1     -38.380 -51.922  14.267  1.00  0.00     0.166 HD
BRANCH  10  15
HETATM   15  C   UNL     1     -39.887 -54.008  15.066  1.00  0.00     0.007 C 
HETATM   16  C   UNL     1     -39.349 -53.286  16.323  1.00  0.00     0.022 C 
HETATM   17  C   UNL     1     -38.845 -55.041  14.607  1.00  0.00     0.022 C 
HETATM   18  C   UNL     1     -41.187 -54.730  15.458  1.00  0.00     0.022 C 
ENDBRANCH  10  15
ENDBRANCH   1   7
BRANCH   4  19
HETATM   19  C   UNL     1     -42.382 -46.942  10.051  1.00  0.00     0.055 C 
HETATM   20  C   UNL     1     -43.366 -46.890  11.251  1.00  0.00     0.041 C 
BRANCH  19  21
HETATM   21  C   UNL     1     -41.342 -45.787  10.241  1.00  0.00     0.195 C 
BRANCH  21  22
HETATM   22  O   UNL     1     -39.993 -46.261  10.290  1.00  0.00    -0.398 OA
HETATM   23  H   UNL     1     -39.623 -45.944  11.129  1.00  0.00     0.209 HD
ENDBRANCH  21  22
ENDBRANCH  19  21
BRANCH  19  24
HETATM   24  C   UNL     1     -43.243 -46.798   8.790  1.00  0.00     0.015 A 
HETATM   25  C   UNL     1     -44.576 -47.475   8.561  1.00  0.00     0.007 A 
HETATM   26  C   UNL     1     -43.376 -47.905   7.764  1.00  0.00     0.007 A 
ENDBRANCH  19  24
ENDBRANCH   4  19
TORSDOF 6
ENDMDL
MODEL 5
REMARK VINA RESULT:      -6.0      1.731      2.446
REMARK  6 active torsions:
REMARK  status: ('A' for Active; 'I' for Inactive)
REMARK    1  A    between atoms: C_2  and  C_5 
REMARK    2  A    between atoms: C_9  and  N_10 
REMARK       I    between atoms: N_10  and  C_11 
REMARK       I    between atoms: C_11  and  N_13 
REMARK    3  A    between atoms: N_13  and  C_14 
REMARK    4  A    between atoms: C_14  and  C_16 
REMARK    5  A    between atoms: C_14  and  C_18 
REMARK    6  A    between atoms: C_16  and  O_17 
ROOT
HETATM    1  N   UNL     1     -42.745 -49.729  11.786  1.00  0.00    -0.306 N 
HETATM    2  C   UNL     1     -42.234 -50.759  12.548  1.00  0.00     0.321 C 
HETATM    3  O   UNL     1     -41.177 -50.702  13.163  1.00  0.00    -0.247 OA
HETATM    4  N   UNL     1     -43.013 -51.894  12.579  1.00  0.00    -0.332 N 
HETATM    5  H   UNL     1     -43.594 -49.890  11.269  1.00  0.00     0.171 HD
HETATM    6  H   UNL     1     -43.910 -51.909  12.120  1.00  0.00     0.165 HD
ENDROOT
BRANCH   1   7
HETATM    7  C   UNL     1     -42.104 -48.466  11.642  1.00  0.00     0.067 A 
HETATM    8  C   UNL     1     -41.183 -48.148  10.664  1.00  0.00     0.120 A 
HETATM    9  N   UNL     1     -40.578 -46.948  10.536  1.00  0.00    -0.353 N 
HETATM   10  C   UNL     1     -40.914 -45.990  11.412  1.00  0.00     0.088 A 
ATOM     11  HN  UNL     1     -39.891 -46.777   9.802  1.00  0.00     0.166 HD
HETATM   12  N   UNL     1     -41.784 -46.188  12.425  1.00  0.00    -0.353 N 
HETATM   13  C   UNL     1     -42.358 -47.422  12.508  1.00  0.00     0.120 A 
ATOM     14  HN  UNL     1     -42.002 -45.450  13.095  1.00  0.00     0.166 HD
BRANCH  10  15
HETATM   15  C   UNL     1     -40.194 -44.651  11.263  1.00  0.00     0.007 C 
HETATM   16  C   UNL     1     -39.392 -44.619   9.941  1.00  0.00     0.022 C 
HETATM   17  C   UNL     1     -39.216 -44.474  12.437  1.00  0.00     0.022 C 
HETATM   18  C   UNL     1     -41.187 -43.476  11.240  1.00  0.00     0.022 C 
ENDBRANCH  10  15
ENDBRANCH   1   7
BRANCH   4  19
HETATM   19  C   UNL     1     -42.601 -53.081  13.369  1.00  0.00     0.055 C 
HETATM   20  C   UNL     1     -41.260 -53.657  12.838  1.00  0.00     0.041 C 
BRANCH  19  21
HETATM   21  C   UNL     1     -42.391 -52.704  14.874  1.00  0.00     0.195 C 
BRANCH  21  22
HETATM   22  O   UNL     1     -41.019 -52.766  15.273  1.00  0.00    -0.398 OA
HETATM   23  H   UNL     1     -40.990 -53.322  16.067  1.00  0.00     0.209 HD
ENDBRANCH  21  22
ENDBRANCH  19  21
BRANCH  19  24
HETATM   24  C   UNL     1     -43.650 -54.178  13.146  1.00  0.00     0.015 A 
HETATM   25  C   UNL     1     -45.148 -53.978  13.198  1.00  0.00     0.007 A 
HETATM   26  C   UNL     1     -44.465 -54.769  14.279  1.00  0.00     0.007 A 
ENDBRANCH  19  24
ENDBRANCH   4  19
TORSDOF 6
ENDMDL
MODEL 6
REMARK VINA RESULT:      -5.9      0.455      1.485
REMARK  6 active torsions:
REMARK  status: ('A' for Active; 'I' for Inactive)
REMARK    1  A    between atoms: C_2  and  C_5 
REMARK    2  A    between atoms: C_9  and  N_10 
REMARK       I    between atoms: N_10  and  C_11 
REMARK       I    between atoms: C_11  and  N_13 
REMARK    3  A    between atoms: N_13  and  C_14 
REMARK    4  A    between atoms: C_14  and  C_16 
REMARK    5  A    between atoms: C_14  and  C_18 
REMARK    6  A    between atoms: C_16  and  O_17 
ROOT
HETATM    1  N   UNL     1     -42.024 -50.203  11.808  1.00  0.00    -0.306 N 
HETATM    2  C   UNL     1     -43.071 -50.530  12.644  1.00  0.00     0.321 C 
HETATM    3  O   UNL     1     -43.684 -49.722  13.329  1.00  0.00    -0.247 OA
HETATM    4  N   UNL     1     -43.399 -51.867  12.660  1.00  0.00    -0.332 N 
HETATM    5  H   UNL     1     -41.543 -50.946  11.328  1.00  0.00     0.171 HD
HETATM    6  H   UNL     1     -42.929 -52.515  12.048  1.00  0.00     0.165 HD
ENDROOT
BRANCH   1   7
HETATM    7  C   UNL     1     -41.546 -48.874  11.631  1.00  0.00     0.067 A 
HETATM    8  C   UNL     1     -41.669 -48.132  10.473  1.00  0.00     0.120 A 
HETATM    9  N   UNL     1     -41.211 -46.871  10.314  1.00  0.00    -0.353 N 
HETATM   10  C   UNL     1     -40.613 -46.293  11.365  1.00  0.00     0.088 A 
ATOM     11  HN  UNL     1     -41.316 -46.379   9.427  1.00  0.00     0.166 HD
HETATM   12  N   UNL     1     -40.414 -46.926  12.542  1.00  0.00    -0.353 N 
HETATM   13  C   UNL     1     -40.891 -48.199  12.642  1.00  0.00     0.120 A 
ATOM     14  HN  UNL     1     -39.932 -46.473  13.317  1.00  0.00     0.166 HD
BRANCH  10  15
HETATM   15  C   UNL     1     -40.079 -44.878  11.150  1.00  0.00     0.007 C 
HETATM   16  C   UNL     1     -39.145 -44.477  12.315  1.00  0.00     0.022 C 
HETATM   17  C   UNL     1     -41.262 -43.897  11.106  1.00  0.00     0.022 C 
HETATM   18  C   UNL     1     -39.274 -44.771   9.843  1.00  0.00     0.022 C 
ENDBRANCH  10  15
ENDBRANCH   1   7
BRANCH   4  19
HETATM   19  C   UNL     1     -44.515 -52.370  13.502  1.00  0.00     0.055 C 
HETATM   20  C   UNL     1     -44.441 -51.766  14.931  1.00  0.00     0.041 C 
BRANCH  19  21
HETATM   21  C   UNL     1     -45.898 -51.969  12.889  1.00  0.00     0.195 C 
BRANCH  21  22
HETATM   22  O   UNL     1     -46.224 -52.727  11.720  1.00  0.00    -0.398 OA
HETATM   23  H   UNL     1     -45.400 -53.153  11.433  1.00  0.00     0.209 HD
ENDBRANCH  21  22
ENDBRANCH  19  21
BRANCH  19  24
HETATM   24  C   UNL     1     -44.327 -53.883  13.672  1.00  0.00     0.015 A 
HETATM   25  C   UNL     1     -44.036 -54.585  14.979  1.00  0.00     0.007 A 
HETATM   26  C   UNL     1     -42.972 -54.513  13.920  1.00  0.00     0.007 A 
ENDBRANCH  19  24
ENDBRANCH   4  19
TORSDOF 6
ENDMDL
MODEL 7
REMARK VINA RESULT:      -5.9      2.992      7.322
REMARK  6 active torsions:
REMARK  status: ('A' for Active; 'I' for Inactive)
REMARK    1  A    between atoms: C_2  and  C_5 
REMARK    2  A    between atoms: C_9  and  N_10 
REMARK       I    between atoms: N_10  and  C_11 
REMARK       I    between atoms: C_11  and  N_13 
REMARK    3  A    between atoms: N_13  and  C_14 
REMARK    4  A    between atoms: C_14  and  C_16 
REMARK    5  A    between atoms: C_14  and  C_18 
REMARK    6  A    between atoms: C_16  and  O_17 
ROOT
HETATM    1  N   UNL     1     -40.724 -50.083  10.874  1.00  0.00    -0.306 N 
HETATM    2  C   UNL     1     -41.672 -49.084  10.946  1.00  0.00     0.321 C 
HETATM    3  O   UNL     1     -42.425 -48.915  11.898  1.00  0.00    -0.247 OA
HETATM    4  N   UNL     1     -41.721 -48.254   9.848  1.00  0.00    -0.332 N 
HETATM    5  H   UNL     1     -40.190 -50.176  10.025  1.00  0.00     0.171 HD
HETATM    6  H   UNL     1     -41.057 -48.362   9.098  1.00  0.00     0.165 HD
ENDROOT
BRANCH   1   7
HETATM    7  C   UNL     1     -40.499 -51.028  11.913  1.00  0.00     0.067 A 
HETATM    8  C   UNL     1     -41.134 -52.249  12.029  1.00  0.00     0.120 A 
HETATM    9  N   UNL     1     -40.916 -53.140  13.020  1.00  0.00    -0.353 N 
HETATM   10  C   UNL     1     -40.001 -52.822  13.947  1.00  0.00     0.088 A 
ATOM     11  HN  UNL     1     -41.429 -54.021  13.062  1.00  0.00     0.166 HD
HETATM   12  N   UNL     1     -39.333 -51.649  13.953  1.00  0.00    -0.353 N 
HETATM   13  C   UNL     1     -39.599 -50.786  12.932  1.00  0.00     0.120 A 
ATOM     14  HN  UNL     1     -38.661 -51.420  14.685  1.00  0.00     0.166 HD
BRANCH  10  15
HETATM   15  C   UNL     1     -39.794 -53.834  15.072  1.00  0.00     0.007 C 
HETATM   16  C   UNL     1     -39.092 -53.160  16.274  1.00  0.00     0.022 C 
HETATM   17  C   UNL     1     -38.904 -54.979  14.560  1.00  0.00     0.022 C 
HETATM   18  C   UNL     1     -41.132 -54.407  15.570  1.00  0.00     0.022 C 
ENDBRANCH  10  15
ENDBRANCH   1   7
BRANCH   4  19
HETATM   19  C   UNL     1     -42.681 -47.123   9.787  1.00  0.00     0.055 C 
HETATM   20  C   UNL     1     -43.193 -46.914   8.336  1.00  0.00     0.041 C 
BRANCH  19  21
HETATM   21  C   UNL     1     -43.927 -47.401  10.693  1.00  0.00     0.195 C 
BRANCH  21  22
HETATM   22  O   UNL     1     -44.943 -48.150  10.019  1.00  0.00    -0.398 OA
HETATM   23  H   UNL     1     -44.557 -48.439   9.178  1.00  0.00     0.209 HD
ENDBRANCH  21  22
ENDBRANCH  19  21
BRANCH  19  24
HETATM   24  C   UNL     1     -41.920 -45.844  10.156  1.00  0.00     0.015 A 
HETATM   25  C   UNL     1     -40.493 -45.789  10.652  1.00  0.00     0.007 A 
HETATM   26  C   UNL     1     -41.620 -45.459  11.590  1.00  0.00     0.007 A 
ENDBRANCH  19  24
ENDBRANCH   4  19
TORSDOF 6
ENDMDL
MODEL 8
REMARK VINA RESULT:      -5.8      1.890      2.368
REMARK  6 active torsions:
REMARK  status: ('A' for Active; 'I' for Inactive)
REMARK    1  A    between atoms: C_2  and  C_5 
REMARK    2  A    between atoms: C_9  and  N_10 
REMARK       I    between atoms: N_10  and  C_11 
REMARK       I    between atoms: C_11  and  N_13 
REMARK    3  A    between atoms: N_13  and  C_14 
REMARK    4  A    between atoms: C_14  and  C_16 
REMARK    5  A    between atoms: C_14  and  C_18 
REMARK    6  A    between atoms: C_16  and  O_17 
ROOT
HETATM    1  N   UNL     1     -42.582 -49.690  11.763  1.00  0.00    -0.306 N 
HETATM    2  C   UNL     1     -42.080 -50.715  12.537  1.00  0.00     0.321 C 
HETATM    3  O   UNL     1     -41.055 -50.637  13.204  1.00  0.00    -0.247 OA
HETATM    4  N   UNL     1     -42.826 -51.872  12.518  1.00  0.00    -0.332 N 
HETATM    5  H   UNL     1     -43.400 -49.869  11.204  1.00  0.00     0.171 HD
HETATM    6  H   UNL     1     -43.699 -51.907  12.015  1.00  0.00     0.165 HD
ENDROOT
BRANCH   1   7
HETATM    7  C   UNL     1     -41.972 -48.409  11.666  1.00  0.00     0.067 A 
HETATM    8  C   UNL     1     -42.246 -47.332  12.486  1.00  0.00     0.120 A 
HETATM    9  N   UNL     1     -41.663 -46.118  12.386  1.00  0.00    -0.353 N 
HETATM   10  C   UNL     1     -40.736 -45.955  11.432  1.00  0.00     0.088 A 
ATOM     11  HN  UNL     1     -41.920 -45.355  13.011  1.00  0.00     0.166 HD
HETATM   12  N   UNL     1     -40.399 -46.926  10.555  1.00  0.00    -0.353 N 
HETATM   13  C   UNL     1     -41.025 -48.128  10.701  1.00  0.00     0.120 A 
ATOM     14  HN  UNL     1     -39.709 -46.767   9.821  1.00  0.00     0.166 HD
BRANCH  10  15
HETATM   15  C   UNL     1     -40.112 -44.565  11.321  1.00  0.00     0.007 C 
HETATM   16  C   UNL     1     -41.217 -43.483  11.325  1.00  0.00     0.022 C 
HETATM   17  C   UNL     1     -39.334 -44.469   9.998  1.00  0.00     0.022 C 
HETATM   18  C   UNL     1     -39.165 -44.275  12.497  1.00  0.00     0.022 C 
ENDBRANCH  10  15
ENDBRANCH   1   7
BRANCH   4  19
HETATM   19  C   UNL     1     -42.419 -53.058  13.314  1.00  0.00     0.055 C 
HETATM   20  C   UNL     1     -43.372 -54.254  13.046  1.00  0.00     0.041 C 
BRANCH  19  21
HETATM   21  C   UNL     1     -40.970 -53.512  12.933  1.00  0.00     0.195 C 
BRANCH  21  22
HETATM   22  O   UNL     1     -40.713 -53.417  11.529  1.00  0.00    -0.398 OA
HETATM   23  H   UNL     1     -39.952 -53.993  11.351  1.00  0.00     0.209 HD
ENDBRANCH  21  22
ENDBRANCH  19  21
BRANCH  19  24
HETATM   24  C   UNL     1     -42.588 -52.705  14.797  1.00  0.00     0.015 A 
HETATM   25  C   UNL     1     -43.407 -53.493  15.794  1.00  0.00     0.007 A 
HETATM   26  C   UNL     1     -43.874 -52.133  15.357  1.00  0.00     0.007 A 
ENDBRANCH  19  24
ENDBRANCH   4  19
TORSDOF 6
ENDMDL
MODEL 9
REMARK VINA RESULT:      -5.8      6.037      9.748
REMARK  6 active torsions:
REMARK  status: ('A' for Active; 'I' for Inactive)
REMARK    1  A    between atoms: C_2  and  C_5 
REMARK    2  A    between atoms: C_9  and  N_10 
REMARK       I    between atoms: N_10  and  C_11 
REMARK       I    between atoms: C_11  and  N_13 
REMARK    3  A    between atoms: N_13  and  C_14 
REMARK    4  A    between atoms: C_14  and  C_16 
REMARK    5  A    between atoms: C_14  and  C_18 
REMARK    6  A    between atoms: C_16  and  O_17 
ROOT
HETATM    1  N   UNL     1     -42.161 -54.339  16.521  1.00  0.00    -0.306 N 
HETATM    2  C   UNL     1     -43.144 -54.548  15.576  1.00  0.00     0.321 C 
HETATM    3  O   UNL     1     -43.451 -55.648  15.133  1.00  0.00    -0.247 OA
HETATM    4  N   UNL     1     -43.784 -53.407  15.147  1.00  0.00    -0.332 N 
HETATM    5  H   UNL     1     -41.940 -53.392  16.781  1.00  0.00     0.171 HD
HETATM    6  H   UNL     1     -43.566 -52.514  15.562  1.00  0.00     0.165 HD
ENDROOT
BRANCH   1   7
HETATM    7  C   UNL     1     -41.400 -55.389  17.107  1.00  0.00     0.067 A 
HETATM    8  C   UNL     1     -40.260 -55.946  16.561  1.00  0.00     0.120 A 
HETATM    9  N   UNL     1     -39.544 -56.943  17.123  1.00  0.00    -0.353 N 
HETATM   10  C   UNL     1     -39.961 -57.411  18.308  1.00  0.00     0.088 A 
ATOM     11  HN  UNL     1     -38.719 -57.326  16.663  1.00  0.00     0.166 HD
HETATM   12  N   UNL     1     -41.073 -56.962  18.930  1.00  0.00    -0.353 N 
HETATM   13  C   UNL     1     -41.759 -55.959  18.312  1.00  0.00     0.120 A 
ATOM     14  HN  UNL     1     -41.383 -57.354  19.819  1.00  0.00     0.166 HD
BRANCH  10  15
HETATM   15  C   UNL     1     -39.150 -58.558  18.909  1.00  0.00     0.007 C 
HETATM   16  C   UNL     1     -39.202 -59.792  17.979  1.00  0.00     0.022 C 
HETATM   17  C   UNL     1     -39.756 -58.941  20.270  1.00  0.00     0.022 C 
HETATM   18  C   UNL     1     -37.674 -58.169  19.095  1.00  0.00     0.022 C 
ENDBRANCH  10  15
ENDBRANCH   1   7
BRANCH   4  19
HETATM   19  C   UNL     1     -44.874 -53.475  14.142  1.00  0.00     0.055 C 
HETATM   20  C   UNL     1     -44.345 -54.031  12.792  1.00  0.00     0.041 C 
BRANCH  19  21
HETATM   21  C   UNL     1     -46.021 -54.424  14.627  1.00  0.00     0.195 C 
BRANCH  21  22
HETATM   22  O   UNL     1     -46.084 -55.641  13.878  1.00  0.00    -0.398 OA
HETATM   23  H   UNL     1     -46.800 -55.527  13.233  1.00  0.00     0.209 HD
ENDBRANCH  21  22
ENDBRANCH  19  21
BRANCH  19  24
HETATM   24  C   UNL     1     -45.337 -52.041  13.856  1.00  0.00     0.015 A 
HETATM   25  C   UNL     1     -46.614 -51.416  14.371  1.00  0.00     0.007 A 
HETATM   26  C   UNL     1     -46.474 -51.725  12.906  1.00  0.00     0.007 A 
ENDBRANCH  19  24
ENDBRANCH   4  19
TORSDOF 6
ENDMDL
