MODEL 1
REMARK VINA RESULT:      -6.5      0.000      0.000
REMARK  6 active torsions:
REMARK  status: ('A' for Active; 'I' for Inactive)
REMARK    1  A    between atoms: C_7  and  O_8 
REMARK    2  A    between atoms: O_8  and  C_9 
REMARK    3  A    between atoms: C_9  and  C_10 
REMARK    4  A    between atoms: C_10  and  N_11 
REMARK    5  A    between atoms: C_12  and  C_21 
REMARK    6  A    between atoms: C_15  and  C_16 
REMARK       I    between atoms: C_16  and  N_18 
ROOT
HETATM    1  N   UNL     1     -41.532 -51.111  12.757  1.00  0.00    -0.307 N 
HETATM    2  C   UNL     1     -40.143 -51.344  12.895  1.00  0.00     0.121 C 
HETATM    3  C   UNL     1     -39.281 -50.487  12.307  1.00  0.00     0.036 C 
HETATM    4  C   UNL     1     -39.739 -49.392  11.498  1.00  0.00     0.025 C 
HETATM    5  C   UNL     1     -41.041 -49.071  11.447  1.00  0.00     0.100 C 
HETATM    6  C   UNL     1     -41.998 -49.883  12.252  1.00  0.00     0.264 C 
HETATM    7  O   UNL     1     -43.151 -49.479  12.397  1.00  0.00    -0.267 OA
ENDROOT
BRANCH   1   8
HETATM    8  C   UNL     1     -42.526 -52.068  13.293  1.00  0.00     0.159 C 
BRANCH   8   9
HETATM    9  C   UNL     1     -43.170 -53.018  12.261  1.00  0.00     0.196 C 
BRANCH   9  10
HETATM   10  O   UNL     1     -44.579 -52.860  12.184  1.00  0.00    -0.349 OA
BRANCH  10  11
HETATM   11  C   UNL     1     -45.393 -52.851  13.275  1.00  0.00     0.074 A 
HETATM   12  C   UNL     1     -45.844 -53.910  14.079  1.00  0.00    -0.029 A 
HETATM   13  C   UNL     1     -45.519 -55.362  13.878  1.00  0.00     0.051 C 
HETATM   14  C   UNL     1     -46.736 -53.612  15.134  1.00  0.00     0.009 A 
HETATM   15  C   UNL     1     -47.192 -52.315  15.369  1.00  0.00     0.001 A 
HETATM   16  C   UNL     1     -46.766 -51.282  14.553  1.00  0.00     0.003 A 
HETATM   17  C   UNL     1     -45.876 -51.553  13.518  1.00  0.00     0.037 A 
ENDBRANCH  10  11
ENDBRANCH   9  10
ENDBRANCH   8   9
ENDBRANCH   1   8
BRANCH   2  18
HETATM   18  C   UNL     1     -39.540 -52.470  13.731  1.00  0.00     0.432 C 
HETATM   19  F   UNL     1     -39.898 -53.720  13.354  1.00  0.00    -0.165 F 
HETATM   20  F   UNL     1     -38.183 -52.420  13.710  1.00  0.00    -0.165 F 
HETATM   21  F   UNL     1     -39.907 -52.358  15.039  1.00  0.00    -0.165 F 
ENDBRANCH   2  18
BRANCH   5  22
HETATM   22  C   UNL     1     -41.458 -47.947  10.564  1.00  0.00     0.254 C 
HETATM   23  O   UNL     1     -41.031 -46.801  10.698  1.00  0.00    -0.268 OA
HETATM   24  N   UNL     1     -42.332 -48.250   9.569  1.00  0.00    -0.366 N 
HETATM   25  H   UNL     1     -42.754 -49.172   9.492  1.00  0.00     0.159 HD
HETATM   26  H   UNL     1     -42.658 -47.511   8.959  1.00  0.00     0.159 HD
ENDBRANCH   5  22
TORSDOF 6
ENDMDL
MODEL 2
REMARK VINA RESULT:      -6.5      3.123      4.229
REMARK  6 active torsions:
REMARK  status: ('A' for Active; 'I' for Inactive)
REMARK    1  A    between atoms: C_7  and  O_8 
REMARK    2  A    between atoms: O_8  and  C_9 
REMARK    3  A    between atoms: C_9  and  C_10 
REMARK    4  A    between atoms: C_10  and  N_11 
REMARK    5  A    between atoms: C_12  and  C_21 
REMARK    6  A    between atoms: C_15  and  C_16 
REMARK       I    between atoms: C_16  and  N_18 
ROOT
HETATM    1  N   UNL     1     -41.503 -54.749  15.262  1.00  0.00    -0.307 N 
HETATM    2  C   UNL     1     -40.249 -55.207  15.729  1.00  0.00     0.121 C 
HETATM    3  C   UNL     1     -39.129 -54.741  15.136  1.00  0.00     0.036 C 
HETATM    4  C   UNL     1     -39.185 -53.850  14.011  1.00  0.00     0.025 C 
HETATM    5  C   UNL     1     -40.347 -53.303  13.623  1.00  0.00     0.100 C 
HETATM    6  C   UNL     1     -41.577 -53.646  14.391  1.00  0.00     0.264 C 
HETATM    7  O   UNL     1     -42.603 -52.995  14.199  1.00  0.00    -0.267 OA
ENDROOT
BRANCH   1   8
HETATM    8  C   UNL     1     -42.769 -55.297  15.803  1.00  0.00     0.159 C 
BRANCH   8   9
HETATM    9  C   UNL     1     -43.437 -54.469  16.920  1.00  0.00     0.196 C 
BRANCH   9  10
HETATM   10  O   UNL     1     -44.850 -54.426  16.792  1.00  0.00    -0.349 OA
BRANCH  10  11
HETATM   11  C   UNL     1     -45.501 -53.590  15.938  1.00  0.00     0.074 A 
HETATM   12  C   UNL     1     -45.936 -53.800  14.620  1.00  0.00    -0.029 A 
HETATM   13  C   UNL     1     -45.746 -55.059  13.825  1.00  0.00     0.051 C 
HETATM   14  C   UNL     1     -46.551 -52.723  13.941  1.00  0.00     0.009 A 
HETATM   15  C   UNL     1     -46.702 -51.469  14.534  1.00  0.00     0.001 A 
HETATM   16  C   UNL     1     -46.243 -51.262  15.823  1.00  0.00     0.003 A 
HETATM   17  C   UNL     1     -45.649 -52.316  16.513  1.00  0.00     0.037 A 
ENDBRANCH  10  11
ENDBRANCH   9  10
ENDBRANCH   8   9
ENDBRANCH   1   8
BRANCH   2  18
HETATM   18  C   UNL     1     -40.066 -56.148  16.917  1.00  0.00     0.432 C 
HETATM   19  F   UNL     1     -40.511 -55.668  18.103  1.00  0.00    -0.165 F 
HETATM   20  F   UNL     1     -40.698 -57.331  16.703  1.00  0.00    -0.165 F 
HETATM   21  F   UNL     1     -38.750 -56.445  17.107  1.00  0.00    -0.165 F 
ENDBRANCH   2  18
BRANCH   5  22
HETATM   22  C   UNL     1     -40.346 -52.415  12.428  1.00  0.00     0.254 C 
HETATM   23  O   UNL     1     -39.564 -51.473  12.299  1.00  0.00    -0.268 OA
HETATM   24  N   UNL     1     -41.248 -52.706  11.455  1.00  0.00    -0.366 N 
HETATM   25  H   UNL     1     -41.951 -53.429  11.578  1.00  0.00     0.159 HD
HETATM   26  H   UNL     1     -41.295 -52.114  10.635  1.00  0.00     0.159 HD
ENDBRANCH   5  22
TORSDOF 6
ENDMDL
MODEL 3
REMARK VINA RESULT:      -6.5      2.717      3.533
REMARK  6 active torsions:
REMARK  status: ('A' for Active; 'I' for Inactive)
REMARK    1  A    between atoms: C_7  and  O_8 
REMARK    2  A    between atoms: O_8  and  C_9 
REMARK    3  A    between atoms: C_9  and  C_10 
REMARK    4  A    between atoms: C_10  and  N_11 
REMARK    5  A    between atoms: C_12  and  C_21 
REMARK    6  A    between atoms: C_15  and  C_16 
REMARK       I    between atoms: C_16  and  N_18 
ROOT
HETATM    1  N   UNL     1     -41.763 -48.190  11.468  1.00  0.00    -0.307 N 
HETATM    2  C   UNL     1     -40.637 -47.393  11.782  1.00  0.00     0.121 C 
HETATM    3  C   UNL     1     -40.570 -46.142  11.280  1.00  0.00     0.036 C 
HETATM    4  C   UNL     1     -41.575 -45.630  10.391  1.00  0.00     0.025 C 
HETATM    5  C   UNL     1     -42.711 -46.310  10.171  1.00  0.00     0.100 C 
HETATM    6  C   UNL     1     -42.900 -47.610  10.874  1.00  0.00     0.264 C 
HETATM    7  O   UNL     1     -44.011 -48.140  10.865  1.00  0.00    -0.267 OA
ENDROOT
BRANCH   1   8
HETATM    8  C   UNL     1     -41.848 -49.603  11.905  1.00  0.00     0.159 C 
BRANCH   8   9
HETATM    9  C   UNL     1     -42.669 -49.863  13.185  1.00  0.00     0.196 C 
BRANCH   9  10
HETATM   10  O   UNL     1     -43.706 -50.811  12.981  1.00  0.00    -0.349 OA
BRANCH  10  11
HETATM   11  C   UNL     1     -44.724 -51.010  13.862  1.00  0.00     0.074 A 
HETATM   12  C   UNL     1     -46.049 -51.416  13.640  1.00  0.00    -0.029 A 
HETATM   13  C   UNL     1     -46.661 -51.715  12.301  1.00  0.00     0.051 C 
HETATM   14  C   UNL     1     -46.918 -51.493  14.752  1.00  0.00     0.009 A 
HETATM   15  C   UNL     1     -46.501 -51.150  16.038  1.00  0.00     0.001 A 
HETATM   16  C   UNL     1     -45.201 -50.721  16.244  1.00  0.00     0.003 A 
HETATM   17  C   UNL     1     -44.326 -50.654  15.163  1.00  0.00     0.037 A 
ENDBRANCH  10  11
ENDBRANCH   9  10
ENDBRANCH   8   9
ENDBRANCH   1   8
BRANCH   2  18
HETATM   18  C   UNL     1     -39.512 -47.827  12.718  1.00  0.00     0.432 C 
HETATM   19  F   UNL     1     -38.671 -48.759  12.211  1.00  0.00    -0.165 F 
HETATM   20  F   UNL     1     -38.752 -46.765  13.092  1.00  0.00    -0.165 F 
HETATM   21  F   UNL     1     -40.012 -48.363  13.867  1.00  0.00    -0.165 F 
ENDBRANCH   2  18
BRANCH   5  22
HETATM   22  C   UNL     1     -43.699 -45.745   9.211  1.00  0.00     0.254 C 
HETATM   23  O   UNL     1     -43.897 -44.536   9.095  1.00  0.00    -0.268 OA
HETATM   24  N   UNL     1     -44.371 -46.636   8.437  1.00  0.00    -0.366 N 
HETATM   25  H   UNL     1     -44.277 -47.639   8.574  1.00  0.00     0.159 HD
HETATM   26  H   UNL     1     -45.067 -46.295   7.786  1.00  0.00     0.159 HD
ENDBRANCH   5  22
TORSDOF 6
ENDMDL
MODEL 4
REMARK VINA RESULT:      -6.4      4.520      5.590
REMARK  6 active torsions:
REMARK  status: ('A' for Active; 'I' for Inactive)
REMARK    1  A    between atoms: C_7  and  O_8 
REMARK    2  A    between atoms: O_8  and  C_9 
REMARK    3  A    between atoms: C_9  and  C_10 
REMARK    4  A    between atoms: C_10  and  N_11 
REMARK    5  A    between atoms: C_12  and  C_21 
REMARK    6  A    between atoms: C_15  and  C_16 
REMARK       I    between atoms: C_16  and  N_18 
ROOT
HETATM    1  N   UNL     1     -43.088 -54.580  15.424  1.00  0.00    -0.307 N 
HETATM    2  C   UNL     1     -43.888 -54.460  14.263  1.00  0.00     0.121 C 
HETATM    3  C   UNL     1     -43.285 -54.179  13.088  1.00  0.00     0.036 C 
HETATM    4  C   UNL     1     -41.872 -53.938  13.004  1.00  0.00     0.025 C 
HETATM    5  C   UNL     1     -41.070 -54.162  14.056  1.00  0.00     0.100 C 
HETATM    6  C   UNL     1     -41.688 -54.668  15.314  1.00  0.00     0.264 C 
HETATM    7  O   UNL     1     -40.958 -55.089  16.212  1.00  0.00    -0.267 OA
ENDROOT
BRANCH   1   8
HETATM    8  C   UNL     1     -43.699 -54.787  16.757  1.00  0.00     0.159 C 
BRANCH   8   9
HETATM    9  C   UNL     1     -43.521 -53.633  17.765  1.00  0.00     0.196 C 
BRANCH   9  10
HETATM   10  O   UNL     1     -43.850 -52.370  17.207  1.00  0.00    -0.349 OA
BRANCH  10  11
HETATM   11  C   UNL     1     -45.118 -52.004  16.875  1.00  0.00     0.074 A 
HETATM   12  C   UNL     1     -45.610 -51.390  15.713  1.00  0.00    -0.029 A 
HETATM   13  C   UNL     1     -44.787 -50.968  14.530  1.00  0.00     0.051 C 
HETATM   14  C   UNL     1     -46.987 -51.075  15.657  1.00  0.00     0.009 A 
HETATM   15  C   UNL     1     -47.844 -51.328  16.727  1.00  0.00     0.001 A 
HETATM   16  C   UNL     1     -47.345 -51.905  17.882  1.00  0.00     0.003 A 
HETATM   17  C   UNL     1     -45.995 -52.237  17.949  1.00  0.00     0.037 A 
ENDBRANCH  10  11
ENDBRANCH   9  10
ENDBRANCH   8   9
ENDBRANCH   1   8
BRANCH   2  18
HETATM   18  C   UNL     1     -45.395 -54.699  14.230  1.00  0.00     0.432 C 
HETATM   19  F   UNL     1     -46.016 -54.613  15.430  1.00  0.00    -0.165 F 
HETATM   20  F   UNL     1     -46.010 -53.818  13.399  1.00  0.00    -0.165 F 
HETATM   21  F   UNL     1     -45.682 -55.942  13.751  1.00  0.00    -0.165 F 
ENDBRANCH   2  18
BRANCH   5  22
HETATM   22  C   UNL     1     -39.619 -53.860  13.917  1.00  0.00     0.254 C 
HETATM   23  O   UNL     1     -39.173 -52.713  13.946  1.00  0.00    -0.268 OA
HETATM   24  N   UNL     1     -38.788 -54.924  13.775  1.00  0.00    -0.366 N 
HETATM   25  H   UNL     1     -39.146 -55.870  13.671  1.00  0.00     0.159 HD
HETATM   26  H   UNL     1     -37.796 -54.762  13.656  1.00  0.00     0.159 HD
ENDBRANCH   5  22
TORSDOF 6
ENDMDL
MODEL 5
REMARK VINA RESULT:      -6.3      2.400      6.487
REMARK  6 active torsions:
REMARK  status: ('A' for Active; 'I' for Inactive)
REMARK    1  A    between atoms: C_7  and  O_8 
REMARK    2  A    between atoms: O_8  and  C_9 
REMARK    3  A    between atoms: C_9  and  C_10 
REMARK    4  A    between atoms: C_10  and  N_11 
REMARK    5  A    between atoms: C_12  and  C_21 
REMARK    6  A    between atoms: C_15  and  C_16 
REMARK       I    between atoms: C_16  and  N_18 
ROOT
HETATM    1  N   UNL     1     -42.193 -53.454  13.140  1.00  0.00    -0.307 N 
HETATM    2  C   UNL     1     -41.499 -54.072  14.208  1.00  0.00     0.121 C 
HETATM    3  C   UNL     1     -42.214 -54.710  15.160  1.00  0.00     0.036 C 
HETATM    4  C   UNL     1     -43.650 -54.721  15.145  1.00  0.00     0.025 C 
HETATM    5  C   UNL     1     -44.332 -54.253  14.088  1.00  0.00     0.100 C 
HETATM    6  C   UNL     1     -43.558 -53.723  12.931  1.00  0.00     0.264 C 
HETATM    7  O   UNL     1     -44.144 -53.497  11.872  1.00  0.00    -0.267 OA
ENDROOT
BRANCH   1   8
HETATM    8  C   UNL     1     -41.474 -52.655  12.121  1.00  0.00     0.159 C 
BRANCH   8   9
HETATM    9  C   UNL     1     -41.558 -51.123  12.286  1.00  0.00     0.196 C 
BRANCH   9  10
HETATM   10  O   UNL     1     -40.440 -50.455  11.722  1.00  0.00    -0.349 OA
BRANCH  10  11
HETATM   11  C   UNL     1     -39.631 -49.620  12.431  1.00  0.00     0.074 A 
HETATM   12  C   UNL     1     -38.278 -49.749  12.781  1.00  0.00    -0.029 A 
HETATM   13  C   UNL     1     -37.393 -50.914  12.443  1.00  0.00     0.051 C 
HETATM   14  C   UNL     1     -37.695 -48.736  13.577  1.00  0.00     0.009 A 
HETATM   15  C   UNL     1     -38.433 -47.647  14.038  1.00  0.00     0.001 A 
HETATM   16  C   UNL     1     -39.775 -47.542  13.714  1.00  0.00     0.003 A 
HETATM   17  C   UNL     1     -40.362 -48.522  12.918  1.00  0.00     0.037 A 
ENDBRANCH  10  11
ENDBRANCH   9  10
ENDBRANCH   8   9
ENDBRANCH   1   8
BRANCH   2  18
HETATM   18  C   UNL     1     -39.979 -54.129  14.326  1.00  0.00     0.432 C 
HETATM   19  F   UNL     1     -39.354 -52.929  14.284  1.00  0.00    -0.165 F 
HETATM   20  F   UNL     1     -39.602 -54.735  15.482  1.00  0.00    -0.165 F 
HETATM   21  F   UNL     1     -39.438 -54.865  13.314  1.00  0.00    -0.165 F 
ENDBRANCH   2  18
BRANCH   5  22
HETATM   22  C   UNL     1     -45.820 -54.259  14.149  1.00  0.00     0.254 C 
HETATM   23  O   UNL     1     -46.456 -55.080  14.809  1.00  0.00    -0.268 OA
HETATM   24  N   UNL     1     -46.459 -53.288  13.447  1.00  0.00    -0.366 N 
HETATM   25  H   UNL     1     -45.954 -52.651  12.835  1.00  0.00     0.159 HD
HETATM   26  H   UNL     1     -47.471 -53.268  13.443  1.00  0.00     0.159 HD
ENDBRANCH   5  22
TORSDOF 6
ENDMDL
MODEL 6
REMARK VINA RESULT:      -6.3      2.432      4.983
REMARK  6 active torsions:
REMARK  status: ('A' for Active; 'I' for Inactive)
REMARK    1  A    between atoms: C_7  and  O_8 
REMARK    2  A    between atoms: O_8  and  C_9 
REMARK    3  A    between atoms: C_9  and  C_10 
REMARK    4  A    between atoms: C_10  and  N_11 
REMARK    5  A    between atoms: C_12  and  C_21 
REMARK    6  A    between atoms: C_15  and  C_16 
REMARK       I    between atoms: C_16  and  N_18 
ROOT
HETATM    1  N   UNL     1     -42.128 -53.543  13.413  1.00  0.00    -0.307 N 
HETATM    2  C   UNL     1     -41.259 -53.963  14.447  1.00  0.00     0.121 C 
HETATM    3  C   UNL     1     -41.773 -54.668  15.478  1.00  0.00     0.036 C 
HETATM    4  C   UNL     1     -43.180 -54.942  15.578  1.00  0.00     0.025 C 
HETATM    5  C   UNL     1     -44.009 -54.666  14.559  1.00  0.00     0.100 C 
HETATM    6  C   UNL     1     -43.431 -54.068  13.323  1.00  0.00     0.264 C 
HETATM    7  O   UNL     1     -44.121 -54.012  12.306  1.00  0.00    -0.267 OA
ENDROOT
BRANCH   1   8
HETATM    8  C   UNL     1     -41.644 -52.683  12.308  1.00  0.00     0.159 C 
BRANCH   8   9
HETATM    9  C   UNL     1     -41.662 -51.165  12.580  1.00  0.00     0.196 C 
BRANCH   9  10
HETATM   10  O   UNL     1     -42.979 -50.635  12.608  1.00  0.00    -0.349 OA
BRANCH  10  11
HETATM   11  C   UNL     1     -43.812 -50.753  13.678  1.00  0.00     0.074 A 
HETATM   12  C   UNL     1     -43.536 -50.693  15.053  1.00  0.00    -0.029 A 
HETATM   13  C   UNL     1     -42.181 -50.493  15.667  1.00  0.00     0.051 C 
HETATM   14  C   UNL     1     -44.604 -50.902  15.957  1.00  0.00     0.009 A 
HETATM   15  C   UNL     1     -45.895 -51.193  15.517  1.00  0.00     0.001 A 
HETATM   16  C   UNL     1     -46.152 -51.281  14.159  1.00  0.00     0.003 A 
HETATM   17  C   UNL     1     -45.117 -51.062  13.254  1.00  0.00     0.037 A 
ENDBRANCH  10  11
ENDBRANCH   9  10
ENDBRANCH   8   9
ENDBRANCH   1   8
BRANCH   2  18
HETATM   18  C   UNL     1     -39.750 -53.735  14.447  1.00  0.00     0.432 C 
HETATM   19  F   UNL     1     -39.364 -52.444  14.308  1.00  0.00    -0.165 F 
HETATM   20  F   UNL     1     -39.187 -54.198  15.593  1.00  0.00    -0.165 F 
HETATM   21  F   UNL     1     -39.153 -54.413  13.426  1.00  0.00    -0.165 F 
ENDBRANCH   2  18
BRANCH   5  22
HETATM   22  C   UNL     1     -45.462 -54.941  14.737  1.00  0.00     0.254 C 
HETATM   23  O   UNL     1     -46.089 -54.585  15.734  1.00  0.00    -0.268 OA
HETATM   24  N   UNL     1     -46.084 -55.595  13.722  1.00  0.00    -0.366 N 
HETATM   25  H   UNL     1     -45.567 -55.963  12.929  1.00  0.00     0.159 HD
HETATM   26  H   UNL     1     -47.067 -55.820  13.812  1.00  0.00     0.159 HD
ENDBRANCH   5  22
TORSDOF 6
ENDMDL
MODEL 7
REMARK VINA RESULT:      -6.2      4.769      7.023
REMARK  6 active torsions:
REMARK  status: ('A' for Active; 'I' for Inactive)
REMARK    1  A    between atoms: C_7  and  O_8 
REMARK    2  A    between atoms: O_8  and  C_9 
REMARK    3  A    between atoms: C_9  and  C_10 
REMARK    4  A    between atoms: C_10  and  N_11 
REMARK    5  A    between atoms: C_12  and  C_21 
REMARK    6  A    between atoms: C_15  and  C_16 
REMARK       I    between atoms: C_16  and  N_18 
ROOT
HETATM    1  N   UNL     1     -46.050 -53.298  16.278  1.00  0.00    -0.307 N 
HETATM    2  C   UNL     1     -46.697 -52.107  16.684  1.00  0.00     0.121 C 
HETATM    3  C   UNL     1     -47.047 -51.207  15.741  1.00  0.00     0.036 C 
HETATM    4  C   UNL     1     -46.722 -51.400  14.355  1.00  0.00     0.025 C 
HETATM    5  C   UNL     1     -46.221 -52.567  13.922  1.00  0.00     0.100 C 
HETATM    6  C   UNL     1     -46.011 -53.655  14.917  1.00  0.00     0.264 C 
HETATM    7  O   UNL     1     -45.766 -54.793  14.518  1.00  0.00    -0.267 OA
ENDROOT
BRANCH   1   8
HETATM    8  C   UNL     1     -45.553 -54.277  17.272  1.00  0.00     0.159 C 
BRANCH   8   9
HETATM    9  C   UNL     1     -44.029 -54.273  17.515  1.00  0.00     0.196 C 
BRANCH   9  10
HETATM   10  O   UNL     1     -43.363 -55.299  16.795  1.00  0.00    -0.349 OA
BRANCH  10  11
HETATM   11  C   UNL     1     -42.192 -55.107  16.127  1.00  0.00     0.074 A 
HETATM   12  C   UNL     1     -40.867 -55.319  16.539  1.00  0.00    -0.029 A 
HETATM   13  C   UNL     1     -40.439 -55.815  17.890  1.00  0.00     0.051 C 
HETATM   14  C   UNL     1     -39.828 -54.983  15.641  1.00  0.00     0.009 A 
HETATM   15  C   UNL     1     -40.088 -54.424  14.390  1.00  0.00     0.001 A 
HETATM   16  C   UNL     1     -41.396 -54.189  14.004  1.00  0.00     0.003 A 
HETATM   17  C   UNL     1     -42.433 -54.529  14.868  1.00  0.00     0.037 A 
ENDBRANCH  10  11
ENDBRANCH   9  10
ENDBRANCH   8   9
ENDBRANCH   1   8
BRANCH   2  18
HETATM   18  C   UNL     1     -47.098 -51.795  18.124  1.00  0.00     0.432 C 
HETATM   19  F   UNL     1     -47.830 -52.756  18.737  1.00  0.00    -0.165 F 
HETATM   20  F   UNL     1     -46.004 -51.575  18.897  1.00  0.00    -0.165 F 
HETATM   21  F   UNL     1     -47.848 -50.659  18.188  1.00  0.00    -0.165 F 
ENDBRANCH   2  18
BRANCH   5  22
HETATM   22  C   UNL     1     -45.870 -52.694  12.480  1.00  0.00     0.254 C 
HETATM   23  O   UNL     1     -46.675 -52.466  11.577  1.00  0.00    -0.268 OA
HETATM   24  N   UNL     1     -44.593 -53.058  12.196  1.00  0.00    -0.366 N 
HETATM   25  H   UNL     1     -43.939 -53.326  12.927  1.00  0.00     0.159 HD
HETATM   26  H   UNL     1     -44.319 -53.177  11.229  1.00  0.00     0.159 HD
ENDBRANCH   5  22
TORSDOF 6
ENDMDL
MODEL 8
REMARK VINA RESULT:      -6.2      2.954      4.361
REMARK  6 active torsions:
REMARK  status: ('A' for Active; 'I' for Inactive)
REMARK    1  A    between atoms: C_7  and  O_8 
REMARK    2  A    between atoms: O_8  and  C_9 
REMARK    3  A    between atoms: C_9  and  C_10 
REMARK    4  A    between atoms: C_10  and  N_11 
REMARK    5  A    between atoms: C_12  and  C_21 
REMARK    6  A    between atoms: C_15  and  C_16 
REMARK       I    between atoms: C_16  and  N_18 
ROOT
HETATM    1  N   UNL     1     -43.720 -52.809  13.019  1.00  0.00    -0.307 N 
HETATM    2  C   UNL     1     -43.363 -54.003  13.689  1.00  0.00     0.121 C 
HETATM    3  C   UNL     1     -42.053 -54.294  13.840  1.00  0.00     0.036 C 
HETATM    4  C   UNL     1     -41.026 -53.458  13.284  1.00  0.00     0.025 C 
HETATM    5  C   UNL     1     -41.323 -52.262  12.752  1.00  0.00     0.100 C 
HETATM    6  C   UNL     1     -42.748 -51.826  12.755  1.00  0.00     0.264 C 
HETATM    7  O   UNL     1     -43.016 -50.657  12.480  1.00  0.00    -0.267 OA
ENDROOT
BRANCH   1   8
HETATM    8  C   UNL     1     -45.137 -52.484  12.735  1.00  0.00     0.159 C 
BRANCH   8   9
HETATM    9  C   UNL     1     -45.777 -51.414  13.644  1.00  0.00     0.196 C 
BRANCH   9  10
HETATM   10  O   UNL     1     -45.263 -51.448  14.967  1.00  0.00    -0.349 OA
BRANCH  10  11
HETATM   11  C   UNL     1     -45.932 -50.954  16.044  1.00  0.00     0.074 A 
HETATM   12  C   UNL     1     -45.479 -50.155  17.106  1.00  0.00    -0.029 A 
HETATM   13  C   UNL     1     -44.072 -49.667  17.295  1.00  0.00     0.051 C 
HETATM   14  C   UNL     1     -46.395 -49.825  18.130  1.00  0.00     0.009 A 
HETATM   15  C   UNL     1     -47.708 -50.295  18.123  1.00  0.00     0.001 A 
HETATM   16  C   UNL     1     -48.139 -51.107  17.088  1.00  0.00     0.003 A 
HETATM   17  C   UNL     1     -47.255 -51.430  16.062  1.00  0.00     0.037 A 
ENDBRANCH  10  11
ENDBRANCH   9  10
ENDBRANCH   8   9
ENDBRANCH   1   8
BRANCH   2  18
HETATM   18  C   UNL     1     -44.365 -54.963  14.325  1.00  0.00     0.432 C 
HETATM   19  F   UNL     1     -43.829 -56.098  14.834  1.00  0.00    -0.165 F 
HETATM   20  F   UNL     1     -45.047 -54.359  15.332  1.00  0.00    -0.165 F 
HETATM   21  F   UNL     1     -45.298 -55.367  13.418  1.00  0.00    -0.165 F 
ENDBRANCH   2  18
BRANCH   5  22
HETATM   22  C   UNL     1     -40.219 -51.458  12.160  1.00  0.00     0.254 C 
HETATM   23  O   UNL     1     -39.059 -51.518  12.568  1.00  0.00    -0.268 OA
HETATM   24  N   UNL     1     -40.547 -50.654  11.116  1.00  0.00    -0.366 N 
HETATM   25  H   UNL     1     -41.511 -50.533  10.817  1.00  0.00     0.159 HD
HETATM   26  H   UNL     1     -39.830 -50.074  10.698  1.00  0.00     0.159 HD
ENDBRANCH   5  22
TORSDOF 6
ENDMDL
MODEL 9
REMARK VINA RESULT:      -6.2      3.452      5.447
REMARK  6 active torsions:
REMARK  status: ('A' for Active; 'I' for Inactive)
REMARK    1  A    between atoms: C_7  and  O_8 
REMARK    2  A    between atoms: O_8  and  C_9 
REMARK    3  A    between atoms: C_9  and  C_10 
REMARK    4  A    between atoms: C_10  and  N_11 
REMARK    5  A    between atoms: C_12  and  C_21 
REMARK    6  A    between atoms: C_15  and  C_16 
REMARK       I    between atoms: C_16  and  N_18 
ROOT
HETATM    1  N   UNL     1     -43.324 -52.561  12.964  1.00  0.00    -0.307 N 
HETATM    2  C   UNL     1     -44.317 -51.655  13.405  1.00  0.00     0.121 C 
HETATM    3  C   UNL     1     -44.064 -50.331  13.326  1.00  0.00     0.036 C 
HETATM    4  C   UNL     1     -42.797 -49.830  12.870  1.00  0.00     0.025 C 
HETATM    5  C   UNL     1     -41.884 -50.653  12.333  1.00  0.00     0.100 C 
HETATM    6  C   UNL     1     -42.220 -52.100  12.223  1.00  0.00     0.264 C 
HETATM    7  O   UNL     1     -41.502 -52.832  11.541  1.00  0.00    -0.267 OA
ENDROOT
BRANCH   1   8
HETATM    8  C   UNL     1     -43.501 -54.024  13.118  1.00  0.00     0.159 C 
BRANCH   8   9
HETATM    9  C   UNL     1     -43.149 -54.603  14.504  1.00  0.00     0.196 C 
BRANCH   9  10
HETATM   10  O   UNL     1     -42.090 -53.896  15.133  1.00  0.00    -0.349 OA
BRANCH  10  11
HETATM   11  C   UNL     1     -40.933 -54.486  15.540  1.00  0.00     0.074 A 
HETATM   12  C   UNL     1     -39.604 -54.226  15.170  1.00  0.00    -0.029 A 
HETATM   13  C   UNL     1     -39.158 -53.193  14.176  1.00  0.00     0.051 C 
HETATM   14  C   UNL     1     -38.587 -55.039  15.722  1.00  0.00     0.009 A 
HETATM   15  C   UNL     1     -38.876 -56.096  16.585  1.00  0.00     0.001 A 
HETATM   16  C   UNL     1     -40.192 -56.365  16.920  1.00  0.00     0.003 A 
HETATM   17  C   UNL     1     -41.205 -55.565  16.399  1.00  0.00     0.037 A 
ENDBRANCH  10  11
ENDBRANCH   9  10
ENDBRANCH   8   9
ENDBRANCH   1   8
BRANCH   2  18
HETATM   18  C   UNL     1     -45.699 -52.069  13.903  1.00  0.00     0.432 C 
HETATM   19  F   UNL     1     -46.342 -52.972  13.125  1.00  0.00    -0.165 F 
HETATM   20  F   UNL     1     -45.628 -52.598  15.152  1.00  0.00    -0.165 F 
HETATM   21  F   UNL     1     -46.530 -50.993  13.989  1.00  0.00    -0.165 F 
ENDBRANCH   2  18
BRANCH   5  22
HETATM   22  C   UNL     1     -40.576 -50.079  11.912  1.00  0.00     0.254 C 
HETATM   23  O   UNL     1     -39.755 -49.635  12.713  1.00  0.00    -0.268 OA
HETATM   24  N   UNL     1     -40.312 -50.085  10.579  1.00  0.00    -0.366 N 
HETATM   25  H   UNL     1     -41.010 -50.375   9.899  1.00  0.00     0.159 HD
HETATM   26  H   UNL     1     -39.444 -49.684  10.248  1.00  0.00     0.159 HD
ENDBRANCH   5  22
TORSDOF 6
ENDMDL
