MODEL 1
REMARK VINA RESULT:      -6.4      0.000      0.000
REMARK  4 active torsions:
REMARK  status: ('A' for Active; 'I' for Inactive)
REMARK    1  A    between atoms: C_8  and  N_9 
REMARK       I    between atoms: N_9  and  C_10 
REMARK       I    between atoms: C_10  and  N_12 
REMARK    2  A    between atoms: N_12  and  C_13 
REMARK    3  A    between atoms: C_13  and  C_14 
REMARK    4  A    between atoms: C_14  and  N_17 
ROOT
HETATM    1  N   UNL     1     -40.393 -50.824  11.441  1.00  0.00    -0.294 N 
HETATM    2  C   UNL     1     -41.202 -51.859  11.796  1.00  0.00     0.321 C 
HETATM    3  O   UNL     1     -40.750 -53.005  11.829  1.00  0.00    -0.247 OA
HETATM    4  N   UNL     1     -42.497 -51.554  12.083  1.00  0.00    -0.340 N 
HETATM    5  H   UNL     1     -39.466 -51.126  11.185  1.00  0.00     0.172 HD
HETATM    6  H   UNL     1     -42.676 -50.558  12.189  1.00  0.00     0.164 HD
ENDROOT
BRANCH   1   7
HETATM    7  C   UNL     1     -40.691 -49.452  11.410  1.00  0.00     0.114 A 
HETATM    8  C   UNL     1     -40.292 -48.630  12.468  1.00  0.00    -0.018 A 
HETATM    9  C   UNL     1     -39.551 -49.137  13.671  1.00  0.00     0.052 C 
HETATM   10  C   UNL     1     -40.580 -47.263  12.369  1.00  0.00     0.012 A 
HETATM   11  C   UNL     1     -41.256 -46.763  11.262  1.00  0.00     0.018 A 
HETATM   12  C   UNL     1     -41.633 -47.653  10.282  1.00  0.00     0.089 A 
HETATM   13  N   UNL     1     -41.369 -48.972  10.336  1.00  0.00    -0.352 N 
ATOM     14  HN  UNL     1     -41.670 -49.597   9.588  1.00  0.00     0.166 HD
ENDBRANCH   1   7
BRANCH   4  15
HETATM   15  C   UNL     1     -43.428 -52.488  12.663  1.00  0.00     0.165 C 
BRANCH  15  16
HETATM   16  C   UNL     1     -44.462 -51.904  13.674  1.00  0.00     0.168 C 
HETATM   17  C   UNL     1     -43.855 -50.609  14.286  1.00  0.00     0.050 C 
HETATM   18  C   UNL     1     -45.750 -51.430  12.955  1.00  0.00     0.050 C 
BRANCH  16  19
HETATM   19  N   UNL     1     -44.824 -52.839  14.786  1.00  0.00     0.103 N 
HETATM   20  C   UNL     1     -43.723 -53.561  15.457  1.00  0.00     0.299 C 
HETATM   21  C   UNL     1     -43.296 -54.875  14.779  1.00  0.00     0.198 C 
HETATM   22  O   UNL     1     -44.401 -55.769  14.624  1.00  0.00    -0.388 OA
HETATM   23  C   UNL     1     -45.475 -55.158  13.896  1.00  0.00     0.198 C 
HETATM   24  C   UNL     1     -45.907 -53.818  14.522  1.00  0.00     0.299 C 
ENDBRANCH  16  19
ENDBRANCH  15  16
ENDBRANCH   4  15
TORSDOF 4
ENDMDL
MODEL 2
REMARK VINA RESULT:      -6.2      1.696      2.513
REMARK  4 active torsions:
REMARK  status: ('A' for Active; 'I' for Inactive)
REMARK    1  A    between atoms: C_8  and  N_9 
REMARK       I    between atoms: N_9  and  C_10 
REMARK       I    between atoms: C_10  and  N_12 
REMARK    2  A    between atoms: N_12  and  C_13 
REMARK    3  A    between atoms: C_13  and  C_14 
REMARK    4  A    between atoms: C_14  and  N_17 
ROOT
HETATM    1  N   UNL     1     -40.674 -48.705  10.728  1.00  0.00    -0.294 N 
HETATM    2  C   UNL     1     -40.747 -49.861  11.442  1.00  0.00     0.321 C 
HETATM    3  O   UNL     1     -39.711 -50.420  11.807  1.00  0.00    -0.247 OA
HETATM    4  N   UNL     1     -41.992 -50.347  11.697  1.00  0.00    -0.340 N 
HETATM    5  H   UNL     1     -39.725 -48.434  10.525  1.00  0.00     0.172 HD
HETATM    6  H   UNL     1     -42.744 -49.691  11.494  1.00  0.00     0.164 HD
ENDROOT
BRANCH   1   7
HETATM    7  C   UNL     1     -41.723 -47.884  10.284  1.00  0.00     0.114 A 
HETATM    8  C   UNL     1     -42.014 -46.698  10.963  1.00  0.00    -0.018 A 
HETATM    9  C   UNL     1     -41.259 -46.238  12.177  1.00  0.00     0.052 C 
HETATM   10  C   UNL     1     -43.044 -45.897  10.455  1.00  0.00     0.012 A 
HETATM   11  C   UNL     1     -43.754 -46.293   9.327  1.00  0.00     0.018 A 
HETATM   12  C   UNL     1     -43.415 -47.491   8.741  1.00  0.00     0.089 A 
HETATM   13  N   UNL     1     -42.426 -48.285   9.194  1.00  0.00    -0.352 N 
ATOM     14  HN  UNL     1     -42.209 -49.167   8.729  1.00  0.00     0.166 HD
ENDBRANCH   1   7
BRANCH   4  15
HETATM   15  C   UNL     1     -42.255 -51.437  12.600  1.00  0.00     0.165 C 
BRANCH  15  16
HETATM   16  C   UNL     1     -42.857 -51.064  13.989  1.00  0.00     0.168 C 
HETATM   17  C   UNL     1     -41.707 -51.098  15.035  1.00  0.00     0.050 C 
HETATM   18  C   UNL     1     -43.363 -49.599  14.011  1.00  0.00     0.050 C 
BRANCH  16  19
HETATM   19  N   UNL     1     -43.952 -51.978  14.446  1.00  0.00     0.103 N 
HETATM   20  C   UNL     1     -43.767 -53.428  14.227  1.00  0.00     0.299 C 
HETATM   21  C   UNL     1     -44.208 -53.940  12.845  1.00  0.00     0.198 C 
HETATM   22  O   UNL     1     -45.572 -53.608  12.572  1.00  0.00    -0.388 OA
HETATM   23  C   UNL     1     -45.801 -52.196  12.678  1.00  0.00     0.198 C 
HETATM   24  C   UNL     1     -45.335 -51.636  14.036  1.00  0.00     0.299 C 
ENDBRANCH  16  19
ENDBRANCH  15  16
ENDBRANCH   4  15
TORSDOF 4
ENDMDL
MODEL 3
REMARK VINA RESULT:      -6.2      1.896      2.834
REMARK  4 active torsions:
REMARK  status: ('A' for Active; 'I' for Inactive)
REMARK    1  A    between atoms: C_8  and  N_9 
REMARK       I    between atoms: N_9  and  C_10 
REMARK       I    between atoms: C_10  and  N_12 
REMARK    2  A    between atoms: N_12  and  C_13 
REMARK    3  A    between atoms: C_13  and  C_14 
REMARK    4  A    between atoms: C_14  and  N_17 
ROOT
HETATM    1  N   UNL     1     -41.068 -48.382  10.702  1.00  0.00    -0.294 N 
HETATM    2  C   UNL     1     -40.843 -49.518  11.415  1.00  0.00     0.321 C 
HETATM    3  O   UNL     1     -39.742 -49.705  11.937  1.00  0.00    -0.247 OA
HETATM    4  N   UNL     1     -41.871 -50.407  11.493  1.00  0.00    -0.340 N 
HETATM    5  H   UNL     1     -40.249 -47.798  10.636  1.00  0.00     0.172 HD
HETATM    6  H   UNL     1     -42.764 -50.039  11.171  1.00  0.00     0.164 HD
ENDROOT
BRANCH   1   7
HETATM    7  C   UNL     1     -42.259 -47.952  10.096  1.00  0.00     0.114 A 
HETATM    8  C   UNL     1     -43.230 -47.296  10.859  1.00  0.00    -0.018 A 
HETATM    9  C   UNL     1     -43.078 -47.023  12.327  1.00  0.00     0.052 C 
HETATM   10  C   UNL     1     -44.382 -46.853  10.197  1.00  0.00     0.012 A 
HETATM   11  C   UNL     1     -44.545 -47.083   8.836  1.00  0.00     0.018 A 
HETATM   12  C   UNL     1     -43.548 -47.760   8.173  1.00  0.00     0.089 A 
HETATM   13  N   UNL     1     -42.423 -48.195   8.771  1.00  0.00    -0.352 N 
ATOM     14  HN  UNL     1     -41.710 -48.697   8.241  1.00  0.00     0.166 HD
ENDBRANCH   1   7
BRANCH   4  15
HETATM   15  C   UNL     1     -41.871 -51.554  12.364  1.00  0.00     0.165 C 
BRANCH  15  16
HETATM   16  C   UNL     1     -43.178 -51.814  13.174  1.00  0.00     0.168 C 
HETATM   17  C   UNL     1     -42.773 -52.257  14.608  1.00  0.00     0.050 C 
HETATM   18  C   UNL     1     -43.985 -50.506  13.381  1.00  0.00     0.050 C 
BRANCH  16  19
HETATM   19  N   UNL     1     -44.068 -52.862  12.578  1.00  0.00     0.103 N 
HETATM   20  C   UNL     1     -45.527 -52.638  12.648  1.00  0.00     0.299 C 
HETATM   21  C   UNL     1     -46.199 -53.112  13.948  1.00  0.00     0.198 C 
HETATM   22  O   UNL     1     -45.937 -54.494  14.202  1.00  0.00    -0.388 OA
HETATM   23  C   UNL     1     -44.528 -54.764  14.240  1.00  0.00     0.198 C 
HETATM   24  C   UNL     1     -43.811 -54.269  12.970  1.00  0.00     0.299 C 
ENDBRANCH  16  19
ENDBRANCH  15  16
ENDBRANCH   4  15
TORSDOF 4
ENDMDL
MODEL 4
REMARK VINA RESULT:      -6.1      1.512      2.324
REMARK  4 active torsions:
REMARK  status: ('A' for Active; 'I' for Inactive)
REMARK    1  A    between atoms: C_8  and  N_9 
REMARK       I    between atoms: N_9  and  C_10 
REMARK       I    between atoms: C_10  and  N_12 
REMARK    2  A    between atoms: N_12  and  C_13 
REMARK    3  A    between atoms: C_13  and  C_14 
REMARK    4  A    between atoms: C_14  and  N_17 
ROOT
HETATM    1  N   UNL     1     -40.244 -51.136  11.703  1.00  0.00    -0.294 N 
HETATM    2  C   UNL     1     -41.013 -52.237  11.919  1.00  0.00     0.321 C 
HETATM    3  O   UNL     1     -40.484 -53.347  11.999  1.00  0.00    -0.247 OA
HETATM    4  N   UNL     1     -42.356 -52.037  12.018  1.00  0.00    -0.340 N 
HETATM    5  H   UNL     1     -39.269 -51.362  11.581  1.00  0.00     0.172 HD
HETATM    6  H   UNL     1     -42.625 -51.060  12.113  1.00  0.00     0.164 HD
ENDROOT
BRANCH   1   7
HETATM    7  C   UNL     1     -40.639 -49.790  11.652  1.00  0.00     0.114 A 
HETATM    8  C   UNL     1     -40.500 -48.980  12.783  1.00  0.00    -0.018 A 
HETATM    9  C   UNL     1     -39.946 -49.476  14.087  1.00  0.00     0.052 C 
HETATM   10  C   UNL     1     -40.872 -47.635  12.666  1.00  0.00     0.012 A 
HETATM   11  C   UNL     1     -41.379 -47.146  11.467  1.00  0.00     0.018 A 
HETATM   12  C   UNL     1     -41.506 -48.024  10.416  1.00  0.00     0.089 A 
HETATM   13  N   UNL     1     -41.151 -49.321  10.485  1.00  0.00    -0.352 N 
ATOM     14  HN  UNL     1     -41.265 -49.938   9.681  1.00  0.00     0.166 HD
ENDBRANCH   1   7
BRANCH   4  15
HETATM   15  C   UNL     1     -43.286 -53.052  12.441  1.00  0.00     0.165 C 
BRANCH  15  16
HETATM   16  C   UNL     1     -43.535 -53.174  13.975  1.00  0.00     0.168 C 
HETATM   17  C   UNL     1     -42.704 -54.379  14.501  1.00  0.00     0.050 C 
HETATM   18  C   UNL     1     -42.973 -51.948  14.739  1.00  0.00     0.050 C 
BRANCH  16  19
HETATM   19  N   UNL     1     -44.972 -53.380  14.347  1.00  0.00     0.103 N 
HETATM   20  C   UNL     1     -45.992 -53.069  13.325  1.00  0.00     0.299 C 
HETATM   21  C   UNL     1     -46.439 -51.598  13.276  1.00  0.00     0.198 C 
HETATM   22  O   UNL     1     -46.915 -51.150  14.547  1.00  0.00    -0.388 OA
HETATM   23  C   UNL     1     -45.931 -51.340  15.574  1.00  0.00     0.198 C 
HETATM   24  C   UNL     1     -45.429 -52.795  15.630  1.00  0.00     0.299 C 
ENDBRANCH  16  19
ENDBRANCH  15  16
ENDBRANCH   4  15
TORSDOF 4
ENDMDL
MODEL 5
REMARK VINA RESULT:      -5.9      2.034      6.110
REMARK  4 active torsions:
REMARK  status: ('A' for Active; 'I' for Inactive)
REMARK    1  A    between atoms: C_8  and  N_9 
REMARK       I    between atoms: N_9  and  C_10 
REMARK       I    between atoms: C_10  and  N_12 
REMARK    2  A    between atoms: N_12  and  C_13 
REMARK    3  A    between atoms: C_13  and  C_14 
REMARK    4  A    between atoms: C_14  and  N_17 
ROOT
HETATM    1  N   UNL     1     -42.735 -53.028  12.644  1.00  0.00    -0.294 N 
HETATM    2  C   UNL     1     -41.677 -52.351  12.122  1.00  0.00     0.321 C 
HETATM    3  O   UNL     1     -40.645 -52.959  11.833  1.00  0.00    -0.247 OA
HETATM    4  N   UNL     1     -41.825 -51.007  11.965  1.00  0.00    -0.340 N 
HETATM    5  H   UNL     1     -42.537 -54.006  12.788  1.00  0.00     0.172 HD
HETATM    6  H   UNL     1     -42.782 -50.679  12.076  1.00  0.00     0.164 HD
ENDROOT
BRANCH   1   7
HETATM    7  C   UNL     1     -44.010 -52.538  12.971  1.00  0.00     0.114 A 
HETATM    8  C   UNL     1     -44.231 -51.952  14.221  1.00  0.00    -0.018 A 
HETATM    9  C   UNL     1     -43.163 -51.817  15.267  1.00  0.00     0.052 C 
HETATM   10  C   UNL     1     -45.511 -51.445  14.480  1.00  0.00     0.012 A 
HETATM   11  C   UNL     1     -46.516 -51.548  13.526  1.00  0.00     0.018 A 
HETATM   12  C   UNL     1     -46.213 -52.165  12.335  1.00  0.00     0.089 A 
HETATM   13  N   UNL     1     -44.994 -52.658  12.044  1.00  0.00    -0.352 N 
ATOM     14  HN  UNL     1     -44.814 -53.111  11.147  1.00  0.00     0.166 HD
ENDBRANCH   1   7
BRANCH   4  15
HETATM   15  C   UNL     1     -40.890 -50.179  11.249  1.00  0.00     0.165 C 
BRANCH  15  16
HETATM   16  C   UNL     1     -40.500 -48.827  11.920  1.00  0.00     0.168 C 
HETATM   17  C   UNL     1     -41.050 -47.674  11.033  1.00  0.00     0.050 C 
HETATM   18  C   UNL     1     -41.214 -48.646  13.284  1.00  0.00     0.050 C 
BRANCH  16  19
HETATM   19  N   UNL     1     -39.024 -48.636  12.098  1.00  0.00     0.103 N 
HETATM   20  C   UNL     1     -38.135 -49.713  11.617  1.00  0.00     0.299 C 
HETATM   21  C   UNL     1     -37.891 -50.855  12.619  1.00  0.00     0.198 C 
HETATM   22  O   UNL     1     -37.382 -50.364  13.862  1.00  0.00    -0.388 OA
HETATM   23  C   UNL     1     -38.252 -49.375  14.432  1.00  0.00     0.198 C 
HETATM   24  C   UNL     1     -38.552 -48.232  13.444  1.00  0.00     0.299 C 
ENDBRANCH  16  19
ENDBRANCH  15  16
ENDBRANCH   4  15
TORSDOF 4
ENDMDL
MODEL 6
REMARK VINA RESULT:      -5.9      2.412      3.286
REMARK  4 active torsions:
REMARK  status: ('A' for Active; 'I' for Inactive)
REMARK    1  A    between atoms: C_8  and  N_9 
REMARK       I    between atoms: N_9  and  C_10 
REMARK       I    between atoms: C_10  and  N_12 
REMARK    2  A    between atoms: N_12  and  C_13 
REMARK    3  A    between atoms: C_13  and  C_14 
REMARK    4  A    between atoms: C_14  and  N_17 
ROOT
HETATM    1  N   UNL     1     -40.414 -48.848  10.995  1.00  0.00    -0.294 N 
HETATM    2  C   UNL     1     -40.189 -50.120  11.421  1.00  0.00     0.321 C 
HETATM    3  O   UNL     1     -39.060 -50.452  11.785  1.00  0.00    -0.247 OA
HETATM    4  N   UNL     1     -41.251 -50.971  11.401  1.00  0.00    -0.340 N 
HETATM    5  H   UNL     1     -39.575 -48.289  10.980  1.00  0.00     0.172 HD
HETATM    6  H   UNL     1     -42.148 -50.512  11.251  1.00  0.00     0.164 HD
ENDROOT
BRANCH   1   7
HETATM    7  C   UNL     1     -41.629 -48.257  10.610  1.00  0.00     0.114 A 
HETATM    8  C   UNL     1     -42.449 -47.663  11.574  1.00  0.00    -0.018 A 
HETATM    9  C   UNL     1     -42.108 -47.624  13.035  1.00  0.00     0.052 C 
HETATM   10  C   UNL     1     -43.630 -47.053  11.131  1.00  0.00     0.012 A 
HETATM   11  C   UNL     1     -43.967 -47.065   9.783  1.00  0.00     0.018 A 
HETATM   12  C   UNL     1     -43.111 -47.698   8.911  1.00  0.00     0.089 A 
HETATM   13  N   UNL     1     -41.963 -48.288   9.295  1.00  0.00    -0.352 N 
ATOM     14  HN  UNL     1     -41.358 -48.748   8.614  1.00  0.00     0.166 HD
ENDBRANCH   1   7
BRANCH   4  15
HETATM   15  C   UNL     1     -41.238 -52.280  11.999  1.00  0.00     0.165 C 
BRANCH  15  16
HETATM   16  C   UNL     1     -42.325 -52.563  13.081  1.00  0.00     0.168 C 
HETATM   17  C   UNL     1     -43.108 -51.243  13.330  1.00  0.00     0.050 C 
HETATM   18  C   UNL     1     -43.393 -53.560  12.562  1.00  0.00     0.050 C 
BRANCH  16  19
HETATM   19  N   UNL     1     -41.776 -53.052  14.386  1.00  0.00     0.103 N 
HETATM   20  C   UNL     1     -40.997 -52.095  15.200  1.00  0.00     0.299 C 
HETATM   21  C   UNL     1     -39.502 -52.006  14.849  1.00  0.00     0.198 C 
HETATM   22  O   UNL     1     -38.868 -53.285  14.919  1.00  0.00    -0.388 OA
HETATM   23  C   UNL     1     -39.523 -54.243  14.075  1.00  0.00     0.198 C 
HETATM   24  C   UNL     1     -41.032 -54.335  14.370  1.00  0.00     0.299 C 
ENDBRANCH  16  19
ENDBRANCH  15  16
ENDBRANCH   4  15
TORSDOF 4
ENDMDL
MODEL 7
REMARK VINA RESULT:      -5.9      1.988      6.198
REMARK  4 active torsions:
REMARK  status: ('A' for Active; 'I' for Inactive)
REMARK    1  A    between atoms: C_8  and  N_9 
REMARK       I    between atoms: N_9  and  C_10 
REMARK       I    between atoms: C_10  and  N_12 
REMARK    2  A    between atoms: N_12  and  C_13 
REMARK    3  A    between atoms: C_13  and  C_14 
REMARK    4  A    between atoms: C_14  and  N_17 
ROOT
HETATM    1  N   UNL     1     -42.817 -53.003  12.563  1.00  0.00    -0.294 N 
HETATM    2  C   UNL     1     -41.756 -52.310  12.067  1.00  0.00     0.321 C 
HETATM    3  O   UNL     1     -40.744 -52.915  11.709  1.00  0.00    -0.247 OA
HETATM    4  N   UNL     1     -41.879 -50.956  12.014  1.00  0.00    -0.340 N 
HETATM    5  H   UNL     1     -42.637 -53.992  12.629  1.00  0.00     0.172 HD
HETATM    6  H   UNL     1     -42.826 -50.618  12.171  1.00  0.00     0.164 HD
ENDROOT
BRANCH   1   7
HETATM    7  C   UNL     1     -44.073 -52.514  12.955  1.00  0.00     0.114 A 
HETATM    8  C   UNL     1     -44.250 -52.005  14.245  1.00  0.00    -0.018 A 
HETATM    9  C   UNL     1     -43.152 -51.954  15.268  1.00  0.00     0.052 C 
HETATM   10  C   UNL     1     -45.513 -51.495  14.572  1.00  0.00     0.012 A 
HETATM   11  C   UNL     1     -46.545 -51.520  13.642  1.00  0.00     0.018 A 
HETATM   12  C   UNL     1     -46.286 -52.065  12.406  1.00  0.00     0.089 A 
HETATM   13  N   UNL     1     -45.084 -52.559  12.050  1.00  0.00    -0.352 N 
ATOM     14  HN  UNL     1     -44.936 -52.956  11.122  1.00  0.00     0.166 HD
ENDBRANCH   1   7
BRANCH   4  15
HETATM   15  C   UNL     1     -40.943 -50.094  11.338  1.00  0.00     0.165 C 
BRANCH  15  16
HETATM   16  C   UNL     1     -40.039 -49.202  12.243  1.00  0.00     0.168 C 
HETATM   17  C   UNL     1     -40.126 -49.749  13.696  1.00  0.00     0.050 C 
HETATM   18  C   UNL     1     -38.543 -49.342  11.861  1.00  0.00     0.050 C 
BRANCH  16  19
HETATM   19  N   UNL     1     -40.421 -47.754  12.249  1.00  0.00     0.103 N 
HETATM   20  C   UNL     1     -41.481 -47.332  13.187  1.00  0.00     0.299 C 
HETATM   21  C   UNL     1     -42.918 -47.488  12.661  1.00  0.00     0.198 C 
HETATM   22  O   UNL     1     -43.102 -46.796  11.423  1.00  0.00    -0.388 OA
HETATM   23  C   UNL     1     -42.158 -47.227  10.433  1.00  0.00     0.198 C 
HETATM   24  C   UNL     1     -40.706 -47.123  10.938  1.00  0.00     0.299 C 
ENDBRANCH  16  19
ENDBRANCH  15  16
ENDBRANCH   4  15
TORSDOF 4
ENDMDL
MODEL 8
REMARK VINA RESULT:      -5.7      2.243      3.440
REMARK  4 active torsions:
REMARK  status: ('A' for Active; 'I' for Inactive)
REMARK    1  A    between atoms: C_8  and  N_9 
REMARK       I    between atoms: N_9  and  C_10 
REMARK       I    between atoms: C_10  and  N_12 
REMARK    2  A    between atoms: N_12  and  C_13 
REMARK    3  A    between atoms: C_13  and  C_14 
REMARK    4  A    between atoms: C_14  and  N_17 
ROOT
HETATM    1  N   UNL     1     -43.037 -53.048  11.921  1.00  0.00    -0.294 N 
HETATM    2  C   UNL     1     -44.104 -53.340  12.712  1.00  0.00     0.321 C 
HETATM    3  O   UNL     1     -44.917 -54.192  12.352  1.00  0.00    -0.247 OA
HETATM    4  N   UNL     1     -44.216 -52.639  13.873  1.00  0.00    -0.340 N 
HETATM    5  H   UNL     1     -43.047 -53.559  11.052  1.00  0.00     0.172 HD
HETATM    6  H   UNL     1     -43.384 -52.107  14.120  1.00  0.00     0.164 HD
ENDROOT
BRANCH   1   7
HETATM    7  C   UNL     1     -41.971 -52.170  12.178  1.00  0.00     0.114 A 
HETATM    8  C   UNL     1     -40.798 -52.654  12.763  1.00  0.00    -0.018 A 
HETATM    9  C   UNL     1     -40.603 -54.091  13.152  1.00  0.00     0.052 C 
HETATM   10  C   UNL     1     -39.751 -51.745  12.963  1.00  0.00     0.012 A 
HETATM   11  C   UNL     1     -39.900 -50.410  12.604  1.00  0.00     0.018 A 
HETATM   12  C   UNL     1     -41.101 -50.019  12.059  1.00  0.00     0.089 A 
HETATM   13  N   UNL     1     -42.128 -50.864  11.844  1.00  0.00    -0.352 N 
ATOM     14  HN  UNL     1     -43.003 -50.530  11.439  1.00  0.00     0.166 HD
ENDBRANCH   1   7
BRANCH   4  15
HETATM   15  C   UNL     1     -45.162 -52.958  14.911  1.00  0.00     0.165 C 
BRANCH  15  16
HETATM   16  C   UNL     1     -45.446 -51.843  15.963  1.00  0.00     0.168 C 
HETATM   17  C   UNL     1     -44.682 -50.562  15.521  1.00  0.00     0.050 C 
HETATM   18  C   UNL     1     -46.939 -51.429  15.961  1.00  0.00     0.050 C 
BRANCH  16  19
HETATM   19  N   UNL     1     -45.026 -52.197  17.357  1.00  0.00     0.103 N 
HETATM   20  C   UNL     1     -43.722 -52.870  17.527  1.00  0.00     0.299 C 
HETATM   21  C   UNL     1     -43.753 -54.401  17.377  1.00  0.00     0.198 C 
HETATM   22  O   UNL     1     -44.695 -54.998  18.272  1.00  0.00    -0.388 OA
HETATM   23  C   UNL     1     -46.009 -54.451  18.095  1.00  0.00     0.198 C 
HETATM   24  C   UNL     1     -46.014 -52.914  18.199  1.00  0.00     0.299 C 
ENDBRANCH  16  19
ENDBRANCH  15  16
ENDBRANCH   4  15
TORSDOF 4
ENDMDL
MODEL 9
REMARK VINA RESULT:      -5.7      2.229      6.268
REMARK  4 active torsions:
REMARK  status: ('A' for Active; 'I' for Inactive)
REMARK    1  A    between atoms: C_8  and  N_9 
REMARK       I    between atoms: N_9  and  C_10 
REMARK       I    between atoms: C_10  and  N_12 
REMARK    2  A    between atoms: N_12  and  C_13 
REMARK    3  A    between atoms: C_13  and  C_14 
REMARK    4  A    between atoms: C_14  and  N_17 
ROOT
HETATM    1  N   UNL     1     -43.205 -53.831  12.589  1.00  0.00    -0.294 N 
HETATM    2  C   UNL     1     -41.972 -53.842  13.162  1.00  0.00     0.321 C 
HETATM    3  O   UNL     1     -41.063 -54.494  12.644  1.00  0.00    -0.247 OA
HETATM    4  N   UNL     1     -41.822 -53.127  14.310  1.00  0.00    -0.340 N 
HETATM    5  H   UNL     1     -43.261 -54.426  11.777  1.00  0.00     0.172 HD
HETATM    6  H   UNL     1     -42.599 -52.502  14.515  1.00  0.00     0.164 HD
ENDROOT
BRANCH   1   7
HETATM    7  C   UNL     1     -44.343 -53.104  12.976  1.00  0.00     0.114 A 
HETATM    8  C   UNL     1     -45.417 -53.764  13.581  1.00  0.00    -0.018 A 
HETATM    9  C   UNL     1     -45.434 -55.242  13.841  1.00  0.00     0.052 C 
HETATM   10  C   UNL     1     -46.510 -52.986  13.984  1.00  0.00     0.012 A 
HETATM   11  C   UNL     1     -46.517 -51.614  13.765  1.00  0.00     0.018 A 
HETATM   12  C   UNL     1     -45.426 -51.056  13.138  1.00  0.00     0.089 A 
HETATM   13  N   UNL     1     -44.353 -51.767  12.743  1.00  0.00    -0.352 N 
ATOM     14  HN  UNL     1     -43.567 -51.312  12.279  1.00  0.00     0.166 HD
ENDBRANCH   1   7
BRANCH   4  15
HETATM   15  C   UNL     1     -40.549 -52.869  14.931  1.00  0.00     0.165 C 
BRANCH  15  16
HETATM   16  C   UNL     1     -39.878 -51.500  14.605  1.00  0.00     0.168 C 
HETATM   17  C   UNL     1     -40.979 -50.403  14.658  1.00  0.00     0.050 C 
HETATM   18  C   UNL     1     -38.864 -51.091  15.704  1.00  0.00     0.050 C 
BRANCH  16  19
HETATM   19  N   UNL     1     -39.211 -51.450  13.265  1.00  0.00     0.103 N 
HETATM   20  C   UNL     1     -37.871 -50.834  13.192  1.00  0.00     0.299 C 
HETATM   21  C   UNL     1     -37.863 -49.306  13.014  1.00  0.00     0.198 C 
HETATM   22  O   UNL     1     -38.611 -48.907  11.863  1.00  0.00    -0.388 OA
HETATM   23  C   UNL     1     -39.959 -49.398  11.915  1.00  0.00     0.198 C 
HETATM   24  C   UNL     1     -40.009 -50.922  12.132  1.00  0.00     0.299 C 
ENDBRANCH  16  19
ENDBRANCH  15  16
ENDBRANCH   4  15
TORSDOF 4
ENDMDL
