MODEL 1
REMARK VINA RESULT:      -5.9      0.000      0.000
REMARK  3 active torsions:
REMARK  status: ('A' for Active; 'I' for Inactive)
REMARK    1  A    between atoms: S_2  and  N_5 
REMARK    2  A    between atoms: C_8  and  N_11 
REMARK       I    between atoms: N_11  and  C_12 
REMARK       I    between atoms: C_12  and  N_14 
REMARK    3  A    between atoms: N_14  and  C_15 
ROOT
HETATM    1  N   UNL     1     -43.428 -49.485  12.242  1.00  0.00    -0.338 N 
HETATM    2  C   UNL     1     -43.823 -50.487  13.111  1.00  0.00     0.321 C 
HETATM    3  O   UNL     1     -43.340 -50.578  14.235  1.00  0.00    -0.247 OA
HETATM    4  N   UNL     1     -44.762 -51.340  12.581  1.00  0.00    -0.309 N 
HETATM    5  H   UNL     1     -44.113 -49.204  11.554  1.00  0.00     0.164 HD
HETATM    6  H   UNL     1     -44.836 -51.353  11.573  1.00  0.00     0.170 HD
ENDROOT
BRANCH   1   7
HETATM    7  C   UNL     1     -42.511 -48.468  12.770  1.00  0.00     0.089 C 
HETATM    8  C   UNL     1     -43.089 -47.062  12.606  1.00  0.00     0.045 C 
HETATM    9  C   UNL     1     -42.944 -46.576  11.174  1.00  0.00     0.137 C 
HETATM   10  N   UNL     1     -41.526 -46.588  10.763  1.00  0.00    -0.311 N 
HETATM   11  C   UNL     1     -40.889 -47.923  10.857  1.00  0.00     0.137 C 
HETATM   12  C   UNL     1     -41.089 -48.570  12.220  1.00  0.00     0.045 C 
BRANCH  10  13
HETATM   13  S   UNL     1     -40.588 -45.215  11.082  1.00  0.00     0.224 S 
HETATM   14  C   UNL     1     -41.851 -43.997  11.388  1.00  0.00     0.186 C 
HETATM   15  O   UNL     1     -39.911 -44.834   9.860  1.00  0.00    -0.206 OA
HETATM   16  O   UNL     1     -39.849 -45.432  12.310  1.00  0.00    -0.206 OA
ENDBRANCH  10  13
ENDBRANCH   1   7
BRANCH   4  17
HETATM   17  C   UNL     1     -45.321 -52.435  13.288  1.00  0.00     0.038 A 
HETATM   18  C   UNL     1     -44.831 -53.737  13.171  1.00  0.00     0.046 A 
HETATM   19  C   UNL     1     -45.499 -54.768  13.809  1.00  0.00     0.090 A 
HETATM   20  N   UNL     1     -46.589 -54.586  14.577  1.00  0.00    -0.375 N 
HETATM   21  C   UNL     1     -47.021 -53.315  14.716  1.00  0.00     0.090 A 
ATOM     22  HN  UNL     1     -47.064 -55.368  15.030  1.00  0.00     0.164 HD
HETATM   23  C   UNL     1     -46.422 -52.217  14.111  1.00  0.00     0.046 A 
ENDBRANCH   4  17
TORSDOF 3
ENDMDL
MODEL 2
REMARK VINA RESULT:      -5.3      3.798      8.219
REMARK  3 active torsions:
REMARK  status: ('A' for Active; 'I' for Inactive)
REMARK    1  A    between atoms: S_2  and  N_5 
REMARK    2  A    between atoms: C_8  and  N_11 
REMARK       I    between atoms: N_11  and  C_12 
REMARK       I    between atoms: C_12  and  N_14 
REMARK    3  A    between atoms: N_14  and  C_15 
ROOT
HETATM    1  N   UNL     1     -42.691 -51.363  12.553  1.00  0.00    -0.338 N 
HETATM    2  C   UNL     1     -42.575 -49.997  12.369  1.00  0.00     0.321 C 
HETATM    3  O   UNL     1     -43.079 -49.205  13.159  1.00  0.00    -0.247 OA
HETATM    4  N   UNL     1     -41.878 -49.649  11.236  1.00  0.00    -0.309 N 
HETATM    5  H   UNL     1     -41.948 -51.924  12.159  1.00  0.00     0.164 HD
HETATM    6  H   UNL     1     -41.798 -50.362  10.524  1.00  0.00     0.170 HD
ENDROOT
BRANCH   1   7
HETATM    7  C   UNL     1     -43.325 -51.816  13.797  1.00  0.00     0.089 C 
HETATM    8  C   UNL     1     -42.296 -51.969  14.919  1.00  0.00     0.045 C 
HETATM    9  C   UNL     1     -41.497 -53.251  14.755  1.00  0.00     0.137 C 
HETATM   10  N   UNL     1     -42.395 -54.423  14.732  1.00  0.00    -0.311 N 
HETATM   11  C   UNL     1     -43.408 -54.377  13.651  1.00  0.00     0.137 C 
HETATM   12  C   UNL     1     -44.185 -53.068  13.634  1.00  0.00     0.045 C 
BRANCH  10  13
HETATM   13  S   UNL     1     -42.812 -55.141  16.208  1.00  0.00     0.224 S 
HETATM   14  C   UNL     1     -41.434 -54.659  17.228  1.00  0.00     0.186 C 
HETATM   15  O   UNL     1     -42.746 -56.579  16.047  1.00  0.00    -0.206 OA
HETATM   16  O   UNL     1     -44.009 -54.500  16.714  1.00  0.00    -0.206 OA
ENDBRANCH  10  13
ENDBRANCH   1   7
BRANCH   4  17
HETATM   17  C   UNL     1     -41.625 -48.308  10.845  1.00  0.00     0.038 A 
HETATM   18  C   UNL     1     -40.477 -47.614  11.232  1.00  0.00     0.046 A 
HETATM   19  C   UNL     1     -40.356 -46.276  10.901  1.00  0.00     0.090 A 
HETATM   20  N   UNL     1     -41.274 -45.600  10.186  1.00  0.00    -0.375 N 
HETATM   21  C   UNL     1     -42.355 -46.299   9.780  1.00  0.00     0.090 A 
ATOM     22  HN  UNL     1     -41.159 -44.611   9.962  1.00  0.00     0.164 HD
HETATM   23  C   UNL     1     -42.568 -47.641  10.069  1.00  0.00     0.046 A 
ENDBRANCH   4  17
TORSDOF 3
ENDMDL
MODEL 3
REMARK VINA RESULT:      -5.3      3.431      8.249
REMARK  3 active torsions:
REMARK  status: ('A' for Active; 'I' for Inactive)
REMARK    1  A    between atoms: S_2  and  N_5 
REMARK    2  A    between atoms: C_8  and  N_11 
REMARK       I    between atoms: N_11  and  C_12 
REMARK       I    between atoms: C_12  and  N_14 
REMARK    3  A    between atoms: N_14  and  C_15 
ROOT
HETATM    1  N   UNL     1     -42.469 -51.154  12.133  1.00  0.00    -0.338 N 
HETATM    2  C   UNL     1     -42.256 -49.787  12.169  1.00  0.00     0.321 C 
HETATM    3  O   UNL     1     -42.509 -49.131  13.174  1.00  0.00    -0.247 OA
HETATM    4  N   UNL     1     -41.768 -49.274  10.991  1.00  0.00    -0.309 N 
HETATM    5  H   UNL     1     -41.881 -51.675  11.498  1.00  0.00     0.164 HD
HETATM    6  H   UNL     1     -41.903 -49.841  10.165  1.00  0.00     0.170 HD
ENDROOT
BRANCH   1   7
HETATM    7  C   UNL     1     -42.885 -51.795  13.387  1.00  0.00     0.089 C 
HETATM    8  C   UNL     1     -42.836 -53.320  13.271  1.00  0.00     0.045 C 
HETATM    9  C   UNL     1     -44.034 -53.847  12.501  1.00  0.00     0.137 C 
HETATM   10  N   UNL     1     -45.294 -53.432  13.151  1.00  0.00    -0.311 N 
HETATM   11  C   UNL     1     -45.443 -51.962  13.276  1.00  0.00     0.137 C 
HETATM   12  C   UNL     1     -44.231 -51.304  13.918  1.00  0.00     0.045 C 
BRANCH  10  13
HETATM   13  S   UNL     1     -45.930 -54.421  14.369  1.00  0.00     0.224 S 
HETATM   14  C   UNL     1     -44.763 -54.141  15.686  1.00  0.00     0.186 C 
HETATM   15  O   UNL     1     -45.786 -55.801  13.954  1.00  0.00    -0.206 OA
HETATM   16  O   UNL     1     -47.217 -53.892  14.772  1.00  0.00    -0.206 OA
ENDBRANCH  10  13
ENDBRANCH   1   7
BRANCH   4  17
HETATM   17  C   UNL     1     -41.464 -47.902  10.793  1.00  0.00     0.038 A 
HETATM   18  C   UNL     1     -42.361 -47.008  10.205  1.00  0.00     0.046 A 
HETATM   19  C   UNL     1     -41.949 -45.712   9.948  1.00  0.00     0.090 A 
HETATM   20  N   UNL     1     -40.730 -45.241  10.269  1.00  0.00    -0.375 N 
HETATM   21  C   UNL     1     -39.892 -46.105  10.879  1.00  0.00     0.090 A 
ATOM     22  HN  UNL     1     -40.454 -44.281  10.061  1.00  0.00     0.164 HD
HETATM   23  C   UNL     1     -40.212 -47.426  11.171  1.00  0.00     0.046 A 
ENDBRANCH   4  17
TORSDOF 3
ENDMDL
MODEL 4
REMARK VINA RESULT:      -5.1      3.291      8.232
REMARK  3 active torsions:
REMARK  status: ('A' for Active; 'I' for Inactive)
REMARK    1  A    between atoms: S_2  and  N_5 
REMARK    2  A    between atoms: C_8  and  N_11 
REMARK       I    between atoms: N_11  and  C_12 
REMARK       I    between atoms: C_12  and  N_14 
REMARK    3  A    between atoms: N_14  and  C_15 
ROOT
HETATM    1  N   UNL     1     -43.250 -50.133  12.338  1.00  0.00    -0.338 N 
HETATM    2  C   UNL     1     -42.699 -48.870  12.465  1.00  0.00     0.321 C 
HETATM    3  O   UNL     1     -42.526 -48.361  13.568  1.00  0.00    -0.247 OA
HETATM    4  N   UNL     1     -42.400 -48.274  11.263  1.00  0.00    -0.309 N 
HETATM    5  H   UNL     1     -42.985 -50.647  11.510  1.00  0.00     0.164 HD
HETATM    6  H   UNL     1     -42.871 -48.647  10.449  1.00  0.00     0.170 HD
ENDROOT
BRANCH   1   7
HETATM    7  C   UNL     1     -43.494 -50.880  13.577  1.00  0.00     0.089 C 
HETATM    8  C   UNL     1     -42.806 -52.246  13.544  1.00  0.00     0.045 C 
HETATM    9  C   UNL     1     -43.588 -53.231  12.692  1.00  0.00     0.137 C 
HETATM   10  N   UNL     1     -44.968 -53.375  13.198  1.00  0.00    -0.311 N 
HETATM   11  C   UNL     1     -45.726 -52.101  13.233  1.00  0.00     0.137 C 
HETATM   12  C   UNL     1     -44.971 -50.993  13.953  1.00  0.00     0.045 C 
BRANCH  10  13
HETATM   13  S   UNL     1     -45.264 -54.531  14.399  1.00  0.00     0.224 S 
HETATM   14  C   UNL     1     -43.608 -54.887  14.951  1.00  0.00     0.186 C 
HETATM   15  O   UNL     1     -45.771 -55.728  13.761  1.00  0.00    -0.206 OA
HETATM   16  O   UNL     1     -45.987 -53.899  15.484  1.00  0.00    -0.206 OA
ENDBRANCH  10  13
ENDBRANCH   1   7
BRANCH   4  17
HETATM   17  C   UNL     1     -41.820 -46.985  11.143  1.00  0.00     0.038 A 
HETATM   18  C   UNL     1     -40.462 -46.791  10.880  1.00  0.00     0.046 A 
HETATM   19  C   UNL     1     -39.952 -45.504  10.887  1.00  0.00     0.090 A 
HETATM   20  N   UNL     1     -40.703 -44.407  11.099  1.00  0.00    -0.375 N 
HETATM   21  C   UNL     1     -42.021 -44.610  11.304  1.00  0.00     0.090 A 
ATOM     22  HN  UNL     1     -40.296 -43.471  11.103  1.00  0.00     0.164 HD
HETATM   23  C   UNL     1     -42.623 -45.863  11.323  1.00  0.00     0.046 A 
ENDBRANCH   4  17
TORSDOF 3
ENDMDL
MODEL 5
REMARK VINA RESULT:      -5.0      3.427      8.279
REMARK  3 active torsions:
REMARK  status: ('A' for Active; 'I' for Inactive)
REMARK    1  A    between atoms: S_2  and  N_5 
REMARK    2  A    between atoms: C_8  and  N_11 
REMARK       I    between atoms: N_11  and  C_12 
REMARK       I    between atoms: C_12  and  N_14 
REMARK    3  A    between atoms: N_14  and  C_15 
ROOT
HETATM    1  N   UNL     1     -42.590 -49.792  13.449  1.00  0.00    -0.338 N 
HETATM    2  C   UNL     1     -42.323 -48.686  12.661  1.00  0.00     0.321 C 
HETATM    3  O   UNL     1     -42.537 -48.700  11.453  1.00  0.00    -0.247 OA
HETATM    4  N   UNL     1     -41.795 -47.626  13.359  1.00  0.00    -0.309 N 
HETATM    5  H   UNL     1     -42.800 -49.602  14.419  1.00  0.00     0.164 HD
HETATM    6  H   UNL     1     -41.379 -47.842  14.255  1.00  0.00     0.170 HD
ENDROOT
BRANCH   1   7
HETATM    7  C   UNL     1     -43.258 -50.926  12.799  1.00  0.00     0.089 C 
HETATM    8  C   UNL     1     -44.643 -51.172  13.401  1.00  0.00     0.045 C 
HETATM    9  C   UNL     1     -44.538 -51.886  14.737  1.00  0.00     0.137 C 
HETATM   10  N   UNL     1     -43.820 -53.167  14.588  1.00  0.00    -0.311 N 
HETATM   11  C   UNL     1     -42.450 -53.022  14.040  1.00  0.00     0.137 C 
HETATM   12  C   UNL     1     -42.417 -52.201  12.759  1.00  0.00     0.045 C 
BRANCH  10  13
HETATM   13  S   UNL     1     -44.717 -54.544  14.181  1.00  0.00     0.224 S 
HETATM   14  C   UNL     1     -46.239 -54.235  15.054  1.00  0.00     0.186 C 
HETATM   15  O   UNL     1     -44.091 -55.693  14.803  1.00  0.00    -0.206 OA
HETATM   16  O   UNL     1     -44.988 -54.520  12.758  1.00  0.00    -0.206 OA
ENDBRANCH  10  13
ENDBRANCH   1   7
BRANCH   4  17
HETATM   17  C   UNL     1     -41.450 -46.383  12.766  1.00  0.00     0.038 A 
HETATM   18  C   UNL     1     -42.376 -45.355  12.578  1.00  0.00     0.046 A 
HETATM   19  C   UNL     1     -41.988 -44.217  11.894  1.00  0.00     0.090 A 
HETATM   20  N   UNL     1     -40.743 -44.020  11.423  1.00  0.00    -0.375 N 
HETATM   21  C   UNL     1     -39.849 -45.004  11.654  1.00  0.00     0.090 A 
ATOM     22  HN  UNL     1     -40.489 -43.171  10.917  1.00  0.00     0.164 HD
HETATM   23  C   UNL     1     -40.146 -46.184  12.324  1.00  0.00     0.046 A 
ENDBRANCH   4  17
TORSDOF 3
ENDMDL
MODEL 6
REMARK VINA RESULT:      -4.9      2.710      3.167
REMARK  3 active torsions:
REMARK  status: ('A' for Active; 'I' for Inactive)
REMARK    1  A    between atoms: S_2  and  N_5 
REMARK    2  A    between atoms: C_8  and  N_11 
REMARK       I    between atoms: N_11  and  C_12 
REMARK       I    between atoms: C_12  and  N_14 
REMARK    3  A    between atoms: N_14  and  C_15 
ROOT
HETATM    1  N   UNL     1     -40.994 -50.349  12.946  1.00  0.00    -0.338 N 
HETATM    2  C   UNL     1     -41.494 -51.265  13.853  1.00  0.00     0.321 C 
HETATM    3  O   UNL     1     -42.143 -50.903  14.829  1.00  0.00    -0.247 OA
HETATM    4  N   UNL     1     -41.174 -52.569  13.555  1.00  0.00    -0.309 N 
HETATM    5  H   UNL     1     -40.860 -50.690  12.004  1.00  0.00     0.164 HD
HETATM    6  H   UNL     1     -40.391 -52.706  12.930  1.00  0.00     0.170 HD
ENDROOT
BRANCH   1   7
HETATM    7  C   UNL     1     -41.385 -48.946  13.132  1.00  0.00     0.089 C 
HETATM    8  C   UNL     1     -42.474 -48.538  12.138  1.00  0.00     0.045 C 
HETATM    9  C   UNL     1     -41.887 -48.284  10.760  1.00  0.00     0.137 C 
HETATM   10  N   UNL     1     -40.846 -47.238  10.823  1.00  0.00    -0.311 N 
HETATM   11  C   UNL     1     -39.729 -47.565  11.741  1.00  0.00     0.137 C 
HETATM   12  C   UNL     1     -40.210 -47.969  13.126  1.00  0.00     0.045 C 
BRANCH  10  13
HETATM   13  S   UNL     1     -41.325 -45.622  10.667  1.00  0.00     0.224 S 
HETATM   14  C   UNL     1     -39.786 -44.847  10.217  1.00  0.00     0.186 C 
HETATM   15  O   UNL     1     -41.688 -45.127  11.979  1.00  0.00    -0.206 OA
HETATM   16  O   UNL     1     -42.241 -45.514   9.549  1.00  0.00    -0.206 OA
ENDBRANCH  10  13
ENDBRANCH   1   7
BRANCH   4  17
HETATM   17  C   UNL     1     -41.584 -53.681  14.336  1.00  0.00     0.038 A 
HETATM   18  C   UNL     1     -42.832 -54.288  14.186  1.00  0.00     0.046 A 
HETATM   19  C   UNL     1     -43.199 -55.297  15.060  1.00  0.00     0.090 A 
HETATM   20  N   UNL     1     -42.400 -55.762  16.037  1.00  0.00    -0.375 N 
HETATM   21  C   UNL     1     -41.179 -55.196  16.137  1.00  0.00     0.090 A 
ATOM     22  HN  UNL     1     -42.701 -56.505  16.669  1.00  0.00     0.164 HD
HETATM   23  C   UNL     1     -40.724 -54.173  15.313  1.00  0.00     0.046 A 
ENDBRANCH   4  17
TORSDOF 3
ENDMDL
MODEL 7
REMARK VINA RESULT:      -4.9     15.354     16.735
REMARK  3 active torsions:
REMARK  status: ('A' for Active; 'I' for Inactive)
REMARK    1  A    between atoms: S_2  and  N_5 
REMARK    2  A    between atoms: C_8  and  N_11 
REMARK       I    between atoms: N_11  and  C_12 
REMARK       I    between atoms: C_12  and  N_14 
REMARK    3  A    between atoms: N_14  and  C_15 
ROOT
HETATM    1  N   UNL     1     -50.933 -51.017  -0.699  1.00  0.00    -0.338 N 
HETATM    2  C   UNL     1     -50.647 -50.095   0.291  1.00  0.00     0.321 C 
HETATM    3  O   UNL     1     -50.068 -50.427   1.321  1.00  0.00    -0.247 OA
HETATM    4  N   UNL     1     -51.087 -48.824   0.006  1.00  0.00    -0.309 N 
HETATM    5  H   UNL     1     -51.004 -50.648  -1.637  1.00  0.00     0.164 HD
HETATM    6  H   UNL     1     -51.808 -48.747  -0.698  1.00  0.00     0.170 HD
ENDROOT
BRANCH   1   7
HETATM    7  C   UNL     1     -50.399 -52.373  -0.520  1.00  0.00     0.089 C 
HETATM    8  C   UNL     1     -49.149 -52.593  -1.375  1.00  0.00     0.045 C 
HETATM    9  C   UNL     1     -49.517 -52.834  -2.829  1.00  0.00     0.137 C 
HETATM   10  N   UNL     1     -50.420 -53.996  -2.950  1.00  0.00    -0.311 N 
HETATM   11  C   UNL     1     -51.678 -53.856  -2.179  1.00  0.00     0.137 C 
HETATM   12  C   UNL     1     -51.433 -53.479  -0.725  1.00  0.00     0.045 C 
BRANCH  10  13
HETATM   13  S   UNL     1     -49.729 -55.533  -3.108  1.00  0.00     0.224 S 
HETATM   14  C   UNL     1     -48.684 -55.299  -4.531  1.00  0.00     0.186 C 
HETATM   15  O   UNL     1     -50.772 -56.463  -3.490  1.00  0.00    -0.206 OA
HETATM   16  O   UNL     1     -48.890 -55.786  -1.954  1.00  0.00    -0.206 OA
ENDBRANCH  10  13
ENDBRANCH   1   7
BRANCH   4  17
HETATM   17  C   UNL     1     -50.900 -47.712   0.868  1.00  0.00     0.038 A 
HETATM   18  C   UNL     1     -51.948 -47.126   1.580  1.00  0.00     0.046 A 
HETATM   19  C   UNL     1     -51.704 -45.977   2.313  1.00  0.00     0.090 A 
HETATM   20  N   UNL     1     -50.492 -45.403   2.415  1.00  0.00    -0.375 N 
HETATM   21  C   UNL     1     -49.481 -46.010   1.759  1.00  0.00     0.090 A 
ATOM     22  HN  UNL     1     -50.345 -44.552   2.960  1.00  0.00     0.164 HD
HETATM   23  C   UNL     1     -49.629 -47.159   0.992  1.00  0.00     0.046 A 
ENDBRANCH   4  17
TORSDOF 3
ENDMDL
MODEL 8
REMARK VINA RESULT:      -4.9      1.735      2.151
REMARK  3 active torsions:
REMARK  status: ('A' for Active; 'I' for Inactive)
REMARK    1  A    between atoms: S_2  and  N_5 
REMARK    2  A    between atoms: C_8  and  N_11 
REMARK       I    between atoms: N_11  and  C_12 
REMARK       I    between atoms: C_12  and  N_14 
REMARK    3  A    between atoms: N_14  and  C_15 
ROOT
HETATM    1  N   UNL     1     -42.933 -49.247  13.155  1.00  0.00    -0.338 N 
HETATM    2  C   UNL     1     -43.554 -50.317  13.774  1.00  0.00     0.321 C 
HETATM    3  O   UNL     1     -43.323 -50.594  14.947  1.00  0.00    -0.247 OA
HETATM    4  N   UNL     1     -44.407 -51.013  12.950  1.00  0.00    -0.309 N 
HETATM    5  H   UNL     1     -43.443 -48.823  12.392  1.00  0.00     0.164 HD
HETATM    6  H   UNL     1     -44.270 -50.889  11.956  1.00  0.00     0.170 HD
ENDROOT
BRANCH   1   7
HETATM    7  C   UNL     1     -42.093 -48.387  13.997  1.00  0.00     0.089 C 
HETATM    8  C   UNL     1     -42.830 -47.104  14.388  1.00  0.00     0.045 C 
HETATM    9  C   UNL     1     -42.846 -46.112  13.237  1.00  0.00     0.137 C 
HETATM   10  N   UNL     1     -41.470 -45.791  12.808  1.00  0.00    -0.311 N 
HETATM   11  C   UNL     1     -40.689 -46.975  12.377  1.00  0.00     0.137 C 
HETATM   12  C   UNL     1     -40.714 -48.097  13.405  1.00  0.00     0.045 C 
BRANCH  10  13
HETATM   13  S   UNL     1     -40.664 -44.524  13.588  1.00  0.00     0.224 S 
HETATM   14  C   UNL     1     -39.275 -44.276  12.501  1.00  0.00     0.186 C 
HETATM   15  O   UNL     1     -40.143 -45.023  14.844  1.00  0.00    -0.206 OA
HETATM   16  O   UNL     1     -41.502 -43.343  13.545  1.00  0.00    -0.206 OA
ENDBRANCH  10  13
ENDBRANCH   1   7
BRANCH   4  17
HETATM   17  C   UNL     1     -45.160 -52.142  13.366  1.00  0.00     0.038 A 
HETATM   18  C   UNL     1     -46.344 -52.029  14.098  1.00  0.00     0.046 A 
HETATM   19  C   UNL     1     -46.962 -53.179  14.559  1.00  0.00     0.090 A 
HETATM   20  N   UNL     1     -46.505 -54.420  14.311  1.00  0.00    -0.375 N 
HETATM   21  C   UNL     1     -45.386 -54.511  13.562  1.00  0.00     0.090 A 
ATOM     22  HN  UNL     1     -46.980 -55.249  14.670  1.00  0.00     0.164 HD
HETATM   23  C   UNL     1     -44.692 -53.416  13.061  1.00  0.00     0.046 A 
ENDBRANCH   4  17
TORSDOF 3
ENDMDL
MODEL 9
REMARK VINA RESULT:      -4.8      1.690      2.121
REMARK  3 active torsions:
REMARK  status: ('A' for Active; 'I' for Inactive)
REMARK    1  A    between atoms: S_2  and  N_5 
REMARK    2  A    between atoms: C_8  and  N_11 
REMARK       I    between atoms: N_11  and  C_12 
REMARK       I    between atoms: C_12  and  N_14 
REMARK    3  A    between atoms: N_14  and  C_15 
ROOT
HETATM    1  N   UNL     1     -42.793 -49.658  11.824  1.00  0.00    -0.338 N 
HETATM    2  C   UNL     1     -42.599 -50.651  12.767  1.00  0.00     0.321 C 
HETATM    3  O   UNL     1     -41.531 -50.765  13.359  1.00  0.00    -0.247 OA
HETATM    4  N   UNL     1     -43.690 -51.470  12.939  1.00  0.00    -0.309 N 
HETATM    5  H   UNL     1     -43.747 -49.351  11.698  1.00  0.00     0.164 HD
HETATM    6  H   UNL     1     -44.369 -51.475  12.189  1.00  0.00     0.170 HD
ENDROOT
BRANCH   1   7
HETATM    7  C   UNL     1     -41.715 -48.674  11.662  1.00  0.00     0.089 C 
HETATM    8  C   UNL     1     -41.711 -47.664  12.812  1.00  0.00     0.045 C 
HETATM    9  C   UNL     1     -42.805 -46.626  12.630  1.00  0.00     0.137 C 
HETATM   10  N   UNL     1     -42.646 -45.923  11.342  1.00  0.00    -0.311 N 
HETATM   11  C   UNL     1     -42.673 -46.823  10.164  1.00  0.00     0.137 C 
HETATM   12  C   UNL     1     -41.702 -47.988  10.298  1.00  0.00     0.045 C 
BRANCH  10  13
HETATM   13  S   UNL     1     -41.654 -44.552  11.295  1.00  0.00     0.224 S 
HETATM   14  C   UNL     1     -42.855 -43.266  11.019  1.00  0.00     0.186 C 
HETATM   15  O   UNL     1     -40.828 -44.630  10.109  1.00  0.00    -0.206 OA
HETATM   16  O   UNL     1     -41.065 -44.360  12.605  1.00  0.00    -0.206 OA
ENDBRANCH  10  13
ENDBRANCH   1   7
BRANCH   4  17
HETATM   17  C   UNL     1     -43.729 -52.552  13.857  1.00  0.00     0.038 A 
HETATM   18  C   UNL     1     -44.258 -52.430  15.143  1.00  0.00     0.046 A 
HETATM   19  C   UNL     1     -44.159 -53.500  16.016  1.00  0.00     0.090 A 
HETATM   20  N   UNL     1     -43.610 -54.683  15.684  1.00  0.00    -0.375 N 
HETATM   21  C   UNL     1     -43.146 -54.798  14.422  1.00  0.00     0.090 A 
ATOM     22  HN  UNL     1     -43.547 -55.452  16.352  1.00  0.00     0.164 HD
HETATM   23  C   UNL     1     -43.193 -53.779  13.478  1.00  0.00     0.046 A 
ENDBRANCH   4  17
TORSDOF 3
ENDMDL
