MODEL 1
REMARK VINA RESULT:      -5.7      0.000      0.000
REMARK  6 active torsions:
REMARK  status: ('A' for Active; 'I' for Inactive)
REMARK    1  A    between atoms: O_2  and  C_3 
REMARK    2  A    between atoms: C_3  and  C_4 
REMARK    3  A    between atoms: C_4  and  O_5 
REMARK    4  A    between atoms: O_5  and  C_6 
REMARK    5  A    between atoms: C_12  and  C_13 
REMARK       I    between atoms: C_13  and  N_15 
REMARK    6  A    between atoms: N_15  and  C_16 
ROOT
HETATM    1  C   UNL     1     -42.166 -46.918  10.155  1.00  0.00     0.158 A 
HETATM    2  N   UNL     1     -42.416 -46.038   9.156  1.00  0.00    -0.346 N 
ATOM      3  HN  UNL     1     -41.681 -45.452   8.760  1.00  0.00     0.167 HD
HETATM    4  C   UNL     1     -43.691 -45.977   8.710  1.00  0.00     0.090 A 
HETATM    5  C   UNL     1     -44.722 -46.755   9.211  1.00  0.00     0.018 A 
HETATM    6  C   UNL     1     -44.434 -47.651  10.238  1.00  0.00     0.023 A 
HETATM    7  C   UNL     1     -43.130 -47.749  10.734  1.00  0.00     0.083 A 
ENDROOT
BRANCH   7   8
HETATM    8  C   UNL     1     -42.874 -48.676  11.877  1.00  0.00     0.256 C 
HETATM    9  O   UNL     1     -43.201 -48.352  13.018  1.00  0.00    -0.268 OA
HETATM   10  N   UNL     1     -42.221 -49.859  11.613  1.00  0.00    -0.350 N 
HETATM   11  H   UNL     1     -42.021 -50.094  10.645  1.00  0.00     0.163 HD
BRANCH  10  12
HETATM   12  C   UNL     1     -41.828 -50.794  12.652  1.00  0.00     0.111 C 
HETATM   13  C   UNL     1     -40.468 -50.475  13.274  1.00  0.00     0.150 C 
HETATM   14  N   UNL     1     -39.937 -51.762  13.651  1.00  0.00    -0.354 N 
HETATM   15  C   UNL     1     -38.609 -51.904  14.194  1.00  0.00     0.152 C 
HETATM   16  C   UNL     1     -40.543 -52.793  12.948  1.00  0.00     0.221 C 
HETATM   17  O   UNL     1     -40.190 -53.961  12.921  1.00  0.00    -0.273 OA
HETATM   18  C   UNL     1     -41.641 -52.206  12.104  1.00  0.00     0.129 C 
ENDBRANCH  10  12
ENDBRANCH   7   8
BRANCH   1  19
HETATM   19  O   UNL     1     -40.873 -47.040  10.603  1.00  0.00    -0.333 OA
BRANCH  19  20
HETATM   20  C   UNL     1     -40.350 -45.928  11.331  1.00  0.00     0.203 C 
BRANCH  20  21
HETATM   21  C   UNL     1     -39.523 -45.110  10.335  1.00  0.00     0.193 C 
BRANCH  21  22
HETATM   22  O   UNL     1     -40.188 -43.872  10.060  1.00  0.00    -0.394 OA
HETATM   23  C   UNL     1     -40.904 -43.387  11.190  1.00  0.00     0.201 C 
ENDBRANCH  21  22
ENDBRANCH  20  21
ENDBRANCH  19  20
ENDBRANCH   1  19
TORSDOF 6
ENDMDL
MODEL 2
REMARK VINA RESULT:      -5.4      0.946      1.387
REMARK  6 active torsions:
REMARK  status: ('A' for Active; 'I' for Inactive)
REMARK    1  A    between atoms: O_2  and  C_3 
REMARK    2  A    between atoms: C_3  and  C_4 
REMARK    3  A    between atoms: C_4  and  O_5 
REMARK    4  A    between atoms: O_5  and  C_6 
REMARK    5  A    between atoms: C_12  and  C_13 
REMARK       I    between atoms: C_13  and  N_15 
REMARK    6  A    between atoms: N_15  and  C_16 
ROOT
HETATM    1  C   UNL     1     -42.218 -46.910  10.139  1.00  0.00     0.158 A 
HETATM    2  N   UNL     1     -42.486 -46.046   9.130  1.00  0.00    -0.346 N 
ATOM      3  HN  UNL     1     -41.763 -45.448   8.730  1.00  0.00     0.167 HD
HETATM    4  C   UNL     1     -43.760 -46.018   8.681  1.00  0.00     0.090 A 
HETATM    5  C   UNL     1     -44.775 -46.813   9.188  1.00  0.00     0.018 A 
HETATM    6  C   UNL     1     -44.470 -47.692  10.225  1.00  0.00     0.023 A 
HETATM    7  C   UNL     1     -43.165 -47.757  10.724  1.00  0.00     0.083 A 
ENDROOT
BRANCH   7   8
HETATM    8  C   UNL     1     -42.891 -48.666  11.877  1.00  0.00     0.256 C 
HETATM    9  O   UNL     1     -43.278 -48.364  13.005  1.00  0.00    -0.268 OA
HETATM   10  N   UNL     1     -42.154 -49.805  11.639  1.00  0.00    -0.350 N 
HETATM   11  H   UNL     1     -41.906 -50.026  10.678  1.00  0.00     0.163 HD
BRANCH  10  12
HETATM   12  C   UNL     1     -41.740 -50.714  12.692  1.00  0.00     0.111 C 
HETATM   13  C   UNL     1     -40.377 -50.366  13.293  1.00  0.00     0.150 C 
HETATM   14  N   UNL     1     -39.827 -51.640  13.689  1.00  0.00    -0.354 N 
HETATM   15  C   UNL     1     -38.491 -51.755  14.220  1.00  0.00     0.152 C 
HETATM   16  C   UNL     1     -40.429 -52.692  13.015  1.00  0.00     0.221 C 
HETATM   17  O   UNL     1     -40.064 -53.856  13.008  1.00  0.00    -0.273 OA
HETATM   18  C   UNL     1     -41.543 -52.134  12.172  1.00  0.00     0.129 C 
ENDBRANCH  10  12
ENDBRANCH   7   8
BRANCH   1  19
HETATM   19  O   UNL     1     -40.924 -46.999  10.590  1.00  0.00    -0.333 OA
BRANCH  19  20
HETATM   20  C   UNL     1     -40.194 -45.773  10.656  1.00  0.00     0.203 C 
BRANCH  20  21
HETATM   21  C   UNL     1     -39.809 -45.579  12.127  1.00  0.00     0.193 C 
BRANCH  21  22
HETATM   22  O   UNL     1     -39.894 -46.831  12.816  1.00  0.00    -0.394 OA
HETATM   23  C   UNL     1     -40.441 -46.687  14.121  1.00  0.00     0.201 C 
ENDBRANCH  21  22
ENDBRANCH  20  21
ENDBRANCH  19  20
ENDBRANCH   1  19
TORSDOF 6
ENDMDL
MODEL 3
REMARK VINA RESULT:      -5.4      3.099      4.819
REMARK  6 active torsions:
REMARK  status: ('A' for Active; 'I' for Inactive)
REMARK    1  A    between atoms: O_2  and  C_3 
REMARK    2  A    between atoms: C_3  and  C_4 
REMARK    3  A    between atoms: C_4  and  O_5 
REMARK    4  A    between atoms: O_5  and  C_6 
REMARK    5  A    between atoms: C_12  and  C_13 
REMARK       I    between atoms: C_13  and  N_15 
REMARK    6  A    between atoms: N_15  and  C_16 
ROOT
HETATM    1  C   UNL     1     -41.604 -48.721  11.325  1.00  0.00     0.158 A 
HETATM    2  N   UNL     1     -41.108 -47.880  10.386  1.00  0.00    -0.346 N 
ATOM      3  HN  UNL     1     -40.360 -48.163   9.753  1.00  0.00     0.167 HD
HETATM    4  C   UNL     1     -41.656 -46.645  10.331  1.00  0.00     0.090 A 
HETATM    5  C   UNL     1     -42.676 -46.216  11.164  1.00  0.00     0.018 A 
HETATM    6  C   UNL     1     -43.166 -47.103  12.119  1.00  0.00     0.023 A 
HETATM    7  C   UNL     1     -42.630 -48.391  12.216  1.00  0.00     0.083 A 
ENDROOT
BRANCH   7   8
HETATM    8  C   UNL     1     -43.138 -49.292  13.293  1.00  0.00     0.256 C 
HETATM    9  O   UNL     1     -42.891 -49.043  14.472  1.00  0.00    -0.268 OA
HETATM   10  N   UNL     1     -43.835 -50.419  12.916  1.00  0.00    -0.350 N 
HETATM   11  H   UNL     1     -44.051 -50.544  11.931  1.00  0.00     0.163 HD
BRANCH  10  12
HETATM   12  C   UNL     1     -44.293 -51.420  13.862  1.00  0.00     0.111 C 
HETATM   13  C   UNL     1     -44.054 -52.855  13.392  1.00  0.00     0.150 C 
HETATM   14  N   UNL     1     -45.137 -53.608  13.977  1.00  0.00    -0.354 N 
HETATM   15  C   UNL     1     -45.328 -55.008  13.691  1.00  0.00     0.152 C 
HETATM   16  C   UNL     1     -46.203 -52.790  14.323  1.00  0.00     0.221 C 
HETATM   17  O   UNL     1     -47.314 -53.151  14.673  1.00  0.00    -0.273 OA
HETATM   18  C   UNL     1     -45.804 -51.362  14.063  1.00  0.00     0.129 C 
ENDBRANCH  10  12
ENDBRANCH   7   8
BRANCH   1  19
HETATM   19  O   UNL     1     -41.103 -49.999  11.380  1.00  0.00    -0.333 OA
BRANCH  19  20
HETATM   20  C   UNL     1     -39.764 -50.131  11.859  1.00  0.00     0.203 C 
BRANCH  20  21
HETATM   21  C   UNL     1     -39.804 -51.187  12.969  1.00  0.00     0.193 C 
BRANCH  21  22
HETATM   22  O   UNL     1     -38.558 -51.891  13.008  1.00  0.00    -0.394 OA
HETATM   23  C   UNL     1     -37.446 -51.020  12.838  1.00  0.00     0.201 C 
ENDBRANCH  21  22
ENDBRANCH  20  21
ENDBRANCH  19  20
ENDBRANCH   1  19
TORSDOF 6
ENDMDL
MODEL 4
REMARK VINA RESULT:      -5.3      2.883      5.170
REMARK  6 active torsions:
REMARK  status: ('A' for Active; 'I' for Inactive)
REMARK    1  A    between atoms: O_2  and  C_3 
REMARK    2  A    between atoms: C_3  and  C_4 
REMARK    3  A    between atoms: C_4  and  O_5 
REMARK    4  A    between atoms: O_5  and  C_6 
REMARK    5  A    between atoms: C_12  and  C_13 
REMARK       I    between atoms: C_13  and  N_15 
REMARK    6  A    between atoms: N_15  and  C_16 
ROOT
HETATM    1  C   UNL     1     -39.905 -49.858  11.625  1.00  0.00     0.158 A 
HETATM    2  N   UNL     1     -38.942 -48.906  11.663  1.00  0.00    -0.346 N 
ATOM      3  HN  UNL     1     -39.004 -48.056  11.103  1.00  0.00     0.167 HD
HETATM    4  C   UNL     1     -37.892 -49.142  12.482  1.00  0.00     0.090 A 
HETATM    5  C   UNL     1     -37.764 -50.277  13.266  1.00  0.00     0.018 A 
HETATM    6  C   UNL     1     -38.771 -51.238  13.206  1.00  0.00     0.023 A 
HETATM    7  C   UNL     1     -39.876 -51.040  12.372  1.00  0.00     0.083 A 
ENDROOT
BRANCH   7   8
HETATM    8  C   UNL     1     -40.904 -52.120  12.288  1.00  0.00     0.256 C 
HETATM    9  O   UNL     1     -40.629 -53.192  11.750  1.00  0.00    -0.268 OA
HETATM   10  N   UNL     1     -42.162 -51.853  12.780  1.00  0.00    -0.350 N 
HETATM   11  H   UNL     1     -42.315 -50.969  13.258  1.00  0.00     0.163 HD
BRANCH  10  12
HETATM   12  C   UNL     1     -43.270 -52.784  12.667  1.00  0.00     0.111 C 
HETATM   13  C   UNL     1     -44.600 -52.207  13.153  1.00  0.00     0.150 C 
HETATM   14  N   UNL     1     -45.320 -53.350  13.662  1.00  0.00    -0.354 N 
HETATM   15  C   UNL     1     -46.601 -53.211  14.308  1.00  0.00     0.152 C 
HETATM   16  C   UNL     1     -44.466 -54.399  13.970  1.00  0.00     0.221 C 
HETATM   17  O   UNL     1     -44.755 -55.419  14.573  1.00  0.00    -0.273 OA
HETATM   18  C   UNL     1     -43.074 -54.011  13.552  1.00  0.00     0.129 C 
ENDBRANCH  10  12
ENDBRANCH   7   8
BRANCH   1  19
HETATM   19  O   UNL     1     -41.009 -49.633  10.838  1.00  0.00    -0.333 OA
BRANCH  19  20
HETATM   20  C   UNL     1     -41.918 -48.632  11.300  1.00  0.00     0.203 C 
BRANCH  20  21
HETATM   21  C   UNL     1     -41.983 -47.568  10.200  1.00  0.00     0.193 C 
BRANCH  21  22
HETATM   22  O   UNL     1     -43.097 -47.833   9.340  1.00  0.00    -0.394 OA
HETATM   23  C   UNL     1     -43.501 -46.676   8.616  1.00  0.00     0.201 C 
ENDBRANCH  21  22
ENDBRANCH  20  21
ENDBRANCH  19  20
ENDBRANCH   1  19
TORSDOF 6
ENDMDL
MODEL 5
REMARK VINA RESULT:      -5.3      2.335      6.592
REMARK  6 active torsions:
REMARK  status: ('A' for Active; 'I' for Inactive)
REMARK    1  A    between atoms: O_2  and  C_3 
REMARK    2  A    between atoms: C_3  and  C_4 
REMARK    3  A    between atoms: C_4  and  O_5 
REMARK    4  A    between atoms: O_5  and  C_6 
REMARK    5  A    between atoms: C_12  and  C_13 
REMARK       I    between atoms: C_13  and  N_15 
REMARK    6  A    between atoms: N_15  and  C_16 
ROOT
HETATM    1  C   UNL     1     -43.299 -52.734  12.568  1.00  0.00     0.158 A 
HETATM    2  N   UNL     1     -43.681 -54.032  12.494  1.00  0.00    -0.346 N 
ATOM      3  HN  UNL     1     -43.155 -54.717  11.951  1.00  0.00     0.167 HD
HETATM    4  C   UNL     1     -44.797 -54.372  13.178  1.00  0.00     0.090 A 
HETATM    5  C   UNL     1     -45.542 -53.481  13.932  1.00  0.00     0.018 A 
HETATM    6  C   UNL     1     -45.124 -52.153  13.990  1.00  0.00     0.023 A 
HETATM    7  C   UNL     1     -43.976 -51.753  13.298  1.00  0.00     0.083 A 
ENDROOT
BRANCH   7   8
HETATM    8  C   UNL     1     -43.595 -50.309  13.333  1.00  0.00     0.256 C 
HETATM    9  O   UNL     1     -43.651 -49.682  14.389  1.00  0.00    -0.268 OA
HETATM   10  N   UNL     1     -43.237 -49.708  12.146  1.00  0.00    -0.350 N 
HETATM   11  H   UNL     1     -43.160 -50.290  11.316  1.00  0.00     0.163 HD
BRANCH  10  12
HETATM   12  C   UNL     1     -42.941 -48.291  12.034  1.00  0.00     0.111 C 
HETATM   13  C   UNL     1     -43.703 -47.600  10.902  1.00  0.00     0.150 C 
HETATM   14  N   UNL     1     -42.818 -46.546  10.469  1.00  0.00    -0.354 N 
HETATM   15  C   UNL     1     -43.134 -45.711   9.337  1.00  0.00     0.152 C 
HETATM   16  C   UNL     1     -41.505 -46.793  10.840  1.00  0.00     0.221 C 
HETATM   17  O   UNL     1     -40.517 -46.179  10.471  1.00  0.00    -0.273 OA
HETATM   18  C   UNL     1     -41.479 -48.042  11.678  1.00  0.00     0.129 C 
ENDBRANCH  10  12
ENDBRANCH   7   8
BRANCH   1  19
HETATM   19  O   UNL     1     -42.144 -52.361  11.923  1.00  0.00    -0.333 OA
BRANCH  19  20
HETATM   20  C   UNL     1     -40.925 -52.861  12.474  1.00  0.00     0.203 C 
BRANCH  20  21
HETATM   21  C   UNL     1     -40.023 -51.644  12.703  1.00  0.00     0.193 C 
BRANCH  21  22
HETATM   22  O   UNL     1     -38.726 -52.079  13.124  1.00  0.00    -0.394 OA
HETATM   23  C   UNL     1     -37.772 -51.024  13.093  1.00  0.00     0.201 C 
ENDBRANCH  21  22
ENDBRANCH  20  21
ENDBRANCH  19  20
ENDBRANCH   1  19
TORSDOF 6
ENDMDL
MODEL 6
REMARK VINA RESULT:      -5.3      2.869      7.345
REMARK  6 active torsions:
REMARK  status: ('A' for Active; 'I' for Inactive)
REMARK    1  A    between atoms: O_2  and  C_3 
REMARK    2  A    between atoms: C_3  and  C_4 
REMARK    3  A    between atoms: C_4  and  O_5 
REMARK    4  A    between atoms: O_5  and  C_6 
REMARK    5  A    between atoms: C_12  and  C_13 
REMARK       I    between atoms: C_13  and  N_15 
REMARK    6  A    between atoms: N_15  and  C_16 
ROOT
HETATM    1  C   UNL     1     -42.060 -47.928  10.923  1.00  0.00     0.158 A 
HETATM    2  N   UNL     1     -41.944 -49.263  11.118  1.00  0.00    -0.346 N 
ATOM      3  HN  UNL     1     -42.733 -49.896  10.984  1.00  0.00     0.167 HD
HETATM    4  C   UNL     1     -40.729 -49.715  11.500  1.00  0.00     0.090 A 
HETATM    5  C   UNL     1     -39.627 -48.897  11.690  1.00  0.00     0.018 A 
HETATM    6  C   UNL     1     -39.775 -47.528  11.481  1.00  0.00     0.023 A 
HETATM    7  C   UNL     1     -41.014 -47.013  11.086  1.00  0.00     0.083 A 
ENDROOT
BRANCH   7   8
HETATM    8  C   UNL     1     -41.151 -45.534  10.932  1.00  0.00     0.256 C 
HETATM    9  O   UNL     1     -40.505 -44.942  10.069  1.00  0.00    -0.268 OA
HETATM   10  N   UNL     1     -41.973 -44.868  11.814  1.00  0.00    -0.350 N 
HETATM   11  H   UNL     1     -42.519 -45.417  12.472  1.00  0.00     0.163 HD
BRANCH  10  12
HETATM   12  C   UNL     1     -42.111 -43.423  11.829  1.00  0.00     0.111 C 
HETATM   13  C   UNL     1     -42.494 -42.863  13.200  1.00  0.00     0.150 C 
HETATM   14  N   UNL     1     -43.273 -41.687  12.900  1.00  0.00    -0.354 N 
HETATM   15  C   UNL     1     -43.910 -40.916  13.939  1.00  0.00     0.152 C 
HETATM   16  C   UNL     1     -43.787 -41.725  11.612  1.00  0.00     0.221 C 
HETATM   17  O   UNL     1     -44.616 -40.968  11.137  1.00  0.00    -0.273 OA
HETATM   18  C   UNL     1     -43.248 -42.952  10.927  1.00  0.00     0.129 C 
ENDBRANCH  10  12
ENDBRANCH   7   8
BRANCH   1  19
HETATM   19  O   UNL     1     -43.269 -47.438  10.490  1.00  0.00    -0.333 OA
BRANCH  19  20
HETATM   20  C   UNL     1     -43.514 -47.519   9.084  1.00  0.00     0.203 C 
BRANCH  20  21
HETATM   21  C   UNL     1     -44.733 -46.632   8.808  1.00  0.00     0.193 C 
BRANCH  21  22
HETATM   22  O   UNL     1     -45.882 -47.176   9.465  1.00  0.00    -0.394 OA
HETATM   23  C   UNL     1     -46.457 -48.253   8.735  1.00  0.00     0.201 C 
ENDBRANCH  21  22
ENDBRANCH  20  21
ENDBRANCH  19  20
ENDBRANCH   1  19
TORSDOF 6
ENDMDL
MODEL 7
REMARK VINA RESULT:      -5.2      5.175      6.435
REMARK  6 active torsions:
REMARK  status: ('A' for Active; 'I' for Inactive)
REMARK    1  A    between atoms: O_2  and  C_3 
REMARK    2  A    between atoms: C_3  and  C_4 
REMARK    3  A    between atoms: C_4  and  O_5 
REMARK    4  A    between atoms: O_5  and  C_6 
REMARK    5  A    between atoms: C_12  and  C_13 
REMARK       I    between atoms: C_13  and  N_15 
REMARK    6  A    between atoms: N_15  and  C_16 
ROOT
HETATM    1  C   UNL     1     -44.371 -52.577  13.208  1.00  0.00     0.158 A 
HETATM    2  N   UNL     1     -45.263 -52.152  12.282  1.00  0.00    -0.346 N 
ATOM      3  HN  UNL     1     -45.079 -52.235  11.282  1.00  0.00     0.167 HD
HETATM    4  C   UNL     1     -46.410 -51.613  12.751  1.00  0.00     0.090 A 
HETATM    5  C   UNL     1     -46.708 -51.484  14.098  1.00  0.00     0.018 A 
HETATM    6  C   UNL     1     -45.772 -51.931  15.027  1.00  0.00     0.023 A 
HETATM    7  C   UNL     1     -44.569 -52.495  14.590  1.00  0.00     0.083 A 
ENDROOT
BRANCH   7   8
HETATM    8  C   UNL     1     -43.564 -52.904  15.616  1.00  0.00     0.256 C 
HETATM    9  O   UNL     1     -43.218 -52.112  16.491  1.00  0.00    -0.268 OA
HETATM   10  N   UNL     1     -43.011 -54.162  15.511  1.00  0.00    -0.350 N 
HETATM   11  H   UNL     1     -43.373 -54.789  14.798  1.00  0.00     0.163 HD
BRANCH  10  12
HETATM   12  C   UNL     1     -41.955 -54.638  16.386  1.00  0.00     0.111 C 
HETATM   13  C   UNL     1     -40.551 -54.311  15.876  1.00  0.00     0.150 C 
HETATM   14  N   UNL     1     -39.733 -55.397  16.360  1.00  0.00    -0.354 N 
HETATM   15  C   UNL     1     -38.340 -55.512  16.008  1.00  0.00     0.152 C 
HETATM   16  C   UNL     1     -40.495 -56.515  16.667  1.00  0.00     0.221 C 
HETATM   17  O   UNL     1     -40.077 -57.631  16.929  1.00  0.00    -0.273 OA
HETATM   18  C   UNL     1     -41.946 -56.160  16.489  1.00  0.00     0.129 C 
ENDBRANCH  10  12
ENDBRANCH   7   8
BRANCH   1  19
HETATM   19  O   UNL     1     -43.213 -53.172  12.769  1.00  0.00    -0.333 OA
BRANCH  19  20
HETATM   20  C   UNL     1     -42.170 -52.290  12.351  1.00  0.00     0.203 C 
BRANCH  20  21
HETATM   21  C   UNL     1     -40.899 -53.139  12.254  1.00  0.00     0.193 C 
BRANCH  21  22
HETATM   22  O   UNL     1     -39.818 -52.464  12.907  1.00  0.00    -0.394 OA
HETATM   23  C   UNL     1     -39.669 -51.125  12.449  1.00  0.00     0.201 C 
ENDBRANCH  21  22
ENDBRANCH  20  21
ENDBRANCH  19  20
ENDBRANCH   1  19
TORSDOF 6
ENDMDL
MODEL 8
REMARK VINA RESULT:      -5.1      2.257      7.603
REMARK  6 active torsions:
REMARK  status: ('A' for Active; 'I' for Inactive)
REMARK    1  A    between atoms: O_2  and  C_3 
REMARK    2  A    between atoms: C_3  and  C_4 
REMARK    3  A    between atoms: C_4  and  O_5 
REMARK    4  A    between atoms: O_5  and  C_6 
REMARK    5  A    between atoms: C_12  and  C_13 
REMARK       I    between atoms: C_13  and  N_15 
REMARK    6  A    between atoms: N_15  and  C_16 
ROOT
HETATM    1  C   UNL     1     -41.670 -52.435  13.054  1.00  0.00     0.158 A 
HETATM    2  N   UNL     1     -41.391 -53.753  13.192  1.00  0.00    -0.346 N 
ATOM      3  HN  UNL     1     -42.077 -54.473  12.965  1.00  0.00     0.167 HD
HETATM    4  C   UNL     1     -40.157 -54.066  13.645  1.00  0.00     0.090 A 
HETATM    5  C   UNL     1     -39.190 -53.126  13.961  1.00  0.00     0.018 A 
HETATM    6  C   UNL     1     -39.504 -51.777  13.808  1.00  0.00     0.023 A 
HETATM    7  C   UNL     1     -40.769 -51.404  13.343  1.00  0.00     0.083 A 
ENDROOT
BRANCH   7   8
HETATM    8  C   UNL     1     -41.091 -49.949  13.252  1.00  0.00     0.256 C 
HETATM    9  O   UNL     1     -41.039 -49.242  14.257  1.00  0.00    -0.268 OA
HETATM   10  N   UNL     1     -41.492 -49.452  12.031  1.00  0.00    -0.350 N 
HETATM   11  H   UNL     1     -41.467 -50.073  11.227  1.00  0.00     0.163 HD
BRANCH  10  12
HETATM   12  C   UNL     1     -41.925 -48.080  11.838  1.00  0.00     0.111 C 
HETATM   13  C   UNL     1     -42.984 -47.925  10.745  1.00  0.00     0.150 C 
HETATM   14  N   UNL     1     -42.742 -46.611  10.199  1.00  0.00    -0.354 N 
HETATM   15  C   UNL     1     -43.481 -46.116   9.064  1.00  0.00     0.152 C 
HETATM   16  C   UNL     1     -41.456 -46.170  10.472  1.00  0.00     0.221 C 
HETATM   17  O   UNL     1     -40.908 -45.187   9.999  1.00  0.00    -0.273 OA
HETATM   18  C   UNL     1     -40.786 -47.188  11.354  1.00  0.00     0.129 C 
ENDBRANCH  10  12
ENDBRANCH   7   8
BRANCH   1  19
HETATM   19  O   UNL     1     -42.899 -52.080  12.552  1.00  0.00    -0.333 OA
BRANCH  19  20
HETATM   20  C   UNL     1     -44.021 -52.329  13.400  1.00  0.00     0.203 C 
BRANCH  20  21
HETATM   21  C   UNL     1     -45.097 -52.968  12.517  1.00  0.00     0.193 C 
BRANCH  21  22
HETATM   22  O   UNL     1     -44.974 -54.394  12.565  1.00  0.00    -0.394 OA
HETATM   23  C   UNL     1     -45.138 -54.900  13.885  1.00  0.00     0.201 C 
ENDBRANCH  21  22
ENDBRANCH  20  21
ENDBRANCH  19  20
ENDBRANCH   1  19
TORSDOF 6
ENDMDL
MODEL 9
REMARK VINA RESULT:      -5.1      4.298      7.220
REMARK  6 active torsions:
REMARK  status: ('A' for Active; 'I' for Inactive)
REMARK    1  A    between atoms: O_2  and  C_3 
REMARK    2  A    between atoms: C_3  and  C_4 
REMARK    3  A    between atoms: C_4  and  O_5 
REMARK    4  A    between atoms: O_5  and  C_6 
REMARK    5  A    between atoms: C_12  and  C_13 
REMARK       I    between atoms: C_13  and  N_15 
REMARK    6  A    between atoms: N_15  and  C_16 
ROOT
HETATM    1  C   UNL     1     -39.375 -51.650  13.371  1.00  0.00     0.158 A 
HETATM    2  N   UNL     1     -38.040 -51.438  13.271  1.00  0.00    -0.346 N 
ATOM      3  HN  UNL     1     -37.371 -51.946  13.850  1.00  0.00     0.167 HD
HETATM    4  C   UNL     1     -37.641 -50.517  12.366  1.00  0.00     0.090 A 
HETATM    5  C   UNL     1     -38.510 -49.806  11.555  1.00  0.00     0.018 A 
HETATM    6  C   UNL     1     -39.876 -50.046  11.679  1.00  0.00     0.023 A 
HETATM    7  C   UNL     1     -40.338 -50.989  12.603  1.00  0.00     0.083 A 
ENDROOT
BRANCH   7   8
HETATM    8  C   UNL     1     -41.813 -51.173  12.751  1.00  0.00     0.256 C 
HETATM    9  O   UNL     1     -42.559 -50.196  12.750  1.00  0.00    -0.268 OA
HETATM   10  N   UNL     1     -42.286 -52.453  12.940  1.00  0.00    -0.350 N 
HETATM   11  H   UNL     1     -41.627 -53.224  12.881  1.00  0.00     0.163 HD
BRANCH  10  12
HETATM   12  C   UNL     1     -43.684 -52.750  13.195  1.00  0.00     0.111 C 
HETATM   13  C   UNL     1     -44.069 -52.642  14.671  1.00  0.00     0.150 C 
HETATM   14  N   UNL     1     -45.123 -53.614  14.836  1.00  0.00    -0.354 N 
HETATM   15  C   UNL     1     -45.699 -53.893  16.128  1.00  0.00     0.152 C 
HETATM   16  C   UNL     1     -45.099 -54.573  13.834  1.00  0.00     0.221 C 
HETATM   17  O   UNL     1     -45.745 -55.607  13.801  1.00  0.00    -0.273 OA
HETATM   18  C   UNL     1     -44.031 -54.193  12.844  1.00  0.00     0.129 C 
ENDBRANCH  10  12
ENDBRANCH   7   8
BRANCH   1  19
HETATM   19  O   UNL     1     -39.815 -52.612  14.248  1.00  0.00    -0.333 OA
BRANCH  19  20
HETATM   20  C   UNL     1     -39.237 -53.910  14.102  1.00  0.00     0.203 C 
BRANCH  20  21
HETATM   21  C   UNL     1     -39.290 -54.565  15.486  1.00  0.00     0.193 C 
BRANCH  21  22
HETATM   22  O   UNL     1     -38.455 -55.727  15.501  1.00  0.00    -0.394 OA
HETATM   23  C   UNL     1     -38.042 -56.073  16.818  1.00  0.00     0.201 C 
ENDBRANCH  21  22
ENDBRANCH  20  21
ENDBRANCH  19  20
ENDBRANCH   1  19
TORSDOF 6
ENDMDL
