MODEL 1
REMARK VINA RESULT:      -6.0      0.000      0.000
REMARK  4 active torsions:
REMARK  status: ('A' for Active; 'I' for Inactive)
REMARK    1  A    between atoms: C_2  and  C_3 
REMARK    2  A    between atoms: C_2  and  N_15 
REMARK    3  A    between atoms: C_3  and  N_4 
REMARK       I    between atoms: N_4  and  C_5 
REMARK       I    between atoms: C_5  and  N_7 
REMARK    4  A    between atoms: N_7  and  C_8 
ROOT
HETATM    1  N   UNL     1     -41.104 -51.826  11.620  1.00  0.00    -0.341 N 
HETATM    2  C   UNL     1     -42.118 -52.116  12.508  1.00  0.00     0.320 C 
HETATM    3  O   UNL     1     -42.094 -51.776  13.685  1.00  0.00    -0.247 OA
HETATM    4  N   UNL     1     -43.076 -52.906  11.917  1.00  0.00    -0.308 N 
HETATM    5  H   UNL     1     -41.416 -51.514  10.709  1.00  0.00     0.164 HD
HETATM    6  H   UNL     1     -42.700 -53.509  11.197  1.00  0.00     0.170 HD
ENDROOT
BRANCH   1   7
HETATM    7  C   UNL     1     -39.912 -51.168  12.119  1.00  0.00     0.159 C 
BRANCH   7   8
HETATM    8  C   UNL     1     -39.691 -49.788  11.459  1.00  0.00     0.236 C 
HETATM    9  C   UNL     1     -38.186 -49.513  11.408  1.00  0.00     0.044 C 
BRANCH   8  10
HETATM   10  N   UNL     1     -40.572 -48.745  12.034  1.00  0.00     0.098 N 
HETATM   11  C   UNL     1     -41.905 -48.645  11.405  1.00  0.00     0.299 C 
HETATM   12  C   UNL     1     -41.987 -47.686  10.201  1.00  0.00     0.198 C 
HETATM   13  O   UNL     1     -41.481 -46.388  10.524  1.00  0.00    -0.388 OA
HETATM   14  C   UNL     1     -40.125 -46.467  10.983  1.00  0.00     0.198 C 
HETATM   15  C   UNL     1     -40.011 -47.391  12.207  1.00  0.00     0.299 C 
ENDBRANCH   8  10
ENDBRANCH   7   8
ENDBRANCH   1   7
BRANCH   4  16
HETATM   16  C   UNL     1     -44.196 -53.374  12.631  1.00  0.00     0.051 A 
HETATM   17  C   UNL     1     -44.091 -54.561  13.353  1.00  0.00     0.032 A 
HETATM   18  C   UNL     1     -45.178 -54.999  14.106  1.00  0.00     0.019 A 
HETATM   19  C   UNL     1     -46.350 -54.259  14.068  1.00  0.00     0.088 A 
HETATM   20  N   UNL     1     -46.501 -53.129  13.348  1.00  0.00    -0.373 N 
HETATM   21  C   UNL     1     -45.415 -52.701  12.660  1.00  0.00     0.117 A 
ATOM     22  HN  UNL     1     -47.387 -52.623  13.322  1.00  0.00     0.164 HD
ENDBRANCH   4  16
TORSDOF 4
ENDMDL
MODEL 2
REMARK VINA RESULT:      -5.7      2.312      7.816
REMARK  4 active torsions:
REMARK  status: ('A' for Active; 'I' for Inactive)
REMARK    1  A    between atoms: C_2  and  C_3 
REMARK    2  A    between atoms: C_2  and  N_15 
REMARK    3  A    between atoms: C_3  and  N_4 
REMARK       I    between atoms: N_4  and  C_5 
REMARK       I    between atoms: C_5  and  N_7 
REMARK    4  A    between atoms: N_7  and  C_8 
ROOT
HETATM    1  N   UNL     1     -43.602 -50.542  12.728  1.00  0.00    -0.341 N 
HETATM    2  C   UNL     1     -43.055 -49.282  12.619  1.00  0.00     0.320 C 
HETATM    3  O   UNL     1     -43.131 -48.440  13.506  1.00  0.00    -0.247 OA
HETATM    4  N   UNL     1     -42.520 -49.087  11.367  1.00  0.00    -0.308 N 
HETATM    5  H   UNL     1     -43.009 -51.291  12.392  1.00  0.00     0.164 HD
HETATM    6  H   UNL     1     -43.000 -49.611  10.648  1.00  0.00     0.170 HD
ENDROOT
BRANCH   1   7
HETATM    7  C   UNL     1     -44.383 -50.860  13.908  1.00  0.00     0.159 C 
BRANCH   7   8
HETATM    8  C   UNL     1     -45.362 -52.030  13.659  1.00  0.00     0.236 C 
HETATM    9  C   UNL     1     -46.704 -51.449  13.210  1.00  0.00     0.044 C 
BRANCH   8  10
HETATM   10  N   UNL     1     -45.360 -53.008  14.773  1.00  0.00     0.098 N 
HETATM   11  C   UNL     1     -44.019 -53.452  15.205  1.00  0.00     0.299 C 
HETATM   12  C   UNL     1     -43.470 -54.686  14.462  1.00  0.00     0.198 C 
HETATM   13  O   UNL     1     -44.397 -55.775  14.489  1.00  0.00    -0.388 OA
HETATM   14  C   UNL     1     -45.655 -55.390  13.918  1.00  0.00     0.198 C 
HETATM   15  C   UNL     1     -46.249 -54.180  14.658  1.00  0.00     0.299 C 
ENDBRANCH   8  10
ENDBRANCH   7   8
ENDBRANCH   1   7
BRANCH   4  16
HETATM   16  C   UNL     1     -41.938 -47.860  10.991  1.00  0.00     0.051 A 
HETATM   17  C   UNL     1     -42.764 -46.812  10.592  1.00  0.00     0.032 A 
HETATM   18  C   UNL     1     -42.197 -45.580  10.274  1.00  0.00     0.019 A 
HETATM   19  C   UNL     1     -40.817 -45.457  10.317  1.00  0.00     0.088 A 
HETATM   20  N   UNL     1     -39.984 -46.461  10.657  1.00  0.00    -0.373 N 
HETATM   21  C   UNL     1     -40.563 -47.636  11.006  1.00  0.00     0.117 A 
ATOM     22  HN  UNL     1     -38.970 -46.343  10.653  1.00  0.00     0.164 HD
ENDBRANCH   4  16
TORSDOF 4
ENDMDL
MODEL 3
REMARK VINA RESULT:      -5.6      2.138      2.684
REMARK  4 active torsions:
REMARK  status: ('A' for Active; 'I' for Inactive)
REMARK    1  A    between atoms: C_2  and  C_3 
REMARK    2  A    between atoms: C_2  and  N_15 
REMARK    3  A    between atoms: C_3  and  N_4 
REMARK       I    between atoms: N_4  and  C_5 
REMARK       I    between atoms: C_5  and  N_7 
REMARK    4  A    between atoms: N_7  and  C_8 
ROOT
HETATM    1  N   UNL     1     -40.499 -51.033  11.263  1.00  0.00    -0.341 N 
HETATM    2  C   UNL     1     -41.551 -51.471  12.037  1.00  0.00     0.320 C 
HETATM    3  O   UNL     1     -42.276 -50.713  12.670  1.00  0.00    -0.247 OA
HETATM    4  N   UNL     1     -41.598 -52.845  12.069  1.00  0.00    -0.308 N 
HETATM    5  H   UNL     1     -40.418 -51.488  10.361  1.00  0.00     0.164 HD
HETATM    6  H   UNL     1     -40.686 -53.272  11.978  1.00  0.00     0.170 HD
ENDROOT
BRANCH   1   7
HETATM    7  C   UNL     1     -40.173 -49.620  11.269  1.00  0.00     0.159 C 
BRANCH   7   8
HETATM    8  C   UNL     1     -38.842 -49.333  12.002  1.00  0.00     0.236 C 
HETATM    9  C   UNL     1     -37.779 -50.293  11.463  1.00  0.00     0.044 C 
BRANCH   8  10
HETATM   10  N   UNL     1     -39.020 -49.240  13.470  1.00  0.00     0.098 N 
HETATM   11  C   UNL     1     -40.011 -48.237  13.910  1.00  0.00     0.299 C 
HETATM   12  C   UNL     1     -39.446 -46.822  14.147  1.00  0.00     0.198 C 
HETATM   13  O   UNL     1     -38.321 -46.844  15.030  1.00  0.00    -0.388 OA
HETATM   14  C   UNL     1     -37.286 -47.695  14.519  1.00  0.00     0.198 C 
HETATM   15  C   UNL     1     -37.807 -49.126  14.302  1.00  0.00     0.299 C 
ENDBRANCH   8  10
ENDBRANCH   7   8
ENDBRANCH   1   7
BRANCH   4  16
HETATM   16  C   UNL     1     -42.561 -53.537  12.830  1.00  0.00     0.051 A 
HETATM   17  C   UNL     1     -42.163 -54.191  13.994  1.00  0.00     0.032 A 
HETATM   18  C   UNL     1     -43.122 -54.829  14.778  1.00  0.00     0.019 A 
HETATM   19  C   UNL     1     -44.437 -54.835  14.341  1.00  0.00     0.088 A 
HETATM   20  N   UNL     1     -44.851 -54.249  13.199  1.00  0.00    -0.373 N 
HETATM   21  C   UNL     1     -43.907 -53.597  12.477  1.00  0.00     0.117 A 
ATOM     22  HN  UNL     1     -45.824 -54.295  12.894  1.00  0.00     0.164 HD
ENDBRANCH   4  16
TORSDOF 4
ENDMDL
MODEL 4
REMARK VINA RESULT:      -5.6      1.940      7.478
REMARK  4 active torsions:
REMARK  status: ('A' for Active; 'I' for Inactive)
REMARK    1  A    between atoms: C_2  and  C_3 
REMARK    2  A    between atoms: C_2  and  N_15 
REMARK    3  A    between atoms: C_3  and  N_4 
REMARK       I    between atoms: N_4  and  C_5 
REMARK       I    between atoms: C_5  and  N_7 
REMARK    4  A    between atoms: N_7  and  C_8 
ROOT
HETATM    1  N   UNL     1     -42.778 -51.534  12.447  1.00  0.00    -0.341 N 
HETATM    2  C   UNL     1     -42.556 -50.174  12.416  1.00  0.00     0.320 C 
HETATM    3  O   UNL     1     -43.078 -49.393  13.203  1.00  0.00    -0.247 OA
HETATM    4  N   UNL     1     -41.769 -49.830  11.343  1.00  0.00    -0.308 N 
HETATM    5  H   UNL     1     -41.948 -52.101  12.323  1.00  0.00     0.164 HD
HETATM    6  H   UNL     1     -41.889 -50.449  10.552  1.00  0.00     0.170 HD
ENDROOT
BRANCH   1   7
HETATM    7  C   UNL     1     -43.744 -52.059  13.392  1.00  0.00     0.159 C 
BRANCH   7   8
HETATM    8  C   UNL     1     -44.676 -53.111  12.748  1.00  0.00     0.236 C 
HETATM    9  C   UNL     1     -46.024 -52.448  12.458  1.00  0.00     0.044 C 
BRANCH   8  10
HETATM   10  N   UNL     1     -44.672 -54.392  13.493  1.00  0.00     0.098 N 
HETATM   11  C   UNL     1     -45.927 -54.693  14.213  1.00  0.00     0.299 C 
HETATM   12  C   UNL     1     -45.998 -54.151  15.654  1.00  0.00     0.198 C 
HETATM   13  O   UNL     1     -44.863 -54.553  16.426  1.00  0.00    -0.388 OA
HETATM   14  C   UNL     1     -43.644 -54.117  15.809  1.00  0.00     0.198 C 
HETATM   15  C   UNL     1     -43.524 -54.668  14.378  1.00  0.00     0.299 C 
ENDBRANCH   8  10
ENDBRANCH   7   8
ENDBRANCH   1   7
BRANCH   4  16
HETATM   16  C   UNL     1     -41.434 -48.490  11.067  1.00  0.00     0.051 A 
HETATM   17  C   UNL     1     -40.323 -47.927  11.690  1.00  0.00     0.032 A 
HETATM   18  C   UNL     1     -39.955 -46.620  11.377  1.00  0.00     0.019 A 
HETATM   19  C   UNL     1     -40.744 -45.906  10.490  1.00  0.00     0.088 A 
HETATM   20  N   UNL     1     -41.850 -46.403   9.900  1.00  0.00    -0.373 N 
HETATM   21  C   UNL     1     -42.161 -47.691  10.187  1.00  0.00     0.117 A 
ATOM     22  HN  UNL     1     -42.423 -45.839   9.271  1.00  0.00     0.164 HD
ENDBRANCH   4  16
TORSDOF 4
ENDMDL
MODEL 5
REMARK VINA RESULT:      -5.4      2.328      7.309
REMARK  4 active torsions:
REMARK  status: ('A' for Active; 'I' for Inactive)
REMARK    1  A    between atoms: C_2  and  C_3 
REMARK    2  A    between atoms: C_2  and  N_15 
REMARK    3  A    between atoms: C_3  and  N_4 
REMARK       I    between atoms: N_4  and  C_5 
REMARK       I    between atoms: C_5  and  N_7 
REMARK    4  A    between atoms: N_7  and  C_8 
ROOT
HETATM    1  N   UNL     1     -43.428 -51.870  12.723  1.00  0.00    -0.341 N 
HETATM    2  C   UNL     1     -42.139 -51.858  12.237  1.00  0.00     0.320 C 
HETATM    3  O   UNL     1     -41.694 -52.730  11.500  1.00  0.00    -0.247 OA
HETATM    4  N   UNL     1     -41.423 -50.812  12.769  1.00  0.00    -0.308 N 
HETATM    5  H   UNL     1     -43.897 -50.972  12.699  1.00  0.00     0.164 HD
HETATM    6  H   UNL     1     -41.730 -50.558  13.699  1.00  0.00     0.170 HD
ENDROOT
BRANCH   1   7
HETATM    7  C   UNL     1     -44.272 -53.011  12.425  1.00  0.00     0.159 C 
BRANCH   7   8
HETATM    8  C   UNL     1     -45.692 -52.854  13.019  1.00  0.00     0.236 C 
HETATM    9  C   UNL     1     -45.881 -51.394  13.436  1.00  0.00     0.044 C 
BRANCH   8  10
HETATM   10  N   UNL     1     -46.004 -53.911  14.009  1.00  0.00     0.098 N 
HETATM   11  C   UNL     1     -46.085 -53.444  15.408  1.00  0.00     0.299 C 
HETATM   12  C   UNL     1     -44.753 -53.471  16.183  1.00  0.00     0.198 C 
HETATM   13  O   UNL     1     -44.127 -54.755  16.113  1.00  0.00    -0.388 OA
HETATM   14  C   UNL     1     -43.898 -55.140  14.751  1.00  0.00     0.198 C 
HETATM   15  C   UNL     1     -45.214 -55.156  13.955  1.00  0.00     0.299 C 
ENDBRANCH   8  10
ENDBRANCH   7   8
ENDBRANCH   1   7
BRANCH   4  16
HETATM   16  C   UNL     1     -40.064 -50.609  12.461  1.00  0.00     0.051 A 
HETATM   17  C   UNL     1     -39.091 -51.116  13.320  1.00  0.00     0.032 A 
HETATM   18  C   UNL     1     -37.746 -50.967  12.989  1.00  0.00     0.019 A 
HETATM   19  C   UNL     1     -37.422 -50.268  11.837  1.00  0.00     0.088 A 
HETATM   20  N   UNL     1     -38.334 -49.727  11.005  1.00  0.00    -0.373 N 
HETATM   21  C   UNL     1     -39.637 -49.925  11.325  1.00  0.00     0.117 A 
ATOM     22  HN  UNL     1     -38.060 -49.196  10.178  1.00  0.00     0.164 HD
ENDBRANCH   4  16
TORSDOF 4
ENDMDL
MODEL 6
REMARK VINA RESULT:      -5.3      2.084      2.861
REMARK  4 active torsions:
REMARK  status: ('A' for Active; 'I' for Inactive)
REMARK    1  A    between atoms: C_2  and  C_3 
REMARK    2  A    between atoms: C_2  and  N_15 
REMARK    3  A    between atoms: C_3  and  N_4 
REMARK       I    between atoms: N_4  and  C_5 
REMARK       I    between atoms: C_5  and  N_7 
REMARK    4  A    between atoms: N_7  and  C_8 
ROOT
HETATM    1  N   UNL     1     -43.277 -49.258  12.126  1.00  0.00    -0.341 N 
HETATM    2  C   UNL     1     -43.677 -50.252  12.992  1.00  0.00     0.320 C 
HETATM    3  O   UNL     1     -42.954 -50.701  13.874  1.00  0.00    -0.247 OA
HETATM    4  N   UNL     1     -44.927 -50.717  12.661  1.00  0.00    -0.308 N 
HETATM    5  H   UNL     1     -43.972 -48.540  11.955  1.00  0.00     0.164 HD
HETATM    6  H   UNL     1     -45.122 -50.652  11.671  1.00  0.00     0.170 HD
ENDROOT
BRANCH   1   7
HETATM    7  C   UNL     1     -41.909 -48.782  12.198  1.00  0.00     0.159 C 
BRANCH   7   8
HETATM    8  C   UNL     1     -41.665 -47.571  11.268  1.00  0.00     0.236 C 
HETATM    9  C   UNL     1     -42.368 -47.837   9.935  1.00  0.00     0.044 C 
BRANCH   8  10
HETATM   10  N   UNL     1     -40.240 -47.166  11.239  1.00  0.00     0.098 N 
HETATM   11  C   UNL     1     -39.512 -47.370  12.508  1.00  0.00     0.299 C 
HETATM   12  C   UNL     1     -39.564 -46.182  13.488  1.00  0.00     0.198 C 
HETATM   13  O   UNL     1     -39.156 -44.962  12.861  1.00  0.00    -0.388 OA
HETATM   14  C   UNL     1     -39.972 -44.677  11.717  1.00  0.00     0.198 C 
HETATM   15  C   UNL     1     -39.918 -45.830  10.701  1.00  0.00     0.299 C 
ENDBRANCH   8  10
ENDBRANCH   7   8
ENDBRANCH   1   7
BRANCH   4  16
HETATM   16  C   UNL     1     -45.541 -51.768  13.371  1.00  0.00     0.051 A 
HETATM   17  C   UNL     1     -46.342 -51.465  14.470  1.00  0.00     0.032 A 
HETATM   18  C   UNL     1     -46.997 -52.496  15.141  1.00  0.00     0.019 A 
HETATM   19  C   UNL     1     -46.783 -53.799  14.719  1.00  0.00     0.088 A 
HETATM   20  N   UNL     1     -45.982 -54.133  13.687  1.00  0.00    -0.373 N 
HETATM   21  C   UNL     1     -45.393 -53.108  13.023  1.00  0.00     0.117 A 
ATOM     22  HN  UNL     1     -45.827 -55.105  13.420  1.00  0.00     0.164 HD
ENDBRANCH   4  16
TORSDOF 4
ENDMDL
MODEL 7
REMARK VINA RESULT:      -5.3      1.996      6.716
REMARK  4 active torsions:
REMARK  status: ('A' for Active; 'I' for Inactive)
REMARK    1  A    between atoms: C_2  and  C_3 
REMARK    2  A    between atoms: C_2  and  N_15 
REMARK    3  A    between atoms: C_3  and  N_4 
REMARK       I    between atoms: N_4  and  C_5 
REMARK       I    between atoms: C_5  and  N_7 
REMARK    4  A    between atoms: N_7  and  C_8 
ROOT
HETATM    1  N   UNL     1     -41.393 -51.322  11.388  1.00  0.00    -0.341 N 
HETATM    2  C   UNL     1     -41.238 -50.018  11.804  1.00  0.00     0.320 C 
HETATM    3  O   UNL     1     -40.641 -49.710  12.829  1.00  0.00    -0.247 OA
HETATM    4  N   UNL     1     -41.919 -49.155  10.979  1.00  0.00    -0.308 N 
HETATM    5  H   UNL     1     -41.246 -51.470  10.397  1.00  0.00     0.164 HD
HETATM    6  H   UNL     1     -42.742 -49.573  10.566  1.00  0.00     0.170 HD
ENDROOT
BRANCH   1   7
HETATM    7  C   UNL     1     -40.910 -52.387  12.245  1.00  0.00     0.159 C 
BRANCH   7   8
HETATM    8  C   UNL     1     -41.987 -52.861  13.248  1.00  0.00     0.236 C 
HETATM    9  C   UNL     1     -41.599 -54.253  13.751  1.00  0.00     0.044 C 
BRANCH   8  10
HETATM   10  N   UNL     1     -43.360 -52.662  12.729  1.00  0.00     0.098 N 
HETATM   11  C   UNL     1     -44.162 -51.664  13.465  1.00  0.00     0.299 C 
HETATM   12  C   UNL     1     -44.969 -52.223  14.654  1.00  0.00     0.198 C 
HETATM   13  O   UNL     1     -45.779 -53.336  14.266  1.00  0.00    -0.388 OA
HETATM   14  C   UNL     1     -44.976 -54.379  13.696  1.00  0.00     0.198 C 
HETATM   15  C   UNL     1     -44.182 -53.863  12.485  1.00  0.00     0.299 C 
ENDBRANCH   8  10
ENDBRANCH   7   8
ENDBRANCH   1   7
BRANCH   4  16
HETATM   16  C   UNL     1     -41.951 -47.767  11.219  1.00  0.00     0.051 A 
HETATM   17  C   UNL     1     -40.881 -46.981  10.798  1.00  0.00     0.032 A 
HETATM   18  C   UNL     1     -40.935 -45.602  10.982  1.00  0.00     0.019 A 
HETATM   19  C   UNL     1     -42.036 -45.064  11.629  1.00  0.00     0.088 A 
HETATM   20  N   UNL     1     -43.070 -45.797  12.088  1.00  0.00    -0.373 N 
HETATM   21  C   UNL     1     -43.015 -47.132  11.856  1.00  0.00     0.117 A 
ATOM     22  HN  UNL     1     -43.853 -45.370  12.584  1.00  0.00     0.164 HD
ENDBRANCH   4  16
TORSDOF 4
ENDMDL
MODEL 8
REMARK VINA RESULT:      -5.3      2.592      7.476
REMARK  4 active torsions:
REMARK  status: ('A' for Active; 'I' for Inactive)
REMARK    1  A    between atoms: C_2  and  C_3 
REMARK    2  A    between atoms: C_2  and  N_15 
REMARK    3  A    between atoms: C_3  and  N_4 
REMARK       I    between atoms: N_4  and  C_5 
REMARK       I    between atoms: C_5  and  N_7 
REMARK    4  A    between atoms: N_7  and  C_8 
ROOT
HETATM    1  N   UNL     1     -43.792 -50.107  14.573  1.00  0.00    -0.341 N 
HETATM    2  C   UNL     1     -42.567 -50.459  14.050  1.00  0.00     0.320 C 
HETATM    3  O   UNL     1     -42.034 -51.542  14.264  1.00  0.00    -0.247 OA
HETATM    4  N   UNL     1     -42.008 -49.409  13.360  1.00  0.00    -0.308 N 
HETATM    5  H   UNL     1     -44.413 -49.642  13.922  1.00  0.00     0.164 HD
HETATM    6  H   UNL     1     -42.281 -48.507  13.728  1.00  0.00     0.170 HD
ENDROOT
BRANCH   1   7
HETATM    7  C   UNL     1     -44.442 -51.020  15.494  1.00  0.00     0.159 C 
BRANCH   7   8
HETATM    8  C   UNL     1     -45.359 -52.027  14.764  1.00  0.00     0.236 C 
HETATM    9  C   UNL     1     -46.651 -51.307  14.371  1.00  0.00     0.044 C 
BRANCH   8  10
HETATM   10  N   UNL     1     -45.469 -53.313  15.491  1.00  0.00     0.098 N 
HETATM   11  C   UNL     1     -44.184 -53.876  15.952  1.00  0.00     0.299 C 
HETATM   12  C   UNL     1     -43.478 -54.802  14.943  1.00  0.00     0.198 C 
HETATM   13  O   UNL     1     -44.347 -55.840  14.480  1.00  0.00    -0.388 OA
HETATM   14  C   UNL     1     -45.529 -55.289  13.882  1.00  0.00     0.198 C 
HETATM   15  C   UNL     1     -46.277 -54.383  14.875  1.00  0.00     0.299 C 
ENDBRANCH   8  10
ENDBRANCH   7   8
ENDBRANCH   1   7
BRANCH   4  16
HETATM   16  C   UNL     1     -40.734 -49.505  12.766  1.00  0.00     0.051 A 
HETATM   17  C   UNL     1     -39.614 -49.119  13.499  1.00  0.00     0.032 A 
HETATM   18  C   UNL     1     -38.348 -49.265  12.936  1.00  0.00     0.019 A 
HETATM   19  C   UNL     1     -38.253 -49.743  11.639  1.00  0.00     0.088 A 
HETATM   20  N   UNL     1     -39.317 -50.086  10.884  1.00  0.00    -0.373 N 
HETATM   21  C   UNL     1     -40.534 -49.977  11.471  1.00  0.00     0.117 A 
ATOM     22  HN  UNL     1     -39.211 -50.410   9.923  1.00  0.00     0.164 HD
ENDBRANCH   4  16
TORSDOF 4
ENDMDL
MODEL 9
REMARK VINA RESULT:      -5.1      2.148      2.665
REMARK  4 active torsions:
REMARK  status: ('A' for Active; 'I' for Inactive)
REMARK    1  A    between atoms: C_2  and  C_3 
REMARK    2  A    between atoms: C_2  and  N_15 
REMARK    3  A    between atoms: C_3  and  N_4 
REMARK       I    between atoms: N_4  and  C_5 
REMARK       I    between atoms: C_5  and  N_7 
REMARK    4  A    between atoms: N_7  and  C_8 
ROOT
HETATM    1  N   UNL     1     -41.022 -51.702  12.349  1.00  0.00    -0.341 N 
HETATM    2  C   UNL     1     -42.087 -51.961  13.183  1.00  0.00     0.320 C 
HETATM    3  O   UNL     1     -41.958 -52.211  14.376  1.00  0.00    -0.247 OA
HETATM    4  N   UNL     1     -43.266 -51.997  12.476  1.00  0.00    -0.308 N 
HETATM    5  H   UNL     1     -41.163 -50.929  11.710  1.00  0.00     0.164 HD
HETATM    6  H   UNL     1     -43.143 -52.311  11.523  1.00  0.00     0.170 HD
ENDROOT
BRANCH   1   7
HETATM    7  C   UNL     1     -39.678 -51.819  12.882  1.00  0.00     0.159 C 
BRANCH   7   8
HETATM    8  C   UNL     1     -38.923 -50.470  12.855  1.00  0.00     0.236 C 
HETATM    9  C   UNL     1     -37.486 -50.731  12.398  1.00  0.00     0.044 C 
BRANCH   8  10
HETATM   10  N   UNL     1     -39.130 -49.687  14.095  1.00  0.00     0.098 N 
HETATM   11  C   UNL     1     -40.121 -48.597  13.981  1.00  0.00     0.299 C 
HETATM   12  C   UNL     1     -39.548 -47.240  13.526  1.00  0.00     0.198 C 
HETATM   13  O   UNL     1     -38.441 -46.835  14.337  1.00  0.00    -0.388 OA
HETATM   14  C   UNL     1     -37.404 -47.825  14.318  1.00  0.00     0.198 C 
HETATM   15  C   UNL     1     -37.933 -49.187  14.799  1.00  0.00     0.299 C 
ENDBRANCH   8  10
ENDBRANCH   7   8
ENDBRANCH   1   7
BRANCH   4  16
HETATM   16  C   UNL     1     -44.496 -52.288  13.098  1.00  0.00     0.051 A 
HETATM   17  C   UNL     1     -45.249 -51.244  13.632  1.00  0.00     0.032 A 
HETATM   18  C   UNL     1     -46.493 -51.520  14.196  1.00  0.00     0.019 A 
HETATM   19  C   UNL     1     -46.914 -52.839  14.253  1.00  0.00     0.088 A 
HETATM   20  N   UNL     1     -46.195 -53.879  13.785  1.00  0.00    -0.373 N 
HETATM   21  C   UNL     1     -45.009 -53.579  13.200  1.00  0.00     0.117 A 
ATOM     22  HN  UNL     1     -46.524 -54.841  13.867  1.00  0.00     0.164 HD
ENDBRANCH   4  16
TORSDOF 4
ENDMDL
