MODEL 1
REMARK VINA RESULT:      -5.5      0.000      0.000
REMARK  4 active torsions:
REMARK  status: ('A' for Active; 'I' for Inactive)
REMARK    1  A    between atoms: C_5  and  C_14 
REMARK    2  A    between atoms: C_6  and  C_11 
REMARK    3  A    between atoms: C_7  and  O_8 
REMARK    4  A    between atoms: C_11  and  O_13 
ROOT
HETATM    1  C   UNL     2     -40.943 -45.239  10.416  1.00  0.00     0.153 C 
HETATM    2  N   UNL     2     -41.500 -46.393  11.092  1.00  0.00    -0.344 N 
HETATM    3  C   UNL     2     -41.787 -47.658  10.452  1.00  0.00     0.140 C 
HETATM    4  C   UNL     2     -41.893 -48.676  11.632  1.00  0.00     0.149 C 
HETATM    5  C   UNL     2     -41.572 -47.869  12.919  1.00  0.00     0.226 C 
HETATM    6  C   UNL     2     -41.512 -46.470  12.432  1.00  0.00     0.249 C 
HETATM    7  O   UNL     2     -41.276 -45.515  13.159  1.00  0.00    -0.270 OA
ENDROOT
BRANCH   3   8
HETATM    8  C   UNL     2     -43.099 -47.637   9.676  1.00  0.00    -0.000 A 
HETATM    9  C   UNL     2     -43.250 -47.742   8.295  1.00  0.00     0.118 A 
HETATM   10  N   UNL     2     -44.544 -47.626   7.975  1.00  0.00    -0.310 N 
HETATM   11  N   UNL     2     -45.229 -47.460   9.097  1.00  0.00    -0.307 N 
ATOM     12  HN  UNL     2     -44.935 -47.659   7.034  1.00  0.00     0.186 HD
HETATM   13  C   UNL     2     -46.682 -47.292   9.135  1.00  0.00     0.177 C 
HETATM   14  C   UNL     2     -44.389 -47.462  10.149  1.00  0.00     0.120 A 
ENDBRANCH   3   8
BRANCH   4  15
HETATM   15  C   UNL     2     -41.045 -49.914  11.418  1.00  0.00     0.149 C 
HETATM   16  O   UNL     2     -41.014 -50.792  12.269  1.00  0.00    -0.650 OA
BRANCH  15  17
HETATM   17  O   UNL     2     -40.307 -50.067  10.299  1.00  0.00    -0.776 OA
HETATM   18  H   UNL     2     -40.019 -50.937   9.992  1.00  0.00     0.167 HD
ENDBRANCH  15  17
ENDBRANCH   4  15
BRANCH   5  19
HETATM   19  O   UNL     2     -40.321 -48.201  13.476  1.00  0.00    -0.385 OA
HETATM   20  H   UNL     2     -39.851 -47.361  13.731  1.00  0.00     0.210 HD
ENDBRANCH   5  19
TORSDOF 4
ENDMDL
MODEL 2
REMARK VINA RESULT:      -5.4      3.011      4.536
REMARK  4 active torsions:
REMARK  status: ('A' for Active; 'I' for Inactive)
REMARK    1  A    between atoms: C_5  and  C_14 
REMARK    2  A    between atoms: C_6  and  C_11 
REMARK    3  A    between atoms: C_7  and  O_8 
REMARK    4  A    between atoms: C_11  and  O_13 
ROOT
HETATM    1  C   UNL     2     -42.960 -46.352  13.413  1.00  0.00     0.153 C 
HETATM    2  N   UNL     2     -42.757 -46.474  11.984  1.00  0.00    -0.344 N 
HETATM    3  C   UNL     2     -43.123 -47.633  11.199  1.00  0.00     0.140 C 
HETATM    4  C   UNL     2     -43.162 -47.111   9.728  1.00  0.00     0.149 C 
HETATM    5  C   UNL     2     -42.860 -45.591   9.809  1.00  0.00     0.226 C 
HETATM    6  C   UNL     2     -42.483 -45.398  11.230  1.00  0.00     0.249 C 
HETATM    7  O   UNL     2     -42.171 -44.313  11.701  1.00  0.00    -0.270 OA
ENDROOT
BRANCH   3   8
HETATM    8  C   UNL     2     -42.107 -48.763  11.314  1.00  0.00    -0.000 A 
HETATM    9  C   UNL     2     -40.962 -48.934  10.540  1.00  0.00     0.118 A 
HETATM   10  N   UNL     2     -40.347 -50.070  10.892  1.00  0.00    -0.310 N 
HETATM   11  N   UNL     2     -41.047 -50.628  11.868  1.00  0.00    -0.307 N 
ATOM     12  HN  UNL     2     -39.490 -50.440  10.481  1.00  0.00     0.186 HD
HETATM   13  C   UNL     2     -40.676 -51.893  12.503  1.00  0.00     0.177 C 
HETATM   14  C   UNL     2     -42.121 -49.866  12.152  1.00  0.00     0.120 A 
ENDBRANCH   3   8
BRANCH   4  15
HETATM   15  C   UNL     2     -44.445 -47.477   9.008  1.00  0.00     0.149 C 
HETATM   16  O   UNL     2     -45.522 -47.355   9.573  1.00  0.00    -0.650 OA
BRANCH  15  17
HETATM   17  O   UNL     2     -44.422 -47.950   7.744  1.00  0.00    -0.776 OA
HETATM   18  H   UNL     2     -44.089 -48.832   7.535  1.00  0.00     0.167 HD
ENDBRANCH  15  17
ENDBRANCH   4  15
BRANCH   5  19
HETATM   19  O   UNL     2     -43.989 -44.793   9.535  1.00  0.00    -0.385 OA
HETATM   20  H   UNL     2     -43.893 -43.926  10.016  1.00  0.00     0.210 HD
ENDBRANCH   5  19
TORSDOF 4
ENDMDL
MODEL 3
REMARK VINA RESULT:      -5.3      6.287      7.621
REMARK  4 active torsions:
REMARK  status: ('A' for Active; 'I' for Inactive)
REMARK    1  A    between atoms: C_5  and  C_14 
REMARK    2  A    between atoms: C_6  and  C_11 
REMARK    3  A    between atoms: C_7  and  O_8 
REMARK    4  A    between atoms: C_11  and  O_13 
ROOT
HETATM    1  C   UNL     2     -40.886 -53.414  17.028  1.00  0.00     0.153 C 
HETATM    2  N   UNL     2     -40.932 -53.888  15.659  1.00  0.00    -0.344 N 
HETATM    3  C   UNL     2     -41.673 -53.248  14.594  1.00  0.00     0.140 C 
HETATM    4  C   UNL     2     -41.037 -53.811  13.284  1.00  0.00     0.149 C 
HETATM    5  C   UNL     2     -39.873 -54.731  13.739  1.00  0.00     0.226 C 
HETATM    6  C   UNL     2     -40.046 -54.791  15.210  1.00  0.00     0.249 C 
HETATM    7  O   UNL     2     -39.308 -55.428  15.948  1.00  0.00    -0.270 OA
ENDROOT
BRANCH   3   8
HETATM    8  C   UNL     2     -43.158 -53.587  14.629  1.00  0.00    -0.000 A 
HETATM    9  C   UNL     2     -43.726 -54.852  14.490  1.00  0.00     0.118 A 
HETATM   10  N   UNL     2     -45.061 -54.751  14.518  1.00  0.00    -0.310 N 
HETATM   11  N   UNL     2     -45.370 -53.472  14.677  1.00  0.00    -0.307 N 
ATOM     12  HN  UNL     2     -45.722 -55.521  14.431  1.00  0.00     0.186 HD
HETATM   13  C   UNL     2     -46.746 -52.980  14.747  1.00  0.00     0.177 C 
HETATM   14  C   UNL     2     -44.244 -52.736  14.750  1.00  0.00     0.120 A 
ENDBRANCH   3   8
BRANCH   4  15
HETATM   15  C   UNL     2     -40.655 -52.722  12.301  1.00  0.00     0.149 C 
HETATM   16  O   UNL     2     -39.786 -51.912  12.590  1.00  0.00    -0.650 OA
BRANCH  15  17
HETATM   17  O   UNL     2     -41.265 -52.622  11.101  1.00  0.00    -0.776 OA
HETATM   18  H   UNL     2     -41.733 -53.367  10.703  1.00  0.00     0.167 HD
ENDBRANCH  15  17
ENDBRANCH   4  15
BRANCH   5  19
HETATM   19  O   UNL     2     -38.604 -54.185  13.460  1.00  0.00    -0.385 OA
HETATM   20  H   UNL     2     -38.483 -54.142  12.472  1.00  0.00     0.210 HD
ENDBRANCH   5  19
TORSDOF 4
ENDMDL
MODEL 4
REMARK VINA RESULT:      -5.1      7.047      8.727
REMARK  4 active torsions:
REMARK  status: ('A' for Active; 'I' for Inactive)
REMARK    1  A    between atoms: C_5  and  C_14 
REMARK    2  A    between atoms: C_6  and  C_11 
REMARK    3  A    between atoms: C_7  and  O_8 
REMARK    4  A    between atoms: C_11  and  O_13 
ROOT
HETATM    1  C   UNL     2     -41.915 -56.077  16.735  1.00  0.00     0.153 C 
HETATM    2  N   UNL     2     -42.783 -55.050  16.192  1.00  0.00    -0.344 N 
HETATM    3  C   UNL     2     -43.009 -54.830  14.780  1.00  0.00     0.140 C 
HETATM    4  C   UNL     2     -44.327 -53.995  14.723  1.00  0.00     0.149 C 
HETATM    5  C   UNL     2     -44.807 -53.858  16.193  1.00  0.00     0.226 C 
HETATM    6  C   UNL     2     -43.676 -54.418  16.970  1.00  0.00     0.249 C 
HETATM    7  O   UNL     2     -43.669 -54.491  18.191  1.00  0.00    -0.270 OA
ENDROOT
BRANCH   3   8
HETATM    8  C   UNL     2     -41.879 -54.047  14.122  1.00  0.00    -0.000 A 
HETATM    9  C   UNL     2     -41.285 -54.319  12.892  1.00  0.00     0.118 A 
HETATM   10  N   UNL     2     -40.291 -53.451  12.671  1.00  0.00    -0.310 N 
HETATM   11  N   UNL     2     -40.230 -52.627  13.707  1.00  0.00    -0.307 N 
ATOM     12  HN  UNL     2     -39.686 -53.427  11.850  1.00  0.00     0.186 HD
HETATM   13  C   UNL     2     -39.253 -51.543  13.817  1.00  0.00     0.177 C 
HETATM   14  C   UNL     2     -41.177 -52.956  14.607  1.00  0.00     0.120 A 
ENDBRANCH   3   8
BRANCH   4  15
HETATM   15  C   UNL     2     -45.348 -54.573  13.762  1.00  0.00     0.149 C 
HETATM   16  O   UNL     2     -45.687 -55.744  13.858  1.00  0.00    -0.650 OA
BRANCH  15  17
HETATM   17  O   UNL     2     -45.891 -53.816  12.786  1.00  0.00    -0.776 OA
HETATM   18  H   UNL     2     -46.471 -53.069  12.982  1.00  0.00     0.167 HD
ENDBRANCH  15  17
ENDBRANCH   4  15
BRANCH   5  19
HETATM   19  O   UNL     2     -45.958 -54.623  16.467  1.00  0.00    -0.385 OA
HETATM   20  H   UNL     2     -46.164 -55.187  15.671  1.00  0.00     0.210 HD
ENDBRANCH   5  19
TORSDOF 4
ENDMDL
MODEL 5
REMARK VINA RESULT:      -5.1      5.890      7.398
REMARK  4 active torsions:
REMARK  status: ('A' for Active; 'I' for Inactive)
REMARK    1  A    between atoms: C_5  and  C_14 
REMARK    2  A    between atoms: C_6  and  C_11 
REMARK    3  A    between atoms: C_7  and  O_8 
REMARK    4  A    between atoms: C_11  and  O_13 
ROOT
HETATM    1  C   UNL     2     -44.819 -50.914  13.536  1.00  0.00     0.153 C 
HETATM    2  N   UNL     2     -44.255 -52.243  13.411  1.00  0.00    -0.344 N 
HETATM    3  C   UNL     2     -43.058 -52.693  14.087  1.00  0.00     0.140 C 
HETATM    4  C   UNL     2     -43.142 -54.251  14.030  1.00  0.00     0.149 C 
HETATM    5  C   UNL     2     -44.494 -54.579  13.341  1.00  0.00     0.226 C 
HETATM    6  C   UNL     2     -44.971 -53.251  12.888  1.00  0.00     0.249 C 
HETATM    7  O   UNL     2     -46.026 -53.083  12.292  1.00  0.00    -0.270 OA
ENDROOT
BRANCH   3   8
HETATM    8  C   UNL     2     -41.784 -52.223  13.397  1.00  0.00    -0.000 A 
HETATM    9  C   UNL     2     -41.580 -52.094  12.025  1.00  0.00     0.118 A 
HETATM   10  N   UNL     2     -40.319 -51.710  11.792  1.00  0.00    -0.310 N 
HETATM   11  N   UNL     2     -39.709 -51.580  12.961  1.00  0.00    -0.307 N 
ATOM     12  HN  UNL     2     -39.901 -51.546  10.877  1.00  0.00     0.186 HD
HETATM   13  C   UNL     2     -38.309 -51.177  13.098  1.00  0.00     0.177 C 
HETATM   14  C   UNL     2     -40.564 -51.881  13.958  1.00  0.00     0.120 A 
ENDBRANCH   3   8
BRANCH   4  15
HETATM   15  C   UNL     2     -42.932 -54.902  15.383  1.00  0.00     0.149 C 
HETATM   16  O   UNL     2     -43.079 -56.109  15.513  1.00  0.00    -0.650 OA
BRANCH  15  17
HETATM   17  O   UNL     2     -42.591 -54.168  16.463  1.00  0.00    -0.776 OA
HETATM   18  H   UNL     2     -43.082 -54.223  17.293  1.00  0.00     0.167 HD
ENDBRANCH  15  17
ENDBRANCH   4  15
BRANCH   5  19
HETATM   19  O   UNL     2     -45.446 -55.115  14.231  1.00  0.00    -0.385 OA
HETATM   20  H   UNL     2     -45.888 -54.365  14.716  1.00  0.00     0.210 HD
ENDBRANCH   5  19
TORSDOF 4
ENDMDL
MODEL 6
REMARK VINA RESULT:      -5.0      2.363      3.616
REMARK  4 active torsions:
REMARK  status: ('A' for Active; 'I' for Inactive)
REMARK    1  A    between atoms: C_5  and  C_14 
REMARK    2  A    between atoms: C_6  and  C_11 
REMARK    3  A    between atoms: C_7  and  O_8 
REMARK    4  A    between atoms: C_11  and  O_13 
ROOT
HETATM    1  C   UNL     2     -42.110 -48.761  14.169  1.00  0.00     0.153 C 
HETATM    2  N   UNL     2     -41.475 -49.379  13.023  1.00  0.00    -0.344 N 
HETATM    3  C   UNL     2     -40.495 -48.730  12.180  1.00  0.00     0.140 C 
HETATM    4  C   UNL     2     -39.784 -49.905  11.435  1.00  0.00     0.149 C 
HETATM    5  C   UNL     2     -40.412 -51.207  11.998  1.00  0.00     0.226 C 
HETATM    6  C   UNL     2     -41.530 -50.707  12.835  1.00  0.00     0.249 C 
HETATM    7  O   UNL     2     -42.280 -51.441  13.462  1.00  0.00    -0.270 OA
ENDROOT
BRANCH   3   8
HETATM    8  C   UNL     2     -41.129 -47.789  11.163  1.00  0.00    -0.000 A 
HETATM    9  C   UNL     2     -40.675 -46.520  10.808  1.00  0.00     0.118 A 
HETATM   10  N   UNL     2     -41.519 -45.971   9.926  1.00  0.00    -0.310 N 
HETATM   11  N   UNL     2     -42.491 -46.842   9.695  1.00  0.00    -0.307 N 
ATOM     12  HN  UNL     2     -41.430 -45.047   9.506  1.00  0.00     0.186 HD
HETATM   13  C   UNL     2     -43.605 -46.581   8.783  1.00  0.00     0.177 C 
HETATM   14  C   UNL     2     -42.289 -47.955  10.426  1.00  0.00     0.120 A 
ENDBRANCH   3   8
BRANCH   4  15
HETATM   15  C   UNL     2     -38.272 -49.827  11.521  1.00  0.00     0.149 C 
HETATM   16  O   UNL     2     -37.732 -49.542  12.580  1.00  0.00    -0.650 OA
BRANCH  15  17
HETATM   17  O   UNL     2     -37.501 -50.058  10.439  1.00  0.00    -0.776 OA
HETATM   18  H   UNL     2     -37.646 -50.820   9.862  1.00  0.00     0.167 HD
ENDBRANCH  15  17
ENDBRANCH   4  15
BRANCH   5  19
HETATM   19  O   UNL     2     -39.526 -51.929  12.823  1.00  0.00    -0.385 OA
HETATM   20  H   UNL     2     -39.203 -51.328  13.549  1.00  0.00     0.210 HD
ENDBRANCH   5  19
TORSDOF 4
ENDMDL
MODEL 7
REMARK VINA RESULT:      -5.0      2.896      4.418
REMARK  4 active torsions:
REMARK  status: ('A' for Active; 'I' for Inactive)
REMARK    1  A    between atoms: C_5  and  C_14 
REMARK    2  A    between atoms: C_6  and  C_11 
REMARK    3  A    between atoms: C_7  and  O_8 
REMARK    4  A    between atoms: C_11  and  O_13 
ROOT
HETATM    1  C   UNL     2     -43.303 -49.531  14.828  1.00  0.00     0.153 C 
HETATM    2  N   UNL     2     -43.105 -50.397  13.683  1.00  0.00    -0.344 N 
HETATM    3  C   UNL     2     -41.918 -50.403  12.855  1.00  0.00     0.140 C 
HETATM    4  C   UNL     2     -41.973 -51.773  12.108  1.00  0.00     0.149 C 
HETATM    5  C   UNL     2     -43.227 -52.506  12.655  1.00  0.00     0.226 C 
HETATM    6  C   UNL     2     -43.887 -51.469  13.484  1.00  0.00     0.249 C 
HETATM    7  O   UNL     2     -44.927 -51.661  14.098  1.00  0.00    -0.270 OA
ENDROOT
BRANCH   3   8
HETATM    8  C   UNL     2     -41.907 -49.267  11.840  1.00  0.00    -0.000 A 
HETATM    9  C   UNL     2     -40.818 -48.837  11.085  1.00  0.00     0.118 A 
HETATM   10  N   UNL     2     -41.174 -47.780  10.345  1.00  0.00    -0.310 N 
HETATM   11  N   UNL     2     -42.450 -47.521  10.589  1.00  0.00    -0.307 N 
ATOM     12  HN  UNL     2     -40.570 -47.264   9.705  1.00  0.00     0.186 HD
HETATM   13  C   UNL     2     -43.184 -46.423   9.959  1.00  0.00     0.177 C 
HETATM   14  C   UNL     2     -42.930 -48.401  11.489  1.00  0.00     0.120 A 
ENDBRANCH   3   8
BRANCH   4  15
HETATM   15  C   UNL     2     -40.675 -52.550  12.211  1.00  0.00     0.149 C 
HETATM   16  O   UNL     2     -39.721 -52.075  12.810  1.00  0.00    -0.650 OA
BRANCH  15  17
HETATM   17  O   UNL     2     -40.545 -53.767  11.641  1.00  0.00    -0.776 OA
HETATM   18  H   UNL     2     -40.708 -53.909  10.699  1.00  0.00     0.167 HD
ENDBRANCH  15  17
ENDBRANCH   4  15
BRANCH   5  19
HETATM   19  O   UNL     2     -42.904 -53.600  13.483  1.00  0.00    -0.385 OA
HETATM   20  H   UNL     2     -42.211 -54.152  13.027  1.00  0.00     0.210 HD
ENDBRANCH   5  19
TORSDOF 4
ENDMDL
MODEL 8
REMARK VINA RESULT:      -5.0      2.851      3.760
REMARK  4 active torsions:
REMARK  status: ('A' for Active; 'I' for Inactive)
REMARK    1  A    between atoms: C_5  and  C_14 
REMARK    2  A    between atoms: C_6  and  C_11 
REMARK    3  A    between atoms: C_7  and  O_8 
REMARK    4  A    between atoms: C_11  and  O_13 
ROOT
HETATM    1  C   UNL     2     -38.959 -46.296  13.673  1.00  0.00     0.153 C 
HETATM    2  N   UNL     2     -39.058 -47.738  13.579  1.00  0.00    -0.344 N 
HETATM    3  C   UNL     2     -39.114 -48.477  12.336  1.00  0.00     0.140 C 
HETATM    4  C   UNL     2     -38.730 -49.937  12.734  1.00  0.00     0.149 C 
HETATM    5  C   UNL     2     -38.404 -49.892  14.250  1.00  0.00     0.226 C 
HETATM    6  C   UNL     2     -38.805 -48.520  14.641  1.00  0.00     0.249 C 
HETATM    7  O   UNL     2     -38.700 -48.087  15.779  1.00  0.00    -0.270 OA
ENDROOT
BRANCH   3   8
HETATM    8  C   UNL     2     -40.504 -48.465  11.710  1.00  0.00    -0.000 A 
HETATM    9  C   UNL     2     -41.504 -49.418  11.890  1.00  0.00     0.118 A 
HETATM   10  N   UNL     2     -42.565 -49.102  11.137  1.00  0.00    -0.310 N 
HETATM   11  N   UNL     2     -42.287 -47.980  10.490  1.00  0.00    -0.307 N 
ATOM     12  HN  UNL     2     -43.434 -49.632  11.073  1.00  0.00     0.186 HD
HETATM   13  C   UNL     2     -43.218 -47.334   9.563  1.00  0.00     0.177 C 
HETATM   14  C   UNL     2     -41.048 -47.563  10.811  1.00  0.00     0.120 A 
ENDBRANCH   3   8
BRANCH   4  15
HETATM   15  C   UNL     2     -37.639 -50.518  11.855  1.00  0.00     0.149 C 
HETATM   16  O   UNL     2     -36.995 -51.485  12.236  1.00  0.00    -0.650 OA
BRANCH  15  17
HETATM   17  O   UNL     2     -37.355 -49.979  10.651  1.00  0.00    -0.776 OA
HETATM   18  H   UNL     2     -38.014 -49.929   9.946  1.00  0.00     0.167 HD
ENDBRANCH  15  17
ENDBRANCH   4  15
BRANCH   5  19
HETATM   19  O   UNL     2     -37.029 -50.049  14.519  1.00  0.00    -0.385 OA
HETATM   20  H   UNL     2     -36.587 -49.158  14.456  1.00  0.00     0.210 HD
ENDBRANCH   5  19
TORSDOF 4
ENDMDL
MODEL 9
REMARK VINA RESULT:      -4.9      2.851      4.516
REMARK  4 active torsions:
REMARK  status: ('A' for Active; 'I' for Inactive)
REMARK    1  A    between atoms: C_5  and  C_14 
REMARK    2  A    between atoms: C_6  and  C_11 
REMARK    3  A    between atoms: C_7  and  O_8 
REMARK    4  A    between atoms: C_11  and  O_13 
ROOT
HETATM    1  C   UNL     2     -41.228 -46.531  14.018  1.00  0.00     0.153 C 
HETATM    2  N   UNL     2     -40.884 -45.696  12.885  1.00  0.00    -0.344 N 
HETATM    3  C   UNL     2     -41.822 -45.258  11.874  1.00  0.00     0.140 C 
HETATM    4  C   UNL     2     -41.118 -44.043  11.190  1.00  0.00     0.149 C 
HETATM    5  C   UNL     2     -39.786 -43.837  11.959  1.00  0.00     0.226 C 
HETATM    6  C   UNL     2     -39.725 -45.019  12.852  1.00  0.00     0.249 C 
HETATM    7  O   UNL     2     -38.808 -45.224  13.634  1.00  0.00    -0.270 OA
ENDROOT
BRANCH   3   8
HETATM    8  C   UNL     2     -42.107 -46.336  10.834  1.00  0.00    -0.000 A 
HETATM    9  C   UNL     2     -41.462 -47.564  10.712  1.00  0.00     0.118 A 
HETATM   10  N   UNL     2     -41.943 -48.220   9.648  1.00  0.00    -0.310 N 
HETATM   11  N   UNL     2     -42.876 -47.463   9.090  1.00  0.00    -0.307 N 
ATOM     12  HN  UNL     2     -41.644 -49.139   9.325  1.00  0.00     0.186 HD
HETATM   13  C   UNL     2     -43.621 -47.856   7.893  1.00  0.00     0.177 C 
HETATM   14  C   UNL     2     -43.005 -46.314   9.780  1.00  0.00     0.120 A 
ENDBRANCH   3   8
BRANCH   4  15
HETATM   15  C   UNL     2     -42.010 -42.820  11.103  1.00  0.00     0.149 C 
HETATM   16  O   UNL     2     -43.106 -42.820  11.646  1.00  0.00    -0.650 OA
BRANCH  15  17
HETATM   17  O   UNL     2     -41.620 -41.722  10.423  1.00  0.00    -0.776 OA
HETATM   18  H   UNL     2     -41.178 -40.981  10.860  1.00  0.00     0.167 HD
ENDBRANCH  15  17
ENDBRANCH   4  15
BRANCH   5  19
HETATM   19  O   UNL     2     -39.789 -42.675  12.757  1.00  0.00    -0.385 OA
HETATM   20  H   UNL     2     -40.203 -41.931  12.238  1.00  0.00     0.210 HD
ENDBRANCH   5  19
TORSDOF 4
ENDMDL
