MODEL 1
REMARK VINA RESULT:      -6.0      0.000      0.000
REMARK  6 active torsions:
REMARK  status: ('A' for Active; 'I' for Inactive)
REMARK    1  A    between atoms: C_2  and  O_3 
REMARK    2  A    between atoms: C_2  and  C_7 
REMARK    3  A    between atoms: O_3  and  C_4 
REMARK    4  A    between atoms: C_4  and  C_5 
REMARK       I    between atoms: C_7  and  N_9 
REMARK    5  A    between atoms: N_9  and  C_10 
REMARK    6  A    between atoms: C_12  and  C_17 
ROOT
HETATM    1  C   UNL     1     -42.920 -47.190   9.833  1.00  0.00     0.104 A 
HETATM    2  C   UNL     1     -44.061 -47.879   9.659  1.00  0.00     0.052 A 
HETATM    3  C   UNL     1     -45.284 -47.259   9.194  1.00  0.00     0.065 A 
HETATM    4  C   UNL     1     -45.287 -45.930   8.994  1.00  0.00     0.107 A 
HETATM    5  N   UNL     1     -44.166 -45.172   9.248  1.00  0.00    -0.331 N 
HETATM    6  C   UNL     1     -42.963 -45.693   9.677  1.00  0.00     0.272 A 
HETATM    7  O   UNL     1     -41.962 -45.013   9.892  1.00  0.00    -0.266 OA
HETATM    8  H   UNL     1     -44.183 -44.170   9.091  1.00  0.00     0.168 HD
ENDROOT
BRANCH   1   9
HETATM    9  N   UNL     1     -41.706 -47.775  10.110  1.00  0.00    -0.320 N 
HETATM   10  C   UNL     1     -41.283 -48.039  11.406  1.00  0.00     0.251 C 
HETATM   11  O   UNL     1     -41.949 -47.787  12.410  1.00  0.00    -0.270 OA
HETATM   12  H   UNL     1     -41.311 -48.312   9.343  1.00  0.00     0.169 HD
BRANCH  10  13
HETATM   13  C   UNL     1     -39.907 -48.726  11.507  1.00  0.00     0.209 C 
HETATM   14  C   UNL     1     -39.405 -48.501  12.936  1.00  0.00     0.050 C 
BRANCH  13  15
HETATM   15  O   UNL     1     -39.920 -50.131  11.263  1.00  0.00    -0.373 OA
BRANCH  15  16
HETATM   16  C   UNL     1     -39.687 -50.910  12.431  1.00  0.00     0.195 C 
BRANCH  16  17
HETATM   17  C   UNL     1     -40.627 -52.070  12.450  1.00  0.00    -0.011 C 
HETATM   18  C   UNL     1     -41.935 -51.960  12.183  1.00  0.00     0.009 C 
ENDBRANCH  16  17
ENDBRANCH  15  16
ENDBRANCH  13  15
ENDBRANCH  10  13
ENDBRANCH   1   9
BRANCH   3  19
HETATM   19  C   UNL     1     -46.451 -48.156   8.890  1.00  0.00     0.418 C 
HETATM   20  F   UNL     1     -46.391 -48.724   7.656  1.00  0.00    -0.166 F 
HETATM   21  F   UNL     1     -46.537 -49.176   9.784  1.00  0.00    -0.166 F 
HETATM   22  F   UNL     1     -47.628 -47.480   8.953  1.00  0.00    -0.166 F 
ENDBRANCH   3  19
TORSDOF 6
ENDMDL
MODEL 2
REMARK VINA RESULT:      -5.8      4.368      6.282
REMARK  6 active torsions:
REMARK  status: ('A' for Active; 'I' for Inactive)
REMARK    1  A    between atoms: C_2  and  O_3 
REMARK    2  A    between atoms: C_2  and  C_7 
REMARK    3  A    between atoms: O_3  and  C_4 
REMARK    4  A    between atoms: C_4  and  C_5 
REMARK       I    between atoms: C_7  and  N_9 
REMARK    5  A    between atoms: N_9  and  C_10 
REMARK    6  A    between atoms: C_12  and  C_17 
ROOT
HETATM    1  C   UNL     1     -41.190 -50.882  11.972  1.00  0.00     0.104 A 
HETATM    2  C   UNL     1     -41.439 -49.597  11.667  1.00  0.00     0.052 A 
HETATM    3  C   UNL     1     -40.403 -48.585  11.648  1.00  0.00     0.065 A 
HETATM    4  C   UNL     1     -39.161 -48.940  12.014  1.00  0.00     0.107 A 
HETATM    5  N   UNL     1     -38.881 -50.225  12.423  1.00  0.00    -0.331 N 
HETATM    6  C   UNL     1     -39.809 -51.244  12.452  1.00  0.00     0.272 A 
HETATM    7  O   UNL     1     -39.552 -52.393  12.807  1.00  0.00    -0.266 OA
HETATM    8  H   UNL     1     -37.938 -50.478  12.695  1.00  0.00     0.168 HD
ENDROOT
BRANCH   1   9
HETATM    9  N   UNL     1     -42.112 -51.894  11.836  1.00  0.00    -0.320 N 
HETATM   10  C   UNL     1     -42.939 -52.295  12.877  1.00  0.00     0.251 C 
HETATM   11  O   UNL     1     -42.932 -51.782  13.996  1.00  0.00    -0.270 OA
HETATM   12  H   UNL     1     -42.399 -52.081  10.879  1.00  0.00     0.169 HD
BRANCH  10  13
HETATM   13  C   UNL     1     -43.925 -53.424  12.518  1.00  0.00     0.209 C 
HETATM   14  C   UNL     1     -44.003 -54.347  13.738  1.00  0.00     0.050 C 
BRANCH  13  15
HETATM   15  O   UNL     1     -45.249 -52.989  12.213  1.00  0.00    -0.373 OA
BRANCH  15  16
HETATM   16  C   UNL     1     -46.136 -53.056  13.325  1.00  0.00     0.195 C 
BRANCH  16  17
HETATM   17  C   UNL     1     -46.515 -51.674  13.742  1.00  0.00    -0.011 C 
HETATM   18  C   UNL     1     -46.878 -51.357  14.992  1.00  0.00     0.009 C 
ENDBRANCH  16  17
ENDBRANCH  15  16
ENDBRANCH  13  15
ENDBRANCH  10  13
ENDBRANCH   1   9
BRANCH   3  19
HETATM   19  C   UNL     1     -40.772 -47.219  11.143  1.00  0.00     0.418 C 
HETATM   20  F   UNL     1     -39.707 -46.499  10.698  1.00  0.00    -0.166 F 
HETATM   21  F   UNL     1     -41.650 -47.293  10.108  1.00  0.00    -0.166 F 
HETATM   22  F   UNL     1     -41.370 -46.475  12.110  1.00  0.00    -0.166 F 
ENDBRANCH   3  19
TORSDOF 6
ENDMDL
MODEL 3
REMARK VINA RESULT:      -5.8      5.699      7.036
REMARK  6 active torsions:
REMARK  status: ('A' for Active; 'I' for Inactive)
REMARK    1  A    between atoms: C_2  and  O_3 
REMARK    2  A    between atoms: C_2  and  C_7 
REMARK    3  A    between atoms: O_3  and  C_4 
REMARK    4  A    between atoms: C_4  and  C_5 
REMARK       I    between atoms: C_7  and  N_9 
REMARK    5  A    between atoms: N_9  and  C_10 
REMARK    6  A    between atoms: C_12  and  C_17 
ROOT
HETATM    1  C   UNL     1     -43.256 -53.598  14.347  1.00  0.00     0.104 A 
HETATM    2  C   UNL     1     -43.979 -52.643  13.737  1.00  0.00     0.052 A 
HETATM    3  C   UNL     1     -45.408 -52.757  13.531  1.00  0.00     0.065 A 
HETATM    4  C   UNL     1     -46.015 -53.895  13.908  1.00  0.00     0.107 A 
HETATM    5  N   UNL     1     -45.296 -54.937  14.452  1.00  0.00    -0.331 N 
HETATM    6  C   UNL     1     -43.939 -54.895  14.693  1.00  0.00     0.272 A 
HETATM    7  O   UNL     1     -43.304 -55.823  15.189  1.00  0.00    -0.266 OA
HETATM    8  H   UNL     1     -45.769 -55.788  14.733  1.00  0.00     0.168 HD
ENDROOT
BRANCH   1   9
HETATM    9  N   UNL     1     -41.936 -53.448  14.707  1.00  0.00    -0.320 N 
HETATM   10  C   UNL     1     -40.889 -53.787  13.860  1.00  0.00     0.251 C 
HETATM   11  O   UNL     1     -41.041 -54.236  12.725  1.00  0.00    -0.270 OA
HETATM   12  H   UNL     1     -41.774 -52.769  15.445  1.00  0.00     0.169 HD
BRANCH  10  13
HETATM   13  C   UNL     1     -39.484 -53.517  14.434  1.00  0.00     0.209 C 
HETATM   14  C   UNL     1     -38.918 -54.871  14.872  1.00  0.00     0.050 C 
BRANCH  13  15
HETATM   15  O   UNL     1     -38.563 -52.933  13.514  1.00  0.00    -0.373 OA
BRANCH  15  16
HETATM   16  C   UNL     1     -38.451 -51.520  13.647  1.00  0.00     0.195 C 
BRANCH  16  17
HETATM   17  C   UNL     1     -37.340 -51.027  12.780  1.00  0.00    -0.011 C 
HETATM   18  C   UNL     1     -37.539 -50.294  11.676  1.00  0.00     0.009 C 
ENDBRANCH  16  17
ENDBRANCH  15  16
ENDBRANCH  13  15
ENDBRANCH  10  13
ENDBRANCH   1   9
BRANCH   3  19
HETATM   19  C   UNL     1     -46.132 -51.563  12.979  1.00  0.00     0.418 C 
HETATM   20  F   UNL     1     -45.309 -50.525  12.668  1.00  0.00    -0.166 F 
HETATM   21  F   UNL     1     -46.809 -51.875  11.843  1.00  0.00    -0.166 F 
HETATM   22  F   UNL     1     -47.048 -51.084  13.861  1.00  0.00    -0.166 F 
ENDBRANCH   3  19
TORSDOF 6
ENDMDL
MODEL 4
REMARK VINA RESULT:      -5.8      1.209      1.779
REMARK  6 active torsions:
REMARK  status: ('A' for Active; 'I' for Inactive)
REMARK    1  A    between atoms: C_2  and  O_3 
REMARK    2  A    between atoms: C_2  and  C_7 
REMARK    3  A    between atoms: O_3  and  C_4 
REMARK    4  A    between atoms: C_4  and  C_5 
REMARK       I    between atoms: C_7  and  N_9 
REMARK    5  A    between atoms: N_9  and  C_10 
REMARK    6  A    between atoms: C_12  and  C_17 
ROOT
HETATM    1  C   UNL     1     -43.190 -47.261  10.428  1.00  0.00     0.104 A 
HETATM    2  C   UNL     1     -44.342 -47.895  10.150  1.00  0.00     0.052 A 
HETATM    3  C   UNL     1     -45.371 -47.314   9.312  1.00  0.00     0.065 A 
HETATM    4  C   UNL     1     -45.186 -46.066   8.852  1.00  0.00     0.107 A 
HETATM    5  N   UNL     1     -44.061 -45.345   9.189  1.00  0.00    -0.331 N 
HETATM    6  C   UNL     1     -43.034 -45.836   9.967  1.00  0.00     0.272 A 
HETATM    7  O   UNL     1     -42.028 -45.192  10.255  1.00  0.00    -0.266 OA
HETATM    8  H   UNL     1     -43.935 -44.404   8.832  1.00  0.00     0.168 HD
ENDROOT
BRANCH   1   9
HETATM    9  N   UNL     1     -42.129 -47.849  11.077  1.00  0.00    -0.320 N 
HETATM   10  C   UNL     1     -42.002 -47.840  12.460  1.00  0.00     0.251 C 
HETATM   11  O   UNL     1     -42.820 -47.323  13.221  1.00  0.00    -0.270 OA
HETATM   12  H   UNL     1     -41.654 -48.571  10.543  1.00  0.00     0.169 HD
BRANCH  10  13
HETATM   13  C   UNL     1     -40.761 -48.577  12.997  1.00  0.00     0.209 C 
HETATM   14  C   UNL     1     -41.185 -50.026  13.257  1.00  0.00     0.050 C 
BRANCH  13  15
HETATM   15  O   UNL     1     -39.646 -48.600  12.107  1.00  0.00    -0.373 OA
BRANCH  15  16
HETATM   16  C   UNL     1     -38.410 -48.881  12.756  1.00  0.00     0.195 C 
BRANCH  16  17
HETATM   17  C   UNL     1     -37.777 -50.075  12.123  1.00  0.00    -0.011 C 
HETATM   18  C   UNL     1     -37.172 -50.040  10.928  1.00  0.00     0.009 C 
ENDBRANCH  16  17
ENDBRANCH  15  16
ENDBRANCH  13  15
ENDBRANCH  10  13
ENDBRANCH   1   9
BRANCH   3  19
HETATM   19  C   UNL     1     -46.544 -48.178   8.947  1.00  0.00     0.418 C 
HETATM   20  F   UNL     1     -46.458 -48.712   7.700  1.00  0.00    -0.166 F 
HETATM   21  F   UNL     1     -46.679 -49.221   9.808  1.00  0.00    -0.166 F 
HETATM   22  F   UNL     1     -47.710 -47.480   8.993  1.00  0.00    -0.166 F 
ENDBRANCH   3  19
TORSDOF 6
ENDMDL
MODEL 5
REMARK VINA RESULT:      -5.7      5.038      6.856
REMARK  6 active torsions:
REMARK  status: ('A' for Active; 'I' for Inactive)
REMARK    1  A    between atoms: C_2  and  O_3 
REMARK    2  A    between atoms: C_2  and  C_7 
REMARK    3  A    between atoms: O_3  and  C_4 
REMARK    4  A    between atoms: C_4  and  C_5 
REMARK       I    between atoms: C_7  and  N_9 
REMARK    5  A    between atoms: N_9  and  C_10 
REMARK    6  A    between atoms: C_12  and  C_17 
ROOT
HETATM    1  C   UNL     1     -41.613 -50.761  12.096  1.00  0.00     0.104 A 
HETATM    2  C   UNL     1     -40.281 -50.799  11.917  1.00  0.00     0.052 A 
HETATM    3  C   UNL     1     -39.424 -49.665  12.196  1.00  0.00     0.065 A 
HETATM    4  C   UNL     1     -39.998 -48.515  12.584  1.00  0.00     0.107 A 
HETATM    5  N   UNL     1     -41.367 -48.405  12.691  1.00  0.00    -0.331 N 
HETATM    6  C   UNL     1     -42.244 -49.443  12.458  1.00  0.00     0.272 A 
HETATM    7  O   UNL     1     -43.465 -49.343  12.566  1.00  0.00    -0.266 OA
HETATM    8  H   UNL     1     -41.785 -47.530  12.987  1.00  0.00     0.168 HD
ENDROOT
BRANCH   1   9
HETATM    9  N   UNL     1     -42.430 -51.864  12.002  1.00  0.00    -0.320 N 
HETATM   10  C   UNL     1     -42.759 -52.645  13.103  1.00  0.00     0.251 C 
HETATM   11  O   UNL     1     -42.365 -52.419  14.247  1.00  0.00    -0.270 OA
HETATM   12  H   UNL     1     -43.045 -51.868  11.193  1.00  0.00     0.169 HD
BRANCH  10  13
HETATM   13  C   UNL     1     -43.710 -53.818  12.799  1.00  0.00     0.209 C 
HETATM   14  C   UNL     1     -44.044 -54.475  14.142  1.00  0.00     0.050 C 
BRANCH  13  15
HETATM   15  O   UNL     1     -44.938 -53.447  12.175  1.00  0.00    -0.373 OA
BRANCH  15  16
HETATM   16  C   UNL     1     -45.888 -52.894  13.080  1.00  0.00     0.195 C 
BRANCH  16  17
HETATM   17  C   UNL     1     -46.485 -51.664  12.483  1.00  0.00    -0.011 C 
HETATM   18  C   UNL     1     -47.237 -51.676  11.373  1.00  0.00     0.009 C 
ENDBRANCH  16  17
ENDBRANCH  15  16
ENDBRANCH  13  15
ENDBRANCH  10  13
ENDBRANCH   1   9
BRANCH   3  19
HETATM   19  C   UNL     1     -37.939 -49.874  12.107  1.00  0.00     0.418 C 
HETATM   20  F   UNL     1     -37.443 -49.717  10.850  1.00  0.00    -0.166 F 
HETATM   21  F   UNL     1     -37.267 -48.999  12.901  1.00  0.00    -0.166 F 
HETATM   22  F   UNL     1     -37.586 -51.122  12.513  1.00  0.00    -0.166 F 
ENDBRANCH   3  19
TORSDOF 6
ENDMDL
MODEL 6
REMARK VINA RESULT:      -5.7      3.758      6.838
REMARK  6 active torsions:
REMARK  status: ('A' for Active; 'I' for Inactive)
REMARK    1  A    between atoms: C_2  and  O_3 
REMARK    2  A    between atoms: C_2  and  C_7 
REMARK    3  A    between atoms: O_3  and  C_4 
REMARK    4  A    between atoms: C_4  and  C_5 
REMARK       I    between atoms: C_7  and  N_9 
REMARK    5  A    between atoms: N_9  and  C_10 
REMARK    6  A    between atoms: C_12  and  C_17 
ROOT
HETATM    1  C   UNL     1     -41.948 -51.749  12.344  1.00  0.00     0.104 A 
HETATM    2  C   UNL     1     -42.981 -52.536  12.688  1.00  0.00     0.052 A 
HETATM    3  C   UNL     1     -42.817 -53.742  13.474  1.00  0.00     0.065 A 
HETATM    4  C   UNL     1     -41.572 -54.115  13.811  1.00  0.00     0.107 A 
HETATM    5  N   UNL     1     -40.477 -53.388  13.401  1.00  0.00    -0.331 N 
HETATM    6  C   UNL     1     -40.555 -52.224  12.666  1.00  0.00     0.272 A 
HETATM    7  O   UNL     1     -39.575 -51.573  12.311  1.00  0.00    -0.266 OA
HETATM    8  H   UNL     1     -39.543 -53.682  13.665  1.00  0.00     0.168 HD
ENDROOT
BRANCH   1   9
HETATM    9  N   UNL     1     -42.088 -50.518  11.747  1.00  0.00    -0.320 N 
HETATM   10  C   UNL     1     -42.565 -49.407  12.430  1.00  0.00     0.251 C 
HETATM   11  O   UNL     1     -42.890 -49.419  13.617  1.00  0.00    -0.270 OA
HETATM   12  H   UNL     1     -41.510 -50.379  10.922  1.00  0.00     0.169 HD
BRANCH  10  13
HETATM   13  C   UNL     1     -42.619 -48.113  11.596  1.00  0.00     0.209 C 
HETATM   14  C   UNL     1     -41.609 -48.278  10.457  1.00  0.00     0.050 C 
BRANCH  13  15
HETATM   15  O   UNL     1     -43.891 -47.827  11.016  1.00  0.00    -0.373 OA
BRANCH  15  16
HETATM   16  C   UNL     1     -43.818 -47.480   9.637  1.00  0.00     0.195 C 
BRANCH  16  17
HETATM   17  C   UNL     1     -45.174 -47.088   9.152  1.00  0.00    -0.011 C 
HETATM   18  C   UNL     1     -46.188 -47.955   9.026  1.00  0.00     0.009 C 
ENDBRANCH  16  17
ENDBRANCH  15  16
ENDBRANCH  13  15
ENDBRANCH  10  13
ENDBRANCH   1   9
BRANCH   3  19
HETATM   19  C   UNL     1     -44.060 -54.454  13.927  1.00  0.00     0.418 C 
HETATM   20  F   UNL     1     -43.808 -55.614  14.592  1.00  0.00    -0.166 F 
HETATM   21  F   UNL     1     -44.798 -53.679  14.765  1.00  0.00    -0.166 F 
HETATM   22  F   UNL     1     -44.863 -54.771  12.879  1.00  0.00    -0.166 F 
ENDBRANCH   3  19
TORSDOF 6
ENDMDL
MODEL 7
REMARK VINA RESULT:      -5.7      6.159      7.806
REMARK  6 active torsions:
REMARK  status: ('A' for Active; 'I' for Inactive)
REMARK    1  A    between atoms: C_2  and  O_3 
REMARK    2  A    between atoms: C_2  and  C_7 
REMARK    3  A    between atoms: O_3  and  C_4 
REMARK    4  A    between atoms: C_4  and  C_5 
REMARK       I    between atoms: C_7  and  N_9 
REMARK    5  A    between atoms: N_9  and  C_10 
REMARK    6  A    between atoms: C_12  and  C_17 
ROOT
HETATM    1  C   UNL     1     -41.696 -54.069  13.742  1.00  0.00     0.104 A 
HETATM    2  C   UNL     1     -42.921 -54.364  14.212  1.00  0.00     0.052 A 
HETATM    3  C   UNL     1     -44.135 -53.976  13.524  1.00  0.00     0.065 A 
HETATM    4  C   UNL     1     -44.024 -53.235  12.409  1.00  0.00     0.107 A 
HETATM    5  N   UNL     1     -42.792 -52.832  11.943  1.00  0.00    -0.331 N 
HETATM    6  C   UNL     1     -41.594 -53.176  12.534  1.00  0.00     0.272 A 
HETATM    7  O   UNL     1     -40.497 -52.823  12.109  1.00  0.00    -0.266 OA
HETATM    8  H   UNL     1     -42.725 -52.275  11.099  1.00  0.00     0.168 HD
ENDROOT
BRANCH   1   9
HETATM    9  N   UNL     1     -40.531 -54.565  14.278  1.00  0.00    -0.320 N 
HETATM   10  C   UNL     1     -39.875 -53.950  15.337  1.00  0.00     0.251 C 
HETATM   11  O   UNL     1     -40.276 -52.926  15.891  1.00  0.00    -0.270 OA
HETATM   12  H   UNL     1     -40.375 -55.555  14.110  1.00  0.00     0.169 HD
BRANCH  10  13
HETATM   13  C   UNL     1     -38.602 -54.675  15.814  1.00  0.00     0.209 C 
HETATM   14  C   UNL     1     -38.293 -54.147  17.219  1.00  0.00     0.050 C 
BRANCH  13  15
HETATM   15  O   UNL     1     -38.715 -56.095  15.895  1.00  0.00    -0.373 OA
BRANCH  15  16
HETATM   16  C   UNL     1     -39.165 -56.555  17.165  1.00  0.00     0.195 C 
BRANCH  16  17
HETATM   17  C   UNL     1     -40.503 -57.198  17.014  1.00  0.00    -0.011 C 
HETATM   18  C   UNL     1     -41.658 -56.528  17.126  1.00  0.00     0.009 C 
ENDBRANCH  16  17
ENDBRANCH  15  16
ENDBRANCH  13  15
ENDBRANCH  10  13
ENDBRANCH   1   9
BRANCH   3  19
HETATM   19  C   UNL     1     -45.439 -54.494  14.062  1.00  0.00     0.418 C 
HETATM   20  F   UNL     1     -46.503 -53.706  13.755  1.00  0.00    -0.166 F 
HETATM   21  F   UNL     1     -45.718 -55.732  13.575  1.00  0.00    -0.166 F 
HETATM   22  F   UNL     1     -45.411 -54.603  15.415  1.00  0.00    -0.166 F 
ENDBRANCH   3  19
TORSDOF 6
ENDMDL
MODEL 8
REMARK VINA RESULT:      -5.7      4.376      6.582
REMARK  6 active torsions:
REMARK  status: ('A' for Active; 'I' for Inactive)
REMARK    1  A    between atoms: C_2  and  O_3 
REMARK    2  A    between atoms: C_2  and  C_7 
REMARK    3  A    between atoms: O_3  and  C_4 
REMARK    4  A    between atoms: C_4  and  C_5 
REMARK       I    between atoms: C_7  and  N_9 
REMARK    5  A    between atoms: N_9  and  C_10 
REMARK    6  A    between atoms: C_12  and  C_17 
ROOT
HETATM    1  C   UNL     1     -42.243 -51.967  13.046  1.00  0.00     0.104 A 
HETATM    2  C   UNL     1     -42.682 -50.699  13.123  1.00  0.00     0.052 A 
HETATM    3  C   UNL     1     -42.176 -49.644  12.269  1.00  0.00     0.065 A 
HETATM    4  C   UNL     1     -41.183 -49.940  11.415  1.00  0.00     0.107 A 
HETATM    5  N   UNL     1     -40.640 -51.205  11.367  1.00  0.00    -0.331 N 
HETATM    6  C   UNL     1     -41.079 -52.261  12.136  1.00  0.00     0.272 A 
HETATM    7  O   UNL     1     -40.598 -53.391  12.082  1.00  0.00    -0.266 OA
HETATM    8  H   UNL     1     -39.892 -51.412  10.716  1.00  0.00     0.168 HD
ENDROOT
BRANCH   1   9
HETATM    9  N   UNL     1     -42.817 -53.019  13.720  1.00  0.00    -0.320 N 
HETATM   10  C   UNL     1     -43.900 -53.728  13.215  1.00  0.00     0.251 C 
HETATM   11  O   UNL     1     -44.430 -53.490  12.129  1.00  0.00    -0.270 OA
HETATM   12  H   UNL     1     -42.212 -53.465  14.404  1.00  0.00     0.169 HD
BRANCH  10  13
HETATM   13  C   UNL     1     -44.380 -54.890  14.105  1.00  0.00     0.209 C 
HETATM   14  C   UNL     1     -43.427 -54.952  15.303  1.00  0.00     0.050 C 
BRANCH  13  15
HETATM   15  O   UNL     1     -45.708 -54.751  14.608  1.00  0.00    -0.373 OA
BRANCH  15  16
HETATM   16  C   UNL     1     -45.878 -53.615  15.448  1.00  0.00     0.195 C 
BRANCH  16  17
HETATM   17  C   UNL     1     -46.896 -52.703  14.849  1.00  0.00    -0.011 C 
HETATM   18  C   UNL     1     -46.628 -51.444  14.476  1.00  0.00     0.009 C 
ENDBRANCH  16  17
ENDBRANCH  15  16
ENDBRANCH  13  15
ENDBRANCH  10  13
ENDBRANCH   1   9
BRANCH   3  19
HETATM   19  C   UNL     1     -42.851 -48.304  12.341  1.00  0.00     0.418 C 
HETATM   20  F   UNL     1     -43.397 -48.035  13.557  1.00  0.00    -0.166 F 
HETATM   21  F   UNL     1     -41.979 -47.295  12.076  1.00  0.00    -0.166 F 
HETATM   22  F   UNL     1     -43.855 -48.202  11.431  1.00  0.00    -0.166 F 
ENDBRANCH   3  19
TORSDOF 6
ENDMDL
MODEL 9
REMARK VINA RESULT:      -5.6      4.044      6.533
REMARK  6 active torsions:
REMARK  status: ('A' for Active; 'I' for Inactive)
REMARK    1  A    between atoms: C_2  and  O_3 
REMARK    2  A    between atoms: C_2  and  C_7 
REMARK    3  A    between atoms: O_3  and  C_4 
REMARK    4  A    between atoms: C_4  and  C_5 
REMARK       I    between atoms: C_7  and  N_9 
REMARK    5  A    between atoms: N_9  and  C_10 
REMARK    6  A    between atoms: C_12  and  C_17 
ROOT
HETATM    1  C   UNL     1     -41.768 -52.719  12.392  1.00  0.00     0.104 A 
HETATM    2  C   UNL     1     -43.078 -53.009  12.467  1.00  0.00     0.052 A 
HETATM    3  C   UNL     1     -43.616 -53.944  13.434  1.00  0.00     0.065 A 
HETATM    4  C   UNL     1     -42.757 -54.590  14.238  1.00  0.00     0.107 A 
HETATM    5  N   UNL     1     -41.398 -54.392  14.133  1.00  0.00    -0.331 N 
HETATM    6  C   UNL     1     -40.815 -53.509  13.249  1.00  0.00     0.272 A 
HETATM    7  O   UNL     1     -39.602 -53.327  13.167  1.00  0.00    -0.266 OA
HETATM    8  H   UNL     1     -40.763 -54.886  14.749  1.00  0.00     0.168 HD
ENDROOT
BRANCH   1   9
HETATM    9  N   UNL     1     -41.249 -51.717  11.604  1.00  0.00    -0.320 N 
HETATM   10  C   UNL     1     -41.146 -50.403  12.040  1.00  0.00     0.251 C 
HETATM   11  O   UNL     1     -41.493 -50.021  13.157  1.00  0.00    -0.270 OA
HETATM   12  H   UNL     1     -40.638 -52.039  10.858  1.00  0.00     0.169 HD
BRANCH  10  13
HETATM   13  C   UNL     1     -40.510 -49.435  11.023  1.00  0.00     0.209 C 
HETATM   14  C   UNL     1     -41.573 -48.385  10.687  1.00  0.00     0.050 C 
BRANCH  13  15
HETATM   15  O   UNL     1     -39.350 -48.750  11.492  1.00  0.00    -0.373 OA
BRANCH  15  16
HETATM   16  C   UNL     1     -38.219 -49.598  11.654  1.00  0.00     0.195 C 
BRANCH  16  17
HETATM   17  C   UNL     1     -37.763 -49.552  13.074  1.00  0.00    -0.011 C 
HETATM   18  C   UNL     1     -37.878 -48.464  13.849  1.00  0.00     0.009 C 
ENDBRANCH  16  17
ENDBRANCH  15  16
ENDBRANCH  13  15
ENDBRANCH  10  13
ENDBRANCH   1   9
BRANCH   3  19
HETATM   19  C   UNL     1     -45.111 -54.070  13.525  1.00  0.00     0.418 C 
HETATM   20  F   UNL     1     -45.559 -55.342  13.353  1.00  0.00    -0.166 F 
HETATM   21  F   UNL     1     -45.569 -53.658  14.737  1.00  0.00    -0.166 F 
HETATM   22  F   UNL     1     -45.734 -53.306  12.591  1.00  0.00    -0.166 F 
ENDBRANCH   3  19
TORSDOF 6
ENDMDL
