MODEL 1
REMARK VINA RESULT:      -5.8      0.000      0.000
REMARK  5 active torsions:
REMARK  status: ('A' for Active; 'I' for Inactive)
REMARK    1  A    between atoms: C_2  and  C_3 
REMARK    2  A    between atoms: C_3  and  C_4 
REMARK    3  A    between atoms: C_3  and  N_10 
REMARK    4  A    between atoms: C_4  and  N_5 
REMARK       I    between atoms: N_10  and  C_11 
REMARK       I    between atoms: C_11  and  N_13 
REMARK    5  A    between atoms: N_13  and  C_14 
ROOT
HETATM    1  N   UNL     1     -41.253 -51.462  11.597  1.00  0.00    -0.337 N 
HETATM    2  C   UNL     1     -42.202 -51.879  12.505  1.00  0.00     0.321 C 
HETATM    3  O   UNL     1     -42.208 -51.483  13.663  1.00  0.00    -0.247 OA
HETATM    4  N   UNL     1     -43.105 -52.761  11.954  1.00  0.00    -0.309 N 
HETATM    5  H   UNL     1     -41.491 -51.563  10.623  1.00  0.00     0.164 HD
HETATM    6  H   UNL     1     -42.740 -53.350  11.221  1.00  0.00     0.170 HD
ENDROOT
BRANCH   1   7
HETATM    7  C   UNL     1     -40.349 -50.354  11.948  1.00  0.00     0.114 C 
BRANCH   7   8
HETATM    8  C   UNL     1     -38.948 -50.904  12.285  1.00  0.00     0.022 C 
HETATM    9  C   UNL     1     -37.808 -50.091  11.685  1.00  0.00     0.007 C 
ENDBRANCH   7   8
BRANCH   7  10
HETATM   10  C   UNL     1     -40.318 -49.223  10.864  1.00  0.00     0.297 C 
BRANCH  10  11
HETATM   11  N   UNL     1     -41.141 -48.026  11.114  1.00  0.00     0.090 N 
HETATM   12  C   UNL     1     -42.227 -47.923  10.123  1.00  0.00     0.272 C 
HETATM   13  C   UNL     1     -42.554 -46.434  10.030  1.00  0.00     0.032 C 
HETATM   14  C   UNL     1     -41.562 -45.762  10.960  1.00  0.00     0.032 C 
HETATM   15  C   UNL     1     -40.421 -46.757  11.027  1.00  0.00     0.272 C 
ENDBRANCH  10  11
ENDBRANCH   7  10
ENDBRANCH   1   7
BRANCH   4  16
HETATM   16  C   UNL     1     -44.278 -53.196  12.618  1.00  0.00     0.038 A 
HETATM   17  C   UNL     1     -45.390 -52.370  12.783  1.00  0.00     0.046 A 
HETATM   18  C   UNL     1     -46.471 -52.847  13.506  1.00  0.00     0.090 A 
HETATM   19  N   UNL     1     -46.523 -54.082  14.047  1.00  0.00    -0.375 N 
HETATM   20  C   UNL     1     -45.451 -54.873  13.842  1.00  0.00     0.090 A 
ATOM     21  HN  UNL     1     -47.331 -54.400  14.582  1.00  0.00     0.164 HD
HETATM   22  C   UNL     1     -44.324 -54.491  13.126  1.00  0.00     0.046 A 
ENDBRANCH   4  16
TORSDOF 5
ENDMDL
MODEL 2
REMARK VINA RESULT:      -5.6      1.055      1.684
REMARK  5 active torsions:
REMARK  status: ('A' for Active; 'I' for Inactive)
REMARK    1  A    between atoms: C_2  and  C_3 
REMARK    2  A    between atoms: C_3  and  C_4 
REMARK    3  A    between atoms: C_3  and  N_10 
REMARK    4  A    between atoms: C_4  and  N_5 
REMARK       I    between atoms: N_10  and  C_11 
REMARK       I    between atoms: C_11  and  N_13 
REMARK    5  A    between atoms: N_13  and  C_14 
ROOT
HETATM    1  N   UNL     1     -40.893 -51.316  11.604  1.00  0.00    -0.337 N 
HETATM    2  C   UNL     1     -41.847 -51.771  12.489  1.00  0.00     0.321 C 
HETATM    3  O   UNL     1     -41.860 -51.423  13.663  1.00  0.00    -0.247 OA
HETATM    4  N   UNL     1     -42.747 -52.629  11.897  1.00  0.00    -0.309 N 
HETATM    5  H   UNL     1     -41.126 -51.376  10.626  1.00  0.00     0.164 HD
HETATM    6  H   UNL     1     -42.379 -53.187  11.141  1.00  0.00     0.170 HD
ENDROOT
BRANCH   1   7
HETATM    7  C   UNL     1     -39.991 -50.224  12.007  1.00  0.00     0.114 C 
BRANCH   7   8
HETATM    8  C   UNL     1     -38.548 -50.752  12.131  1.00  0.00     0.022 C 
HETATM    9  C   UNL     1     -37.529 -49.946  11.335  1.00  0.00     0.007 C 
ENDBRANCH   7   8
BRANCH   7  10
HETATM   10  C   UNL     1     -40.105 -48.965  11.082  1.00  0.00     0.297 C 
BRANCH  10  11
HETATM   11  N   UNL     1     -41.104 -47.945  11.449  1.00  0.00     0.090 N 
HETATM   12  C   UNL     1     -41.402 -48.002  12.892  1.00  0.00     0.272 C 
HETATM   13  C   UNL     1     -42.821 -47.454  13.036  1.00  0.00     0.032 C 
HETATM   14  C   UNL     1     -43.271 -47.168  11.616  1.00  0.00     0.032 C 
HETATM   15  C   UNL     1     -42.398 -48.086  10.785  1.00  0.00     0.272 C 
ENDBRANCH  10  11
ENDBRANCH   7  10
ENDBRANCH   1   7
BRANCH   4  16
HETATM   16  C   UNL     1     -43.924 -53.090  12.535  1.00  0.00     0.038 A 
HETATM   17  C   UNL     1     -44.021 -54.368  13.086  1.00  0.00     0.046 A 
HETATM   18  C   UNL     1     -45.230 -54.768  13.631  1.00  0.00     0.090 A 
HETATM   19  N   UNL     1     -46.324 -53.981  13.680  1.00  0.00    -0.375 N 
HETATM   20  C   UNL     1     -46.195 -52.738  13.174  1.00  0.00     0.090 A 
ATOM     21  HN  UNL     1     -47.203 -54.309  14.080  1.00  0.00     0.164 HD
HETATM   22  C   UNL     1     -45.024 -52.241  12.615  1.00  0.00     0.046 A 
ENDBRANCH   4  16
TORSDOF 5
ENDMDL
MODEL 3
REMARK VINA RESULT:      -5.6      1.847      2.727
REMARK  5 active torsions:
REMARK  status: ('A' for Active; 'I' for Inactive)
REMARK    1  A    between atoms: C_2  and  C_3 
REMARK    2  A    between atoms: C_3  and  C_4 
REMARK    3  A    between atoms: C_3  and  N_10 
REMARK    4  A    between atoms: C_4  and  N_5 
REMARK       I    between atoms: N_10  and  C_11 
REMARK       I    between atoms: C_11  and  N_13 
REMARK    5  A    between atoms: N_13  and  C_14 
ROOT
HETATM    1  N   UNL     1     -41.597 -49.808  11.235  1.00  0.00    -0.337 N 
HETATM    2  C   UNL     1     -42.163 -50.594  12.216  1.00  0.00     0.321 C 
HETATM    3  O   UNL     1     -42.642 -50.113  13.235  1.00  0.00    -0.247 OA
HETATM    4  N   UNL     1     -42.120 -51.935  11.907  1.00  0.00    -0.309 N 
HETATM    5  H   UNL     1     -41.525 -50.221  10.319  1.00  0.00     0.164 HD
HETATM    6  H   UNL     1     -41.330 -52.224  11.349  1.00  0.00     0.170 HD
ENDROOT
BRANCH   1   7
HETATM    7  C   UNL     1     -41.756 -48.345  11.295  1.00  0.00     0.114 C 
BRANCH   7   8
HETATM    8  C   UNL     1     -40.465 -47.698  11.837  1.00  0.00     0.022 C 
HETATM    9  C   UNL     1     -40.062 -46.426  11.103  1.00  0.00     0.007 C 
ENDBRANCH   7   8
BRANCH   7  10
HETATM   10  C   UNL     1     -42.227 -47.725   9.936  1.00  0.00     0.297 C 
BRANCH  10  11
HETATM   11  N   UNL     1     -43.479 -46.946   9.948  1.00  0.00     0.090 N 
HETATM   12  C   UNL     1     -44.650 -47.840   9.925  1.00  0.00     0.272 C 
HETATM   13  C   UNL     1     -45.771 -47.026   9.280  1.00  0.00     0.032 C 
HETATM   14  C   UNL     1     -45.126 -45.703   8.915  1.00  0.00     0.032 C 
HETATM   15  C   UNL     1     -43.656 -46.053   8.805  1.00  0.00     0.272 C 
ENDBRANCH  10  11
ENDBRANCH   7  10
ENDBRANCH   1   7
BRANCH   4  16
HETATM   16  C   UNL     1     -42.790 -52.933  12.655  1.00  0.00     0.038 A 
HETATM   17  C   UNL     1     -44.121 -53.275  12.416  1.00  0.00     0.046 A 
HETATM   18  C   UNL     1     -44.725 -54.211  13.239  1.00  0.00     0.090 A 
HETATM   19  N   UNL     1     -44.091 -54.835  14.253  1.00  0.00    -0.375 N 
HETATM   20  C   UNL     1     -42.795 -54.513  14.441  1.00  0.00     0.090 A 
ATOM     21  HN  UNL     1     -44.567 -55.514  14.847  1.00  0.00     0.164 HD
HETATM   22  C   UNL     1     -42.099 -53.595  13.666  1.00  0.00     0.046 A 
ENDBRANCH   4  16
TORSDOF 5
ENDMDL
MODEL 4
REMARK VINA RESULT:      -5.6      3.067      5.092
REMARK  5 active torsions:
REMARK  status: ('A' for Active; 'I' for Inactive)
REMARK    1  A    between atoms: C_2  and  C_3 
REMARK    2  A    between atoms: C_3  and  C_4 
REMARK    3  A    between atoms: C_3  and  N_10 
REMARK    4  A    between atoms: C_4  and  N_5 
REMARK       I    between atoms: N_10  and  C_11 
REMARK       I    between atoms: C_11  and  N_13 
REMARK    5  A    between atoms: N_13  and  C_14 
ROOT
HETATM    1  N   UNL     1     -41.385 -47.957  10.115  1.00  0.00    -0.337 N 
HETATM    2  C   UNL     1     -41.153 -48.762  11.209  1.00  0.00     0.321 C 
HETATM    3  O   UNL     1     -41.466 -48.420  12.342  1.00  0.00    -0.247 OA
HETATM    4  N   UNL     1     -40.552 -49.954  10.868  1.00  0.00    -0.309 N 
HETATM    5  H   UNL     1     -41.405 -48.416   9.218  1.00  0.00     0.164 HD
HETATM    6  H   UNL     1     -39.940 -49.914  10.067  1.00  0.00     0.170 HD
ENDROOT
BRANCH   1   7
HETATM    7  C   UNL     1     -42.217 -46.751  10.263  1.00  0.00     0.114 C 
BRANCH   7   8
HETATM    8  C   UNL     1     -41.318 -45.506  10.403  1.00  0.00     0.022 C 
HETATM    9  C   UNL     1     -41.984 -44.347  11.134  1.00  0.00     0.007 C 
ENDBRANCH   7   8
BRANCH   7  10
HETATM   10  C   UNL     1     -43.291 -46.607   9.132  1.00  0.00     0.297 C 
BRANCH  10  11
HETATM   11  N   UNL     1     -44.342 -47.638   9.063  1.00  0.00     0.090 N 
HETATM   12  C   UNL     1     -44.445 -48.188   7.700  1.00  0.00     0.272 C 
HETATM   13  C   UNL     1     -45.886 -48.678   7.568  1.00  0.00     0.032 C 
HETATM   14  C   UNL     1     -46.542 -48.311   8.885  1.00  0.00     0.032 C 
HETATM   15  C   UNL     1     -45.686 -47.168   9.390  1.00  0.00     0.272 C 
ENDBRANCH  10  11
ENDBRANCH   7  10
ENDBRANCH   1   7
BRANCH   4  16
HETATM   16  C   UNL     1     -40.374 -51.027  11.774  1.00  0.00     0.038 A 
HETATM   17  C   UNL     1     -41.258 -52.104  11.837  1.00  0.00     0.046 A 
HETATM   18  C   UNL     1     -41.052 -53.079  12.799  1.00  0.00     0.090 A 
HETATM   19  N   UNL     1     -40.025 -53.060  13.674  1.00  0.00    -0.375 N 
HETATM   20  C   UNL     1     -39.164 -52.028  13.570  1.00  0.00     0.090 A 
ATOM     21  HN  UNL     1     -39.907 -53.789  14.377  1.00  0.00     0.164 HD
HETATM   22  C   UNL     1     -39.280 -51.008  12.635  1.00  0.00     0.046 A 
ENDBRANCH   4  16
TORSDOF 5
ENDMDL
MODEL 5
REMARK VINA RESULT:      -5.5      2.812      6.169
REMARK  5 active torsions:
REMARK  status: ('A' for Active; 'I' for Inactive)
REMARK    1  A    between atoms: C_2  and  C_3 
REMARK    2  A    between atoms: C_3  and  C_4 
REMARK    3  A    between atoms: C_3  and  N_10 
REMARK    4  A    between atoms: C_4  and  N_5 
REMARK       I    between atoms: N_10  and  C_11 
REMARK       I    between atoms: C_11  and  N_13 
REMARK    5  A    between atoms: N_13  and  C_14 
ROOT
HETATM    1  N   UNL     1     -40.612 -50.287  11.131  1.00  0.00    -0.337 N 
HETATM    2  C   UNL     1     -41.577 -49.302  11.144  1.00  0.00     0.321 C 
HETATM    3  O   UNL     1     -42.337 -49.153  12.093  1.00  0.00    -0.247 OA
HETATM    4  N   UNL     1     -41.566 -48.540   9.997  1.00  0.00    -0.309 N 
HETATM    5  H   UNL     1     -39.842 -50.149  10.496  1.00  0.00     0.164 HD
HETATM    6  H   UNL     1     -41.277 -49.024   9.160  1.00  0.00     0.170 HD
ENDROOT
BRANCH   1   7
HETATM    7  C   UNL     1     -40.334 -51.048  12.361  1.00  0.00     0.114 C 
BRANCH   7   8
HETATM    8  C   UNL     1     -40.811 -52.505  12.198  1.00  0.00     0.022 C 
HETATM    9  C   UNL     1     -42.293 -52.702  12.491  1.00  0.00     0.007 C 
ENDBRANCH   7   8
BRANCH   7  10
HETATM   10  C   UNL     1     -38.840 -50.940  12.820  1.00  0.00     0.297 C 
BRANCH  10  11
HETATM   11  N   UNL     1     -38.529 -49.973  13.888  1.00  0.00     0.090 N 
HETATM   12  C   UNL     1     -38.322 -48.626  13.328  1.00  0.00     0.272 C 
HETATM   13  C   UNL     1     -37.397 -47.913  14.314  1.00  0.00     0.032 C 
HETATM   14  C   UNL     1     -37.084 -48.954  15.372  1.00  0.00     0.032 C 
HETATM   15  C   UNL     1     -37.314 -50.264  14.646  1.00  0.00     0.272 C 
ENDBRANCH  10  11
ENDBRANCH   7  10
ENDBRANCH   1   7
BRANCH   4  16
HETATM   16  C   UNL     1     -42.328 -47.357   9.838  1.00  0.00     0.038 A 
HETATM   17  C   UNL     1     -41.995 -46.164  10.479  1.00  0.00     0.046 A 
HETATM   18  C   UNL     1     -42.831 -45.071  10.326  1.00  0.00     0.090 A 
HETATM   19  N   UNL     1     -43.948 -45.084   9.570  1.00  0.00    -0.375 N 
HETATM   20  C   UNL     1     -44.229 -46.238   8.932  1.00  0.00     0.090 A 
ATOM     21  HN  UNL     1     -44.549 -44.264   9.485  1.00  0.00     0.164 HD
HETATM   22  C   UNL     1     -43.450 -47.384   9.014  1.00  0.00     0.046 A 
ENDBRANCH   4  16
TORSDOF 5
ENDMDL
MODEL 6
REMARK VINA RESULT:      -5.3      2.268      6.816
REMARK  5 active torsions:
REMARK  status: ('A' for Active; 'I' for Inactive)
REMARK    1  A    between atoms: C_2  and  C_3 
REMARK    2  A    between atoms: C_3  and  C_4 
REMARK    3  A    between atoms: C_3  and  N_10 
REMARK    4  A    between atoms: C_4  and  N_5 
REMARK       I    between atoms: N_10  and  C_11 
REMARK       I    between atoms: C_11  and  N_13 
REMARK    5  A    between atoms: N_13  and  C_14 
ROOT
HETATM    1  N   UNL     1     -42.217 -53.496  14.788  1.00  0.00    -0.337 N 
HETATM    2  C   UNL     1     -41.371 -53.120  13.766  1.00  0.00     0.321 C 
HETATM    3  O   UNL     1     -41.079 -53.881  12.853  1.00  0.00    -0.247 OA
HETATM    4  N   UNL     1     -40.922 -51.825  13.905  1.00  0.00    -0.309 N 
HETATM    5  H   UNL     1     -42.657 -52.749  15.301  1.00  0.00     0.164 HD
HETATM    6  H   UNL     1     -40.824 -51.502  14.856  1.00  0.00     0.170 HD
ENDROOT
BRANCH   1   7
HETATM    7  C   UNL     1     -42.964 -54.761  14.683  1.00  0.00     0.114 C 
BRANCH   7   8
HETATM    8  C   UNL     1     -42.716 -55.623  15.938  1.00  0.00     0.022 C 
HETATM    9  C   UNL     1     -41.261 -55.645  16.390  1.00  0.00     0.007 C 
ENDBRANCH   7   8
BRANCH   7  10
HETATM   10  C   UNL     1     -44.485 -54.549  14.377  1.00  0.00     0.297 C 
BRANCH  10  11
HETATM   11  N   UNL     1     -44.957 -53.160  14.230  1.00  0.00     0.090 N 
HETATM   12  C   UNL     1     -45.821 -52.780  15.362  1.00  0.00     0.272 C 
HETATM   13  C   UNL     1     -46.745 -51.690  14.820  1.00  0.00     0.032 C 
HETATM   14  C   UNL     1     -46.372 -51.560  13.355  1.00  0.00     0.032 C 
HETATM   15  C   UNL     1     -45.758 -52.908  13.034  1.00  0.00     0.272 C 
ENDBRANCH  10  11
ENDBRANCH   7  10
ENDBRANCH   1   7
BRANCH   4  16
HETATM   16  C   UNL     1     -40.193 -51.139  12.904  1.00  0.00     0.038 A 
HETATM   17  C   UNL     1     -38.799 -51.106  12.888  1.00  0.00     0.046 A 
HETATM   18  C   UNL     1     -38.162 -50.354  11.914  1.00  0.00     0.090 A 
HETATM   19  N   UNL     1     -38.815 -49.662  10.958  1.00  0.00    -0.375 N 
HETATM   20  C   UNL     1     -40.161 -49.739  10.973  1.00  0.00     0.090 A 
ATOM     21  HN  UNL     1     -38.317 -49.110  10.260  1.00  0.00     0.164 HD
HETATM   22  C   UNL     1     -40.890 -50.472  11.900  1.00  0.00     0.046 A 
ENDBRANCH   4  16
TORSDOF 5
ENDMDL
MODEL 7
REMARK VINA RESULT:      -5.1      1.515      3.484
REMARK  5 active torsions:
REMARK  status: ('A' for Active; 'I' for Inactive)
REMARK    1  A    between atoms: C_2  and  C_3 
REMARK    2  A    between atoms: C_3  and  C_4 
REMARK    3  A    between atoms: C_3  and  N_10 
REMARK    4  A    between atoms: C_4  and  N_5 
REMARK       I    between atoms: N_10  and  C_11 
REMARK       I    between atoms: C_11  and  N_13 
REMARK    5  A    between atoms: N_13  and  C_14 
ROOT
HETATM    1  N   UNL     1     -42.151 -50.658  11.953  1.00  0.00    -0.337 N 
HETATM    2  C   UNL     1     -42.918 -51.314  12.892  1.00  0.00     0.321 C 
HETATM    3  O   UNL     1     -42.946 -50.963  14.065  1.00  0.00    -0.247 OA
HETATM    4  N   UNL     1     -43.620 -52.370  12.354  1.00  0.00    -0.309 N 
HETATM    5  H   UNL     1     -42.418 -50.786  10.990  1.00  0.00     0.164 HD
HETATM    6  H   UNL     1     -43.172 -52.835  11.579  1.00  0.00     0.170 HD
ENDROOT
BRANCH   1   7
HETATM    7  C   UNL     1     -41.514 -49.377  12.302  1.00  0.00     0.114 C 
BRANCH   7   8
HETATM    8  C   UNL     1     -42.592 -48.299  12.532  1.00  0.00     0.022 C 
HETATM    9  C   UNL     1     -43.243 -47.799  11.248  1.00  0.00     0.007 C 
ENDBRANCH   7   8
BRANCH   7  10
HETATM   10  C   UNL     1     -40.508 -49.501  13.496  1.00  0.00     0.297 C 
BRANCH  10  11
HETATM   11  N   UNL     1     -39.083 -49.678  13.163  1.00  0.00     0.090 N 
HETATM   12  C   UNL     1     -38.781 -49.106  11.839  1.00  0.00     0.272 C 
HETATM   13  C   UNL     1     -37.576 -49.889  11.322  1.00  0.00     0.032 C 
HETATM   14  C   UNL     1     -37.299 -50.925  12.395  1.00  0.00     0.032 C 
HETATM   15  C   UNL     1     -38.637 -51.068  13.091  1.00  0.00     0.272 C 
ENDBRANCH  10  11
ENDBRANCH   7  10
ENDBRANCH   1   7
BRANCH   4  16
HETATM   16  C   UNL     1     -44.615 -53.089  13.061  1.00  0.00     0.038 A 
HETATM   17  C   UNL     1     -44.526 -54.463  13.280  1.00  0.00     0.046 A 
HETATM   18  C   UNL     1     -45.575 -55.103  13.919  1.00  0.00     0.090 A 
HETATM   19  N   UNL     1     -46.678 -54.468  14.365  1.00  0.00    -0.375 N 
HETATM   20  C   UNL     1     -46.724 -53.135  14.173  1.00  0.00     0.090 A 
ATOM     21  HN  UNL     1     -47.438 -54.971  14.824  1.00  0.00     0.164 HD
HETATM   22  C   UNL     1     -45.721 -52.402  13.552  1.00  0.00     0.046 A 
ENDBRANCH   4  16
TORSDOF 5
ENDMDL
MODEL 8
REMARK VINA RESULT:      -5.1      2.304      7.122
REMARK  5 active torsions:
REMARK  status: ('A' for Active; 'I' for Inactive)
REMARK    1  A    between atoms: C_2  and  C_3 
REMARK    2  A    between atoms: C_3  and  C_4 
REMARK    3  A    between atoms: C_3  and  N_10 
REMARK    4  A    between atoms: C_4  and  N_5 
REMARK       I    between atoms: N_10  and  C_11 
REMARK       I    between atoms: C_11  and  N_13 
REMARK    5  A    between atoms: N_13  and  C_14 
ROOT
HETATM    1  N   UNL     1     -44.198 -50.893  12.747  1.00  0.00    -0.337 N 
HETATM    2  C   UNL     1     -43.345 -49.829  12.943  1.00  0.00     0.321 C 
HETATM    3  O   UNL     1     -42.647 -49.734  13.944  1.00  0.00    -0.247 OA
HETATM    4  N   UNL     1     -43.380 -48.927  11.902  1.00  0.00    -0.309 N 
HETATM    5  H   UNL     1     -44.482 -51.069  11.796  1.00  0.00     0.164 HD
HETATM    6  H   UNL     1     -44.268 -48.848  11.429  1.00  0.00     0.170 HD
ENDROOT
BRANCH   1   7
HETATM    7  C   UNL     1     -44.126 -52.057  13.645  1.00  0.00     0.114 C 
BRANCH   7   8
HETATM    8  C   UNL     1     -45.384 -52.113  14.535  1.00  0.00     0.022 C 
HETATM    9  C   UNL     1     -46.605 -51.446  13.915  1.00  0.00     0.007 C 
ENDBRANCH   7   8
BRANCH   7  10
HETATM   10  C   UNL     1     -43.854 -53.400  12.885  1.00  0.00     0.297 C 
BRANCH  10  11
HETATM   11  N   UNL     1     -42.561 -54.064  13.130  1.00  0.00     0.090 N 
HETATM   12  C   UNL     1     -42.408 -54.399  14.557  1.00  0.00     0.272 C 
HETATM   13  C   UNL     1     -40.901 -54.428  14.809  1.00  0.00     0.032 C 
HETATM   14  C   UNL     1     -40.280 -54.039  13.482  1.00  0.00     0.032 C 
HETATM   15  C   UNL     1     -41.386 -53.262  12.797  1.00  0.00     0.272 C 
ENDBRANCH  10  11
ENDBRANCH   7  10
ENDBRANCH   1   7
BRANCH   4  16
HETATM   16  C   UNL     1     -42.472 -47.848  11.771  1.00  0.00     0.038 A 
HETATM   17  C   UNL     1     -41.245 -47.982  11.122  1.00  0.00     0.046 A 
HETATM   18  C   UNL     1     -40.384 -46.897  11.098  1.00  0.00     0.090 A 
HETATM   19  N   UNL     1     -40.672 -45.701  11.652  1.00  0.00    -0.375 N 
HETATM   20  C   UNL     1     -41.879 -45.587  12.242  1.00  0.00     0.090 A 
ATOM     21  HN  UNL     1     -40.011 -44.924  11.625  1.00  0.00     0.164 HD
HETATM   22  C   UNL     1     -42.814 -46.611  12.310  1.00  0.00     0.046 A 
ENDBRANCH   4  16
TORSDOF 5
ENDMDL
MODEL 9
REMARK VINA RESULT:      -5.0      1.952      6.520
REMARK  5 active torsions:
REMARK  status: ('A' for Active; 'I' for Inactive)
REMARK    1  A    between atoms: C_2  and  C_3 
REMARK    2  A    between atoms: C_3  and  C_4 
REMARK    3  A    between atoms: C_3  and  N_10 
REMARK    4  A    between atoms: C_4  and  N_5 
REMARK       I    between atoms: N_10  and  C_11 
REMARK       I    between atoms: C_11  and  N_13 
REMARK    5  A    between atoms: N_13  and  C_14 
ROOT
HETATM    1  N   UNL     1     -41.817 -51.990  13.898  1.00  0.00    -0.337 N 
HETATM    2  C   UNL     1     -41.461 -51.178  12.843  1.00  0.00     0.321 C 
HETATM    3  O   UNL     1     -41.259 -51.626  11.721  1.00  0.00    -0.247 OA
HETATM    4  N   UNL     1     -41.372 -49.853  13.205  1.00  0.00    -0.309 N 
HETATM    5  H   UNL     1     -42.270 -51.538  14.677  1.00  0.00     0.164 HD
HETATM    6  H   UNL     1     -41.084 -49.684  14.158  1.00  0.00     0.170 HD
ENDROOT
BRANCH   1   7
HETATM    7  C   UNL     1     -42.175 -53.396  13.645  1.00  0.00     0.114 C 
BRANCH   7   8
HETATM    8  C   UNL     1     -41.318 -54.324  14.529  1.00  0.00     0.022 C 
HETATM    9  C   UNL     1     -41.704 -54.297  16.003  1.00  0.00     0.007 C 
ENDBRANCH   7   8
BRANCH   7  10
HETATM   10  C   UNL     1     -43.712 -53.669  13.780  1.00  0.00     0.297 C 
BRANCH  10  11
HETATM   11  N   UNL     1     -44.621 -52.530  13.558  1.00  0.00     0.090 N 
HETATM   12  C   UNL     1     -45.333 -52.181  14.801  1.00  0.00     0.272 C 
HETATM   13  C   UNL     1     -46.641 -51.531  14.352  1.00  0.00     0.032 C 
HETATM   14  C   UNL     1     -46.611 -51.609  12.837  1.00  0.00     0.032 C 
HETATM   15  C   UNL     1     -45.670 -52.766  12.569  1.00  0.00     0.272 C 
ENDBRANCH  10  11
ENDBRANCH   7  10
ENDBRANCH   1   7
BRANCH   4  16
HETATM   16  C   UNL     1     -41.203 -48.797  12.276  1.00  0.00     0.038 A 
HETATM   17  C   UNL     1     -42.158 -48.502  11.303  1.00  0.00     0.046 A 
HETATM   18  C   UNL     1     -41.886 -47.499  10.387  1.00  0.00     0.090 A 
HETATM   19  N   UNL     1     -40.752 -46.769  10.393  1.00  0.00    -0.375 N 
HETATM   20  C   UNL     1     -39.861 -47.049  11.366  1.00  0.00     0.090 A 
ATOM     21  HN  UNL     1     -40.577 -46.043   9.698  1.00  0.00     0.164 HD
HETATM   22  C   UNL     1     -40.045 -48.028  12.333  1.00  0.00     0.046 A 
ENDBRANCH   4  16
TORSDOF 5
ENDMDL
