MODEL 1
REMARK VINA RESULT:      -6.7      0.000      0.000
REMARK  6 active torsions:
REMARK  status: ('A' for Active; 'I' for Inactive)
REMARK    1  A    between atoms: N_2  and  C_12 
REMARK    2  A    between atoms: N_5  and  C_9 
REMARK    3  A    between atoms: C_19  and  C_27 
REMARK    4  A    between atoms: C_19  and  C_28 
REMARK    5  A    between atoms: C_27  and  O_29 
REMARK    6  A    between atoms: C_28  and  O_30 
ROOT
HETATM    1  N   UNL     1     -42.032 -49.336  12.388  1.00  0.00    -0.322 N 
HETATM    2  C   UNL     1     -42.839 -51.268  13.011  1.00  0.00     0.122 A 
HETATM    3  C   UNL     1     -41.850 -50.686  12.224  1.00  0.00     0.140 A 
HETATM    4  N   UNL     1     -43.622 -50.293  13.611  1.00  0.00    -0.346 N 
ATOM      5  HN  UNL     1     -44.422 -50.431  14.229  1.00  0.00     0.167 HD
HETATM    6  C   UNL     1     -42.875 -52.683  13.074  1.00  0.00     0.135 A 
HETATM    7  C   UNL     1     -43.110 -49.150  13.210  1.00  0.00     0.185 A 
HETATM    8  N   UNL     1     -40.918 -51.324  11.495  1.00  0.00    -0.336 N 
ATOM      9  HN  UNL     1     -40.209 -50.858  10.929  1.00  0.00     0.168 HD
HETATM   10  N   UNL     1     -41.942 -53.351  12.336  1.00  0.00    -0.337 N 
ATOM     11  HN  UNL     1     -41.925 -54.370  12.333  1.00  0.00     0.168 HD
HETATM   12  C   UNL     1     -41.043 -52.656  11.610  1.00  0.00     0.183 A 
ENDROOT
BRANCH   1  13
HETATM   13  C   UNL     1     -41.258 -48.239  11.877  1.00  0.00     0.094 C 
HETATM   14  C   UNL     1     -41.750 -46.836  12.325  1.00  0.00     0.039 C 
HETATM   15  C   UNL     1     -41.457 -46.322  10.879  1.00  0.00     0.006 C 
HETATM   16  C   UNL     1     -41.624 -47.804  10.428  1.00  0.00     0.039 C 
BRANCH  15  17
HETATM   17  C   UNL     1     -42.525 -45.397  10.303  1.00  0.00     0.175 C 
BRANCH  17  18
HETATM   18  O   UNL     1     -42.232 -44.050  10.668  1.00  0.00    -0.400 OA
HETATM   19  H   UNL     1     -41.531 -44.087  11.345  1.00  0.00     0.209 HD
ENDBRANCH  17  18
ENDBRANCH  15  17
BRANCH  15  20
HETATM   20  C   UNL     1     -40.038 -45.794  10.625  1.00  0.00     0.175 C 
BRANCH  20  21
HETATM   21  O   UNL     1     -40.008 -45.003   9.445  1.00  0.00    -0.400 OA
HETATM   22  H   UNL     1     -40.211 -45.606   8.700  1.00  0.00     0.209 HD
ENDBRANCH  20  21
ENDBRANCH  15  20
ENDBRANCH   1  13
BRANCH   6  23
HETATM   23  N   UNL     1     -43.774 -53.412  13.821  1.00  0.00    -0.364 N 
HETATM   24  C   UNL     1     -43.599 -53.552  15.264  1.00  0.00     0.145 C 
HETATM   25  C   UNL     1     -44.887 -54.229  15.708  1.00  0.00     0.132 C 
HETATM   26  S   UNL     1     -45.468 -53.690  17.288  1.00  0.00     0.150 S 
HETATM   27  C   UNL     1     -45.928 -53.747  14.694  1.00  0.00     0.025 C 
HETATM   28  C   UNL     1     -46.640 -52.481  16.690  1.00  0.00     0.141 C 
HETATM   29  O   UNL     1     -44.407 -53.011  18.000  1.00  0.00    -0.227 OA
HETATM   30  O   UNL     1     -46.210 -54.780  17.890  1.00  0.00    -0.227 OA
HETATM   31  C   UNL     1     -46.420 -52.376  15.187  1.00  0.00     0.022 C 
HETATM   32  C   UNL     1     -45.143 -53.661  13.386  1.00  0.00     0.130 C 
ENDBRANCH   6  23
TORSDOF 6
ENDMDL
MODEL 2
REMARK VINA RESULT:      -6.5      1.461      1.809
REMARK  6 active torsions:
REMARK  status: ('A' for Active; 'I' for Inactive)
REMARK    1  A    between atoms: N_2  and  C_12 
REMARK    2  A    between atoms: N_5  and  C_9 
REMARK    3  A    between atoms: C_19  and  C_27 
REMARK    4  A    between atoms: C_19  and  C_28 
REMARK    5  A    between atoms: C_27  and  O_29 
REMARK    6  A    between atoms: C_28  and  O_30 
ROOT
HETATM    1  N   UNL     1     -41.589 -48.243  11.635  1.00  0.00    -0.322 N 
HETATM    2  C   UNL     1     -42.004 -50.282  12.300  1.00  0.00     0.122 A 
HETATM    3  C   UNL     1     -40.967 -49.427  11.938  1.00  0.00     0.140 A 
HETATM    4  N   UNL     1     -43.228 -49.639  12.187  1.00  0.00    -0.346 N 
ATOM      5  HN  UNL     1     -44.153 -50.026  12.376  1.00  0.00     0.167 HD
HETATM    6  C   UNL     1     -41.656 -51.592  12.711  1.00  0.00     0.135 A 
HETATM    7  C   UNL     1     -42.938 -48.422  11.783  1.00  0.00     0.185 A 
HETATM    8  N   UNL     1     -39.653 -49.712  11.921  1.00  0.00    -0.336 N 
ATOM      9  HN  UNL     1     -38.923 -49.054  11.648  1.00  0.00     0.168 HD
HETATM   10  N   UNL     1     -40.328 -51.905  12.695  1.00  0.00    -0.337 N 
ATOM     11  HN  UNL     1     -40.018 -52.837  12.971  1.00  0.00     0.168 HD
HETATM   12  C   UNL     1     -39.429 -50.977  12.313  1.00  0.00     0.183 A 
ENDROOT
BRANCH   1  13
HETATM   13  C   UNL     1     -41.019 -46.975  11.271  1.00  0.00     0.094 C 
HETATM   14  C   UNL     1     -41.209 -45.853  12.327  1.00  0.00     0.039 C 
HETATM   15  C   UNL     1     -41.485 -44.860  11.153  1.00  0.00     0.006 C 
HETATM   16  C   UNL     1     -41.905 -46.111  10.326  1.00  0.00     0.039 C 
BRANCH  15  17
HETATM   17  C   UNL     1     -42.638 -43.889  11.397  1.00  0.00     0.175 C 
BRANCH  17  18
HETATM   18  O   UNL     1     -43.067 -43.342  10.153  1.00  0.00    -0.400 OA
HETATM   19  H   UNL     1     -43.554 -42.522  10.358  1.00  0.00     0.209 HD
ENDBRANCH  17  18
ENDBRANCH  15  17
BRANCH  15  20
HETATM   20  C   UNL     1     -40.256 -44.157  10.560  1.00  0.00     0.175 C 
BRANCH  20  21
HETATM   21  O   UNL     1     -40.445 -42.748  10.555  1.00  0.00    -0.400 OA
HETATM   22  H   UNL     1     -39.646 -42.358  10.963  1.00  0.00     0.209 HD
ENDBRANCH  20  21
ENDBRANCH  15  20
ENDBRANCH   1  13
BRANCH   6  23
HETATM   23  N   UNL     1     -42.558 -52.551  13.119  1.00  0.00    -0.364 N 
HETATM   24  C   UNL     1     -43.008 -52.603  14.508  1.00  0.00     0.145 C 
HETATM   25  C   UNL     1     -44.121 -53.638  14.475  1.00  0.00     0.132 C 
HETATM   26  S   UNL     1     -45.463 -53.278  15.568  1.00  0.00     0.150 S 
HETATM   27  C   UNL     1     -44.694 -53.524  13.060  1.00  0.00     0.025 C 
HETATM   28  C   UNL     1     -46.529 -52.505  14.360  1.00  0.00     0.141 C 
HETATM   29  O   UNL     1     -45.055 -52.288  16.543  1.00  0.00    -0.227 OA
HETATM   30  O   UNL     1     -46.068 -54.533  15.967  1.00  0.00    -0.227 OA
HETATM   31  C   UNL     1     -45.704 -52.364  13.087  1.00  0.00     0.022 C 
HETATM   32  C   UNL     1     -43.468 -53.222  12.200  1.00  0.00     0.130 C 
ENDBRANCH   6  23
TORSDOF 6
ENDMDL
MODEL 3
REMARK VINA RESULT:      -6.4      2.037      2.888
REMARK  6 active torsions:
REMARK  status: ('A' for Active; 'I' for Inactive)
REMARK    1  A    between atoms: N_2  and  C_12 
REMARK    2  A    between atoms: N_5  and  C_9 
REMARK    3  A    between atoms: C_19  and  C_27 
REMARK    4  A    between atoms: C_19  and  C_28 
REMARK    5  A    between atoms: C_27  and  O_29 
REMARK    6  A    between atoms: C_28  and  O_30 
ROOT
HETATM    1  N   UNL     1     -40.568 -48.320  11.517  1.00  0.00    -0.322 N 
HETATM    2  C   UNL     1     -40.499 -50.310  12.418  1.00  0.00     0.122 A 
HETATM    3  C   UNL     1     -39.716 -49.190  12.149  1.00  0.00     0.140 A 
HETATM    4  N   UNL     1     -41.786 -50.133  11.931  1.00  0.00    -0.346 N 
ATOM      5  HN  UNL     1     -42.563 -50.792  11.977  1.00  0.00     0.167 HD
HETATM    6  C   UNL     1     -39.888 -51.381  13.115  1.00  0.00     0.135 A 
HETATM    7  C   UNL     1     -41.786 -48.933  11.396  1.00  0.00     0.185 A 
HETATM    8  N   UNL     1     -38.423 -49.013  12.469  1.00  0.00    -0.336 N 
ATOM      9  HN  UNL     1     -37.884 -48.175  12.252  1.00  0.00     0.168 HD
HETATM   10  N   UNL     1     -38.573 -51.225  13.444  1.00  0.00    -0.337 N 
ATOM     11  HN  UNL     1     -38.077 -51.966  13.938  1.00  0.00     0.168 HD
HETATM   12  C   UNL     1     -37.933 -50.085  13.113  1.00  0.00     0.183 A 
ENDROOT
BRANCH   1  13
HETATM   13  C   UNL     1     -40.338 -46.974  11.072  1.00  0.00     0.094 C 
HETATM   14  C   UNL     1     -40.496 -45.893  12.175  1.00  0.00     0.039 C 
HETATM   15  C   UNL     1     -41.203 -44.985  11.118  1.00  0.00     0.006 C 
HETATM   16  C   UNL     1     -41.555 -46.304  10.369  1.00  0.00     0.039 C 
BRANCH  15  17
HETATM   17  C   UNL     1     -42.434 -44.244  11.636  1.00  0.00     0.175 C 
BRANCH  17  18
HETATM   18  O   UNL     1     -43.135 -43.666  10.538  1.00  0.00    -0.400 OA
HETATM   19  H   UNL     1     -43.997 -44.119  10.483  1.00  0.00     0.209 HD
ENDBRANCH  17  18
ENDBRANCH  15  17
BRANCH  15  20
HETATM   20  C   UNL     1     -40.287 -44.073  10.290  1.00  0.00     0.175 C 
BRANCH  20  21
HETATM   21  O   UNL     1     -40.535 -42.708  10.603  1.00  0.00    -0.400 OA
HETATM   22  H   UNL     1     -39.862 -42.185  10.120  1.00  0.00     0.209 HD
ENDBRANCH  20  21
ENDBRANCH  15  20
ENDBRANCH   1  13
BRANCH   6  23
HETATM   23  N   UNL     1     -40.527 -52.547  13.477  1.00  0.00    -0.364 N 
HETATM   24  C   UNL     1     -41.269 -52.628  14.732  1.00  0.00     0.145 C 
HETATM   25  C   UNL     1     -41.971 -53.973  14.636  1.00  0.00     0.132 C 
HETATM   26  S   UNL     1     -43.586 -53.990  15.355  1.00  0.00     0.150 S 
HETATM   27  C   UNL     1     -42.182 -54.177  13.134  1.00  0.00     0.025 C 
HETATM   28  C   UNL     1     -44.502 -53.721  13.845  1.00  0.00     0.141 C 
HETATM   29  O   UNL     1     -43.753 -52.842  16.222  1.00  0.00    -0.227 OA
HETATM   30  O   UNL     1     -43.860 -55.336  15.817  1.00  0.00    -0.227 OA
HETATM   31  C   UNL     1     -43.470 -53.422  12.764  1.00  0.00     0.022 C 
HETATM   32  C   UNL     1     -40.932 -53.558  12.508  1.00  0.00     0.130 C 
ENDBRANCH   6  23
TORSDOF 6
ENDMDL
MODEL 4
REMARK VINA RESULT:      -6.3      2.602      8.342
REMARK  6 active torsions:
REMARK  status: ('A' for Active; 'I' for Inactive)
REMARK    1  A    between atoms: N_2  and  C_12 
REMARK    2  A    between atoms: N_5  and  C_9 
REMARK    3  A    between atoms: C_19  and  C_27 
REMARK    4  A    between atoms: C_19  and  C_28 
REMARK    5  A    between atoms: C_27  and  O_29 
REMARK    6  A    between atoms: C_28  and  O_30 
ROOT
HETATM    1  N   UNL     1     -43.737 -51.603  13.197  1.00  0.00    -0.322 N 
HETATM    2  C   UNL     1     -42.222 -50.179  12.526  1.00  0.00     0.122 A 
HETATM    3  C   UNL     1     -42.533 -51.536  12.544  1.00  0.00     0.140 A 
HETATM    4  N   UNL     1     -43.200 -49.446  13.182  1.00  0.00    -0.346 N 
ATOM      5  HN  UNL     1     -43.226 -48.437  13.330  1.00  0.00     0.167 HD
HETATM    6  C   UNL     1     -41.029 -49.791  11.868  1.00  0.00     0.135 A 
HETATM    7  C   UNL     1     -44.087 -50.335  13.572  1.00  0.00     0.185 A 
HETATM    8  N   UNL     1     -41.811 -52.537  12.010  1.00  0.00    -0.336 N 
ATOM      9  HN  UNL     1     -42.074 -53.522  12.047  1.00  0.00     0.168 HD
HETATM   10  N   UNL     1     -40.277 -50.792  11.325  1.00  0.00    -0.337 N 
ATOM     11  HN  UNL     1     -39.403 -50.575  10.847  1.00  0.00     0.168 HD
HETATM   12  C   UNL     1     -40.697 -52.070  11.423  1.00  0.00     0.183 A 
ENDROOT
BRANCH   1  13
HETATM   13  C   UNL     1     -44.581 -52.738  13.447  1.00  0.00     0.094 C 
HETATM   14  C   UNL     1     -45.929 -52.401  14.139  1.00  0.00     0.039 C 
HETATM   15  C   UNL     1     -45.753 -53.689  15.005  1.00  0.00     0.006 C 
HETATM   16  C   UNL     1     -44.227 -53.542  14.732  1.00  0.00     0.039 C 
BRANCH  15  17
HETATM   17  C   UNL     1     -46.116 -53.521  16.479  1.00  0.00     0.175 C 
BRANCH  17  18
HETATM   18  O   UNL     1     -46.010 -54.780  17.139  1.00  0.00    -0.400 OA
HETATM   19  H   UNL     1     -46.834 -54.904  17.645  1.00  0.00     0.209 HD
ENDBRANCH  17  18
ENDBRANCH  15  17
BRANCH  15  20
HETATM   20  C   UNL     1     -46.327 -54.984  14.414  1.00  0.00     0.175 C 
BRANCH  20  21
HETATM   21  O   UNL     1     -47.696 -55.127  14.772  1.00  0.00    -0.400 OA
HETATM   22  H   UNL     1     -47.747 -55.895  15.377  1.00  0.00     0.209 HD
ENDBRANCH  20  21
ENDBRANCH  15  20
ENDBRANCH   1  13
BRANCH   6  23
HETATM   23  N   UNL     1     -40.590 -48.491  11.742  1.00  0.00    -0.364 N 
HETATM   24  C   UNL     1     -41.171 -47.605  10.737  1.00  0.00     0.145 C 
HETATM   25  C   UNL     1     -40.570 -46.251  11.076  1.00  0.00     0.132 C 
HETATM   26  S   UNL     1     -41.674 -44.894  10.818  1.00  0.00     0.150 S 
HETATM   27  C   UNL     1     -40.336 -46.315  12.588  1.00  0.00     0.025 C 
HETATM   28  C   UNL     1     -42.243 -44.750  12.505  1.00  0.00     0.141 C 
HETATM   29  O   UNL     1     -42.778 -45.309   9.979  1.00  0.00    -0.227 OA
HETATM   30  O   UNL     1     -40.881 -43.721  10.506  1.00  0.00    -0.227 OA
HETATM   31  C   UNL     1     -41.671 -45.946  13.256  1.00  0.00     0.022 C 
HETATM   32  C   UNL     1     -39.936 -47.771  12.827  1.00  0.00     0.130 C 
ENDBRANCH   6  23
TORSDOF 6
ENDMDL
MODEL 5
REMARK VINA RESULT:      -6.2      3.121      8.479
REMARK  6 active torsions:
REMARK  status: ('A' for Active; 'I' for Inactive)
REMARK    1  A    between atoms: N_2  and  C_12 
REMARK    2  A    between atoms: N_5  and  C_9 
REMARK    3  A    between atoms: C_19  and  C_27 
REMARK    4  A    between atoms: C_19  and  C_28 
REMARK    5  A    between atoms: C_27  and  O_29 
REMARK    6  A    between atoms: C_28  and  O_30 
ROOT
HETATM    1  N   UNL     1     -42.566 -50.540  12.800  1.00  0.00    -0.322 N 
HETATM    2  C   UNL     1     -41.389 -48.742  12.402  1.00  0.00     0.122 A 
HETATM    3  C   UNL     1     -41.367 -50.128  12.276  1.00  0.00     0.140 A 
HETATM    4  N   UNL     1     -42.561 -48.327  13.017  1.00  0.00    -0.346 N 
ATOM      5  HN  UNL     1     -42.838 -47.373  13.245  1.00  0.00     0.167 HD
HETATM    6  C   UNL     1     -40.277 -48.023  11.898  1.00  0.00     0.135 A 
HETATM    7  C   UNL     1     -43.237 -49.432  13.243  1.00  0.00     0.185 A 
HETATM    8  N   UNL     1     -40.388 -50.875  11.735  1.00  0.00    -0.336 N 
ATOM      9  HN  UNL     1     -40.410 -51.893  11.663  1.00  0.00     0.168 HD
HETATM   10  N   UNL     1     -39.269 -48.762  11.351  1.00  0.00    -0.337 N 
ATOM     11  HN  UNL     1     -38.438 -48.300  10.982  1.00  0.00     0.168 HD
HETATM   12  C   UNL     1     -39.376 -50.105  11.301  1.00  0.00     0.183 A 
ENDROOT
BRANCH   1  13
HETATM   13  C   UNL     1     -43.131 -51.859  12.870  1.00  0.00     0.094 C 
HETATM   14  C   UNL     1     -44.648 -51.895  13.196  1.00  0.00     0.039 C 
HETATM   15  C   UNL     1     -44.372 -53.124  14.120  1.00  0.00     0.006 C 
HETATM   16  C   UNL     1     -42.914 -52.587  14.228  1.00  0.00     0.039 C 
BRANCH  15  17
HETATM   17  C   UNL     1     -45.119 -53.100  15.452  1.00  0.00     0.175 C 
BRANCH  17  18
HETATM   18  O   UNL     1     -45.205 -54.425  15.970  1.00  0.00    -0.400 OA
HETATM   19  H   UNL     1     -44.710 -54.432  16.811  1.00  0.00     0.209 HD
ENDBRANCH  17  18
ENDBRANCH  15  17
BRANCH  15  20
HETATM   20  C   UNL     1     -44.436 -54.502  13.448  1.00  0.00     0.175 C 
BRANCH  20  21
HETATM   21  O   UNL     1     -45.784 -54.943  13.350  1.00  0.00    -0.400 OA
HETATM   22  H   UNL     1     -45.766 -55.918  13.439  1.00  0.00     0.209 HD
ENDBRANCH  20  21
ENDBRANCH  15  20
ENDBRANCH   1  13
BRANCH   6  23
HETATM   23  N   UNL     1     -40.153 -46.652  11.925  1.00  0.00    -0.364 N 
HETATM   24  C   UNL     1     -40.892 -45.821  10.978  1.00  0.00     0.145 C 
HETATM   25  C   UNL     1     -40.640 -44.408  11.482  1.00  0.00     0.132 C 
HETATM   26  S   UNL     1     -42.023 -43.324  11.292  1.00  0.00     0.150 S 
HETATM   27  C   UNL     1     -40.449 -44.580  12.991  1.00  0.00     0.025 C 
HETATM   28  C   UNL     1     -42.668 -43.499  12.949  1.00  0.00     0.141 C 
HETATM   29  O   UNL     1     -42.969 -43.890  10.353  1.00  0.00    -0.227 OA
HETATM   30  O   UNL     1     -41.520 -41.973  11.142  1.00  0.00    -0.227 OA
HETATM   31  C   UNL     1     -41.855 -44.604  13.612  1.00  0.00     0.022 C 
HETATM   32  C   UNL     1     -39.725 -45.920  13.111  1.00  0.00     0.130 C 
ENDBRANCH   6  23
TORSDOF 6
ENDMDL
MODEL 6
REMARK VINA RESULT:      -6.1      1.954      2.974
REMARK  6 active torsions:
REMARK  status: ('A' for Active; 'I' for Inactive)
REMARK    1  A    between atoms: N_2  and  C_12 
REMARK    2  A    between atoms: N_5  and  C_9 
REMARK    3  A    between atoms: C_19  and  C_27 
REMARK    4  A    between atoms: C_19  and  C_28 
REMARK    5  A    between atoms: C_27  and  O_29 
REMARK    6  A    between atoms: C_28  and  O_30 
ROOT
HETATM    1  N   UNL     1     -41.938 -48.089  11.990  1.00  0.00    -0.322 N 
HETATM    2  C   UNL     1     -41.333 -50.145  12.416  1.00  0.00     0.122 A 
HETATM    3  C   UNL     1     -40.847 -48.919  11.969  1.00  0.00     0.140 A 
HETATM    4  N   UNL     1     -42.695 -50.065  12.669  1.00  0.00    -0.346 N 
ATOM      5  HN  UNL     1     -43.311 -50.811  12.994  1.00  0.00     0.167 HD
HETATM    6  C   UNL     1     -40.407 -51.209  12.540  1.00  0.00     0.135 A 
HETATM    7  C   UNL     1     -43.020 -48.820  12.399  1.00  0.00     0.185 A 
HETATM    8  N   UNL     1     -39.580 -48.631  11.625  1.00  0.00    -0.336 N 
ATOM      9  HN  UNL     1     -39.263 -47.717  11.300  1.00  0.00     0.168 HD
HETATM   10  N   UNL     1     -39.116 -50.940  12.189  1.00  0.00    -0.337 N 
ATOM     11  HN  UNL     1     -38.407 -51.669  12.248  1.00  0.00     0.168 HD
HETATM   12  C   UNL     1     -38.784 -49.704  11.764  1.00  0.00     0.183 A 
ENDROOT
BRANCH   1  13
HETATM   13  C   UNL     1     -42.026 -46.684  11.704  1.00  0.00     0.094 C 
HETATM   14  C   UNL     1     -41.539 -46.281  10.286  1.00  0.00     0.039 C 
HETATM   15  C   UNL     1     -40.872 -45.021  10.924  1.00  0.00     0.006 C 
HETATM   16  C   UNL     1     -40.843 -45.834  12.253  1.00  0.00     0.039 C 
BRANCH  15  17
HETATM   17  C   UNL     1     -39.478 -44.698  10.390  1.00  0.00     0.175 C 
BRANCH  17  18
HETATM   18  O   UNL     1     -39.535 -44.560   8.972  1.00  0.00    -0.400 OA
HETATM   19  H   UNL     1     -40.263 -45.131   8.662  1.00  0.00     0.209 HD
ENDBRANCH  17  18
ENDBRANCH  15  17
BRANCH  15  20
HETATM   20  C   UNL     1     -41.753 -43.769  11.028  1.00  0.00     0.175 C 
BRANCH  20  21
HETATM   21  O   UNL     1     -41.053 -42.629  10.547  1.00  0.00    -0.400 OA
HETATM   22  H   UNL     1     -41.685 -42.125   9.994  1.00  0.00     0.209 HD
ENDBRANCH  20  21
ENDBRANCH  15  20
ENDBRANCH   1  13
BRANCH   6  23
HETATM   23  N   UNL     1     -40.721 -52.474  12.987  1.00  0.00    -0.364 N 
HETATM   24  C   UNL     1     -41.076 -52.701  14.385  1.00  0.00     0.145 C 
HETATM   25  C   UNL     1     -41.542 -54.148  14.397  1.00  0.00     0.132 C 
HETATM   26  S   UNL     1     -42.878 -54.459  15.512  1.00  0.00     0.150 S 
HETATM   27  C   UNL     1     -42.112 -54.367  12.993  1.00  0.00     0.025 C 
HETATM   28  C   UNL     1     -44.197 -54.337  14.313  1.00  0.00     0.141 C 
HETATM   29  O   UNL     1     -42.996 -53.370  16.458  1.00  0.00    -0.227 OA
HETATM   30  O   UNL     1     -42.790 -55.838  15.948  1.00  0.00    -0.227 OA
HETATM   31  C   UNL     1     -43.559 -53.847  13.019  1.00  0.00     0.022 C 
HETATM   32  C   UNL     1     -41.197 -53.529  12.100  1.00  0.00     0.130 C 
ENDBRANCH   6  23
TORSDOF 6
ENDMDL
MODEL 7
REMARK VINA RESULT:      -5.9      3.594      4.319
REMARK  6 active torsions:
REMARK  status: ('A' for Active; 'I' for Inactive)
REMARK    1  A    between atoms: N_2  and  C_12 
REMARK    2  A    between atoms: N_5  and  C_9 
REMARK    3  A    between atoms: C_19  and  C_27 
REMARK    4  A    between atoms: C_19  and  C_28 
REMARK    5  A    between atoms: C_27  and  O_29 
REMARK    6  A    between atoms: C_28  and  O_30 
ROOT
HETATM    1  N   UNL     1     -40.198 -48.733  12.086  1.00  0.00    -0.322 N 
HETATM    2  C   UNL     1     -40.011 -50.564  13.264  1.00  0.00     0.122 A 
HETATM    3  C   UNL     1     -39.296 -49.452  12.828  1.00  0.00     0.140 A 
HETATM    4  N   UNL     1     -41.307 -50.534  12.769  1.00  0.00    -0.346 N 
ATOM      5  HN  UNL     1     -42.044 -51.223  12.918  1.00  0.00     0.167 HD
HETATM    6  C   UNL     1     -39.338 -51.486  14.102  1.00  0.00     0.135 A 
HETATM    7  C   UNL     1     -41.378 -49.426  12.066  1.00  0.00     0.185 A 
HETATM    8  N   UNL     1     -38.014 -49.156  13.107  1.00  0.00    -0.336 N 
ATOM      9  HN  UNL     1     -37.525 -48.328  12.765  1.00  0.00     0.168 HD
HETATM   10  N   UNL     1     -38.034 -51.208  14.393  1.00  0.00    -0.337 N 
ATOM     11  HN  UNL     1     -37.495 -51.841  14.983  1.00  0.00     0.168 HD
HETATM   12  C   UNL     1     -37.462 -50.094  13.894  1.00  0.00     0.183 A 
ENDROOT
BRANCH   1  13
HETATM   13  C   UNL     1     -40.047 -47.454  11.449  1.00  0.00     0.094 C 
HETATM   14  C   UNL     1     -40.279 -46.236  12.382  1.00  0.00     0.039 C 
HETATM   15  C   UNL     1     -41.032 -45.537  11.205  1.00  0.00     0.006 C 
HETATM   16  C   UNL     1     -41.297 -46.971  10.657  1.00  0.00     0.039 C 
BRANCH  15  17
HETATM   17  C   UNL     1     -42.310 -44.807  11.611  1.00  0.00     0.175 C 
BRANCH  17  18
HETATM   18  O   UNL     1     -42.959 -44.305  10.445  1.00  0.00    -0.400 OA
HETATM   19  H   UNL     1     -42.679 -43.376  10.343  1.00  0.00     0.209 HD
ENDBRANCH  17  18
ENDBRANCH  15  17
BRANCH  15  20
HETATM   20  C   UNL     1     -40.168 -44.701  10.252  1.00  0.00     0.175 C 
BRANCH  20  21
HETATM   21  O   UNL     1     -40.399 -43.314  10.463  1.00  0.00    -0.400 OA
HETATM   22  H   UNL     1     -40.183 -43.135  11.401  1.00  0.00     0.209 HD
ENDBRANCH  20  21
ENDBRANCH  15  20
ENDBRANCH   1  13
BRANCH   6  23
HETATM   23  N   UNL     1     -39.907 -52.622  14.635  1.00  0.00    -0.364 N 
HETATM   24  C   UNL     1     -39.182 -53.889  14.626  1.00  0.00     0.145 C 
HETATM   25  C   UNL     1     -40.056 -54.798  15.475  1.00  0.00     0.132 C 
HETATM   26  S   UNL     1     -39.145 -55.943  16.467  1.00  0.00     0.150 S 
HETATM   27  C   UNL     1     -40.738 -53.845  16.459  1.00  0.00     0.025 C 
HETATM   28  C   UNL     1     -39.160 -54.987  17.976  1.00  0.00     0.141 C 
HETATM   29  O   UNL     1     -37.785 -56.043  15.982  1.00  0.00    -0.227 OA
HETATM   30  O   UNL     1     -39.968 -57.119  16.668  1.00  0.00    -0.227 OA
HETATM   31  C   UNL     1     -39.750 -53.628  17.618  1.00  0.00     0.022 C 
HETATM   32  C   UNL     1     -40.969 -52.580  15.633  1.00  0.00     0.130 C 
ENDBRANCH   6  23
TORSDOF 6
ENDMDL
MODEL 8
REMARK VINA RESULT:      -5.8      4.204      5.848
REMARK  6 active torsions:
REMARK  status: ('A' for Active; 'I' for Inactive)
REMARK    1  A    between atoms: N_2  and  C_12 
REMARK    2  A    between atoms: N_5  and  C_9 
REMARK    3  A    between atoms: C_19  and  C_27 
REMARK    4  A    between atoms: C_19  and  C_28 
REMARK    5  A    between atoms: C_27  and  O_29 
REMARK    6  A    between atoms: C_28  and  O_30 
ROOT
HETATM    1  N   UNL     1     -41.921 -44.879  11.816  1.00  0.00    -0.322 N 
HETATM    2  C   UNL     1     -41.876 -47.062  11.718  1.00  0.00     0.122 A 
HETATM    3  C   UNL     1     -42.266 -45.931  11.006  1.00  0.00     0.140 A 
HETATM    4  N   UNL     1     -41.337 -46.703  12.945  1.00  0.00    -0.346 N 
ATOM      5  HN  UNL     1     -40.981 -47.323  13.672  1.00  0.00     0.167 HD
HETATM    6  C   UNL     1     -42.073 -48.322  11.102  1.00  0.00     0.135 A 
HETATM    7  C   UNL     1     -41.385 -45.389  12.967  1.00  0.00     0.185 A 
HETATM    8  N   UNL     1     -42.830 -45.900   9.786  1.00  0.00    -0.336 N 
ATOM      9  HN  UNL     1     -43.103 -45.047   9.297  1.00  0.00     0.168 HD
HETATM   10  N   UNL     1     -42.650 -48.314   9.866  1.00  0.00    -0.337 N 
ATOM     11  HN  UNL     1     -42.827 -49.191   9.377  1.00  0.00     0.168 HD
HETATM   12  C   UNL     1     -42.987 -47.140   9.294  1.00  0.00     0.183 A 
ENDROOT
BRANCH   1  13
HETATM   13  C   UNL     1     -42.015 -43.466  11.573  1.00  0.00     0.094 C 
HETATM   14  C   UNL     1     -40.680 -42.793  11.156  1.00  0.00     0.039 C 
HETATM   15  C   UNL     1     -41.064 -41.579  12.061  1.00  0.00     0.006 C 
HETATM   16  C   UNL     1     -41.957 -42.581  12.851  1.00  0.00     0.039 C 
BRANCH  15  17
HETATM   17  C   UNL     1     -39.914 -41.017  12.894  1.00  0.00     0.175 C 
BRANCH  17  18
HETATM   18  O   UNL     1     -40.280 -39.737  13.403  1.00  0.00    -0.400 OA
HETATM   19  H   UNL     1     -40.544 -39.867  14.333  1.00  0.00     0.209 HD
ENDBRANCH  17  18
ENDBRANCH  15  17
BRANCH  15  20
HETATM   20  C   UNL     1     -41.887 -40.470  11.392  1.00  0.00     0.175 C 
BRANCH  20  21
HETATM   21  O   UNL     1     -41.028 -39.533  10.754  1.00  0.00    -0.400 OA
HETATM   22  H   UNL     1     -40.405 -40.054  10.206  1.00  0.00     0.209 HD
ENDBRANCH  20  21
ENDBRANCH  15  20
ENDBRANCH   1  13
BRANCH   6  23
HETATM   23  N   UNL     1     -41.723 -49.531  11.661  1.00  0.00    -0.364 N 
HETATM   24  C   UNL     1     -40.348 -50.016  11.581  1.00  0.00     0.145 C 
HETATM   25  C   UNL     1     -40.356 -51.241  12.482  1.00  0.00     0.132 C 
HETATM   26  S   UNL     1     -38.856 -51.472  13.388  1.00  0.00     0.150 S 
HETATM   27  C   UNL     1     -41.430 -50.927  13.527  1.00  0.00     0.025 C 
HETATM   28  C   UNL     1     -39.395 -50.699  14.906  1.00  0.00     0.141 C 
HETATM   29  O   UNL     1     -37.797 -50.678  12.801  1.00  0.00    -0.227 OA
HETATM   30  O   UNL     1     -38.693 -52.891  13.636  1.00  0.00    -0.227 OA
HETATM   31  C   UNL     1     -40.751 -50.072  14.611  1.00  0.00     0.022 C 
HETATM   32  C   UNL     1     -42.485 -50.154  12.737  1.00  0.00     0.130 C 
ENDBRANCH   6  23
TORSDOF 6
ENDMDL
MODEL 9
REMARK VINA RESULT:      -5.7      3.197      4.236
REMARK  6 active torsions:
REMARK  status: ('A' for Active; 'I' for Inactive)
REMARK    1  A    between atoms: N_2  and  C_12 
REMARK    2  A    between atoms: N_5  and  C_9 
REMARK    3  A    between atoms: C_19  and  C_27 
REMARK    4  A    between atoms: C_19  and  C_28 
REMARK    5  A    between atoms: C_27  and  O_29 
REMARK    6  A    between atoms: C_28  and  O_30 
ROOT
HETATM    1  N   UNL     1     -41.691 -49.680  12.327  1.00  0.00    -0.322 N 
HETATM    2  C   UNL     1     -40.912 -51.403  13.423  1.00  0.00     0.122 A 
HETATM    3  C   UNL     1     -41.954 -51.000  12.591  1.00  0.00     0.140 A 
HETATM    4  N   UNL     1     -40.057 -50.342  13.681  1.00  0.00    -0.346 N 
ATOM      5  HN  UNL     1     -39.220 -50.346  14.265  1.00  0.00     0.167 HD
HETATM    6  C   UNL     1     -40.893 -52.757  13.836  1.00  0.00     0.135 A 
HETATM    7  C   UNL     1     -40.559 -49.328  13.011  1.00  0.00     0.185 A 
HETATM    8  N   UNL     1     -42.967 -51.760  12.140  1.00  0.00    -0.336 N 
ATOM      9  HN  UNL     1     -43.714 -51.424  11.531  1.00  0.00     0.168 HD
HETATM   10  N   UNL     1     -41.917 -53.545  13.395  1.00  0.00    -0.337 N 
ATOM     11  HN  UNL     1     -41.962 -54.526  13.668  1.00  0.00     0.168 HD
HETATM   12  C   UNL     1     -42.867 -53.019  12.597  1.00  0.00     0.183 A 
ENDROOT
BRANCH   1  13
HETATM   13  C   UNL     1     -42.383 -48.762  11.465  1.00  0.00     0.094 C 
HETATM   14  C   UNL     1     -41.481 -48.052  10.420  1.00  0.00     0.039 C 
HETATM   15  C   UNL     1     -42.285 -46.740  10.687  1.00  0.00     0.006 C 
HETATM   16  C   UNL     1     -42.628 -47.353  12.077  1.00  0.00     0.039 C 
BRANCH  15  17
HETATM   17  C   UNL     1     -41.432 -45.478  10.784  1.00  0.00     0.175 C 
BRANCH  17  18
HETATM   18  O   UNL     1     -40.840 -45.208   9.515  1.00  0.00    -0.400 OA
HETATM   19  H   UNL     1     -40.178 -45.907   9.357  1.00  0.00     0.209 HD
ENDBRANCH  17  18
ENDBRANCH  15  17
BRANCH  15  20
HETATM   20  C   UNL     1     -43.535 -46.526   9.822  1.00  0.00     0.175 C 
BRANCH  20  21
HETATM   21  O   UNL     1     -43.694 -45.147   9.515  1.00  0.00    -0.400 OA
HETATM   22  H   UNL     1     -42.872 -44.865   9.064  1.00  0.00     0.209 HD
ENDBRANCH  20  21
ENDBRANCH  15  20
ENDBRANCH   1  13
BRANCH   6  23
HETATM   23  N   UNL     1     -39.924 -53.319  14.638  1.00  0.00    -0.364 N 
HETATM   24  C   UNL     1     -39.841 -52.973  16.054  1.00  0.00     0.145 C 
HETATM   25  C   UNL     1     -38.806 -53.948  16.592  1.00  0.00     0.132 C 
HETATM   26  S   UNL     1     -39.139 -54.512  18.234  1.00  0.00     0.150 S 
HETATM   27  C   UNL     1     -38.950 -55.178  15.692  1.00  0.00     0.025 C 
HETATM   28  C   UNL     1     -39.938 -56.045  17.782  1.00  0.00     0.141 C 
HETATM   29  O   UNL     1     -40.108 -53.642  18.868  1.00  0.00    -0.227 OA
HETATM   30  O   UNL     1     -37.875 -54.829  18.867  1.00  0.00    -0.227 OA
HETATM   31  C   UNL     1     -40.107 -56.011  16.268  1.00  0.00     0.022 C 
HETATM   32  C   UNL     1     -39.273 -54.584  14.321  1.00  0.00     0.130 C 
ENDBRANCH   6  23
TORSDOF 6
ENDMDL
