MODEL 1
REMARK VINA RESULT:      -6.2      0.000      0.000
REMARK  4 active torsions:
REMARK  status: ('A' for Active; 'I' for Inactive)
REMARK    1  A    between atoms: C_2  and  O_3 
REMARK    2  A    between atoms: O_3  and  C_4 
REMARK    3  A    between atoms: C_4  and  C_5 
REMARK    4  A    between atoms: C_5  and  N_6 
ROOT
HETATM    1  N   UNL     1     -41.906 -51.408  12.647  1.00  0.00    -0.172 N 
HETATM    2  C   UNL     1     -42.737 -50.281  12.560  1.00  0.00     0.685 A 
HETATM    3  N   UNL     1     -43.959 -50.578  12.958  1.00  0.00    -0.174 N 
ATOM      4  HN  UNL     1     -44.775 -49.968  12.949  1.00  0.00     0.186 HD
HETATM    5  C   UNL     1     -43.902 -51.873  13.384  1.00  0.00     0.160 A 
HETATM    6  N   UNL     1     -44.949 -52.599  13.941  1.00  0.00    -0.287 N 
HETATM    7  C   UNL     1     -46.265 -52.052  14.147  1.00  0.00     0.163 C 
HETATM    8  C   UNL     1     -44.729 -53.908  14.339  1.00  0.00     0.330 C 
HETATM    9  O   UNL     1     -45.596 -54.630  14.835  1.00  0.00    -0.246 OA
HETATM   10  N   UNL     1     -43.472 -54.418  14.158  1.00  0.00    -0.273 N 
HETATM   11  C   UNL     1     -42.429 -53.810  13.519  1.00  0.00     0.280 C 
HETATM   12  O   UNL     1     -41.429 -54.491  13.283  1.00  0.00    -0.265 OA
HETATM   13  C   UNL     1     -42.665 -52.433  13.185  1.00  0.00     0.164 A 
HETATM   14  N   UNL     1     -42.292 -49.116  12.017  1.00  0.00    -0.214 N 
HETATM   15  C   UNL     1     -43.225 -48.212  11.321  1.00  0.00     0.171 C 
HETATM   16  C   UNL     1     -42.428 -47.410  10.241  1.00  0.00     0.292 C 
HETATM   17  N   UNL     1     -41.175 -46.743  10.693  1.00  0.00     0.087 N 
HETATM   18  C   UNL     1     -41.452 -45.505  11.417  1.00  0.00     0.310 C 
HETATM   19  C   UNL     1     -40.388 -47.679  11.531  1.00  0.00     0.292 C 
HETATM   20  C   UNL     1     -41.212 -48.349  12.656  1.00  0.00     0.171 C 
HETATM   21  H   UNL     1     -43.342 -55.386  14.401  1.00  0.00     0.173 HD
ENDROOT
BRANCH   1  22
HETATM   22  C   UNL     1     -40.530 -51.417  12.170  1.00  0.00     0.174 C 
BRANCH  22  23
HETATM   23  C   UNL     1     -39.453 -51.561  13.212  1.00  0.00     0.188 C 
BRANCH  23  24
HETATM   24  O   UNL     1     -38.135 -51.550  12.669  1.00  0.00    -0.390 OA
BRANCH  24  25
HETATM   25  C   UNL     1     -37.749 -50.179  12.497  1.00  0.00     0.163 C 
HETATM   26  C   UNL     1     -37.304 -49.970  11.073  1.00  0.00     0.033 C 
ENDBRANCH  24  25
ENDBRANCH  23  24
ENDBRANCH  22  23
ENDBRANCH   1  22
TORSDOF 4
ENDMDL
MODEL 2
REMARK VINA RESULT:      -6.2      2.965      6.187
REMARK  4 active torsions:
REMARK  status: ('A' for Active; 'I' for Inactive)
REMARK    1  A    between atoms: C_2  and  O_3 
REMARK    2  A    between atoms: O_3  and  C_4 
REMARK    3  A    between atoms: C_4  and  C_5 
REMARK    4  A    between atoms: C_5  and  N_6 
ROOT
HETATM    1  N   UNL     1     -40.698 -48.624  11.807  1.00  0.00    -0.172 N 
HETATM    2  C   UNL     1     -41.703 -49.588  11.976  1.00  0.00     0.685 A 
HETATM    3  N   UNL     1     -42.832 -49.178  11.431  1.00  0.00    -0.174 N 
ATOM      4  HN  UNL     1     -43.734 -49.652  11.451  1.00  0.00     0.186 HD
HETATM    5  C   UNL     1     -42.540 -47.987  10.833  1.00  0.00     0.160 A 
HETATM    6  N   UNL     1     -43.416 -47.208  10.086  1.00  0.00    -0.287 N 
HETATM    7  C   UNL     1     -44.786 -47.579   9.841  1.00  0.00     0.163 C 
HETATM    8  C   UNL     1     -42.963 -46.023   9.529  1.00  0.00     0.330 C 
HETATM    9  O   UNL     1     -43.668 -45.266   8.859  1.00  0.00    -0.246 OA
HETATM   10  N   UNL     1     -41.656 -45.684   9.750  1.00  0.00    -0.273 N 
HETATM   11  C   UNL     1     -40.770 -46.333  10.561  1.00  0.00     0.280 C 
HETATM   12  O   UNL     1     -39.692 -45.780  10.788  1.00  0.00    -0.265 OA
HETATM   13  C   UNL     1     -41.245 -47.593  11.063  1.00  0.00     0.164 A 
HETATM   14  N   UNL     1     -41.488 -50.709  12.716  1.00  0.00    -0.214 N 
HETATM   15  C   UNL     1     -42.599 -51.348  13.445  1.00  0.00     0.171 C 
HETATM   16  C   UNL     1     -42.016 -52.083  14.695  1.00  0.00     0.292 C 
HETATM   17  N   UNL     1     -40.858 -52.990  14.457  1.00  0.00     0.087 N 
HETATM   18  C   UNL     1     -41.280 -54.270  13.894  1.00  0.00     0.310 C 
HETATM   19  C   UNL     1     -39.876 -52.321  13.571  1.00  0.00     0.292 C 
HETATM   20  C   UNL     1     -40.504 -51.716  12.293  1.00  0.00     0.171 C 
HETATM   21  H   UNL     1     -41.357 -44.794   9.386  1.00  0.00     0.173 HD
ENDROOT
BRANCH   1  22
HETATM   22  C   UNL     1     -39.374 -48.746  12.401  1.00  0.00     0.174 C 
BRANCH  22  23
HETATM   23  C   UNL     1     -39.184 -48.131  13.762  1.00  0.00     0.188 C 
BRANCH  23  24
HETATM   24  O   UNL     1     -38.922 -49.090  14.785  1.00  0.00    -0.390 OA
BRANCH  24  25
HETATM   25  C   UNL     1     -37.498 -49.222  14.899  1.00  0.00     0.163 C 
HETATM   26  C   UNL     1     -36.891 -47.856  15.081  1.00  0.00     0.033 C 
ENDBRANCH  24  25
ENDBRANCH  23  24
ENDBRANCH  22  23
ENDBRANCH   1  22
TORSDOF 4
ENDMDL
MODEL 3
REMARK VINA RESULT:      -6.1      3.494      6.258
REMARK  4 active torsions:
REMARK  status: ('A' for Active; 'I' for Inactive)
REMARK    1  A    between atoms: C_2  and  O_3 
REMARK    2  A    between atoms: O_3  and  C_4 
REMARK    3  A    between atoms: C_4  and  C_5 
REMARK    4  A    between atoms: C_5  and  N_6 
ROOT
HETATM    1  N   UNL     1     -40.666 -53.934  14.360  1.00  0.00    -0.172 N 
HETATM    2  C   UNL     1     -41.110 -54.582  15.523  1.00  0.00     0.685 A 
HETATM    3  N   UNL     1     -42.428 -54.630  15.549  1.00  0.00    -0.174 N 
ATOM      4  HN  UNL     1     -43.016 -54.994  16.298  1.00  0.00     0.186 HD
HETATM    5  C   UNL     1     -42.839 -54.091  14.366  1.00  0.00     0.160 A 
HETATM    6  N   UNL     1     -44.154 -53.980  13.929  1.00  0.00    -0.287 N 
HETATM    7  C   UNL     1     -45.281 -54.441  14.698  1.00  0.00     0.163 C 
HETATM    8  C   UNL     1     -44.411 -53.418  12.689  1.00  0.00     0.330 C 
HETATM    9  O   UNL     1     -45.542 -53.272  12.221  1.00  0.00    -0.246 OA
HETATM   10  N   UNL     1     -43.336 -52.998  11.954  1.00  0.00    -0.273 N 
HETATM   11  C   UNL     1     -42.032 -52.968  12.358  1.00  0.00     0.280 C 
HETATM   12  O   UNL     1     -41.223 -52.383  11.636  1.00  0.00    -0.265 OA
HETATM   13  C   UNL     1     -41.790 -53.623  13.614  1.00  0.00     0.164 A 
HETATM   14  N   UNL     1     -40.237 -54.969  16.491  1.00  0.00    -0.214 N 
HETATM   15  C   UNL     1     -40.658 -55.010  17.904  1.00  0.00     0.171 C 
HETATM   16  C   UNL     1     -39.403 -54.770  18.804  1.00  0.00     0.292 C 
HETATM   17  N   UNL     1     -38.203 -55.605  18.514  1.00  0.00     0.087 N 
HETATM   18  C   UNL     1     -38.339 -56.955  19.054  1.00  0.00     0.310 C 
HETATM   19  C   UNL     1     -37.965 -55.642  17.051  1.00  0.00     0.292 C 
HETATM   20  C   UNL     1     -39.223 -56.001  16.226  1.00  0.00     0.171 C 
HETATM   21  H   UNL     1     -43.542 -52.541  11.080  1.00  0.00     0.173 HD
ENDROOT
BRANCH   1  22
HETATM   22  C   UNL     1     -39.264 -53.631  14.107  1.00  0.00     0.174 C 
BRANCH  22  23
HETATM   23  C   UNL     1     -38.869 -52.178  14.144  1.00  0.00     0.188 C 
BRANCH  23  24
HETATM   24  O   UNL     1     -37.953 -51.815  13.114  1.00  0.00    -0.390 OA
BRANCH  24  25
HETATM   25  C   UNL     1     -38.331 -50.518  12.635  1.00  0.00     0.163 C 
HETATM   26  C   UNL     1     -37.480 -50.167  11.443  1.00  0.00     0.033 C 
ENDBRANCH  24  25
ENDBRANCH  23  24
ENDBRANCH  22  23
ENDBRANCH   1  22
TORSDOF 4
ENDMDL
MODEL 4
REMARK VINA RESULT:      -5.9      2.104      5.975
REMARK  4 active torsions:
REMARK  status: ('A' for Active; 'I' for Inactive)
REMARK    1  A    between atoms: C_2  and  O_3 
REMARK    2  A    between atoms: O_3  and  C_4 
REMARK    3  A    between atoms: C_4  and  C_5 
REMARK    4  A    between atoms: C_5  and  N_6 
ROOT
HETATM    1  N   UNL     1     -41.152 -49.693  13.173  1.00  0.00    -0.172 N 
HETATM    2  C   UNL     1     -42.387 -50.135  12.675  1.00  0.00     0.685 A 
HETATM    3  N   UNL     1     -42.862 -49.276  11.794  1.00  0.00    -0.174 N 
ATOM      4  HN  UNL     1     -43.761 -49.318  11.315  1.00  0.00     0.186 HD
HETATM    5  C   UNL     1     -41.898 -48.320  11.656  1.00  0.00     0.160 A 
HETATM    6  N   UNL     1     -41.939 -47.235  10.787  1.00  0.00    -0.287 N 
HETATM    7  C   UNL     1     -43.040 -46.981   9.895  1.00  0.00     0.163 C 
HETATM    8  C   UNL     1     -40.870 -46.354  10.753  1.00  0.00     0.330 C 
HETATM    9  O   UNL     1     -40.820 -45.363  10.023  1.00  0.00    -0.246 OA
HETATM   10  N   UNL     1     -39.818 -46.610  11.590  1.00  0.00    -0.273 N 
HETATM   11  C   UNL     1     -39.752 -47.583  12.546  1.00  0.00     0.280 C 
HETATM   12  O   UNL     1     -38.806 -47.547  13.334  1.00  0.00    -0.265 OA
HETATM   13  C   UNL     1     -40.840 -48.521  12.506  1.00  0.00     0.164 A 
HETATM   14  N   UNL     1     -42.993 -51.246  13.174  1.00  0.00    -0.214 N 
HETATM   15  C   UNL     1     -44.463 -51.352  13.188  1.00  0.00     0.171 C 
HETATM   16  C   UNL     1     -44.884 -52.276  14.377  1.00  0.00     0.292 C 
HETATM   17  N   UNL     1     -44.189 -53.590  14.480  1.00  0.00     0.087 N 
HETATM   18  C   UNL     1     -44.723 -54.561  13.529  1.00  0.00     0.310 C 
HETATM   19  C   UNL     1     -42.733 -53.399  14.279  1.00  0.00     0.292 C 
HETATM   20  C   UNL     1     -42.382 -52.574  13.018  1.00  0.00     0.171 C 
HETATM   21  H   UNL     1     -39.073 -45.931  11.594  1.00  0.00     0.173 HD
ENDROOT
BRANCH   1  22
HETATM   22  C   UNL     1     -40.440 -50.376  14.245  1.00  0.00     0.174 C 
BRANCH  22  23
HETATM   23  C   UNL     1     -39.120 -51.005  13.886  1.00  0.00     0.188 C 
BRANCH  23  24
HETATM   24  O   UNL     1     -38.911 -51.118  12.480  1.00  0.00    -0.390 OA
BRANCH  24  25
HETATM   25  C   UNL     1     -37.518 -50.890  12.229  1.00  0.00     0.163 C 
HETATM   26  C   UNL     1     -37.377 -49.937  11.071  1.00  0.00     0.033 C 
ENDBRANCH  24  25
ENDBRANCH  23  24
ENDBRANCH  22  23
ENDBRANCH   1  22
TORSDOF 4
ENDMDL
MODEL 5
REMARK VINA RESULT:      -5.9      2.128      6.086
REMARK  4 active torsions:
REMARK  status: ('A' for Active; 'I' for Inactive)
REMARK    1  A    between atoms: C_2  and  O_3 
REMARK    2  A    between atoms: O_3  and  C_4 
REMARK    3  A    between atoms: C_4  and  C_5 
REMARK    4  A    between atoms: C_5  and  N_6 
ROOT
HETATM    1  N   UNL     1     -41.036 -50.736  12.685  1.00  0.00    -0.172 N 
HETATM    2  C   UNL     1     -42.434 -50.853  12.705  1.00  0.00     0.685 A 
HETATM    3  N   UNL     1     -42.994 -49.752  12.241  1.00  0.00    -0.174 N 
ATOM      4  HN  UNL     1     -43.991 -49.542  12.192  1.00  0.00     0.186 HD
HETATM    5  C   UNL     1     -41.962 -48.955  11.841  1.00  0.00     0.160 A 
HETATM    6  N   UNL     1     -42.077 -47.708  11.236  1.00  0.00    -0.287 N 
HETATM    7  C   UNL     1     -43.344 -47.088  10.945  1.00  0.00     0.163 C 
HETATM    8  C   UNL     1     -40.929 -47.023  10.874  1.00  0.00     0.330 C 
HETATM    9  O   UNL     1     -40.931 -45.912  10.340  1.00  0.00    -0.246 OA
HETATM   10  N   UNL     1     -39.728 -47.625  11.136  1.00  0.00    -0.273 N 
HETATM   11  C   UNL     1     -39.531 -48.787  11.825  1.00  0.00     0.280 C 
HETATM   12  O   UNL     1     -38.373 -49.081  12.129  1.00  0.00    -0.265 OA
HETATM   13  C   UNL     1     -40.738 -49.508  12.121  1.00  0.00     0.164 A 
HETATM   14  N   UNL     1     -43.044 -51.938  13.253  1.00  0.00    -0.214 N 
HETATM   15  C   UNL     1     -44.373 -51.811  13.878  1.00  0.00     0.171 C 
HETATM   16  C   UNL     1     -44.506 -52.903  14.989  1.00  0.00     0.292 C 
HETATM   17  N   UNL     1     -44.160 -54.299  14.599  1.00  0.00     0.087 N 
HETATM   18  C   UNL     1     -45.236 -54.931  13.840  1.00  0.00     0.310 C 
HETATM   19  C   UNL     1     -42.896 -54.300  13.825  1.00  0.00     0.292 C 
HETATM   20  C   UNL     1     -42.877 -53.276  12.665  1.00  0.00     0.171 C 
HETATM   21  H   UNL     1     -38.902 -47.091  10.917  1.00  0.00     0.173 HD
ENDROOT
BRANCH   1  22
HETATM   22  C   UNL     1     -40.148 -51.748  13.242  1.00  0.00     0.174 C 
BRANCH  22  23
HETATM   23  C   UNL     1     -39.610 -51.490  14.624  1.00  0.00     0.188 C 
BRANCH  23  24
HETATM   24  O   UNL     1     -39.207 -52.676  15.305  1.00  0.00    -0.390 OA
BRANCH  24  25
HETATM   25  C   UNL     1     -39.240 -53.752  14.357  1.00  0.00     0.163 C 
HETATM   26  C   UNL     1     -39.004 -55.052  15.081  1.00  0.00     0.033 C 
ENDBRANCH  24  25
ENDBRANCH  23  24
ENDBRANCH  22  23
ENDBRANCH   1  22
TORSDOF 4
ENDMDL
MODEL 6
REMARK VINA RESULT:      -5.5      2.604      4.980
REMARK  4 active torsions:
REMARK  status: ('A' for Active; 'I' for Inactive)
REMARK    1  A    between atoms: C_2  and  O_3 
REMARK    2  A    between atoms: O_3  and  C_4 
REMARK    3  A    between atoms: C_4  and  C_5 
REMARK    4  A    between atoms: C_5  and  N_6 
ROOT
HETATM    1  N   UNL     1     -42.174 -52.992  14.286  1.00  0.00    -0.172 N 
HETATM    2  C   UNL     1     -40.956 -52.299  14.349  1.00  0.00     0.685 A 
HETATM    3  N   UNL     1     -40.105 -52.933  15.133  1.00  0.00    -0.174 N 
ATOM      4  HN  UNL     1     -39.170 -52.629  15.400  1.00  0.00     0.186 HD
HETATM    5  C   UNL     1     -40.739 -54.080  15.512  1.00  0.00     0.160 A 
HETATM    6  N   UNL     1     -40.203 -55.090  16.303  1.00  0.00    -0.287 N 
HETATM    7  C   UNL     1     -38.865 -55.047  16.835  1.00  0.00     0.163 C 
HETATM    8  C   UNL     1     -40.971 -56.206  16.590  1.00  0.00     0.330 C 
HETATM    9  O   UNL     1     -40.584 -57.146  17.287  1.00  0.00    -0.246 OA
HETATM   10  N   UNL     1     -42.235 -56.251  16.068  1.00  0.00    -0.273 N 
HETATM   11  C   UNL     1     -42.870 -55.256  15.381  1.00  0.00     0.280 C 
HETATM   12  O   UNL     1     -44.072 -55.399  15.150  1.00  0.00    -0.265 OA
HETATM   13  C   UNL     1     -42.025 -54.146  15.037  1.00  0.00     0.164 A 
HETATM   14  N   UNL     1     -40.801 -51.088  13.749  1.00  0.00    -0.214 N 
HETATM   15  C   UNL     1     -39.876 -50.088  14.312  1.00  0.00     0.171 C 
HETATM   16  C   UNL     1     -40.393 -48.663  13.931  1.00  0.00     0.292 C 
HETATM   17  N   UNL     1     -40.719 -48.433  12.495  1.00  0.00     0.087 N 
HETATM   18  C   UNL     1     -39.518 -48.218  11.694  1.00  0.00     0.310 C 
HETATM   19  C   UNL     1     -41.504 -49.577  11.974  1.00  0.00     0.292 C 
HETATM   20  C   UNL     1     -40.875 -50.956  12.286  1.00  0.00     0.171 C 
HETATM   21  H   UNL     1     -42.801 -57.042  16.330  1.00  0.00     0.173 HD
ENDROOT
BRANCH   1  22
HETATM   22  C   UNL     1     -43.344 -52.477  13.589  1.00  0.00     0.174 C 
BRANCH  22  23
HETATM   23  C   UNL     1     -43.798 -53.241  12.372  1.00  0.00     0.188 C 
BRANCH  23  24
HETATM   24  O   UNL     1     -45.161 -53.653  12.439  1.00  0.00    -0.390 OA
BRANCH  24  25
HETATM   25  C   UNL     1     -45.899 -52.604  13.080  1.00  0.00     0.163 C 
HETATM   26  C   UNL     1     -46.746 -51.900  12.051  1.00  0.00     0.033 C 
ENDBRANCH  24  25
ENDBRANCH  23  24
ENDBRANCH  22  23
ENDBRANCH   1  22
TORSDOF 4
ENDMDL
MODEL 7
REMARK VINA RESULT:      -5.3      3.391      7.777
REMARK  4 active torsions:
REMARK  status: ('A' for Active; 'I' for Inactive)
REMARK    1  A    between atoms: C_2  and  O_3 
REMARK    2  A    between atoms: O_3  and  C_4 
REMARK    3  A    between atoms: C_4  and  C_5 
REMARK    4  A    between atoms: C_5  and  N_6 
ROOT
HETATM    1  N   UNL     1     -42.021 -54.091  14.555  1.00  0.00    -0.172 N 
HETATM    2  C   UNL     1     -40.828 -54.143  15.291  1.00  0.00     0.685 A 
HETATM    3  N   UNL     1     -39.932 -53.324  14.774  1.00  0.00    -0.174 N 
ATOM      4  HN  UNL     1     -38.965 -53.200  15.074  1.00  0.00     0.186 HD
HETATM    5  C   UNL     1     -40.568 -52.678  13.756  1.00  0.00     0.160 A 
HETATM    6  N   UNL     1     -40.028 -51.678  12.955  1.00  0.00    -0.287 N 
HETATM    7  C   UNL     1     -38.684 -51.183  13.112  1.00  0.00     0.163 C 
HETATM    8  C   UNL     1     -40.810 -51.106  11.965  1.00  0.00     0.330 C 
HETATM    9  O   UNL     1     -40.416 -50.220  11.203  1.00  0.00    -0.246 OA
HETATM   10  N   UNL     1     -42.092 -51.566  11.831  1.00  0.00    -0.273 N 
HETATM   11  C   UNL     1     -42.656 -52.616  12.499  1.00  0.00     0.280 C 
HETATM   12  O   UNL     1     -43.759 -53.009  12.116  1.00  0.00    -0.265 OA
HETATM   13  C   UNL     1     -41.847 -53.137  13.566  1.00  0.00     0.164 A 
HETATM   14  N   UNL     1     -40.665 -55.030  16.310  1.00  0.00    -0.214 N 
HETATM   15  C   UNL     1     -39.329 -55.566  16.627  1.00  0.00     0.171 C 
HETATM   16  C   UNL     1     -39.499 -56.985  17.258  1.00  0.00     0.292 C 
HETATM   17  N   UNL     1     -40.473 -57.105  18.380  1.00  0.00     0.087 N 
HETATM   18  C   UNL     1     -39.916 -56.607  19.635  1.00  0.00     0.310 C 
HETATM   19  C   UNL     1     -41.721 -56.385  18.034  1.00  0.00     0.292 C 
HETATM   20  C   UNL     1     -41.487 -54.943  17.526  1.00  0.00     0.171 C 
HETATM   21  H   UNL     1     -42.630 -51.180  11.072  1.00  0.00     0.173 HD
ENDROOT
BRANCH   1  22
HETATM   22  C   UNL     1     -43.154 -54.967  14.818  1.00  0.00     0.174 C 
BRANCH  22  23
HETATM   23  C   UNL     1     -44.431 -54.307  15.266  1.00  0.00     0.188 C 
BRANCH  23  24
HETATM   24  O   UNL     1     -44.823 -54.673  16.587  1.00  0.00    -0.390 OA
BRANCH  24  25
HETATM   25  C   UNL     1     -45.464 -53.535  17.179  1.00  0.00     0.163 C 
HETATM   26  C   UNL     1     -44.426 -52.482  17.467  1.00  0.00     0.033 C 
ENDBRANCH  24  25
ENDBRANCH  23  24
ENDBRANCH  22  23
ENDBRANCH   1  22
TORSDOF 4
ENDMDL
MODEL 8
REMARK VINA RESULT:      -5.2      3.438      5.833
REMARK  4 active torsions:
REMARK  status: ('A' for Active; 'I' for Inactive)
REMARK    1  A    between atoms: C_2  and  O_3 
REMARK    2  A    between atoms: O_3  and  C_4 
REMARK    3  A    between atoms: C_4  and  C_5 
REMARK    4  A    between atoms: C_5  and  N_6 
ROOT
HETATM    1  N   UNL     1     -42.308 -52.894  14.425  1.00  0.00    -0.172 N 
HETATM    2  C   UNL     1     -43.208 -53.419  15.365  1.00  0.00     0.685 A 
HETATM    3  N   UNL     1     -42.663 -54.434  16.007  1.00  0.00    -0.174 N 
ATOM      4  HN  UNL     1     -43.107 -55.033  16.703  1.00  0.00     0.186 HD
HETATM    5  C   UNL     1     -41.381 -54.515  15.547  1.00  0.00     0.160 A 
HETATM    6  N   UNL     1     -40.409 -55.409  15.982  1.00  0.00    -0.287 N 
HETATM    7  C   UNL     1     -40.645 -56.391  17.009  1.00  0.00     0.163 C 
HETATM    8  C   UNL     1     -39.143 -55.358  15.423  1.00  0.00     0.330 C 
HETATM    9  O   UNL     1     -38.221 -56.113  15.739  1.00  0.00    -0.246 OA
HETATM   10  N   UNL     1     -38.918 -54.412  14.460  1.00  0.00    -0.273 N 
HETATM   11  C   UNL     1     -39.846 -53.579  13.902  1.00  0.00     0.280 C 
HETATM   12  O   UNL     1     -39.505 -52.923  12.916  1.00  0.00    -0.265 OA
HETATM   13  C   UNL     1     -41.127 -53.605  14.552  1.00  0.00     0.164 A 
HETATM   14  N   UNL     1     -44.486 -52.960  15.451  1.00  0.00    -0.214 N 
HETATM   15  C   UNL     1     -45.573 -53.856  15.884  1.00  0.00     0.171 C 
HETATM   16  C   UNL     1     -46.908 -53.367  15.235  1.00  0.00     0.292 C 
HETATM   17  N   UNL     1     -47.232 -51.920  15.384  1.00  0.00     0.087 N 
HETATM   18  C   UNL     1     -47.758 -51.615  16.711  1.00  0.00     0.310 C 
HETATM   19  C   UNL     1     -46.025 -51.108  15.096  1.00  0.00     0.292 C 
HETATM   20  C   UNL     1     -44.765 -51.576  15.861  1.00  0.00     0.171 C 
HETATM   21  H   UNL     1     -38.010 -54.423  14.024  1.00  0.00     0.173 HD
ENDROOT
BRANCH   1  22
HETATM   22  C   UNL     1     -42.667 -51.840  13.486  1.00  0.00     0.174 C 
BRANCH  22  23
HETATM   23  C   UNL     1     -41.963 -50.519  13.651  1.00  0.00     0.188 C 
BRANCH  23  24
HETATM   24  O   UNL     1     -41.583 -50.245  14.998  1.00  0.00    -0.390 OA
BRANCH  24  25
HETATM   25  C   UNL     1     -40.189 -49.907  14.994  1.00  0.00     0.163 C 
HETATM   26  C   UNL     1     -39.509 -50.617  16.135  1.00  0.00     0.033 C 
ENDBRANCH  24  25
ENDBRANCH  23  24
ENDBRANCH  22  23
ENDBRANCH   1  22
TORSDOF 4
ENDMDL
MODEL 9
REMARK VINA RESULT:      -5.1      1.911      2.546
REMARK  4 active torsions:
REMARK  status: ('A' for Active; 'I' for Inactive)
REMARK    1  A    between atoms: C_2  and  O_3 
REMARK    2  A    between atoms: O_3  and  C_4 
REMARK    3  A    between atoms: C_4  and  C_5 
REMARK    4  A    between atoms: C_5  and  N_6 
ROOT
HETATM    1  N   UNL     1     -43.282 -52.173  13.674  1.00  0.00    -0.172 N 
HETATM    2  C   UNL     1     -43.288 -50.775  13.796  1.00  0.00     0.685 A 
HETATM    3  N   UNL     1     -44.092 -50.401  14.773  1.00  0.00    -0.174 N 
ATOM      4  HN  UNL     1     -44.327 -49.447  15.046  1.00  0.00     0.186 HD
HETATM    5  C   UNL     1     -44.542 -51.556  15.341  1.00  0.00     0.160 A 
HETATM    6  N   UNL     1     -45.379 -51.654  16.447  1.00  0.00    -0.287 N 
HETATM    7  C   UNL     1     -45.887 -50.506  17.153  1.00  0.00     0.163 C 
HETATM    8  C   UNL     1     -45.739 -52.907  16.916  1.00  0.00     0.330 C 
HETATM    9  O   UNL     1     -46.480 -53.091  17.883  1.00  0.00    -0.246 OA
HETATM   10  N   UNL     1     -45.240 -53.994  16.252  1.00  0.00    -0.273 N 
HETATM   11  C   UNL     1     -44.509 -53.981  15.098  1.00  0.00     0.280 C 
HETATM   12  O   UNL     1     -44.305 -55.061  14.540  1.00  0.00    -0.265 OA
HETATM   13  C   UNL     1     -44.092 -52.672  14.680  1.00  0.00     0.164 A 
HETATM   14  N   UNL     1     -42.619 -49.987  12.911  1.00  0.00    -0.214 N 
HETATM   15  C   UNL     1     -43.113 -48.634  12.596  1.00  0.00     0.171 C 
HETATM   16  C   UNL     1     -42.662 -48.266  11.145  1.00  0.00     0.292 C 
HETATM   17  N   UNL     1     -41.221 -48.468  10.821  1.00  0.00     0.087 N 
HETATM   18  C   UNL     1     -40.390 -47.393  11.358  1.00  0.00     0.310 C 
HETATM   19  C   UNL     1     -40.776 -49.785  11.334  1.00  0.00     0.292 C 
HETATM   20  C   UNL     1     -41.153 -50.036  12.813  1.00  0.00     0.171 C 
HETATM   21  H   UNL     1     -45.554 -54.896  16.570  1.00  0.00     0.173 HD
ENDROOT
BRANCH   1  22
HETATM   22  C   UNL     1     -42.576 -52.873  12.610  1.00  0.00     0.174 C 
BRANCH  22  23
HETATM   23  C   UNL     1     -41.488 -53.825  13.033  1.00  0.00     0.188 C 
BRANCH  23  24
HETATM   24  O   UNL     1     -40.174 -53.315  12.813  1.00  0.00    -0.390 OA
BRANCH  24  25
HETATM   25  C   UNL     1     -39.529 -53.218  14.090  1.00  0.00     0.163 C 
HETATM   26  C   UNL     1     -38.530 -52.090  14.050  1.00  0.00     0.033 C 
ENDBRANCH  24  25
ENDBRANCH  23  24
ENDBRANCH  22  23
ENDBRANCH   1  22
TORSDOF 4
ENDMDL
