MODEL 1
REMARK VINA RESULT:      -6.8      0.000      0.000
REMARK  4 active torsions:
REMARK  status: ('A' for Active; 'I' for Inactive)
REMARK    1  A    between atoms: C_6  and  N_7 
REMARK       I    between atoms: N_7  and  C_8 
REMARK       I    between atoms: C_8  and  N_10 
REMARK    2  A    between atoms: N_10  and  C_11 
REMARK    3  A    between atoms: C_16  and  O_17 
REMARK    4  A    between atoms: O_17  and  C_18 
ROOT
HETATM    1  N   UNL     1     -41.911 -49.383  11.091  1.00  0.00    -0.304 N 
HETATM    2  C   UNL     1     -42.452 -49.841  12.264  1.00  0.00     0.321 C 
HETATM    3  O   UNL     1     -43.297 -49.214  12.886  1.00  0.00    -0.247 OA
HETATM    4  N   UNL     1     -41.973 -51.049  12.674  1.00  0.00    -0.336 N 
HETATM    5  H   UNL     1     -41.746 -50.060  10.352  1.00  0.00     0.171 HD
HETATM    6  H   UNL     1     -41.191 -51.445  12.171  1.00  0.00     0.164 HD
ENDROOT
BRANCH   4   7
HETATM    7  C   UNL     1     -42.453 -51.768  13.865  1.00  0.00     0.115 C 
HETATM    8  C   UNL     1     -41.341 -51.876  14.924  1.00  0.00     0.028 C 
HETATM    9  C   UNL     1     -40.445 -53.103  14.782  1.00  0.00     0.002 C 
HETATM   10  C   UNL     1     -41.257 -54.388  14.705  1.00  0.00     0.003 C 
HETATM   11  C   UNL     1     -42.301 -54.370  13.600  1.00  0.00     0.034 C 
HETATM   12  C   UNL     1     -43.209 -53.133  13.675  1.00  0.00     0.144 C 
BRANCH  12  13
HETATM   13  O   UNL     1     -44.165 -53.061  12.602  1.00  0.00    -0.379 OA
BRANCH  13  14
HETATM   14  C   UNL     1     -45.544 -53.041  13.000  1.00  0.00     0.122 C 
HETATM   15  C   UNL     1     -46.057 -51.602  13.029  1.00  0.00     0.032 C 
HETATM   16  C   UNL     1     -46.734 -51.393  14.386  1.00  0.00     0.002 C 
HETATM   17  C   UNL     1     -46.942 -52.784  14.960  1.00  0.00     0.002 C 
HETATM   18  C   UNL     1     -45.780 -53.589  14.408  1.00  0.00     0.032 C 
ENDBRANCH  13  14
ENDBRANCH  12  13
ENDBRANCH   4   7
BRANCH   1  19
HETATM   19  C   UNL     1     -42.060 -48.068  10.671  1.00  0.00     0.105 A 
HETATM   20  C   UNL     1     -43.160 -47.615  10.046  1.00  0.00     0.037 A 
HETATM   21  C   UNL     1     -43.288 -46.255   9.615  1.00  0.00     0.020 A 
HETATM   22  C   UNL     1     -42.337 -45.370   9.920  1.00  0.00     0.094 A 
HETATM   23  N   UNL     1     -41.198 -45.754  10.605  1.00  0.00    -0.327 N 
HETATM   24  C   UNL     1     -40.209 -44.749  10.951  1.00  0.00     0.159 C 
HETATM   25  C   UNL     1     -40.942 -47.088  10.949  1.00  0.00     0.274 A 
HETATM   26  O   UNL     1     -39.892 -47.483  11.459  1.00  0.00    -0.266 OA
ENDBRANCH   1  19
TORSDOF 4
ENDMDL
MODEL 2
REMARK VINA RESULT:      -6.8      0.961      1.610
REMARK  4 active torsions:
REMARK  status: ('A' for Active; 'I' for Inactive)
REMARK    1  A    between atoms: C_6  and  N_7 
REMARK       I    between atoms: N_7  and  C_8 
REMARK       I    between atoms: C_8  and  N_10 
REMARK    2  A    between atoms: N_10  and  C_11 
REMARK    3  A    between atoms: C_16  and  O_17 
REMARK    4  A    between atoms: O_17  and  C_18 
ROOT
HETATM    1  N   UNL     1     -42.018 -49.290  11.096  1.00  0.00    -0.304 N 
HETATM    2  C   UNL     1     -42.431 -49.744  12.321  1.00  0.00     0.321 C 
HETATM    3  O   UNL     1     -42.951 -49.011  13.151  1.00  0.00    -0.247 OA
HETATM    4  N   UNL     1     -42.217 -51.072  12.534  1.00  0.00    -0.336 N 
HETATM    5  H   UNL     1     -42.177 -49.890  10.293  1.00  0.00     0.171 HD
HETATM    6  H   UNL     1     -41.675 -51.581  11.850  1.00  0.00     0.164 HD
ENDROOT
BRANCH   4   7
HETATM    7  C   UNL     1     -42.638 -51.793  13.746  1.00  0.00     0.115 C 
HETATM    8  C   UNL     1     -41.491 -51.856  14.771  1.00  0.00     0.028 C 
HETATM    9  C   UNL     1     -40.561 -53.057  14.612  1.00  0.00     0.002 C 
HETATM   10  C   UNL     1     -41.334 -54.367  14.571  1.00  0.00     0.003 C 
HETATM   11  C   UNL     1     -42.412 -54.393  13.500  1.00  0.00     0.034 C 
HETATM   12  C   UNL     1     -43.356 -53.184  13.591  1.00  0.00     0.144 C 
BRANCH  12  13
HETATM   13  O   UNL     1     -44.346 -53.152  12.548  1.00  0.00    -0.379 OA
BRANCH  13  14
HETATM   14  C   UNL     1     -45.709 -53.062  12.989  1.00  0.00     0.122 C 
HETATM   15  C   UNL     1     -46.147 -51.598  13.029  1.00  0.00     0.032 C 
HETATM   16  C   UNL     1     -46.770 -51.354  14.407  1.00  0.00     0.002 C 
HETATM   17  C   UNL     1     -47.030 -52.731  14.991  1.00  0.00     0.002 C 
HETATM   18  C   UNL     1     -45.928 -53.595  14.405  1.00  0.00     0.032 C 
ENDBRANCH  13  14
ENDBRANCH  12  13
ENDBRANCH   4   7
BRANCH   1  19
HETATM   19  C   UNL     1     -41.893 -47.936  10.811  1.00  0.00     0.105 A 
HETATM   20  C   UNL     1     -40.765 -47.239  11.027  1.00  0.00     0.037 A 
HETATM   21  C   UNL     1     -40.662 -45.841  10.732  1.00  0.00     0.020 A 
HETATM   22  C   UNL     1     -41.676 -45.214  10.134  1.00  0.00     0.094 A 
HETATM   23  N   UNL     1     -42.852 -45.878   9.837  1.00  0.00    -0.327 N 
HETATM   24  C   UNL     1     -43.913 -45.165   9.149  1.00  0.00     0.159 C 
HETATM   25  C   UNL     1     -43.076 -47.212  10.207  1.00  0.00     0.274 A 
HETATM   26  O   UNL     1     -44.148 -47.801  10.059  1.00  0.00    -0.266 OA
ENDBRANCH   1  19
TORSDOF 4
ENDMDL
MODEL 3
REMARK VINA RESULT:      -6.5      2.269      7.734
REMARK  4 active torsions:
REMARK  status: ('A' for Active; 'I' for Inactive)
REMARK    1  A    between atoms: C_6  and  N_7 
REMARK       I    between atoms: N_7  and  C_8 
REMARK       I    between atoms: C_8  and  N_10 
REMARK    2  A    between atoms: N_10  and  C_11 
REMARK    3  A    between atoms: C_16  and  O_17 
REMARK    4  A    between atoms: O_17  and  C_18 
ROOT
HETATM    1  N   UNL     1     -42.415 -51.775  12.333  1.00  0.00    -0.304 N 
HETATM    2  C   UNL     1     -42.774 -50.509  12.716  1.00  0.00     0.321 C 
HETATM    3  O   UNL     1     -43.119 -50.242  13.858  1.00  0.00    -0.247 OA
HETATM    4  N   UNL     1     -42.710 -49.578  11.723  1.00  0.00    -0.336 N 
HETATM    5  H   UNL     1     -41.630 -51.870  11.697  1.00  0.00     0.171 HD
HETATM    6  H   UNL     1     -42.533 -49.900  10.782  1.00  0.00     0.164 HD
ENDROOT
BRANCH   4   7
HETATM    7  C   UNL     1     -42.983 -48.145  11.915  1.00  0.00     0.115 C 
HETATM    8  C   UNL     1     -43.793 -47.579  10.734  1.00  0.00     0.028 C 
HETATM    9  C   UNL     1     -42.948 -47.066   9.571  1.00  0.00     0.002 C 
HETATM   10  C   UNL     1     -41.891 -46.076  10.037  1.00  0.00     0.003 C 
HETATM   11  C   UNL     1     -40.994 -46.628  11.132  1.00  0.00     0.034 C 
HETATM   12  C   UNL     1     -41.797 -47.193  12.315  1.00  0.00     0.144 C 
BRANCH  12  13
HETATM   13  O   UNL     1     -40.972 -47.780  13.337  1.00  0.00    -0.379 OA
BRANCH  13  14
HETATM   14  C   UNL     1     -39.568 -47.838  13.044  1.00  0.00     0.122 C 
HETATM   15  C   UNL     1     -39.138 -49.291  12.841  1.00  0.00     0.032 C 
HETATM   16  C   UNL     1     -37.910 -49.524  13.726  1.00  0.00     0.002 C 
HETATM   17  C   UNL     1     -37.423 -48.142  14.125  1.00  0.00     0.002 C 
HETATM   18  C   UNL     1     -38.687 -47.304  14.174  1.00  0.00     0.032 C 
ENDBRANCH  13  14
ENDBRANCH  12  13
ENDBRANCH   4   7
BRANCH   1  19
HETATM   19  C   UNL     1     -42.686 -52.890  13.116  1.00  0.00     0.105 A 
HETATM   20  C   UNL     1     -41.821 -53.383  14.019  1.00  0.00     0.037 A 
HETATM   21  C   UNL     1     -42.119 -54.539  14.810  1.00  0.00     0.020 A 
HETATM   22  C   UNL     1     -43.327 -55.101  14.733  1.00  0.00     0.094 A 
HETATM   23  N   UNL     1     -44.286 -54.618  13.862  1.00  0.00    -0.327 N 
HETATM   24  C   UNL     1     -45.599 -55.237  13.842  1.00  0.00     0.159 C 
HETATM   25  C   UNL     1     -44.028 -53.572  12.965  1.00  0.00     0.274 A 
HETATM   26  O   UNL     1     -44.818 -53.189  12.101  1.00  0.00    -0.266 OA
ENDBRANCH   1  19
TORSDOF 4
ENDMDL
MODEL 4
REMARK VINA RESULT:      -6.4      2.341      7.724
REMARK  4 active torsions:
REMARK  status: ('A' for Active; 'I' for Inactive)
REMARK    1  A    between atoms: C_6  and  N_7 
REMARK       I    between atoms: N_7  and  C_8 
REMARK       I    between atoms: C_8  and  N_10 
REMARK    2  A    between atoms: N_10  and  C_11 
REMARK    3  A    between atoms: C_16  and  O_17 
REMARK    4  A    between atoms: O_17  and  C_18 
ROOT
HETATM    1  N   UNL     1     -41.549 -50.887  11.619  1.00  0.00    -0.304 N 
HETATM    2  C   UNL     1     -42.286 -49.783  11.961  1.00  0.00     0.321 C 
HETATM    3  O   UNL     1     -42.781 -49.642  13.070  1.00  0.00    -0.247 OA
HETATM    4  N   UNL     1     -42.417 -48.860  10.967  1.00  0.00    -0.336 N 
HETATM    5  H   UNL     1     -40.724 -50.743  11.046  1.00  0.00     0.171 HD
HETATM    6  H   UNL     1     -42.083 -49.104  10.046  1.00  0.00     0.164 HD
ENDROOT
BRANCH   4   7
HETATM    7  C   UNL     1     -43.105 -47.569  11.124  1.00  0.00     0.115 C 
HETATM    8  C   UNL     1     -44.572 -47.672  10.666  1.00  0.00     0.028 C 
HETATM    9  C   UNL     1     -44.796 -47.393   9.182  1.00  0.00     0.002 C 
HETATM   10  C   UNL     1     -44.180 -46.068   8.759  1.00  0.00     0.003 C 
HETATM   11  C   UNL     1     -42.702 -45.960   9.094  1.00  0.00     0.034 C 
HETATM   12  C   UNL     1     -42.415 -46.268  10.572  1.00  0.00     0.144 C 
BRANCH  12  13
HETATM   13  O   UNL     1     -41.014 -46.236  10.901  1.00  0.00    -0.379 OA
BRANCH  13  14
HETATM   14  C   UNL     1     -40.698 -45.765  12.220  1.00  0.00     0.122 C 
HETATM   15  C   UNL     1     -40.171 -44.332  12.148  1.00  0.00     0.032 C 
HETATM   16  C   UNL     1     -38.861 -44.295  12.941  1.00  0.00     0.002 C 
HETATM   17  C   UNL     1     -38.841 -45.573  13.762  1.00  0.00     0.002 C 
HETATM   18  C   UNL     1     -39.596 -46.573  12.907  1.00  0.00     0.032 C 
ENDBRANCH  13  14
ENDBRANCH  12  13
ENDBRANCH   4   7
BRANCH   1  19
HETATM   19  C   UNL     1     -41.546 -52.042  12.389  1.00  0.00     0.105 A 
HETATM   20  C   UNL     1     -42.636 -52.806  12.574  1.00  0.00     0.037 A 
HETATM   21  C   UNL     1     -42.611 -53.991  13.379  1.00  0.00     0.020 A 
HETATM   22  C   UNL     1     -41.456 -54.420  13.891  1.00  0.00     0.094 A 
HETATM   23  N   UNL     1     -40.283 -53.711  13.702  1.00  0.00    -0.327 N 
HETATM   24  C   UNL     1     -39.043 -54.238  14.243  1.00  0.00     0.159 C 
HETATM   25  C   UNL     1     -40.249 -52.479  13.034  1.00  0.00     0.274 A 
HETATM   26  O   UNL     1     -39.247 -51.768  12.941  1.00  0.00    -0.266 OA
ENDBRANCH   1  19
TORSDOF 4
ENDMDL
MODEL 5
REMARK VINA RESULT:      -6.1      2.160      4.466
REMARK  4 active torsions:
REMARK  status: ('A' for Active; 'I' for Inactive)
REMARK    1  A    between atoms: C_6  and  N_7 
REMARK       I    between atoms: N_7  and  C_8 
REMARK       I    between atoms: C_8  and  N_10 
REMARK    2  A    between atoms: N_10  and  C_11 
REMARK    3  A    between atoms: C_16  and  O_17 
REMARK    4  A    between atoms: O_17  and  C_18 
ROOT
HETATM    1  N   UNL     1     -41.803 -51.658  11.585  1.00  0.00    -0.304 N 
HETATM    2  C   UNL     1     -42.811 -52.009  12.444  1.00  0.00     0.321 C 
HETATM    3  O   UNL     1     -43.004 -51.429  13.503  1.00  0.00    -0.247 OA
HETATM    4  N   UNL     1     -43.578 -53.052  12.019  1.00  0.00    -0.336 N 
HETATM    5  H   UNL     1     -42.004 -51.673  10.591  1.00  0.00     0.171 HD
HETATM    6  H   UNL     1     -43.282 -53.554  11.194  1.00  0.00     0.164 HD
ENDROOT
BRANCH   4   7
HETATM    7  C   UNL     1     -44.756 -53.560  12.741  1.00  0.00     0.115 C 
HETATM    8  C   UNL     1     -45.935 -52.575  12.624  1.00  0.00     0.028 C 
HETATM    9  C   UNL     1     -45.975 -51.500  13.707  1.00  0.00     0.002 C 
HETATM   10  C   UNL     1     -45.897 -52.102  15.102  1.00  0.00     0.003 C 
HETATM   11  C   UNL     1     -44.688 -53.000  15.300  1.00  0.00     0.034 C 
HETATM   12  C   UNL     1     -44.579 -54.081  14.213  1.00  0.00     0.144 C 
BRANCH  12  13
HETATM   13  O   UNL     1     -43.406 -54.905  14.342  1.00  0.00    -0.379 OA
BRANCH  13  14
HETATM   14  C   UNL     1     -42.520 -54.559  15.417  1.00  0.00     0.122 C 
HETATM   15  C   UNL     1     -41.152 -54.168  14.858  1.00  0.00     0.032 C 
HETATM   16  C   UNL     1     -40.104 -54.975  15.629  1.00  0.00     0.002 C 
HETATM   17  C   UNL     1     -40.822 -55.522  16.851  1.00  0.00     0.002 C 
HETATM   18  C   UNL     1     -42.253 -55.715  16.382  1.00  0.00     0.032 C 
ENDBRANCH  13  14
ENDBRANCH  12  13
ENDBRANCH   4   7
BRANCH   1  19
HETATM   19  C   UNL     1     -40.761 -50.823  11.969  1.00  0.00     0.105 A 
HETATM   20  C   UNL     1     -39.648 -51.267  12.577  1.00  0.00     0.037 A 
HETATM   21  C   UNL     1     -38.589 -50.386  12.971  1.00  0.00     0.020 A 
HETATM   22  C   UNL     1     -38.648 -49.093  12.645  1.00  0.00     0.094 A 
HETATM   23  N   UNL     1     -39.740 -48.573  11.976  1.00  0.00    -0.327 N 
HETATM   24  C   UNL     1     -39.741 -47.170  11.606  1.00  0.00     0.159 C 
HETATM   25  C   UNL     1     -40.870 -49.345  11.669  1.00  0.00     0.274 A 
HETATM   26  O   UNL     1     -41.904 -48.893  11.174  1.00  0.00    -0.266 OA
ENDBRANCH   1  19
TORSDOF 4
ENDMDL
MODEL 6
REMARK VINA RESULT:      -6.0      3.100      7.631
REMARK  4 active torsions:
REMARK  status: ('A' for Active; 'I' for Inactive)
REMARK    1  A    between atoms: C_6  and  N_7 
REMARK       I    between atoms: N_7  and  C_8 
REMARK       I    between atoms: C_8  and  N_10 
REMARK    2  A    between atoms: N_10  and  C_11 
REMARK    3  A    between atoms: C_16  and  O_17 
REMARK    4  A    between atoms: O_17  and  C_18 
ROOT
HETATM    1  N   UNL     1     -40.430 -48.527  13.551  1.00  0.00    -0.304 N 
HETATM    2  C   UNL     1     -39.836 -47.688  12.644  1.00  0.00     0.321 C 
HETATM    3  O   UNL     1     -39.100 -48.096  11.757  1.00  0.00    -0.247 OA
HETATM    4  N   UNL     1     -40.137 -46.370  12.811  1.00  0.00    -0.336 N 
HETATM    5  H   UNL     1     -41.389 -48.329  13.817  1.00  0.00     0.171 HD
HETATM    6  H   UNL     1     -40.654 -46.102  13.637  1.00  0.00     0.164 HD
ENDROOT
BRANCH   4   7
HETATM    7  C   UNL     1     -39.672 -45.296  11.919  1.00  0.00     0.115 C 
HETATM    8  C   UNL     1     -39.041 -44.147  12.729  1.00  0.00     0.028 C 
HETATM    9  C   UNL     1     -40.028 -43.076  13.187  1.00  0.00     0.002 C 
HETATM   10  C   UNL     1     -40.857 -42.541  12.029  1.00  0.00     0.003 C 
HETATM   11  C   UNL     1     -41.587 -43.632  11.262  1.00  0.00     0.034 C 
HETATM   12  C   UNL     1     -40.644 -44.757  10.807  1.00  0.00     0.144 C 
BRANCH  12  13
HETATM   13  O   UNL     1     -41.322 -45.833  10.134  1.00  0.00    -0.379 OA
BRANCH  13  14
HETATM   14  C   UNL     1     -42.755 -45.795  10.189  1.00  0.00     0.122 C 
HETATM   15  C   UNL     1     -43.277 -46.984  10.995  1.00  0.00     0.032 C 
HETATM   16  C   UNL     1     -44.359 -47.660  10.148  1.00  0.00     0.002 C 
HETATM   17  C   UNL     1     -44.714 -46.661   9.060  1.00  0.00     0.002 C 
HETATM   18  C   UNL     1     -43.422 -45.905   8.817  1.00  0.00     0.032 C 
ENDBRANCH  13  14
ENDBRANCH  12  13
ENDBRANCH   4   7
BRANCH   1  19
HETATM   19  C   UNL     1     -40.025 -49.845  13.715  1.00  0.00     0.105 A 
HETATM   20  C   UNL     1     -39.045 -50.215  14.555  1.00  0.00     0.037 A 
HETATM   21  C   UNL     1     -38.640 -51.581  14.703  1.00  0.00     0.020 A 
HETATM   22  C   UNL     1     -39.309 -52.543  14.066  1.00  0.00     0.094 A 
HETATM   23  N   UNL     1     -40.362 -52.242  13.220  1.00  0.00    -0.327 N 
HETATM   24  C   UNL     1     -41.087 -53.325  12.581  1.00  0.00     0.159 C 
HETATM   25  C   UNL     1     -40.736 -50.923  12.927  1.00  0.00     0.274 A 
HETATM   26  O   UNL     1     -41.593 -50.615  12.098  1.00  0.00    -0.266 OA
ENDBRANCH   1  19
TORSDOF 4
ENDMDL
MODEL 7
REMARK VINA RESULT:      -5.8      2.410      6.913
REMARK  4 active torsions:
REMARK  status: ('A' for Active; 'I' for Inactive)
REMARK    1  A    between atoms: C_6  and  N_7 
REMARK       I    between atoms: N_7  and  C_8 
REMARK       I    between atoms: C_8  and  N_10 
REMARK    2  A    between atoms: N_10  and  C_11 
REMARK    3  A    between atoms: C_16  and  O_17 
REMARK    4  A    between atoms: O_17  and  C_18 
ROOT
HETATM    1  N   UNL     1     -42.967 -51.108  14.769  1.00  0.00    -0.304 N 
HETATM    2  C   UNL     1     -42.105 -50.884  13.727  1.00  0.00     0.321 C 
HETATM    3  O   UNL     1     -42.450 -50.980  12.558  1.00  0.00    -0.247 OA
HETATM    4  N   UNL     1     -40.841 -50.543  14.103  1.00  0.00    -0.336 N 
HETATM    5  H   UNL     1     -42.903 -50.495  15.574  1.00  0.00     0.171 HD
HETATM    6  H   UNL     1     -40.605 -50.603  15.083  1.00  0.00     0.164 HD
ENDROOT
BRANCH   4   7
HETATM    7  C   UNL     1     -39.766 -50.191  13.162  1.00  0.00     0.115 C 
HETATM    8  C   UNL     1     -38.443 -50.869  13.565  1.00  0.00     0.028 C 
HETATM    9  C   UNL     1     -37.588 -50.065  14.541  1.00  0.00     0.002 C 
HETATM   10  C   UNL     1     -37.351 -48.646  14.047  1.00  0.00     0.003 C 
HETATM   11  C   UNL     1     -38.636 -47.897  13.736  1.00  0.00     0.034 C 
HETATM   12  C   UNL     1     -39.552 -48.680  12.783  1.00  0.00     0.144 C 
BRANCH  12  13
HETATM   13  O   UNL     1     -40.805 -48.021  12.524  1.00  0.00    -0.379 OA
BRANCH  13  14
HETATM   14  C   UNL     1     -41.109 -47.788  11.140  1.00  0.00     0.122 C 
HETATM   15  C   UNL     1     -40.882 -46.315  10.799  1.00  0.00     0.032 C 
HETATM   16  C   UNL     1     -42.146 -45.818  10.091  1.00  0.00     0.002 C 
HETATM   17  C   UNL     1     -42.915 -47.067   9.697  1.00  0.00     0.002 C 
HETATM   18  C   UNL     1     -42.568 -48.072  10.780  1.00  0.00     0.032 C 
ENDBRANCH  13  14
ENDBRANCH  12  13
ENDBRANCH   4   7
BRANCH   1  19
HETATM   19  C   UNL     1     -44.196 -51.731  14.592  1.00  0.00     0.105 A 
HETATM   20  C   UNL     1     -45.359 -51.062  14.531  1.00  0.00     0.037 A 
HETATM   21  C   UNL     1     -46.615 -51.727  14.355  1.00  0.00     0.020 A 
HETATM   22  C   UNL     1     -46.644 -53.044  14.145  1.00  0.00     0.094 A 
HETATM   23  N   UNL     1     -45.482 -53.793  14.145  1.00  0.00    -0.327 N 
HETATM   24  C   UNL     1     -45.558 -55.217  13.872  1.00  0.00     0.159 C 
HETATM   25  C   UNL     1     -44.229 -53.236  14.436  1.00  0.00     0.274 A 
HETATM   26  O   UNL     1     -43.190 -53.889  14.553  1.00  0.00    -0.266 OA
ENDBRANCH   1  19
TORSDOF 4
ENDMDL
MODEL 8
REMARK VINA RESULT:      -5.7      1.917      4.162
REMARK  4 active torsions:
REMARK  status: ('A' for Active; 'I' for Inactive)
REMARK    1  A    between atoms: C_6  and  N_7 
REMARK       I    between atoms: N_7  and  C_8 
REMARK       I    between atoms: C_8  and  N_10 
REMARK    2  A    between atoms: N_10  and  C_11 
REMARK    3  A    between atoms: C_16  and  O_17 
REMARK    4  A    between atoms: O_17  and  C_18 
ROOT
HETATM    1  N   UNL     1     -42.102 -49.440  12.896  1.00  0.00    -0.304 N 
HETATM    2  C   UNL     1     -41.940 -50.711  12.411  1.00  0.00     0.321 C 
HETATM    3  O   UNL     1     -41.168 -50.972  11.499  1.00  0.00    -0.247 OA
HETATM    4  N   UNL     1     -42.705 -51.654  13.029  1.00  0.00    -0.336 N 
HETATM    5  H   UNL     1     -42.204 -49.328  13.900  1.00  0.00     0.171 HD
HETATM    6  H   UNL     1     -43.403 -51.341  13.688  1.00  0.00     0.164 HD
ENDROOT
BRANCH   4   7
HETATM    7  C   UNL     1     -42.650 -53.093  12.724  1.00  0.00     0.115 C 
HETATM    8  C   UNL     1     -44.066 -53.662  12.515  1.00  0.00     0.028 C 
HETATM    9  C   UNL     1     -44.748 -54.154  13.789  1.00  0.00     0.002 C 
HETATM   10  C   UNL     1     -43.870 -55.132  14.556  1.00  0.00     0.003 C 
HETATM   11  C   UNL     1     -42.494 -54.574  14.880  1.00  0.00     0.034 C 
HETATM   12  C   UNL     1     -41.776 -54.030  13.635  1.00  0.00     0.144 C 
BRANCH  12  13
HETATM   13  O   UNL     1     -40.497 -53.438  13.925  1.00  0.00    -0.379 OA
BRANCH  13  14
HETATM   14  C   UNL     1     -40.263 -53.113  15.304  1.00  0.00     0.122 C 
HETATM   15  C   UNL     1     -39.929 -51.627  15.438  1.00  0.00     0.032 C 
HETATM   16  C   UNL     1     -38.647 -51.529  16.269  1.00  0.00     0.002 C 
HETATM   17  C   UNL     1     -38.469 -52.892  16.915  1.00  0.00     0.002 C 
HETATM   18  C   UNL     1     -39.074 -53.857  15.912  1.00  0.00     0.032 C 
ENDBRANCH  13  14
ENDBRANCH  12  13
ENDBRANCH   4   7
BRANCH   1  19
HETATM   19  C   UNL     1     -41.631 -48.323  12.217  1.00  0.00     0.105 A 
HETATM   20  C   UNL     1     -40.383 -47.847  12.359  1.00  0.00     0.037 A 
HETATM   21  C   UNL     1     -39.922 -46.689  11.654  1.00  0.00     0.020 A 
HETATM   22  C   UNL     1     -40.711 -46.106  10.749  1.00  0.00     0.094 A 
HETATM   23  N   UNL     1     -41.992 -46.571  10.513  1.00  0.00    -0.327 N 
HETATM   24  C   UNL     1     -42.799 -45.931   9.491  1.00  0.00     0.159 C 
HETATM   25  C   UNL     1     -42.559 -47.619  11.252  1.00  0.00     0.274 A 
HETATM   26  O   UNL     1     -43.730 -47.986  11.147  1.00  0.00    -0.266 OA
ENDBRANCH   1  19
TORSDOF 4
ENDMDL
MODEL 9
REMARK VINA RESULT:      -5.6      2.053      7.352
REMARK  4 active torsions:
REMARK  status: ('A' for Active; 'I' for Inactive)
REMARK    1  A    between atoms: C_6  and  N_7 
REMARK       I    between atoms: N_7  and  C_8 
REMARK       I    between atoms: C_8  and  N_10 
REMARK    2  A    between atoms: N_10  and  C_11 
REMARK    3  A    between atoms: C_16  and  O_17 
REMARK    4  A    between atoms: O_17  and  C_18 
ROOT
HETATM    1  N   UNL     1     -42.546 -51.061  14.331  1.00  0.00    -0.304 N 
HETATM    2  C   UNL     1     -41.764 -50.542  13.332  1.00  0.00     0.321 C 
HETATM    3  O   UNL     1     -41.393 -51.209  12.377  1.00  0.00    -0.247 OA
HETATM    4  N   UNL     1     -41.441 -49.228  13.491  1.00  0.00    -0.336 N 
HETATM    5  H   UNL     1     -43.284 -50.473  14.705  1.00  0.00     0.171 HD
HETATM    6  H   UNL     1     -41.684 -48.782  14.364  1.00  0.00     0.164 HD
ENDROOT
BRANCH   4   7
HETATM    7  C   UNL     1     -40.670 -48.443  12.514  1.00  0.00     0.115 C 
HETATM    8  C   UNL     1     -39.186 -48.370  12.920  1.00  0.00     0.028 C 
HETATM    9  C   UNL     1     -38.836 -47.207  13.843  1.00  0.00     0.002 C 
HETATM   10  C   UNL     1     -39.317 -45.877  13.282  1.00  0.00     0.003 C 
HETATM   11  C   UNL     1     -40.804 -45.865  12.964  1.00  0.00     0.034 C 
HETATM   12  C   UNL     1     -41.218 -47.039  12.065  1.00  0.00     0.144 C 
BRANCH  12  13
HETATM   13  O   UNL     1     -42.632 -47.087  11.802  1.00  0.00    -0.379 OA
BRANCH  13  14
HETATM   14  C   UNL     1     -43.002 -47.279  10.429  1.00  0.00     0.122 C 
HETATM   15  C   UNL     1     -42.808 -45.979   9.650  1.00  0.00     0.032 C 
HETATM   16  C   UNL     1     -44.108 -45.713   8.886  1.00  0.00     0.002 C 
HETATM   17  C   UNL     1     -44.881 -47.021   8.923  1.00  0.00     0.002 C 
HETATM   18  C   UNL     1     -44.473 -47.654  10.240  1.00  0.00     0.032 C 
ENDBRANCH  13  14
ENDBRANCH  12  13
ENDBRANCH   4   7
BRANCH   1  19
HETATM   19  C   UNL     1     -42.736 -52.427  14.488  1.00  0.00     0.105 A 
HETATM   20  C   UNL     1     -41.866 -53.222  15.134  1.00  0.00     0.037 A 
HETATM   21  C   UNL     1     -42.080 -54.631  15.278  1.00  0.00     0.020 A 
HETATM   22  C   UNL     1     -43.220 -55.176  14.848  1.00  0.00     0.094 A 
HETATM   23  N   UNL     1     -44.184 -54.411  14.217  1.00  0.00    -0.327 N 
HETATM   24  C   UNL     1     -45.426 -55.038  13.803  1.00  0.00     0.159 C 
HETATM   25  C   UNL     1     -43.994 -53.052  13.927  1.00  0.00     0.274 A 
HETATM   26  O   UNL     1     -44.781 -52.367  13.271  1.00  0.00    -0.266 OA
ENDBRANCH   1  19
TORSDOF 4
ENDMDL
