MODEL 1
REMARK VINA RESULT:      -5.4      0.000      0.000
REMARK  3 active torsions:
REMARK  status: ('A' for Active; 'I' for Inactive)
REMARK    1  A    between atoms: N_1  and  C_2 
REMARK    2  A    between atoms: C_2  and  C_3 
REMARK    3  A    between atoms: C_8  and  N_10 
ROOT
HETATM    1  C   UNL     1     -41.048 -53.852  13.547  1.00  0.00    -0.026 A 
HETATM    2  C   UNL     1     -40.638 -52.928  12.597  1.00  0.00     0.026 A 
HETATM    3  C   UNL     1     -41.609 -52.331  11.818  1.00  0.00     0.090 A 
HETATM    4  N   UNL     1     -42.932 -52.585  11.931  1.00  0.00    -0.352 N 
ATOM      5  HN  UNL     1     -43.602 -52.097  11.337  1.00  0.00     0.166 HD
HETATM    6  C   UNL     1     -43.360 -53.492  12.838  1.00  0.00     0.103 A 
HETATM    7  C   UNL     1     -42.423 -54.136  13.650  1.00  0.00     0.057 A 
ENDROOT
BRANCH   6   8
HETATM    8  N   UNL     1     -44.709 -53.790  12.881  1.00  0.00    -0.363 N 
HETATM    9  C   UNL     1     -45.686 -52.737  12.551  1.00  0.00     0.150 C 
HETATM   10  C   UNL     1     -46.411 -52.256  13.819  1.00  0.00     0.187 C 
HETATM   11  O   UNL     1     -47.011 -53.350  14.537  1.00  0.00    -0.388 OA
HETATM   12  C   UNL     1     -46.006 -54.305  14.916  1.00  0.00     0.187 C 
HETATM   13  C   UNL     1     -45.283 -54.877  13.686  1.00  0.00     0.150 C 
ENDBRANCH   6   8
BRANCH   1  14
HETATM   14  C   UNL     1     -40.056 -54.531  14.454  1.00  0.00     0.305 C 
BRANCH  14  15
HETATM   15  N   UNL     1     -38.843 -54.913  13.742  1.00  0.00     0.082 N 
HETATM   16  H   UNL     1     -38.446 -54.091  13.295  1.00  0.00     0.313 HD
HETATM   17  H   UNL     1     -39.088 -55.559  12.993  1.00  0.00     0.313 HD
ENDBRANCH  14  15
ENDBRANCH   1  14
TORSDOF 3
ENDMDL
MODEL 2
REMARK VINA RESULT:      -4.9      1.350      2.426
REMARK  3 active torsions:
REMARK  status: ('A' for Active; 'I' for Inactive)
REMARK    1  A    between atoms: N_1  and  C_2 
REMARK    2  A    between atoms: C_2  and  C_3 
REMARK    3  A    between atoms: C_8  and  N_10 
ROOT
HETATM    1  C   UNL     1     -41.550 -51.637  12.295  1.00  0.00    -0.026 A 
HETATM    2  C   UNL     1     -40.609 -52.613  12.585  1.00  0.00     0.026 A 
HETATM    3  C   UNL     1     -41.067 -53.874  12.911  1.00  0.00     0.090 A 
HETATM    4  N   UNL     1     -42.374 -54.217  12.954  1.00  0.00    -0.352 N 
ATOM      5  HN  UNL     1     -42.648 -55.171  13.184  1.00  0.00     0.166 HD
HETATM    6  C   UNL     1     -43.315 -53.282  12.689  1.00  0.00     0.103 A 
HETATM    7  C   UNL     1     -42.913 -51.985  12.362  1.00  0.00     0.057 A 
ENDROOT
BRANCH   6   8
HETATM    8  N   UNL     1     -44.645 -53.637  12.815  1.00  0.00    -0.363 N 
HETATM    9  C   UNL     1     -45.684 -52.620  12.575  1.00  0.00     0.150 C 
HETATM   10  C   UNL     1     -46.342 -52.197  13.900  1.00  0.00     0.187 C 
HETATM   11  O   UNL     1     -46.847 -53.330  14.630  1.00  0.00    -0.388 OA
HETATM   12  C   UNL     1     -45.780 -54.249  14.918  1.00  0.00     0.187 C 
HETATM   13  C   UNL     1     -45.119 -54.764  13.630  1.00  0.00     0.150 C 
ENDBRANCH   6   8
BRANCH   1  14
HETATM   14  C   UNL     1     -41.135 -50.242  11.907  1.00  0.00     0.305 C 
BRANCH  14  15
HETATM   15  N   UNL     1     -40.515 -50.208  10.589  1.00  0.00     0.082 N 
HETATM   16  H   UNL     1     -40.958 -49.484  10.030  1.00  0.00     0.313 HD
HETATM   17  H   UNL     1     -40.698 -51.091  10.113  1.00  0.00     0.313 HD
ENDBRANCH  14  15
ENDBRANCH   1  14
TORSDOF 3
ENDMDL
MODEL 3
REMARK VINA RESULT:      -4.7      1.603      2.467
REMARK  3 active torsions:
REMARK  status: ('A' for Active; 'I' for Inactive)
REMARK    1  A    between atoms: N_1  and  C_2 
REMARK    2  A    between atoms: C_2  and  C_3 
REMARK    3  A    between atoms: C_8  and  N_10 
ROOT
HETATM    1  C   UNL     1     -41.684 -53.638  13.386  1.00  0.00    -0.026 A 
HETATM    2  C   UNL     1     -41.300 -54.464  14.432  1.00  0.00     0.026 A 
HETATM    3  C   UNL     1     -42.290 -54.971  15.249  1.00  0.00     0.090 A 
HETATM    4  N   UNL     1     -43.609 -54.719  15.086  1.00  0.00    -0.352 N 
ATOM      5  HN  UNL     1     -44.294 -55.139  15.713  1.00  0.00     0.166 HD
HETATM    6  C   UNL     1     -44.012 -53.905  14.083  1.00  0.00     0.103 A 
HETATM    7  C   UNL     1     -43.054 -53.354  13.228  1.00  0.00     0.057 A 
ENDROOT
BRANCH   6   8
HETATM    8  N   UNL     1     -45.356 -53.602  13.985  1.00  0.00    -0.363 N 
HETATM    9  C   UNL     1     -45.825 -52.777  12.857  1.00  0.00     0.150 C 
HETATM   10  C   UNL     1     -46.205 -51.367  13.340  1.00  0.00     0.187 C 
HETATM   11  O   UNL     1     -47.160 -51.412  14.416  1.00  0.00    -0.388 OA
HETATM   12  C   UNL     1     -46.622 -52.149  15.525  1.00  0.00     0.187 C 
HETATM   13  C   UNL     1     -46.280 -53.594  15.127  1.00  0.00     0.150 C 
ENDBRANCH   6   8
BRANCH   1  14
HETATM   14  C   UNL     1     -40.669 -53.062  12.433  1.00  0.00     0.305 C 
BRANCH  14  15
HETATM   15  N   UNL     1     -41.281 -52.638  11.180  1.00  0.00     0.082 N 
HETATM   16  H   UNL     1     -42.203 -53.059  11.100  1.00  0.00     0.313 HD
HETATM   17  H   UNL     1     -40.731 -53.001  10.403  1.00  0.00     0.313 HD
ENDBRANCH  14  15
ENDBRANCH   1  14
TORSDOF 3
ENDMDL
MODEL 4
REMARK VINA RESULT:      -4.6      5.237      6.664
REMARK  3 active torsions:
REMARK  status: ('A' for Active; 'I' for Inactive)
REMARK    1  A    between atoms: N_1  and  C_2 
REMARK    2  A    between atoms: C_2  and  C_3 
REMARK    3  A    between atoms: C_8  and  N_10 
ROOT
HETATM    1  C   UNL     1     -39.476 -49.916  11.818  1.00  0.00    -0.026 A 
HETATM    2  C   UNL     1     -40.148 -51.087  12.137  1.00  0.00     0.026 A 
HETATM    3  C   UNL     1     -41.528 -51.060  12.129  1.00  0.00     0.090 A 
HETATM    4  N   UNL     1     -42.262 -49.967  11.820  1.00  0.00    -0.352 N 
ATOM      5  HN  UNL     1     -43.281 -50.017  11.814  1.00  0.00     0.166 HD
HETATM    6  C   UNL     1     -41.634 -48.808  11.519  1.00  0.00     0.103 A 
HETATM    7  C   UNL     1     -40.238 -48.771  11.520  1.00  0.00     0.057 A 
ENDROOT
BRANCH   6   8
HETATM    8  N   UNL     1     -42.407 -47.687  11.283  1.00  0.00    -0.363 N 
HETATM    9  C   UNL     1     -43.474 -47.753  10.268  1.00  0.00     0.150 C 
HETATM   10  C   UNL     1     -43.080 -46.952   9.016  1.00  0.00     0.187 C 
HETATM   11  O   UNL     1     -42.721 -45.597   9.342  1.00  0.00    -0.388 OA
HETATM   12  C   UNL     1     -41.619 -45.583  10.263  1.00  0.00     0.187 C 
HETATM   13  C   UNL     1     -41.969 -46.314  11.569  1.00  0.00     0.150 C 
ENDBRANCH   6   8
BRANCH   1  14
HETATM   14  C   UNL     1     -37.971 -49.865  11.781  1.00  0.00     0.305 C 
BRANCH  14  15
HETATM   15  N   UNL     1     -37.455 -50.083  10.435  1.00  0.00     0.082 N 
HETATM   16  H   UNL     1     -38.015 -49.553   9.773  1.00  0.00     0.313 HD
HETATM   17  H   UNL     1     -37.573 -51.065  10.190  1.00  0.00     0.313 HD
ENDBRANCH  14  15
ENDBRANCH   1  14
TORSDOF 3
ENDMDL
MODEL 5
REMARK VINA RESULT:      -4.6      1.487      2.327
REMARK  3 active torsions:
REMARK  status: ('A' for Active; 'I' for Inactive)
REMARK    1  A    between atoms: N_1  and  C_2 
REMARK    2  A    between atoms: C_2  and  C_3 
REMARK    3  A    between atoms: C_8  and  N_10 
ROOT
HETATM    1  C   UNL     1     -40.817 -54.290  14.601  1.00  0.00    -0.026 A 
HETATM    2  C   UNL     1     -40.944 -54.800  15.884  1.00  0.00     0.026 A 
HETATM    3  C   UNL     1     -42.206 -55.162  16.312  1.00  0.00     0.090 A 
HETATM    4  N   UNL     1     -43.321 -55.058  15.553  1.00  0.00    -0.352 N 
ATOM      5  HN  UNL     1     -44.223 -55.359  15.921  1.00  0.00     0.166 HD
HETATM    6  C   UNL     1     -43.229 -54.550  14.303  1.00  0.00     0.103 A 
HETATM    7  C   UNL     1     -41.979 -54.158  13.818  1.00  0.00     0.057 A 
ENDROOT
BRANCH   6   8
HETATM    8  N   UNL     1     -44.393 -54.383  13.577  1.00  0.00    -0.363 N 
HETATM    9  C   UNL     1     -44.459 -53.314  12.564  1.00  0.00     0.150 C 
HETATM   10  C   UNL     1     -45.360 -52.166  13.048  1.00  0.00     0.187 C 
HETATM   11  O   UNL     1     -46.666 -52.637  13.428  1.00  0.00    -0.388 OA
HETATM   12  C   UNL     1     -46.555 -53.610  14.480  1.00  0.00     0.187 C 
HETATM   13  C   UNL     1     -45.718 -54.820  14.040  1.00  0.00     0.150 C 
ENDBRANCH   6   8
BRANCH   1  14
HETATM   14  C   UNL     1     -39.473 -53.894  14.048  1.00  0.00     0.305 C 
BRANCH  14  15
HETATM   15  N   UNL     1     -38.736 -55.044  13.539  1.00  0.00     0.082 N 
HETATM   16  H   UNL     1     -38.095 -55.373  14.256  1.00  0.00     0.313 HD
HETATM   17  H   UNL     1     -38.159 -54.746  12.753  1.00  0.00     0.313 HD
ENDBRANCH  14  15
ENDBRANCH   1  14
TORSDOF 3
ENDMDL
MODEL 6
REMARK VINA RESULT:      -4.5      2.674      5.197
REMARK  3 active torsions:
REMARK  status: ('A' for Active; 'I' for Inactive)
REMARK    1  A    between atoms: N_1  and  C_2 
REMARK    2  A    between atoms: C_2  and  C_3 
REMARK    3  A    between atoms: C_8  and  N_10 
ROOT
HETATM    1  C   UNL     1     -45.120 -53.095  14.196  1.00  0.00    -0.026 A 
HETATM    2  C   UNL     1     -45.564 -51.796  14.002  1.00  0.00     0.026 A 
HETATM    3  C   UNL     1     -44.744 -50.932  13.304  1.00  0.00     0.090 A 
HETATM    4  N   UNL     1     -43.542 -51.279  12.790  1.00  0.00    -0.352 N 
ATOM      5  HN  UNL     1     -42.991 -50.599  12.267  1.00  0.00     0.166 HD
HETATM    6  C   UNL     1     -43.077 -52.536  12.976  1.00  0.00     0.103 A 
HETATM    7  C   UNL     1     -43.859 -53.452  13.683  1.00  0.00     0.057 A 
ENDROOT
BRANCH   6   8
HETATM    8  N   UNL     1     -41.814 -52.842  12.508  1.00  0.00    -0.363 N 
HETATM    9  C   UNL     1     -41.170 -54.093  12.949  1.00  0.00     0.150 C 
HETATM   10  C   UNL     1     -40.028 -53.794  13.934  1.00  0.00     0.187 C 
HETATM   11  O   UNL     1     -39.082 -52.858  13.386  1.00  0.00    -0.388 OA
HETATM   12  C   UNL     1     -39.740 -51.624  13.055  1.00  0.00     0.187 C 
HETATM   13  C   UNL     1     -40.855 -51.841  12.021  1.00  0.00     0.150 C 
ENDBRANCH   6   8
BRANCH   1  14
HETATM   14  C   UNL     1     -45.963 -54.108  14.926  1.00  0.00     0.305 C 
BRANCH  14  15
HETATM   15  N   UNL     1     -46.349 -55.217  14.063  1.00  0.00     0.082 N 
HETATM   16  H   UNL     1     -45.537 -55.804  13.892  1.00  0.00     0.313 HD
HETATM   17  H   UNL     1     -46.632 -54.848  13.156  1.00  0.00     0.313 HD
ENDBRANCH  14  15
ENDBRANCH   1  14
TORSDOF 3
ENDMDL
MODEL 7
REMARK VINA RESULT:      -4.5      2.640      5.493
REMARK  3 active torsions:
REMARK  status: ('A' for Active; 'I' for Inactive)
REMARK    1  A    between atoms: N_1  and  C_2 
REMARK    2  A    between atoms: C_2  and  C_3 
REMARK    3  A    between atoms: C_8  and  N_10 
ROOT
HETATM    1  C   UNL     1     -45.069 -53.413  13.510  1.00  0.00    -0.026 A 
HETATM    2  C   UNL     1     -45.132 -54.369  14.513  1.00  0.00     0.026 A 
HETATM    3  C   UNL     1     -43.956 -54.987  14.889  1.00  0.00     0.090 A 
HETATM    4  N   UNL     1     -42.748 -54.709  14.346  1.00  0.00    -0.352 N 
ATOM      5  HN  UNL     1     -41.912 -55.188  14.681  1.00  0.00     0.166 HD
HETATM    6  C   UNL     1     -42.659 -53.792  13.356  1.00  0.00     0.103 A 
HETATM    7  C   UNL     1     -43.818 -53.140  12.927  1.00  0.00     0.057 A 
ENDROOT
BRANCH   6   8
HETATM    8  N   UNL     1     -41.427 -53.582  12.767  1.00  0.00    -0.363 N 
HETATM    9  C   UNL     1     -40.227 -54.175  13.384  1.00  0.00     0.150 C 
HETATM   10  C   UNL     1     -39.370 -53.087  14.052  1.00  0.00     0.187 C 
HETATM   11  O   UNL     1     -39.044 -52.027  13.135  1.00  0.00    -0.388 OA
HETATM   12  C   UNL     1     -40.245 -51.422  12.630  1.00  0.00     0.187 C 
HETATM   13  C   UNL     1     -41.121 -52.444  11.890  1.00  0.00     0.150 C 
ENDBRANCH   6   8
BRANCH   1  14
HETATM   14  C   UNL     1     -46.302 -52.675  13.057  1.00  0.00     0.305 C 
BRANCH  14  15
HETATM   15  N   UNL     1     -46.110 -52.047  11.756  1.00  0.00     0.082 N 
HETATM   16  H   UNL     1     -46.501 -52.647  11.035  1.00  0.00     0.313 HD
HETATM   17  H   UNL     1     -45.111 -51.979  11.565  1.00  0.00     0.313 HD
ENDBRANCH  14  15
ENDBRANCH   1  14
TORSDOF 3
ENDMDL
MODEL 8
REMARK VINA RESULT:      -4.4      2.707      5.353
REMARK  3 active torsions:
REMARK  status: ('A' for Active; 'I' for Inactive)
REMARK    1  A    between atoms: N_1  and  C_2 
REMARK    2  A    between atoms: C_2  and  C_3 
REMARK    3  A    between atoms: C_8  and  N_10 
ROOT
HETATM    1  C   UNL     1     -46.241 -51.607  14.677  1.00  0.00    -0.026 A 
HETATM    2  C   UNL     1     -46.816 -51.885  13.445  1.00  0.00     0.026 A 
HETATM    3  C   UNL     1     -45.978 -52.249  12.411  1.00  0.00     0.090 A 
HETATM    4  N   UNL     1     -44.635 -52.360  12.528  1.00  0.00    -0.352 N 
ATOM      5  HN  UNL     1     -44.072 -52.651  11.729  1.00  0.00     0.166 HD
HETATM    6  C   UNL     1     -44.046 -52.081  13.713  1.00  0.00     0.103 A 
HETATM    7  C   UNL     1     -44.842 -51.699  14.795  1.00  0.00     0.057 A 
ENDROOT
BRANCH   6   8
HETATM    8  N   UNL     1     -42.667 -52.128  13.785  1.00  0.00    -0.363 N 
HETATM    9  C   UNL     1     -41.871 -51.329  12.836  1.00  0.00     0.150 C 
HETATM   10  C   UNL     1     -41.202 -52.239  11.792  1.00  0.00     0.187 C 
HETATM   11  O   UNL     1     -40.425 -53.280  12.412  1.00  0.00    -0.388 OA
HETATM   12  C   UNL     1     -41.262 -54.086  13.257  1.00  0.00     0.187 C 
HETATM   13  C   UNL     1     -41.914 -53.248  14.368  1.00  0.00     0.150 C 
ENDBRANCH   6   8
BRANCH   1  14
HETATM   14  C   UNL     1     -47.086 -51.226  15.865  1.00  0.00     0.305 C 
BRANCH  14  15
HETATM   15  N   UNL     1     -46.276 -50.721  16.966  1.00  0.00     0.082 N 
HETATM   16  H   UNL     1     -46.583 -51.155  17.833  1.00  0.00     0.313 HD
HETATM   17  H   UNL     1     -46.445 -49.721  17.070  1.00  0.00     0.313 HD
ENDBRANCH  14  15
ENDBRANCH   1  14
TORSDOF 3
ENDMDL
MODEL 9
REMARK VINA RESULT:      -4.4      3.622      6.134
REMARK  3 active torsions:
REMARK  status: ('A' for Active; 'I' for Inactive)
REMARK    1  A    between atoms: N_1  and  C_2 
REMARK    2  A    between atoms: C_2  and  C_3 
REMARK    3  A    between atoms: C_8  and  N_10 
ROOT
HETATM    1  C   UNL     1     -47.125 -50.690  17.349  1.00  0.00    -0.026 A 
HETATM    2  C   UNL     1     -45.883 -50.085  17.467  1.00  0.00     0.026 A 
HETATM    3  C   UNL     1     -44.938 -50.359  16.500  1.00  0.00     0.090 A 
HETATM    4  N   UNL     1     -45.153 -51.173  15.441  1.00  0.00    -0.352 N 
ATOM      5  HN  UNL     1     -44.419 -51.321  14.749  1.00  0.00     0.166 HD
HETATM    6  C   UNL     1     -46.350 -51.788  15.307  1.00  0.00     0.103 A 
HETATM    7  C   UNL     1     -47.344 -51.556  16.261  1.00  0.00     0.057 A 
ENDROOT
BRANCH   6   8
HETATM    8  N   UNL     1     -46.518 -52.673  14.260  1.00  0.00    -0.363 N 
HETATM    9  C   UNL     1     -46.576 -54.118  14.544  1.00  0.00     0.150 C 
HETATM   10  C   UNL     1     -45.287 -54.813  14.075  1.00  0.00     0.187 C 
HETATM   11  O   UNL     1     -45.009 -54.542  12.689  1.00  0.00    -0.388 OA
HETATM   12  C   UNL     1     -44.872 -53.127  12.479  1.00  0.00     0.187 C 
HETATM   13  C   UNL     1     -46.154 -52.374  12.868  1.00  0.00     0.150 C 
ENDBRANCH   6   8
BRANCH   1  14
HETATM   14  C   UNL     1     -48.221 -50.426  18.349  1.00  0.00     0.305 C 
BRANCH  14  15
HETATM   15  N   UNL     1     -48.367 -49.003  18.629  1.00  0.00     0.082 N 
HETATM   16  H   UNL     1     -49.285 -48.695  18.319  1.00  0.00     0.313 HD
HETATM   17  H   UNL     1     -47.687 -48.485  18.075  1.00  0.00     0.313 HD
ENDBRANCH  14  15
ENDBRANCH   1  14
TORSDOF 3
ENDMDL
