MODEL 1
REMARK VINA RESULT:      -6.8      0.000      0.000
REMARK  6 active torsions:
REMARK  status: ('A' for Active; 'I' for Inactive)
REMARK    1  A    between atoms: N_1  and  C_2 
REMARK    2  A    between atoms: C_5  and  S_6 
REMARK    3  A    between atoms: S_6  and  C_7 
REMARK    4  A    between atoms: C_7  and  C_8 
REMARK    5  A    between atoms: C_8  and  O_9 
REMARK    6  A    between atoms: O_9  and  C_10 
ROOT
HETATM    1  C   UNL     1     -41.469 -48.311  10.633  1.00  0.00     0.099 A 
HETATM    2  N   UNL     1     -41.360 -49.555  11.154  1.00  0.00    -0.339 N 
ATOM      3  HN  UNL     1     -41.942 -50.319  10.808  1.00  0.00     0.167 HD
HETATM    4  C   UNL     1     -40.460 -49.764  12.149  1.00  0.00     0.092 A 
HETATM    5  C   UNL     1     -39.639 -48.748  12.646  1.00  0.00     0.079 A 
HETATM    6  C   UNL     1     -38.665 -48.963  13.678  1.00  0.00     0.102 C 
HETATM    7  N   UNL     1     -37.865 -49.093  14.508  1.00  0.00    -0.191 NA
HETATM    8  C   UNL     1     -39.768 -47.466  12.107  1.00  0.00     0.051 A 
HETATM    9  C   UNL     1     -40.691 -47.242  11.085  1.00  0.00     0.084 A 
HETATM   10  C   UNL     1     -40.828 -45.926  10.541  1.00  0.00     0.102 C 
HETATM   11  N   UNL     1     -40.945 -44.843  10.139  1.00  0.00    -0.191 NA
ENDROOT
BRANCH   4  12
HETATM   12  S   UNL     1     -40.344 -51.398  12.852  1.00  0.00    -0.109 SA
BRANCH  12  13
HETATM   13  C   UNL     1     -41.457 -52.449  11.841  1.00  0.00     0.107 C 
BRANCH  13  14
HETATM   14  C   UNL     1     -42.759 -52.481  12.649  1.00  0.00     0.178 C 
BRANCH  14  15
HETATM   15  O   UNL     1     -43.783 -53.327  12.107  1.00  0.00    -0.385 OA
BRANCH  15  16
HETATM   16  C   UNL     1     -45.039 -53.159  12.818  1.00  0.00     0.121 C 
HETATM   17  C   UNL     1     -45.150 -51.749  13.428  1.00  0.00     0.032 C 
HETATM   18  C   UNL     1     -46.582 -51.392  13.804  1.00  0.00     0.002 C 
HETATM   19  C   UNL     1     -46.949 -51.737  15.239  1.00  0.00     0.000 C 
HETATM   20  C   UNL     1     -46.410 -53.063  15.770  1.00  0.00     0.000 C 
HETATM   21  C   UNL     1     -46.401 -54.214  14.763  1.00  0.00     0.002 C 
HETATM   22  C   UNL     1     -45.141 -54.260  13.886  1.00  0.00     0.032 C 
ENDBRANCH  15  16
ENDBRANCH  14  15
ENDBRANCH  13  14
ENDBRANCH  12  13
ENDBRANCH   4  12
BRANCH   1  23
HETATM   23  N   UNL     1     -42.334 -48.187   9.553  1.00  0.00    -0.287 NA
HETATM   24  H   UNL     1     -41.955 -48.692   8.755  1.00  0.00     0.125 HD
HETATM   25  H   UNL     1     -43.301 -48.429   9.745  1.00  0.00     0.125 HD
ENDBRANCH   1  23
TORSDOF 6
ENDMDL
MODEL 2
REMARK VINA RESULT:      -6.7      1.206      1.872
REMARK  6 active torsions:
REMARK  status: ('A' for Active; 'I' for Inactive)
REMARK    1  A    between atoms: N_1  and  C_2 
REMARK    2  A    between atoms: C_5  and  S_6 
REMARK    3  A    between atoms: S_6  and  C_7 
REMARK    4  A    between atoms: C_7  and  C_8 
REMARK    5  A    between atoms: C_8  and  O_9 
REMARK    6  A    between atoms: O_9  and  C_10 
ROOT
HETATM    1  C   UNL     1     -41.664 -48.084  10.305  1.00  0.00     0.099 A 
HETATM    2  N   UNL     1     -40.981 -49.191  10.678  1.00  0.00    -0.339 N 
ATOM      3  HN  UNL     1     -41.152 -50.088  10.223  1.00  0.00     0.167 HD
HETATM    4  C   UNL     1     -40.065 -49.080  11.674  1.00  0.00     0.092 A 
HETATM    5  C   UNL     1     -39.795 -47.869  12.316  1.00  0.00     0.079 A 
HETATM    6  C   UNL     1     -38.809 -47.734  13.351  1.00  0.00     0.102 C 
HETATM    7  N   UNL     1     -38.021 -47.580  14.188  1.00  0.00    -0.191 NA
HETATM    8  C   UNL     1     -40.514 -46.736  11.928  1.00  0.00     0.051 A 
HETATM    9  C   UNL     1     -41.459 -46.840  10.908  1.00  0.00     0.084 A 
HETATM   10  C   UNL     1     -42.201 -45.682  10.519  1.00  0.00     0.102 C 
HETATM   11  N   UNL     1     -42.814 -44.734  10.244  1.00  0.00    -0.191 NA
ENDROOT
BRANCH   4  12
HETATM   12  S   UNL     1     -39.191 -50.548  12.182  1.00  0.00    -0.109 SA
BRANCH  12  13
HETATM   13  C   UNL     1     -40.299 -51.392  13.377  1.00  0.00     0.107 C 
BRANCH  13  14
HETATM   14  C   UNL     1     -41.060 -52.404  12.513  1.00  0.00     0.178 C 
BRANCH  14  15
HETATM   15  O   UNL     1     -42.346 -51.959  12.059  1.00  0.00    -0.385 OA
BRANCH  15  16
HETATM   16  C   UNL     1     -43.378 -52.231  13.046  1.00  0.00     0.121 C 
HETATM   17  C   UNL     1     -44.458 -53.170  12.479  1.00  0.00     0.032 C 
HETATM   18  C   UNL     1     -45.305 -53.806  13.574  1.00  0.00     0.002 C 
HETATM   19  C   UNL     1     -46.563 -53.024  13.916  1.00  0.00     0.000 C 
HETATM   20  C   UNL     1     -46.419 -51.504  13.954  1.00  0.00     0.000 C 
HETATM   21  C   UNL     1     -45.104 -50.988  14.538  1.00  0.00     0.002 C 
HETATM   22  C   UNL     1     -43.966 -50.889  13.510  1.00  0.00     0.032 C 
ENDBRANCH  15  16
ENDBRANCH  14  15
ENDBRANCH  13  14
ENDBRANCH  12  13
ENDBRANCH   4  12
BRANCH   1  23
HETATM   23  N   UNL     1     -42.513 -48.243   9.216  1.00  0.00    -0.287 NA
HETATM   24  H   UNL     1     -42.921 -49.175   9.237  1.00  0.00     0.125 HD
HETATM   25  H   UNL     1     -43.210 -47.514   9.102  1.00  0.00     0.125 HD
ENDBRANCH   1  23
TORSDOF 6
ENDMDL
MODEL 3
REMARK VINA RESULT:      -6.4      1.758      2.305
REMARK  6 active torsions:
REMARK  status: ('A' for Active; 'I' for Inactive)
REMARK    1  A    between atoms: N_1  and  C_2 
REMARK    2  A    between atoms: C_5  and  S_6 
REMARK    3  A    between atoms: S_6  and  C_7 
REMARK    4  A    between atoms: C_7  and  C_8 
REMARK    5  A    between atoms: C_8  and  O_9 
REMARK    6  A    between atoms: O_9  and  C_10 
ROOT
HETATM    1  C   UNL     1     -40.192 -50.125  11.598  1.00  0.00     0.099 A 
HETATM    2  N   UNL     1     -40.224 -51.386  12.085  1.00  0.00    -0.339 N 
ATOM      3  HN  UNL     1     -40.486 -52.170  11.487  1.00  0.00     0.167 HD
HETATM    4  C   UNL     1     -39.899 -51.584  13.389  1.00  0.00     0.092 A 
HETATM    5  C   UNL     1     -39.526 -50.540  14.238  1.00  0.00     0.079 A 
HETATM    6  C   UNL     1     -39.153 -50.741  15.610  1.00  0.00     0.102 C 
HETATM    7  N   UNL     1     -38.844 -50.859  16.722  1.00  0.00    -0.191 NA
HETATM    8  C   UNL     1     -39.507 -49.241  13.725  1.00  0.00     0.051 A 
HETATM    9  C   UNL     1     -39.840 -49.027  12.388  1.00  0.00     0.084 A 
HETATM   10  C   UNL     1     -39.830 -47.695  11.868  1.00  0.00     0.102 C 
HETATM   11  N   UNL     1     -39.847 -46.601  11.478  1.00  0.00    -0.191 NA
ENDROOT
BRANCH   4  12
HETATM   12  S   UNL     1     -39.972 -53.245  14.032  1.00  0.00    -0.109 SA
BRANCH  12  13
HETATM   13  C   UNL     1     -41.064 -54.171  12.883  1.00  0.00     0.107 C 
BRANCH  13  14
HETATM   14  C   UNL     1     -42.474 -53.717  13.279  1.00  0.00     0.178 C 
BRANCH  14  15
HETATM   15  O   UNL     1     -43.059 -52.744  12.403  1.00  0.00    -0.385 OA
BRANCH  15  16
HETATM   16  C   UNL     1     -43.929 -51.834  13.130  1.00  0.00     0.121 C 
HETATM   17  C   UNL     1     -43.556 -51.780  14.623  1.00  0.00     0.032 C 
HETATM   18  C   UNL     1     -44.141 -50.560  15.322  1.00  0.00     0.002 C 
HETATM   19  C   UNL     1     -45.500 -50.803  15.958  1.00  0.00     0.000 C 
HETATM   20  C   UNL     1     -46.471 -51.668  15.157  1.00  0.00     0.000 C 
HETATM   21  C   UNL     1     -46.446 -51.447  13.644  1.00  0.00     0.002 C 
HETATM   22  C   UNL     1     -45.384 -52.282  12.914  1.00  0.00     0.032 C 
ENDBRANCH  15  16
ENDBRANCH  14  15
ENDBRANCH  13  14
ENDBRANCH  12  13
ENDBRANCH   4  12
BRANCH   1  23
HETATM   23  N   UNL     1     -40.437 -50.002  10.236  1.00  0.00    -0.287 NA
HETATM   24  H   UNL     1     -40.905 -49.116  10.054  1.00  0.00     0.125 HD
HETATM   25  H   UNL     1     -39.631 -50.148   9.637  1.00  0.00     0.125 HD
ENDBRANCH   1  23
TORSDOF 6
ENDMDL
MODEL 4
REMARK VINA RESULT:      -6.3      3.497      5.219
REMARK  6 active torsions:
REMARK  status: ('A' for Active; 'I' for Inactive)
REMARK    1  A    between atoms: N_1  and  C_2 
REMARK    2  A    between atoms: C_5  and  S_6 
REMARK    3  A    between atoms: S_6  and  C_7 
REMARK    4  A    between atoms: C_7  and  C_8 
REMARK    5  A    between atoms: C_8  and  O_9 
REMARK    6  A    between atoms: O_9  and  C_10 
ROOT
HETATM    1  C   UNL     1     -41.443 -52.213  12.175  1.00  0.00     0.099 A 
HETATM    2  N   UNL     1     -42.719 -52.652  12.077  1.00  0.00    -0.339 N 
ATOM      3  HN  UNL     1     -43.327 -52.327  11.324  1.00  0.00     0.167 HD
HETATM    4  C   UNL     1     -43.172 -53.535  13.004  1.00  0.00     0.092 A 
HETATM    5  C   UNL     1     -42.370 -54.012  14.044  1.00  0.00     0.079 A 
HETATM    6  C   UNL     1     -42.830 -54.966  15.013  1.00  0.00     0.102 C 
HETATM    7  N   UNL     1     -43.161 -55.737  15.814  1.00  0.00    -0.191 NA
HETATM    8  C   UNL     1     -41.059 -53.543  14.140  1.00  0.00     0.051 A 
HETATM    9  C   UNL     1     -40.584 -52.635  13.194  1.00  0.00     0.084 A 
HETATM   10  C   UNL     1     -39.244 -52.149  13.300  1.00  0.00     0.102 C 
HETATM   11  N   UNL     1     -38.163 -51.743  13.426  1.00  0.00    -0.191 NA
ENDROOT
BRANCH   4  12
HETATM   12  S   UNL     1     -44.864 -54.086  12.886  1.00  0.00    -0.109 SA
BRANCH  12  13
HETATM   13  C   UNL     1     -45.823 -52.620  12.341  1.00  0.00     0.107 C 
BRANCH  13  14
HETATM   14  C   UNL     1     -46.461 -52.102  13.635  1.00  0.00     0.178 C 
BRANCH  14  15
HETATM   15  O   UNL     1     -46.615 -53.088  14.666  1.00  0.00    -0.385 OA
BRANCH  15  16
HETATM   16  C   UNL     1     -46.532 -52.489  15.987  1.00  0.00     0.121 C 
HETATM   17  C   UNL     1     -47.608 -51.404  16.177  1.00  0.00     0.032 C 
HETATM   18  C   UNL     1     -47.830 -51.059  17.643  1.00  0.00     0.002 C 
HETATM   19  C   UNL     1     -46.978 -49.904  18.142  1.00  0.00     0.000 C 
HETATM   20  C   UNL     1     -45.537 -49.865  17.638  1.00  0.00     0.000 C 
HETATM   21  C   UNL     1     -44.852 -51.227  17.515  1.00  0.00     0.002 C 
HETATM   22  C   UNL     1     -45.112 -51.932  16.176  1.00  0.00     0.032 C 
ENDBRANCH  15  16
ENDBRANCH  14  15
ENDBRANCH  13  14
ENDBRANCH  12  13
ENDBRANCH   4  12
BRANCH   1  23
HETATM   23  N   UNL     1     -41.011 -51.391  11.142  1.00  0.00    -0.287 NA
HETATM   24  H   UNL     1     -41.519 -50.510  11.175  1.00  0.00     0.125 HD
HETATM   25  H   UNL     1     -40.007 -51.261  11.085  1.00  0.00     0.125 HD
ENDBRANCH   1  23
TORSDOF 6
ENDMDL
MODEL 5
REMARK VINA RESULT:      -6.3      3.208      7.898
REMARK  6 active torsions:
REMARK  status: ('A' for Active; 'I' for Inactive)
REMARK    1  A    between atoms: N_1  and  C_2 
REMARK    2  A    between atoms: C_5  and  S_6 
REMARK    3  A    between atoms: S_6  and  C_7 
REMARK    4  A    between atoms: C_7  and  C_8 
REMARK    5  A    between atoms: C_8  and  O_9 
REMARK    6  A    between atoms: O_9  and  C_10 
ROOT
HETATM    1  C   UNL     1     -44.172 -53.058  12.538  1.00  0.00     0.099 A 
HETATM    2  N   UNL     1     -43.136 -52.272  12.164  1.00  0.00    -0.339 N 
ATOM      3  HN  UNL     1     -43.284 -51.469  11.552  1.00  0.00     0.167 HD
HETATM    4  C   UNL     1     -41.895 -52.577  12.622  1.00  0.00     0.092 A 
HETATM    5  C   UNL     1     -41.650 -53.661  13.468  1.00  0.00     0.079 A 
HETATM    6  C   UNL     1     -40.347 -53.976  13.981  1.00  0.00     0.102 C 
HETATM    7  N   UNL     1     -39.312 -54.265  14.418  1.00  0.00    -0.191 NA
HETATM    8  C   UNL     1     -42.726 -54.471  13.838  1.00  0.00     0.051 A 
HETATM    9  C   UNL     1     -44.005 -54.167  13.372  1.00  0.00     0.084 A 
HETATM   10  C   UNL     1     -45.104 -55.003  13.744  1.00  0.00     0.102 C 
HETATM   11  N   UNL     1     -45.974 -55.716  14.033  1.00  0.00    -0.191 NA
ENDROOT
BRANCH   4  12
HETATM   12  S   UNL     1     -40.530 -51.555  12.101  1.00  0.00    -0.109 SA
BRANCH  12  13
HETATM   13  C   UNL     1     -41.000 -49.839  12.551  1.00  0.00     0.107 C 
BRANCH  13  14
HETATM   14  C   UNL     1     -40.912 -49.079  11.222  1.00  0.00     0.178 C 
BRANCH  14  15
HETATM   15  O   UNL     1     -41.514 -47.776  11.234  1.00  0.00    -0.385 OA
BRANCH  15  16
HETATM   16  C   UNL     1     -40.518 -46.736  11.429  1.00  0.00     0.121 C 
HETATM   17  C   UNL     1     -40.528 -46.218  12.879  1.00  0.00     0.032 C 
HETATM   18  C   UNL     1     -39.257 -45.457  13.231  1.00  0.00     0.002 C 
HETATM   19  C   UNL     1     -39.347 -43.958  12.992  1.00  0.00     0.000 C 
HETATM   20  C   UNL     1     -40.080 -43.523  11.726  1.00  0.00     0.000 C 
HETATM   21  C   UNL     1     -39.843 -44.405  10.499  1.00  0.00     0.002 C 
HETATM   22  C   UNL     1     -40.788 -45.613  10.414  1.00  0.00     0.032 C 
ENDBRANCH  15  16
ENDBRANCH  14  15
ENDBRANCH  13  14
ENDBRANCH  12  13
ENDBRANCH   4  12
BRANCH   1  23
HETATM   23  N   UNL     1     -45.427 -52.636  12.117  1.00  0.00    -0.287 NA
HETATM   24  H   UNL     1     -45.514 -52.778  11.113  1.00  0.00     0.125 HD
HETATM   25  H   UNL     1     -46.208 -53.023  12.636  1.00  0.00     0.125 HD
ENDBRANCH   1  23
TORSDOF 6
ENDMDL
MODEL 6
REMARK VINA RESULT:      -6.3      3.663      5.516
REMARK  6 active torsions:
REMARK  status: ('A' for Active; 'I' for Inactive)
REMARK    1  A    between atoms: N_1  and  C_2 
REMARK    2  A    between atoms: C_5  and  S_6 
REMARK    3  A    between atoms: S_6  and  C_7 
REMARK    4  A    between atoms: C_7  and  C_8 
REMARK    5  A    between atoms: C_8  and  O_9 
REMARK    6  A    between atoms: O_9  and  C_10 
ROOT
HETATM    1  C   UNL     1     -41.631 -52.402  12.036  1.00  0.00     0.099 A 
HETATM    2  N   UNL     1     -42.917 -52.822  12.086  1.00  0.00    -0.339 N 
ATOM      3  HN  UNL     1     -43.266 -53.513  11.422  1.00  0.00     0.167 HD
HETATM    4  C   UNL     1     -43.730 -52.300  13.039  1.00  0.00     0.092 A 
HETATM    5  C   UNL     1     -43.289 -51.358  13.972  1.00  0.00     0.079 A 
HETATM    6  C   UNL     1     -44.133 -50.820  15.001  1.00  0.00     0.102 C 
HETATM    7  N   UNL     1     -44.779 -50.363  15.849  1.00  0.00    -0.191 NA
HETATM    8  C   UNL     1     -41.963 -50.926  13.903  1.00  0.00     0.051 A 
HETATM    9  C   UNL     1     -41.119 -51.455  12.927  1.00  0.00     0.084 A 
HETATM   10  C   UNL     1     -39.764 -51.004  12.852  1.00  0.00     0.102 C 
HETATM   11  N   UNL     1     -38.678 -50.597  12.790  1.00  0.00    -0.191 NA
ENDROOT
BRANCH   4  12
HETATM   12  S   UNL     1     -45.431 -52.834  13.080  1.00  0.00    -0.109 SA
BRANCH  12  13
HETATM   13  C   UNL     1     -45.382 -54.594  13.597  1.00  0.00     0.107 C 
BRANCH  13  14
HETATM   14  C   UNL     1     -44.591 -54.565  14.910  1.00  0.00     0.178 C 
BRANCH  14  15
HETATM   15  O   UNL     1     -43.673 -55.654  15.083  1.00  0.00    -0.385 OA
BRANCH  15  16
HETATM   16  C   UNL     1     -42.507 -55.245  15.847  1.00  0.00     0.121 C 
HETATM   17  C   UNL     1     -41.434 -54.620  14.936  1.00  0.00     0.032 C 
HETATM   18  C   UNL     1     -40.407 -53.813  15.719  1.00  0.00     0.002 C 
HETATM   19  C   UNL     1     -39.184 -54.611  16.140  1.00  0.00     0.000 C 
HETATM   20  C   UNL     1     -39.444 -56.038  16.616  1.00  0.00     0.000 C 
HETATM   21  C   UNL     1     -40.712 -56.227  17.449  1.00  0.00     0.002 C 
HETATM   22  C   UNL     1     -41.975 -56.470  16.608  1.00  0.00     0.032 C 
ENDBRANCH  15  16
ENDBRANCH  14  15
ENDBRANCH  13  14
ENDBRANCH  12  13
ENDBRANCH   4  12
BRANCH   1  23
HETATM   23  N   UNL     1     -40.826 -53.047  11.104  1.00  0.00    -0.287 NA
HETATM   24  H   UNL     1     -39.848 -52.854  11.310  1.00  0.00     0.125 HD
HETATM   25  H   UNL     1     -41.013 -54.037  10.984  1.00  0.00     0.125 HD
ENDBRANCH   1  23
TORSDOF 6
ENDMDL
MODEL 7
REMARK VINA RESULT:      -6.2      3.537      5.798
REMARK  6 active torsions:
REMARK  status: ('A' for Active; 'I' for Inactive)
REMARK    1  A    between atoms: N_1  and  C_2 
REMARK    2  A    between atoms: C_5  and  S_6 
REMARK    3  A    between atoms: S_6  and  C_7 
REMARK    4  A    between atoms: C_7  and  C_8 
REMARK    5  A    between atoms: C_8  and  O_9 
REMARK    6  A    between atoms: O_9  and  C_10 
ROOT
HETATM    1  C   UNL     1     -41.806 -53.151  12.458  1.00  0.00     0.099 A 
HETATM    2  N   UNL     1     -43.045 -53.694  12.494  1.00  0.00    -0.339 N 
ATOM      3  HN  UNL     1     -43.627 -53.721  11.657  1.00  0.00     0.167 HD
HETATM    4  C   UNL     1     -43.494 -54.202  13.670  1.00  0.00     0.092 A 
HETATM    5  C   UNL     1     -42.724 -54.193  14.836  1.00  0.00     0.079 A 
HETATM    6  C   UNL     1     -43.179 -54.752  16.078  1.00  0.00     0.102 C 
HETATM    7  N   UNL     1     -43.505 -55.194  17.100  1.00  0.00    -0.191 NA
HETATM    8  C   UNL     1     -41.452 -53.620  14.788  1.00  0.00     0.051 A 
HETATM    9  C   UNL     1     -40.981 -53.095  13.585  1.00  0.00     0.084 A 
HETATM   10  C   UNL     1     -39.682 -52.500  13.541  1.00  0.00     0.102 C 
HETATM   11  N   UNL     1     -38.637 -51.993  13.538  1.00  0.00    -0.191 NA
ENDROOT
BRANCH   4  12
HETATM   12  S   UNL     1     -45.139 -54.889  13.718  1.00  0.00    -0.109 SA
BRANCH  12  13
HETATM   13  C   UNL     1     -46.189 -53.597  14.490  1.00  0.00     0.107 C 
BRANCH  13  14
HETATM   14  C   UNL     1     -46.236 -52.488  13.433  1.00  0.00     0.178 C 
BRANCH  14  15
HETATM   15  O   UNL     1     -45.986 -51.168  13.935  1.00  0.00    -0.385 OA
BRANCH  15  16
HETATM   16  C   UNL     1     -44.611 -51.022  14.378  1.00  0.00     0.121 C 
HETATM   17  C   UNL     1     -44.542 -50.494  15.823  1.00  0.00     0.032 C 
HETATM   18  C   UNL     1     -43.178 -50.724  16.460  1.00  0.00     0.002 C 
HETATM   19  C   UNL     1     -42.212 -49.563  16.288  1.00  0.00     0.000 C 
HETATM   20  C   UNL     1     -42.227 -48.872  14.927  1.00  0.00     0.000 C 
HETATM   21  C   UNL     1     -42.411 -49.801  13.726  1.00  0.00     0.002 C 
HETATM   22  C   UNL     1     -43.881 -50.096  13.391  1.00  0.00     0.032 C 
ENDBRANCH  15  16
ENDBRANCH  14  15
ENDBRANCH  13  14
ENDBRANCH  12  13
ENDBRANCH   4  12
BRANCH   1  23
HETATM   23  N   UNL     1     -41.368 -52.740  11.205  1.00  0.00    -0.287 NA
HETATM   24  H   UNL     1     -40.365 -52.899  11.127  1.00  0.00     0.125 HD
HETATM   25  H   UNL     1     -41.885 -53.122  10.420  1.00  0.00     0.125 HD
ENDBRANCH   1  23
TORSDOF 6
ENDMDL
MODEL 8
REMARK VINA RESULT:      -6.1      4.046      5.661
REMARK  6 active torsions:
REMARK  status: ('A' for Active; 'I' for Inactive)
REMARK    1  A    between atoms: N_1  and  C_2 
REMARK    2  A    between atoms: C_5  and  S_6 
REMARK    3  A    between atoms: S_6  and  C_7 
REMARK    4  A    between atoms: C_7  and  C_8 
REMARK    5  A    between atoms: C_8  and  O_9 
REMARK    6  A    between atoms: O_9  and  C_10 
ROOT
HETATM    1  C   UNL     1     -41.698 -52.891  12.382  1.00  0.00     0.099 A 
HETATM    2  N   UNL     1     -43.022 -53.167  12.338  1.00  0.00    -0.339 N 
ATOM      3  HN  UNL     1     -43.554 -53.035  11.478  1.00  0.00     0.167 HD
HETATM    4  C   UNL     1     -43.625 -53.624  13.466  1.00  0.00     0.092 A 
HETATM    5  C   UNL     1     -42.930 -53.827  14.661  1.00  0.00     0.079 A 
HETATM    6  C   UNL     1     -43.552 -54.335  15.851  1.00  0.00     0.102 C 
HETATM    7  N   UNL     1     -44.013 -54.745  16.833  1.00  0.00    -0.191 NA
HETATM    8  C   UNL     1     -41.567 -53.528  14.695  1.00  0.00     0.051 A 
HETATM    9  C   UNL     1     -40.938 -53.058  13.543  1.00  0.00     0.084 A 
HETATM   10  C   UNL     1     -39.544 -52.744  13.584  1.00  0.00     0.102 C 
HETATM   11  N   UNL     1     -38.419 -52.464  13.651  1.00  0.00    -0.191 NA
ENDROOT
BRANCH   4  12
HETATM   12  S   UNL     1     -45.376 -53.956  13.409  1.00  0.00    -0.109 SA
BRANCH  12  13
HETATM   13  C   UNL     1     -46.108 -52.577  12.446  1.00  0.00     0.107 C 
BRANCH  13  14
HETATM   14  C   UNL     1     -46.521 -51.564  13.520  1.00  0.00     0.178 C 
BRANCH  14  15
HETATM   15  O   UNL     1     -46.708 -52.119  14.830  1.00  0.00    -0.385 OA
BRANCH  15  16
HETATM   16  C   UNL     1     -46.712 -51.082  15.848  1.00  0.00     0.121 C 
HETATM   17  C   UNL     1     -45.378 -51.049  16.616  1.00  0.00     0.032 C 
HETATM   18  C   UNL     1     -45.180 -49.745  17.376  1.00  0.00     0.002 C 
HETATM   19  C   UNL     1     -45.682 -49.783  18.811  1.00  0.00     0.000 C 
HETATM   20  C   UNL     1     -46.998 -50.521  19.042  1.00  0.00     0.000 C 
HETATM   21  C   UNL     1     -48.050 -50.337  17.947  1.00  0.00     0.002 C 
HETATM   22  C   UNL     1     -47.909 -51.328  16.781  1.00  0.00     0.032 C 
ENDBRANCH  15  16
ENDBRANCH  14  15
ENDBRANCH  13  14
ENDBRANCH  12  13
ENDBRANCH   4  12
BRANCH   1  23
HETATM   23  N   UNL     1     -41.122 -52.524  11.172  1.00  0.00    -0.287 NA
HETATM   24  H   UNL     1     -40.114 -52.439  11.288  1.00  0.00     0.125 HD
HETATM   25  H   UNL     1     -41.376 -53.105  10.379  1.00  0.00     0.125 HD
ENDBRANCH   1  23
TORSDOF 6
ENDMDL
MODEL 9
REMARK VINA RESULT:      -5.9      3.373      5.338
REMARK  6 active torsions:
REMARK  status: ('A' for Active; 'I' for Inactive)
REMARK    1  A    between atoms: N_1  and  C_2 
REMARK    2  A    between atoms: C_5  and  S_6 
REMARK    3  A    between atoms: S_6  and  C_7 
REMARK    4  A    between atoms: C_7  and  C_8 
REMARK    5  A    between atoms: C_8  and  O_9 
REMARK    6  A    between atoms: O_9  and  C_10 
ROOT
HETATM    1  C   UNL     1     -45.298 -51.209  13.210  1.00  0.00     0.099 A 
HETATM    2  N   UNL     1     -44.181 -50.706  12.635  1.00  0.00    -0.339 N 
ATOM      3  HN  UNL     1     -44.086 -50.673  11.619  1.00  0.00     0.167 HD
HETATM    4  C   UNL     1     -43.190 -50.246  13.441  1.00  0.00     0.092 A 
HETATM    5  C   UNL     1     -43.284 -50.265  14.835  1.00  0.00     0.079 A 
HETATM    6  C   UNL     1     -42.254 -49.757  15.696  1.00  0.00     0.102 C 
HETATM    7  N   UNL     1     -41.449 -49.355  16.428  1.00  0.00    -0.191 NA
HETATM    8  C   UNL     1     -44.437 -50.797  15.415  1.00  0.00     0.051 A 
HETATM    9  C   UNL     1     -45.461 -51.272  14.596  1.00  0.00     0.084 A 
HETATM   10  C   UNL     1     -46.637 -51.825  15.193  1.00  0.00     0.102 C 
HETATM   11  N   UNL     1     -47.567 -52.300  15.701  1.00  0.00    -0.191 NA
ENDROOT
BRANCH   4  12
HETATM   12  S   UNL     1     -41.709 -49.612  12.677  1.00  0.00    -0.109 SA
BRANCH  12  13
HETATM   13  C   UNL     1     -40.983 -51.027  11.760  1.00  0.00     0.107 C 
BRANCH  13  14
HETATM   14  C   UNL     1     -40.311 -51.862  12.855  1.00  0.00     0.178 C 
BRANCH  14  15
HETATM   15  O   UNL     1     -40.339 -53.279  12.633  1.00  0.00    -0.385 OA
BRANCH  15  16
HETATM   16  C   UNL     1     -40.980 -53.975  13.736  1.00  0.00     0.121 C 
HETATM   17  C   UNL     1     -42.512 -53.842  13.664  1.00  0.00     0.032 C 
HETATM   18  C   UNL     1     -43.224 -54.877  14.525  1.00  0.00     0.002 C 
HETATM   19  C   UNL     1     -43.531 -54.402  15.937  1.00  0.00     0.000 C 
HETATM   20  C   UNL     1     -42.444 -53.572  16.617  1.00  0.00     0.000 C 
HETATM   21  C   UNL     1     -41.009 -54.020  16.334  1.00  0.00     0.002 C 
HETATM   22  C   UNL     1     -40.414 -53.418  15.052  1.00  0.00     0.032 C 
ENDBRANCH  15  16
ENDBRANCH  14  15
ENDBRANCH  13  14
ENDBRANCH  12  13
ENDBRANCH   4  12
BRANCH   1  23
HETATM   23  N   UNL     1     -46.313 -51.570  12.332  1.00  0.00    -0.287 NA
HETATM   24  H   UNL     1     -46.951 -50.785  12.211  1.00  0.00     0.125 HD
HETATM   25  H   UNL     1     -46.002 -51.960  11.449  1.00  0.00     0.125 HD
ENDBRANCH   1  23
TORSDOF 6
ENDMDL
