MODEL 1
REMARK VINA RESULT:      -6.4      0.000      0.000
REMARK  3 active torsions:
REMARK  status: ('A' for Active; 'I' for Inactive)
REMARK    1  A    between atoms: C_2  and  N_3 
REMARK    2  A    between atoms: C_2  and  C_14 
REMARK       I    between atoms: N_3  and  C_4 
REMARK       I    between atoms: C_4  and  N_6 
REMARK    3  A    between atoms: N_6  and  C_7 
REMARK       I    between atoms: C_14  and  N_16 
ROOT
HETATM    1  N   UNL     1     -41.133 -49.977  12.916  1.00  0.00    -0.330 N 
HETATM    2  C   UNL     1     -40.553 -50.511  11.813  1.00  0.00     0.322 C 
HETATM    3  O   UNL     1     -39.798 -49.882  11.077  1.00  0.00    -0.247 OA
HETATM    4  N   UNL     1     -40.951 -51.767  11.461  1.00  0.00    -0.295 N 
HETATM    5  H   UNL     1     -41.647 -50.627  13.510  1.00  0.00     0.165 HD
HETATM    6  H   UNL     1     -40.598 -52.065  10.565  1.00  0.00     0.172 HD
ENDROOT
BRANCH   1   7
HETATM    7  C   UNL     1     -40.963 -48.598  13.352  1.00  0.00     0.174 C 
HETATM    8  C   UNL     1     -41.163 -48.521  14.860  1.00  0.00     0.042 C 
BRANCH   7   9
HETATM    9  C   UNL     1     -41.928 -47.653  12.575  1.00  0.00     0.242 C 
HETATM   10  O   UNL     1     -43.143 -47.861  12.561  1.00  0.00    -0.271 OA
HETATM   11  N   UNL     1     -41.385 -46.518  11.951  1.00  0.00    -0.349 N 
HETATM   12  C   UNL     1     -39.948 -46.255  11.831  1.00  0.00     0.140 C 
HETATM   13  C   UNL     1     -42.260 -45.687  11.109  1.00  0.00     0.140 C 
HETATM   14  C   UNL     1     -39.576 -44.846  12.219  1.00  0.00     0.160 C 
HETATM   15  S   UNL     1     -40.435 -43.690  11.200  1.00  0.00     0.147 S 
HETATM   16  O   UNL     1     -40.289 -42.380  11.805  1.00  0.00    -0.228 OA
HETATM   17  O   UNL     1     -40.040 -43.916   9.823  1.00  0.00    -0.228 OA
HETATM   18  C   UNL     1     -42.120 -44.206  11.400  1.00  0.00     0.160 C 
ENDBRANCH   7   9
ENDBRANCH   1   7
BRANCH   4  19
HETATM   19  C   UNL     1     -41.810 -52.622  12.155  1.00  0.00     0.108 A 
HETATM   20  C   UNL     1     -41.279 -53.424  13.157  1.00  0.00     0.049 A 
HETATM   21  C   UNL     1     -42.125 -54.305  13.829  1.00  0.00     0.005 A 
HETATM   22  C   UNL     1     -43.477 -54.334  13.507  1.00  0.00     0.017 A 
HETATM   23  C   UNL     1     -43.926 -53.490  12.511  1.00  0.00     0.089 A 
HETATM   24  N   UNL     1     -43.122 -52.652  11.824  1.00  0.00    -0.352 N 
ATOM     25  HN  UNL     1     -43.492 -52.061  11.080  1.00  0.00     0.166 HD
ENDBRANCH   4  19
TORSDOF 3
ENDMDL
MODEL 2
REMARK VINA RESULT:      -6.2      1.501      1.849
REMARK  3 active torsions:
REMARK  status: ('A' for Active; 'I' for Inactive)
REMARK    1  A    between atoms: C_2  and  N_3 
REMARK    2  A    between atoms: C_2  and  C_14 
REMARK       I    between atoms: N_3  and  C_4 
REMARK       I    between atoms: C_4  and  N_6 
REMARK    3  A    between atoms: N_6  and  C_7 
REMARK       I    between atoms: C_14  and  N_16 
ROOT
HETATM    1  N   UNL     1     -41.826 -50.883  13.272  1.00  0.00    -0.330 N 
HETATM    2  C   UNL     1     -41.523 -51.554  12.133  1.00  0.00     0.322 C 
HETATM    3  O   UNL     1     -40.606 -51.229  11.384  1.00  0.00    -0.247 OA
HETATM    4  N   UNL     1     -42.378 -52.552  11.767  1.00  0.00    -0.295 N 
HETATM    5  H   UNL     1     -42.532 -51.313  13.870  1.00  0.00     0.165 HD
HETATM    6  H   UNL     1     -42.188 -52.926  10.850  1.00  0.00     0.172 HD
ENDROOT
BRANCH   1   7
HETATM    7  C   UNL     1     -41.134 -49.689  13.736  1.00  0.00     0.174 C 
HETATM    8  C   UNL     1     -40.571 -49.945  15.127  1.00  0.00     0.042 C 
BRANCH   7   9
HETATM    9  C   UNL     1     -42.082 -48.454  13.696  1.00  0.00     0.242 C 
HETATM   10  O   UNL     1     -42.849 -48.214  14.632  1.00  0.00    -0.271 OA
HETATM   11  N   UNL     1     -41.990 -47.580  12.600  1.00  0.00    -0.349 N 
HETATM   12  C   UNL     1     -41.185 -47.847  11.404  1.00  0.00     0.140 C 
HETATM   13  C   UNL     1     -42.963 -46.484  12.485  1.00  0.00     0.140 C 
HETATM   14  C   UNL     1     -40.340 -46.667  10.992  1.00  0.00     0.160 C 
HETATM   15  S   UNL     1     -41.367 -45.271  10.666  1.00  0.00     0.147 S 
HETATM   16  O   UNL     1     -40.508 -44.105  10.582  1.00  0.00    -0.228 OA
HETATM   17  O   UNL     1     -42.262 -45.608   9.576  1.00  0.00    -0.228 OA
HETATM   18  C   UNL     1     -42.312 -45.152  12.162  1.00  0.00     0.160 C 
ENDBRANCH   7   9
ENDBRANCH   1   7
BRANCH   4  19
HETATM   19  C   UNL     1     -43.477 -53.044  12.472  1.00  0.00     0.108 A 
HETATM   20  C   UNL     1     -43.274 -54.081  13.374  1.00  0.00     0.049 A 
HETATM   21  C   UNL     1     -44.373 -54.600  14.056  1.00  0.00     0.005 A 
HETATM   22  C   UNL     1     -45.632 -54.050  13.844  1.00  0.00     0.017 A 
HETATM   23  C   UNL     1     -45.742 -53.008  12.945  1.00  0.00     0.089 A 
HETATM   24  N   UNL     1     -44.700 -52.509  12.249  1.00  0.00    -0.352 N 
ATOM     25  HN  UNL     1     -44.830 -51.754  11.576  1.00  0.00     0.166 HD
ENDBRANCH   4  19
TORSDOF 3
ENDMDL
MODEL 3
REMARK VINA RESULT:      -6.2      4.254      7.658
REMARK  3 active torsions:
REMARK  status: ('A' for Active; 'I' for Inactive)
REMARK    1  A    between atoms: C_2  and  N_3 
REMARK    2  A    between atoms: C_2  and  C_14 
REMARK       I    between atoms: N_3  and  C_4 
REMARK       I    between atoms: C_4  and  N_6 
REMARK    3  A    between atoms: N_6  and  C_7 
REMARK       I    between atoms: C_14  and  N_16 
ROOT
HETATM    1  N   UNL     1     -42.728 -48.938  11.968  1.00  0.00    -0.330 N 
HETATM    2  C   UNL     1     -42.939 -47.621  12.211  1.00  0.00     0.322 C 
HETATM    3  O   UNL     1     -42.704 -47.090  13.292  1.00  0.00    -0.247 OA
HETATM    4  N   UNL     1     -43.562 -46.911  11.227  1.00  0.00    -0.295 N 
HETATM    5  H   UNL     1     -42.850 -49.241  11.002  1.00  0.00     0.165 HD
HETATM    6  H   UNL     1     -43.818 -45.977  11.506  1.00  0.00     0.172 HD
ENDROOT
BRANCH   1   7
HETATM    7  C   UNL     1     -42.231 -49.889  12.952  1.00  0.00     0.174 C 
HETATM    8  C   UNL     1     -40.732 -49.688  13.130  1.00  0.00     0.042 C 
BRANCH   7   9
HETATM    9  C   UNL     1     -42.590 -51.348  12.538  1.00  0.00     0.242 C 
HETATM   10  O   UNL     1     -41.873 -51.979  11.757  1.00  0.00    -0.271 OA
HETATM   11  N   UNL     1     -43.711 -51.950  13.132  1.00  0.00    -0.349 N 
HETATM   12  C   UNL     1     -44.671 -51.239  13.982  1.00  0.00     0.140 C 
HETATM   13  C   UNL     1     -44.137 -53.276  12.658  1.00  0.00     0.140 C 
HETATM   14  C   UNL     1     -44.988 -51.984  15.255  1.00  0.00     0.160 C 
HETATM   15  S   UNL     1     -45.657 -53.572  14.878  1.00  0.00     0.147 S 
HETATM   16  O   UNL     1     -45.651 -54.351  16.101  1.00  0.00    -0.228 OA
HETATM   17  O   UNL     1     -46.884 -53.383  14.128  1.00  0.00    -0.228 OA
HETATM   18  C   UNL     1     -44.424 -54.240  13.792  1.00  0.00     0.160 C 
ENDBRANCH   7   9
ENDBRANCH   1   7
BRANCH   4  19
HETATM   19  C   UNL     1     -43.923 -47.346   9.950  1.00  0.00     0.108 A 
HETATM   20  C   UNL     1     -45.258 -47.642   9.704  1.00  0.00     0.049 A 
HETATM   21  C   UNL     1     -45.618 -48.110   8.441  1.00  0.00     0.005 A 
HETATM   22  C   UNL     1     -44.646 -48.237   7.456  1.00  0.00     0.017 A 
HETATM   23  C   UNL     1     -43.346 -47.903   7.779  1.00  0.00     0.089 A 
HETATM   24  N   UNL     1     -42.966 -47.479   9.002  1.00  0.00    -0.352 N 
ATOM     25  HN  UNL     1     -41.990 -47.265   9.205  1.00  0.00     0.166 HD
ENDBRANCH   4  19
TORSDOF 3
ENDMDL
MODEL 4
REMARK VINA RESULT:      -5.9      3.833      5.685
REMARK  3 active torsions:
REMARK  status: ('A' for Active; 'I' for Inactive)
REMARK    1  A    between atoms: C_2  and  N_3 
REMARK    2  A    between atoms: C_2  and  C_14 
REMARK       I    between atoms: N_3  and  C_4 
REMARK       I    between atoms: C_4  and  N_6 
REMARK    3  A    between atoms: N_6  and  C_7 
REMARK       I    between atoms: C_14  and  N_16 
ROOT
HETATM    1  N   UNL     1     -42.133 -48.748  10.758  1.00  0.00    -0.330 N 
HETATM    2  C   UNL     1     -41.786 -47.557  10.211  1.00  0.00     0.322 C 
HETATM    3  O   UNL     1     -40.771 -46.942  10.525  1.00  0.00    -0.247 OA
HETATM    4  N   UNL     1     -42.694 -46.983   9.371  1.00  0.00    -0.295 N 
HETATM    5  H   UNL     1     -42.934 -49.218  10.336  1.00  0.00     0.165 HD
HETATM    6  H   UNL     1     -42.452 -46.042   9.100  1.00  0.00     0.172 HD
ENDROOT
BRANCH   1   7
HETATM    7  C   UNL     1     -41.375 -49.431  11.797  1.00  0.00     0.174 C 
HETATM    8  C   UNL     1     -42.086 -50.727  12.165  1.00  0.00     0.042 C 
BRANCH   7   9
HETATM    9  C   UNL     1     -41.165 -48.499  13.027  1.00  0.00     0.242 C 
HETATM   10  O   UNL     1     -42.123 -47.951  13.578  1.00  0.00    -0.271 OA
HETATM   11  N   UNL     1     -39.864 -48.355  13.537  1.00  0.00    -0.349 N 
HETATM   12  C   UNL     1     -38.663 -48.882  12.882  1.00  0.00     0.140 C 
HETATM   13  C   UNL     1     -39.630 -47.381  14.614  1.00  0.00     0.140 C 
HETATM   14  C   UNL     1     -37.755 -49.621  13.833  1.00  0.00     0.160 C 
HETATM   15  S   UNL     1     -37.246 -48.550  15.139  1.00  0.00     0.147 S 
HETATM   16  O   UNL     1     -36.644 -49.374  16.171  1.00  0.00    -0.228 OA
HETATM   17  O   UNL     1     -36.513 -47.441  14.560  1.00  0.00    -0.228 OA
HETATM   18  C   UNL     1     -38.800 -47.950  15.748  1.00  0.00     0.160 C 
ENDBRANCH   7   9
ENDBRANCH   1   7
BRANCH   4  19
HETATM   19  C   UNL     1     -43.902 -47.516   8.918  1.00  0.00     0.108 A 
HETATM   20  C   UNL     1     -45.005 -47.468   9.761  1.00  0.00     0.049 A 
HETATM   21  C   UNL     1     -46.205 -48.030   9.328  1.00  0.00     0.005 A 
HETATM   22  C   UNL     1     -46.278 -48.591   8.059  1.00  0.00     0.017 A 
HETATM   23  C   UNL     1     -45.140 -48.580   7.277  1.00  0.00     0.089 A 
HETATM   24  N   UNL     1     -43.959 -48.072   7.685  1.00  0.00    -0.352 N 
ATOM     25  HN  UNL     1     -43.136 -48.105   7.084  1.00  0.00     0.166 HD
ENDBRANCH   4  19
TORSDOF 3
ENDMDL
MODEL 5
REMARK VINA RESULT:      -5.6      3.811      4.696
REMARK  3 active torsions:
REMARK  status: ('A' for Active; 'I' for Inactive)
REMARK    1  A    between atoms: C_2  and  N_3 
REMARK    2  A    between atoms: C_2  and  C_14 
REMARK       I    between atoms: N_3  and  C_4 
REMARK       I    between atoms: C_4  and  N_6 
REMARK    3  A    between atoms: N_6  and  C_7 
REMARK       I    between atoms: C_14  and  N_16 
ROOT
HETATM    1  N   UNL     1     -41.921 -52.592  13.790  1.00  0.00    -0.330 N 
HETATM    2  C   UNL     1     -42.178 -52.659  12.461  1.00  0.00     0.322 C 
HETATM    3  O   UNL     1     -41.302 -52.608  11.602  1.00  0.00    -0.247 OA
HETATM    4  N   UNL     1     -43.491 -52.653  12.091  1.00  0.00    -0.295 N 
HETATM    5  H   UNL     1     -42.715 -52.761  14.408  1.00  0.00     0.165 HD
HETATM    6  H   UNL     1     -43.628 -52.567  11.096  1.00  0.00     0.172 HD
ENDROOT
BRANCH   1   7
HETATM    7  C   UNL     1     -40.596 -52.422  14.367  1.00  0.00     0.174 C 
HETATM    8  C   UNL     1     -40.171 -53.721  15.040  1.00  0.00     0.042 C 
BRANCH   7   9
HETATM    9  C   UNL     1     -40.573 -51.211  15.346  1.00  0.00     0.242 C 
HETATM   10  O   UNL     1     -41.118 -51.279  16.451  1.00  0.00    -0.271 OA
HETATM   11  N   UNL     1     -39.855 -50.064  14.968  1.00  0.00    -0.349 N 
HETATM   12  C   UNL     1     -39.273 -49.862  13.638  1.00  0.00     0.140 C 
HETATM   13  C   UNL     1     -39.930 -48.868  15.822  1.00  0.00     0.140 C 
HETATM   14  C   UNL     1     -37.845 -49.377  13.692  1.00  0.00     0.160 C 
HETATM   15  S   UNL     1     -37.757 -47.850  14.571  1.00  0.00     0.147 S 
HETATM   16  O   UNL     1     -36.359 -47.592  14.861  1.00  0.00    -0.228 OA
HETATM   17  O   UNL     1     -38.557 -46.870  13.863  1.00  0.00    -0.228 OA
HETATM   18  C   UNL     1     -38.570 -48.255  16.094  1.00  0.00     0.160 C 
ENDBRANCH   7   9
ENDBRANCH   1   7
BRANCH   4  19
HETATM   19  C   UNL     1     -44.616 -52.690  12.917  1.00  0.00     0.108 A 
HETATM   20  C   UNL     1     -45.278 -51.499  13.189  1.00  0.00     0.049 A 
HETATM   21  C   UNL     1     -46.381 -51.524  14.040  1.00  0.00     0.005 A 
HETATM   22  C   UNL     1     -46.810 -52.736  14.567  1.00  0.00     0.017 A 
HETATM   23  C   UNL     1     -46.107 -53.876  14.231  1.00  0.00     0.089 A 
HETATM   24  N   UNL     1     -45.018 -53.874  13.435  1.00  0.00    -0.352 N 
ATOM     25  HN  UNL     1     -44.514 -54.737  13.231  1.00  0.00     0.166 HD
ENDBRANCH   4  19
TORSDOF 3
ENDMDL
MODEL 6
REMARK VINA RESULT:      -5.6      1.897      2.361
REMARK  3 active torsions:
REMARK  status: ('A' for Active; 'I' for Inactive)
REMARK    1  A    between atoms: C_2  and  N_3 
REMARK    2  A    between atoms: C_2  and  C_14 
REMARK       I    between atoms: N_3  and  C_4 
REMARK       I    between atoms: C_4  and  N_6 
REMARK    3  A    between atoms: N_6  and  C_7 
REMARK       I    between atoms: C_14  and  N_16 
ROOT
HETATM    1  N   UNL     1     -39.962 -49.766  12.521  1.00  0.00    -0.330 N 
HETATM    2  C   UNL     1     -40.861 -49.813  11.507  1.00  0.00     0.322 C 
HETATM    3  O   UNL     1     -41.044 -48.884  10.725  1.00  0.00    -0.247 OA
HETATM    4  N   UNL     1     -41.673 -50.908  11.461  1.00  0.00    -0.295 N 
HETATM    5  H   UNL     1     -39.817 -50.637  13.031  1.00  0.00     0.165 HD
HETATM    6  H   UNL     1     -42.409 -50.834  10.777  1.00  0.00     0.172 HD
ENDROOT
BRANCH   1   7
HETATM    7  C   UNL     1     -39.130 -48.613  12.832  1.00  0.00     0.174 C 
HETATM    8  C   UNL     1     -37.748 -49.093  13.258  1.00  0.00     0.042 C 
BRANCH   7   9
HETATM    9  C   UNL     1     -39.808 -47.720  13.914  1.00  0.00     0.242 C 
HETATM   10  O   UNL     1     -40.004 -48.146  15.055  1.00  0.00    -0.271 OA
HETATM   11  N   UNL     1     -40.125 -46.394  13.577  1.00  0.00    -0.349 N 
HETATM   12  C   UNL     1     -40.022 -45.844  12.222  1.00  0.00     0.140 C 
HETATM   13  C   UNL     1     -40.879 -45.579  14.543  1.00  0.00     0.140 C 
HETATM   14  C   UNL     1     -39.320 -44.510  12.184  1.00  0.00     0.160 C 
HETATM   15  S   UNL     1     -40.180 -43.343  13.189  1.00  0.00     0.147 S 
HETATM   16  O   UNL     1     -39.312 -42.194  13.365  1.00  0.00    -0.228 OA
HETATM   17  O   UNL     1     -41.518 -43.181  12.656  1.00  0.00    -0.228 OA
HETATM   18  C   UNL     1     -40.283 -44.199  14.738  1.00  0.00     0.160 C 
ENDBRANCH   7   9
ENDBRANCH   1   7
BRANCH   4  19
HETATM   19  C   UNL     1     -41.629 -52.045  12.271  1.00  0.00     0.108 A 
HETATM   20  C   UNL     1     -42.387 -52.058  13.435  1.00  0.00     0.049 A 
HETATM   21  C   UNL     1     -42.320 -53.175  14.265  1.00  0.00     0.005 A 
HETATM   22  C   UNL     1     -41.529 -54.256  13.895  1.00  0.00     0.017 A 
HETATM   23  C   UNL     1     -40.823 -54.169  12.712  1.00  0.00     0.089 A 
HETATM   24  N   UNL     1     -40.845 -53.086  11.907  1.00  0.00    -0.352 N 
ATOM     25  HN  UNL     1     -40.289 -53.054  11.053  1.00  0.00     0.166 HD
ENDBRANCH   4  19
TORSDOF 3
ENDMDL
MODEL 7
REMARK VINA RESULT:      -5.6      2.377      3.327
REMARK  3 active torsions:
REMARK  status: ('A' for Active; 'I' for Inactive)
REMARK    1  A    between atoms: C_2  and  N_3 
REMARK    2  A    between atoms: C_2  and  C_14 
REMARK       I    between atoms: N_3  and  C_4 
REMARK       I    between atoms: C_4  and  N_6 
REMARK    3  A    between atoms: N_6  and  C_7 
REMARK       I    between atoms: C_14  and  N_16 
ROOT
HETATM    1  N   UNL     1     -39.362 -50.823  12.574  1.00  0.00    -0.330 N 
HETATM    2  C   UNL     1     -40.658 -51.211  12.480  1.00  0.00     0.322 C 
HETATM    3  O   UNL     1     -41.480 -50.648  11.763  1.00  0.00    -0.247 OA
HETATM    4  N   UNL     1     -41.063 -52.195  13.334  1.00  0.00    -0.295 N 
HETATM    5  H   UNL     1     -38.749 -51.435  13.111  1.00  0.00     0.165 HD
HETATM    6  H   UNL     1     -42.059 -52.353  13.321  1.00  0.00     0.172 HD
ENDROOT
BRANCH   1   7
HETATM    7  C   UNL     1     -38.790 -49.684  11.869  1.00  0.00     0.174 C 
HETATM    8  C   UNL     1     -37.417 -50.067  11.333  1.00  0.00     0.042 C 
BRANCH   7   9
HETATM    9  C   UNL     1     -38.738 -48.433  12.797  1.00  0.00     0.242 C 
HETATM   10  O   UNL     1     -37.952 -48.381  13.746  1.00  0.00    -0.271 OA
HETATM   11  N   UNL     1     -39.558 -47.338  12.480  1.00  0.00    -0.349 N 
HETATM   12  C   UNL     1     -40.590 -47.359  11.439  1.00  0.00     0.140 C 
HETATM   13  C   UNL     1     -39.615 -46.203  13.415  1.00  0.00     0.140 C 
HETATM   14  C   UNL     1     -40.532 -46.153  10.534  1.00  0.00     0.160 C 
HETATM   15  S   UNL     1     -40.732 -44.677  11.479  1.00  0.00     0.147 S 
HETATM   16  O   UNL     1     -40.363 -43.560  10.629  1.00  0.00    -0.228 OA
HETATM   17  O   UNL     1     -42.031 -44.718  12.120  1.00  0.00    -0.228 OA
HETATM   18  C   UNL     1     -39.478 -44.863  12.720  1.00  0.00     0.160 C 
ENDBRANCH   7   9
ENDBRANCH   1   7
BRANCH   4  19
HETATM   19  C   UNL     1     -40.284 -52.931  14.229  1.00  0.00     0.108 A 
HETATM   20  C   UNL     1     -39.793 -54.164  13.820  1.00  0.00     0.049 A 
HETATM   21  C   UNL     1     -39.043 -54.919  14.721  1.00  0.00     0.005 A 
HETATM   22  C   UNL     1     -38.780 -54.409  15.986  1.00  0.00     0.017 A 
HETATM   23  C   UNL     1     -39.290 -53.166  16.306  1.00  0.00     0.089 A 
HETATM   24  N   UNL     1     -40.044 -52.430  15.463  1.00  0.00    -0.352 N 
ATOM     25  HN  UNL     1     -40.422 -51.527  15.748  1.00  0.00     0.166 HD
ENDBRANCH   4  19
TORSDOF 3
ENDMDL
MODEL 8
REMARK VINA RESULT:      -5.6      3.528      7.934
REMARK  3 active torsions:
REMARK  status: ('A' for Active; 'I' for Inactive)
REMARK    1  A    between atoms: C_2  and  N_3 
REMARK    2  A    between atoms: C_2  and  C_14 
REMARK       I    between atoms: N_3  and  C_4 
REMARK       I    between atoms: C_4  and  N_6 
REMARK    3  A    between atoms: N_6  and  C_7 
REMARK       I    between atoms: C_14  and  N_16 
ROOT
HETATM    1  N   UNL     1     -42.831 -47.420  12.438  1.00  0.00    -0.330 N 
HETATM    2  C   UNL     1     -43.474 -47.281  11.252  1.00  0.00     0.322 C 
HETATM    3  O   UNL     1     -44.257 -48.116  10.808  1.00  0.00    -0.247 OA
HETATM    4  N   UNL     1     -43.113 -46.213  10.484  1.00  0.00    -0.295 N 
HETATM    5  H   UNL     1     -42.297 -46.612  12.755  1.00  0.00     0.165 HD
HETATM    6  H   UNL     1     -43.517 -46.228   9.560  1.00  0.00     0.172 HD
ENDROOT
BRANCH   1   7
HETATM    7  C   UNL     1     -42.958 -48.576  13.314  1.00  0.00     0.174 C 
HETATM    8  C   UNL     1     -42.494 -48.196  14.714  1.00  0.00     0.042 C 
BRANCH   7   9
HETATM    9  C   UNL     1     -42.174 -49.792  12.737  1.00  0.00     0.242 C 
HETATM   10  O   UNL     1     -41.031 -49.656  12.293  1.00  0.00    -0.271 OA
HETATM   11  N   UNL     1     -42.774 -51.060  12.802  1.00  0.00    -0.349 N 
HETATM   12  C   UNL     1     -44.162 -51.292  13.215  1.00  0.00     0.140 C 
HETATM   13  C   UNL     1     -42.104 -52.195  12.149  1.00  0.00     0.140 C 
HETATM   14  C   UNL     1     -44.295 -52.407  14.221  1.00  0.00     0.160 C 
HETATM   15  S   UNL     1     -43.662 -53.910  13.547  1.00  0.00     0.147 S 
HETATM   16  O   UNL     1     -43.526 -54.856  14.639  1.00  0.00    -0.228 OA
HETATM   17  O   UNL     1     -44.441 -54.246  12.371  1.00  0.00    -0.228 OA
HETATM   18  C   UNL     1     -42.035 -53.425  13.033  1.00  0.00     0.160 C 
ENDBRANCH   7   9
ENDBRANCH   1   7
BRANCH   4  19
HETATM   19  C   UNL     1     -42.232 -45.180  10.808  1.00  0.00     0.108 A 
HETATM   20  C   UNL     1     -40.889 -45.329  10.487  1.00  0.00     0.049 A 
HETATM   21  C   UNL     1     -39.999 -44.316  10.839  1.00  0.00     0.005 A 
HETATM   22  C   UNL     1     -40.479 -43.174  11.470  1.00  0.00     0.017 A 
HETATM   23  C   UNL     1     -41.832 -43.097  11.735  1.00  0.00     0.089 A 
HETATM   24  N   UNL     1     -42.708 -44.077  11.433  1.00  0.00    -0.352 N 
ATOM     25  HN  UNL     1     -43.696 -43.990  11.668  1.00  0.00     0.166 HD
ENDBRANCH   4  19
TORSDOF 3
ENDMDL
MODEL 9
REMARK VINA RESULT:      -5.6      4.451      5.954
REMARK  3 active torsions:
REMARK  status: ('A' for Active; 'I' for Inactive)
REMARK    1  A    between atoms: C_2  and  N_3 
REMARK    2  A    between atoms: C_2  and  C_14 
REMARK       I    between atoms: N_3  and  C_4 
REMARK       I    between atoms: C_4  and  N_6 
REMARK    3  A    between atoms: N_6  and  C_7 
REMARK       I    between atoms: C_14  and  N_16 
ROOT
HETATM    1  N   UNL     1     -41.775 -52.060  13.386  1.00  0.00    -0.330 N 
HETATM    2  C   UNL     1     -41.958 -51.032  12.521  1.00  0.00     0.322 C 
HETATM    3  O   UNL     1     -41.063 -50.581  11.812  1.00  0.00    -0.247 OA
HETATM    4  N   UNL     1     -43.171 -50.410  12.560  1.00  0.00    -0.295 N 
HETATM    5  H   UNL     1     -42.616 -52.422  13.835  1.00  0.00     0.165 HD
HETATM    6  H   UNL     1     -43.212 -49.572  12.000  1.00  0.00     0.172 HD
ENDROOT
BRANCH   1   7
HETATM    7  C   UNL     1     -40.505 -52.735  13.607  1.00  0.00     0.174 C 
HETATM    8  C   UNL     1     -40.636 -54.196  13.197  1.00  0.00     0.042 C 
BRANCH   7   9
HETATM    9  C   UNL     1     -40.046 -52.573  15.087  1.00  0.00     0.242 C 
HETATM   10  O   UNL     1     -40.412 -53.370  15.955  1.00  0.00    -0.271 OA
HETATM   11  N   UNL     1     -39.149 -51.537  15.394  1.00  0.00    -0.349 N 
HETATM   12  C   UNL     1     -38.751 -50.489  14.450  1.00  0.00     0.140 C 
HETATM   13  C   UNL     1     -38.807 -51.291  16.804  1.00  0.00     0.140 C 
HETATM   14  C   UNL     1     -37.259 -50.266  14.417  1.00  0.00     0.160 C 
HETATM   15  S   UNL     1     -36.679 -49.813  16.021  1.00  0.00     0.147 S 
HETATM   16  O   UNL     1     -35.232 -49.915  16.008  1.00  0.00    -0.228 OA
HETATM   17  O   UNL     1     -37.329 -48.575  16.407  1.00  0.00    -0.228 OA
HETATM   18  C   UNL     1     -37.316 -51.128  17.026  1.00  0.00     0.160 C 
ENDBRANCH   7   9
ENDBRANCH   1   7
BRANCH   4  19
HETATM   19  C   UNL     1     -44.294 -50.763  13.311  1.00  0.00     0.108 A 
HETATM   20  C   UNL     1     -44.269 -50.543  14.683  1.00  0.00     0.049 A 
HETATM   21  C   UNL     1     -45.373 -50.926  15.442  1.00  0.00     0.005 A 
HETATM   22  C   UNL     1     -46.479 -51.482  14.810  1.00  0.00     0.017 A 
HETATM   23  C   UNL     1     -46.429 -51.648  13.440  1.00  0.00     0.089 A 
HETATM   24  N   UNL     1     -45.360 -51.316  12.687  1.00  0.00    -0.352 N 
ATOM     25  HN  UNL     1     -45.356 -51.477  11.680  1.00  0.00     0.166 HD
ENDBRANCH   4  19
TORSDOF 3
ENDMDL
