MODEL 1
REMARK VINA RESULT:      -5.4      0.000      0.000
REMARK  5 active torsions:
REMARK  status: ('A' for Active; 'I' for Inactive)
REMARK    1  A    between atoms: C_2  and  C_3 
REMARK       I    between atoms: C_2  and  N_9 
REMARK    2  A    between atoms: C_3  and  C_4 
REMARK    3  A    between atoms: N_9  and  C_10 
REMARK    4  A    between atoms: C_10  and  C_11 
REMARK    5  A    between atoms: C_11  and  C_12 
ROOT
HETATM    1  O   UNL     1     -42.427 -53.734  13.741  1.00  0.00    -0.274 OA
HETATM    2  C   UNL     1     -43.026 -53.235  12.794  1.00  0.00     0.217 C 
HETATM    3  N   UNL     1     -42.404 -52.512  11.801  1.00  0.00    -0.361 N 
HETATM    4  H   UNL     1     -42.971 -52.043  11.108  1.00  0.00     0.162 HD
ENDROOT
BRANCH   3   5
HETATM    5  C   UNL     1     -40.981 -52.219  11.879  1.00  0.00     0.127 C 
BRANCH   5   6
HETATM    6  C   UNL     1     -40.708 -50.864  12.532  1.00  0.00     0.059 C 
BRANCH   6   7
HETATM    7  C   UNL     1     -41.431 -49.733  11.855  1.00  0.00    -0.041 A 
HETATM    8  C   UNL     1     -42.544 -49.126  12.440  1.00  0.00     0.010 A 
HETATM    9  C   UNL     1     -43.184 -48.078  11.783  1.00  0.00     0.018 A 
HETATM   10  C   UNL     1     -42.692 -47.675  10.554  1.00  0.00     0.087 A 
HETATM   11  N   UNL     1     -41.625 -48.241   9.952  1.00  0.00    -0.375 N 
HETATM   12  C   UNL     1     -41.022 -49.255  10.613  1.00  0.00     0.094 A 
ATOM     13  HN  UNL     1     -41.289 -47.920   9.044  1.00  0.00     0.164 HD
ENDBRANCH   6   7
ENDBRANCH   5   6
ENDBRANCH   3   5
BRANCH   2  14
HETATM   14  C   UNL     1     -44.524 -53.394  12.613  1.00  0.00     0.107 C 
BRANCH  14  15
HETATM   15  C   UNL     1     -45.306 -52.228  13.213  1.00  0.00    -0.006 C 
HETATM   16  C   UNL     1     -44.531 -51.517  14.331  1.00  0.00     0.005 C 
HETATM   17  C   UNL     1     -45.582 -50.989  15.311  1.00  0.00     0.000 C 
HETATM   18  C   UNL     1     -46.932 -51.444  14.772  1.00  0.00     0.000 C 
HETATM   19  C   UNL     1     -46.606 -52.645  13.901  1.00  0.00     0.005 C 
ENDBRANCH  14  15
ENDBRANCH   2  14
TORSDOF 5
ENDMDL
MODEL 2
REMARK VINA RESULT:      -5.2      2.045      3.016
REMARK  5 active torsions:
REMARK  status: ('A' for Active; 'I' for Inactive)
REMARK    1  A    between atoms: C_2  and  C_3 
REMARK       I    between atoms: C_2  and  N_9 
REMARK    2  A    between atoms: C_3  and  C_4 
REMARK    3  A    between atoms: N_9  and  C_10 
REMARK    4  A    between atoms: C_10  and  C_11 
REMARK    5  A    between atoms: C_11  and  C_12 
ROOT
HETATM    1  O   UNL     1     -44.037 -54.062  16.143  1.00  0.00    -0.274 OA
HETATM    2  C   UNL     1     -43.882 -54.560  15.032  1.00  0.00     0.217 C 
HETATM    3  N   UNL     1     -42.649 -54.895  14.518  1.00  0.00    -0.361 N 
HETATM    4  H   UNL     1     -42.587 -55.202  13.557  1.00  0.00     0.162 HD
ENDROOT
BRANCH   3   5
HETATM    5  C   UNL     1     -41.431 -54.581  15.250  1.00  0.00     0.127 C 
BRANCH   5   6
HETATM    6  C   UNL     1     -40.330 -54.051  14.333  1.00  0.00     0.059 C 
BRANCH   6   7
HETATM    7  C   UNL     1     -40.747 -52.828  13.564  1.00  0.00    -0.041 A 
HETATM    8  C   UNL     1     -41.071 -51.635  14.214  1.00  0.00     0.010 A 
HETATM    9  C   UNL     1     -41.450 -50.523  13.467  1.00  0.00     0.018 A 
HETATM   10  C   UNL     1     -41.498 -50.642  12.088  1.00  0.00     0.087 A 
HETATM   11  N   UNL     1     -41.200 -51.779  11.425  1.00  0.00    -0.375 N 
HETATM   12  C   UNL     1     -40.834 -52.843  12.175  1.00  0.00     0.094 A 
ATOM     13  HN  UNL     1     -41.248 -51.833  10.407  1.00  0.00     0.164 HD
ENDBRANCH   6   7
ENDBRANCH   5   6
ENDBRANCH   3   5
BRANCH   2  14
HETATM   14  C   UNL     1     -45.052 -54.879  14.121  1.00  0.00     0.107 C 
BRANCH  14  15
HETATM   15  C   UNL     1     -45.647 -53.627  13.482  1.00  0.00    -0.006 C 
HETATM   16  C   UNL     1     -44.572 -52.609  13.077  1.00  0.00     0.005 C 
HETATM   17  C   UNL     1     -45.216 -51.228  13.216  1.00  0.00     0.000 C 
HETATM   18  C   UNL     1     -46.625 -51.466  13.743  1.00  0.00     0.000 C 
HETATM   19  C   UNL     1     -46.550 -52.825  14.420  1.00  0.00     0.005 C 
ENDBRANCH  14  15
ENDBRANCH   2  14
TORSDOF 5
ENDMDL
MODEL 3
REMARK VINA RESULT:      -5.2      3.782      4.947
REMARK  5 active torsions:
REMARK  status: ('A' for Active; 'I' for Inactive)
REMARK    1  A    between atoms: C_2  and  C_3 
REMARK       I    between atoms: C_2  and  N_9 
REMARK    2  A    between atoms: C_3  and  C_4 
REMARK    3  A    between atoms: N_9  and  C_10 
REMARK    4  A    between atoms: C_10  and  C_11 
REMARK    5  A    between atoms: C_11  and  C_12 
ROOT
HETATM    1  O   UNL     1     -45.885 -52.841  12.365  1.00  0.00    -0.274 OA
HETATM    2  C   UNL     1     -45.971 -52.734  13.585  1.00  0.00     0.217 C 
HETATM    3  N   UNL     1     -45.411 -53.634  14.465  1.00  0.00    -0.361 N 
HETATM    4  H   UNL     1     -45.610 -53.541  15.451  1.00  0.00     0.162 HD
ENDROOT
BRANCH   3   5
HETATM    5  C   UNL     1     -44.751 -54.835  13.976  1.00  0.00     0.127 C 
BRANCH   5   6
HETATM    6  C   UNL     1     -43.563 -55.233  14.851  1.00  0.00     0.059 C 
BRANCH   6   7
HETATM    7  C   UNL     1     -42.282 -54.563  14.439  1.00  0.00    -0.041 A 
HETATM    8  C   UNL     1     -42.111 -54.047  13.152  1.00  0.00     0.010 A 
HETATM    9  C   UNL     1     -40.912 -53.429  12.809  1.00  0.00     0.018 A 
HETATM   10  C   UNL     1     -39.914 -53.353  13.766  1.00  0.00     0.087 A 
HETATM   11  N   UNL     1     -40.038 -53.846  15.017  1.00  0.00    -0.375 N 
HETATM   12  C   UNL     1     -41.214 -54.439  15.323  1.00  0.00     0.094 A 
ATOM     13  HN  UNL     1     -39.282 -53.775  15.698  1.00  0.00     0.164 HD
ENDBRANCH   6   7
ENDBRANCH   5   6
ENDBRANCH   3   5
BRANCH   2  14
HETATM   14  C   UNL     1     -46.691 -51.573  14.244  1.00  0.00     0.107 C 
BRANCH  14  15
HETATM   15  C   UNL     1     -46.559 -51.599  15.765  1.00  0.00    -0.006 C 
HETATM   16  C   UNL     1     -47.865 -51.210  16.472  1.00  0.00     0.005 C 
HETATM   17  C   UNL     1     -47.456 -50.528  17.779  1.00  0.00     0.000 C 
HETATM   18  C   UNL     1     -45.934 -50.489  17.782  1.00  0.00     0.000 C 
HETATM   19  C   UNL     1     -45.551 -50.589  16.314  1.00  0.00     0.005 C 
ENDBRANCH  14  15
ENDBRANCH   2  14
TORSDOF 5
ENDMDL
MODEL 4
REMARK VINA RESULT:      -5.2      2.034      2.775
REMARK  5 active torsions:
REMARK  status: ('A' for Active; 'I' for Inactive)
REMARK    1  A    between atoms: C_2  and  C_3 
REMARK       I    between atoms: C_2  and  N_9 
REMARK    2  A    between atoms: C_3  and  C_4 
REMARK    3  A    between atoms: N_9  and  C_10 
REMARK    4  A    between atoms: C_10  and  C_11 
REMARK    5  A    between atoms: C_11  and  C_12 
ROOT
HETATM    1  O   UNL     1     -42.949 -53.989  15.111  1.00  0.00    -0.274 OA
HETATM    2  C   UNL     1     -43.413 -54.204  13.996  1.00  0.00     0.217 C 
HETATM    3  N   UNL     1     -42.723 -53.958  12.829  1.00  0.00    -0.361 N 
HETATM    4  H   UNL     1     -43.204 -54.060  11.946  1.00  0.00     0.162 HD
ENDROOT
BRANCH   3   5
HETATM    5  C   UNL     1     -41.412 -53.329  12.862  1.00  0.00     0.127 C 
BRANCH   5   6
HETATM    6  C   UNL     1     -41.504 -51.804  12.813  1.00  0.00     0.059 C 
BRANCH   6   7
HETATM    7  C   UNL     1     -40.212 -51.153  12.405  1.00  0.00    -0.041 A 
HETATM    8  C   UNL     1     -39.021 -51.404  13.090  1.00  0.00     0.010 A 
HETATM    9  C   UNL     1     -37.844 -50.784  12.679  1.00  0.00     0.018 A 
HETATM   10  C   UNL     1     -37.898 -49.925  11.595  1.00  0.00     0.087 A 
HETATM   11  N   UNL     1     -39.030 -49.651  10.912  1.00  0.00    -0.375 N 
HETATM   12  C   UNL     1     -40.157 -50.267  11.332  1.00  0.00     0.094 A 
ATOM     13  HN  UNL     1     -39.034 -49.010  10.119  1.00  0.00     0.164 HD
ENDBRANCH   6   7
ENDBRANCH   5   6
ENDBRANCH   3   5
BRANCH   2  14
HETATM   14  C   UNL     1     -44.797 -54.792  13.797  1.00  0.00     0.107 C 
BRANCH  14  15
HETATM   15  C   UNL     1     -45.885 -53.721  13.789  1.00  0.00    -0.006 C 
HETATM   16  C   UNL     1     -45.721 -52.728  12.630  1.00  0.00     0.005 C 
HETATM   17  C   UNL     1     -46.268 -51.391  13.133  1.00  0.00     0.000 C 
HETATM   18  C   UNL     1     -46.689 -51.618  14.578  1.00  0.00     0.000 C 
HETATM   19  C   UNL     1     -45.873 -52.820  15.024  1.00  0.00     0.005 C 
ENDBRANCH  14  15
ENDBRANCH   2  14
TORSDOF 5
ENDMDL
MODEL 5
REMARK VINA RESULT:      -5.1      2.995      4.882
REMARK  5 active torsions:
REMARK  status: ('A' for Active; 'I' for Inactive)
REMARK    1  A    between atoms: C_2  and  C_3 
REMARK       I    between atoms: C_2  and  N_9 
REMARK    2  A    between atoms: C_3  and  C_4 
REMARK    3  A    between atoms: N_9  and  C_10 
REMARK    4  A    between atoms: C_10  and  C_11 
REMARK    5  A    between atoms: C_11  and  C_12 
ROOT
HETATM    1  O   UNL     1     -44.992 -54.270  12.724  1.00  0.00    -0.274 OA
HETATM    2  C   UNL     1     -44.942 -53.057  12.546  1.00  0.00     0.217 C 
HETATM    3  N   UNL     1     -43.764 -52.367  12.363  1.00  0.00    -0.361 N 
HETATM    4  H   UNL     1     -43.790 -51.357  12.327  1.00  0.00     0.162 HD
ENDROOT
BRANCH   3   5
HETATM    5  C   UNL     1     -42.483 -53.048  12.466  1.00  0.00     0.127 C 
BRANCH   5   6
HETATM    6  C   UNL     1     -41.720 -52.649  13.728  1.00  0.00     0.059 C 
BRANCH   6   7
HETATM    7  C   UNL     1     -41.593 -53.775  14.716  1.00  0.00    -0.041 A 
HETATM    8  C   UNL     1     -42.715 -54.334  15.332  1.00  0.00     0.010 A 
HETATM    9  C   UNL     1     -42.557 -55.379  16.238  1.00  0.00     0.018 A 
HETATM   10  C   UNL     1     -41.275 -55.829  16.506  1.00  0.00     0.087 A 
HETATM   11  N   UNL     1     -40.166 -55.310  15.937  1.00  0.00    -0.375 N 
HETATM   12  C   UNL     1     -40.349 -54.298  15.060  1.00  0.00     0.094 A 
ATOM     13  HN  UNL     1     -39.236 -55.664  16.159  1.00  0.00     0.164 HD
ENDBRANCH   6   7
ENDBRANCH   5   6
ENDBRANCH   3   5
BRANCH   2  14
HETATM   14  C   UNL     1     -46.191 -52.199  12.485  1.00  0.00     0.107 C 
BRANCH  14  15
HETATM   15  C   UNL     1     -46.534 -51.580  13.838  1.00  0.00    -0.006 C 
HETATM   16  C   UNL     1     -45.295 -51.041  14.566  1.00  0.00     0.005 C 
HETATM   17  C   UNL     1     -45.577 -51.196  16.062  1.00  0.00     0.000 C 
HETATM   18  C   UNL     1     -46.942 -51.862  16.172  1.00  0.00     0.000 C 
HETATM   19  C   UNL     1     -47.123 -52.573  14.840  1.00  0.00     0.005 C 
ENDBRANCH  14  15
ENDBRANCH   2  14
TORSDOF 5
ENDMDL
MODEL 6
REMARK VINA RESULT:      -5.1      2.064      2.952
REMARK  5 active torsions:
REMARK  status: ('A' for Active; 'I' for Inactive)
REMARK    1  A    between atoms: C_2  and  C_3 
REMARK       I    between atoms: C_2  and  N_9 
REMARK    2  A    between atoms: C_3  and  C_4 
REMARK    3  A    between atoms: N_9  and  C_10 
REMARK    4  A    between atoms: C_10  and  C_11 
REMARK    5  A    between atoms: C_11  and  C_12 
ROOT
HETATM    1  O   UNL     1     -39.755 -52.084  13.406  1.00  0.00    -0.274 OA
HETATM    2  C   UNL     1     -40.621 -52.394  12.594  1.00  0.00     0.217 C 
HETATM    3  N   UNL     1     -40.989 -51.592  11.536  1.00  0.00    -0.361 N 
HETATM    4  H   UNL     1     -41.781 -51.863  10.969  1.00  0.00     0.162 HD
ENDROOT
BRANCH   3   5
HETATM    5  C   UNL     1     -40.417 -50.264  11.380  1.00  0.00     0.127 C 
BRANCH   5   6
HETATM    6  C   UNL     1     -41.233 -49.197  12.110  1.00  0.00     0.059 C 
BRANCH   6   7
HETATM    7  C   UNL     1     -41.032 -47.819  11.544  1.00  0.00    -0.041 A 
HETATM    8  C   UNL     1     -40.114 -46.928  12.104  1.00  0.00     0.010 A 
HETATM    9  C   UNL     1     -39.954 -45.661  11.550  1.00  0.00     0.018 A 
HETATM   10  C   UNL     1     -40.725 -45.322  10.452  1.00  0.00     0.087 A 
HETATM   11  N   UNL     1     -41.628 -46.151   9.886  1.00  0.00    -0.375 N 
HETATM   12  C   UNL     1     -41.762 -47.375  10.445  1.00  0.00     0.094 A 
ATOM     13  HN  UNL     1     -42.182 -45.868   9.078  1.00  0.00     0.164 HD
ENDBRANCH   6   7
ENDBRANCH   5   6
ENDBRANCH   3   5
BRANCH   2  14
HETATM   14  C   UNL     1     -41.358 -53.718  12.667  1.00  0.00     0.107 C 
BRANCH  14  15
HETATM   15  C   UNL     1     -42.706 -53.591  13.373  1.00  0.00    -0.006 C 
HETATM   16  C   UNL     1     -42.893 -54.645  14.473  1.00  0.00     0.005 C 
HETATM   17  C   UNL     1     -44.393 -54.943  14.530  1.00  0.00     0.000 C 
HETATM   18  C   UNL     1     -45.036 -54.100  13.437  1.00  0.00     0.000 C 
HETATM   19  C   UNL     1     -43.907 -53.828  12.457  1.00  0.00     0.005 C 
ENDBRANCH  14  15
ENDBRANCH   2  14
TORSDOF 5
ENDMDL
MODEL 7
REMARK VINA RESULT:      -5.0      3.584      5.659
REMARK  5 active torsions:
REMARK  status: ('A' for Active; 'I' for Inactive)
REMARK    1  A    between atoms: C_2  and  C_3 
REMARK       I    between atoms: C_2  and  N_9 
REMARK    2  A    between atoms: C_3  and  C_4 
REMARK    3  A    between atoms: N_9  and  C_10 
REMARK    4  A    between atoms: C_10  and  C_11 
REMARK    5  A    between atoms: C_11  and  C_12 
ROOT
HETATM    1  O   UNL     1     -45.320 -54.891  14.899  1.00  0.00    -0.274 OA
HETATM    2  C   UNL     1     -44.287 -54.510  14.357  1.00  0.00     0.217 C 
HETATM    3  N   UNL     1     -44.261 -53.557  13.362  1.00  0.00    -0.361 N 
HETATM    4  H   UNL     1     -43.388 -53.368  12.890  1.00  0.00     0.162 HD
ENDROOT
BRANCH   3   5
HETATM    5  C   UNL     1     -45.498 -53.011  12.828  1.00  0.00     0.127 C 
BRANCH   5   6
HETATM    6  C   UNL     1     -45.656 -51.525  13.147  1.00  0.00     0.059 C 
BRANCH   6   7
HETATM    7  C   UNL     1     -45.907 -51.264  14.607  1.00  0.00    -0.041 A 
HETATM    8  C   UNL     1     -47.136 -51.563  15.199  1.00  0.00     0.010 A 
HETATM    9  C   UNL     1     -47.329 -51.310  16.554  1.00  0.00     0.018 A 
HETATM   10  C   UNL     1     -46.284 -50.758  17.275  1.00  0.00     0.087 A 
HETATM   11  N   UNL     1     -45.085 -50.448  16.738  1.00  0.00    -0.375 N 
HETATM   12  C   UNL     1     -44.926 -50.705  15.420  1.00  0.00     0.094 A 
ATOM     13  HN  UNL     1     -44.337 -50.040  17.298  1.00  0.00     0.164 HD
ENDBRANCH   6   7
ENDBRANCH   5   6
ENDBRANCH   3   5
BRANCH   2  14
HETATM   14  C   UNL     1     -42.923 -55.040  14.758  1.00  0.00     0.107 C 
BRANCH  14  15
HETATM   15  C   UNL     1     -41.833 -53.977  14.645  1.00  0.00    -0.006 C 
HETATM   16  C   UNL     1     -40.802 -54.308  13.558  1.00  0.00     0.005 C 
HETATM   17  C   UNL     1     -39.474 -53.716  14.033  1.00  0.00     0.000 C 
HETATM   18  C   UNL     1     -39.746 -53.101  15.399  1.00  0.00     0.000 C 
HETATM   19  C   UNL     1     -40.978 -53.835  15.904  1.00  0.00     0.005 C 
ENDBRANCH  14  15
ENDBRANCH   2  14
TORSDOF 5
ENDMDL
MODEL 8
REMARK VINA RESULT:      -5.0      2.159      6.274
REMARK  5 active torsions:
REMARK  status: ('A' for Active; 'I' for Inactive)
REMARK    1  A    between atoms: C_2  and  C_3 
REMARK       I    between atoms: C_2  and  N_9 
REMARK    2  A    between atoms: C_3  and  C_4 
REMARK    3  A    between atoms: N_9  and  C_10 
REMARK    4  A    between atoms: C_10  and  C_11 
REMARK    5  A    between atoms: C_11  and  C_12 
ROOT
HETATM    1  O   UNL     1     -41.948 -52.463  14.362  1.00  0.00    -0.274 OA
HETATM    2  C   UNL     1     -42.041 -51.774  13.351  1.00  0.00     0.217 C 
HETATM    3  N   UNL     1     -42.950 -52.023  12.346  1.00  0.00    -0.361 N 
HETATM    4  H   UNL     1     -42.901 -51.478  11.497  1.00  0.00     0.162 HD
ENDROOT
BRANCH   3   5
HETATM    5  C   UNL     1     -43.803 -53.200  12.394  1.00  0.00     0.127 C 
BRANCH   5   6
HETATM    6  C   UNL     1     -45.286 -52.834  12.447  1.00  0.00     0.059 C 
BRANCH   6   7
HETATM    7  C   UNL     1     -45.786 -52.620  13.849  1.00  0.00    -0.041 A 
HETATM    8  C   UNL     1     -46.573 -51.515  14.181  1.00  0.00     0.010 A 
HETATM    9  C   UNL     1     -47.019 -51.354  15.490  1.00  0.00     0.018 A 
HETATM   10  C   UNL     1     -46.657 -52.303  16.430  1.00  0.00     0.087 A 
HETATM   11  N   UNL     1     -45.891 -53.380  16.150  1.00  0.00    -0.375 N 
HETATM   12  C   UNL     1     -45.473 -53.512  14.871  1.00  0.00     0.094 A 
ATOM     13  HN  UNL     1     -45.641 -54.059  16.868  1.00  0.00     0.164 HD
ENDBRANCH   6   7
ENDBRANCH   5   6
ENDBRANCH   3   5
BRANCH   2  14
HETATM   14  C   UNL     1     -41.171 -50.553  13.125  1.00  0.00     0.107 C 
BRANCH  14  15
HETATM   15  C   UNL     1     -39.856 -50.900  12.430  1.00  0.00    -0.006 C 
HETATM   16  C   UNL     1     -38.776 -51.362  13.418  1.00  0.00     0.005 C 
HETATM   17  C   UNL     1     -37.436 -50.926  12.822  1.00  0.00     0.000 C 
HETATM   18  C   UNL     1     -37.765 -50.182  11.534  1.00  0.00     0.000 C 
HETATM   19  C   UNL     1     -39.198 -49.714  11.725  1.00  0.00     0.005 C 
ENDBRANCH  14  15
ENDBRANCH   2  14
TORSDOF 5
ENDMDL
MODEL 9
REMARK VINA RESULT:      -4.9      2.576      4.768
REMARK  5 active torsions:
REMARK  status: ('A' for Active; 'I' for Inactive)
REMARK    1  A    between atoms: C_2  and  C_3 
REMARK       I    between atoms: C_2  and  N_9 
REMARK    2  A    between atoms: C_3  and  C_4 
REMARK    3  A    between atoms: N_9  and  C_10 
REMARK    4  A    between atoms: C_10  and  C_11 
REMARK    5  A    between atoms: C_11  and  C_12 
ROOT
HETATM    1  O   UNL     1     -43.331 -51.210  14.607  1.00  0.00    -0.274 OA
HETATM    2  C   UNL     1     -43.756 -51.406  13.473  1.00  0.00     0.217 C 
HETATM    3  N   UNL     1     -42.944 -51.708  12.403  1.00  0.00    -0.361 N 
HETATM    4  H   UNL     1     -43.350 -51.753  11.478  1.00  0.00     0.162 HD
ENDROOT
BRANCH   3   5
HETATM    5  C   UNL     1     -41.497 -51.721  12.551  1.00  0.00     0.127 C 
BRANCH   5   6
HETATM    6  C   UNL     1     -40.908 -53.114  12.325  1.00  0.00     0.059 C 
BRANCH   6   7
HETATM    7  C   UNL     1     -40.620 -53.842  13.609  1.00  0.00    -0.041 A 
HETATM    8  C   UNL     1     -41.650 -54.291  14.439  1.00  0.00     0.010 A 
HETATM    9  C   UNL     1     -41.343 -54.965  15.618  1.00  0.00     0.018 A 
HETATM   10  C   UNL     1     -40.009 -55.163  15.933  1.00  0.00     0.087 A 
HETATM   11  N   UNL     1     -38.986 -54.738  15.162  1.00  0.00    -0.375 N 
HETATM   12  C   UNL     1     -39.314 -54.088  14.023  1.00  0.00     0.094 A 
ATOM     13  HN  UNL     1     -38.014 -54.899  15.425  1.00  0.00     0.164 HD
ENDBRANCH   6   7
ENDBRANCH   5   6
ENDBRANCH   3   5
BRANCH   2  14
HETATM   14  C   UNL     1     -45.236 -51.356  13.146  1.00  0.00     0.107 C 
BRANCH  14  15
HETATM   15  C   UNL     1     -45.926 -52.697  13.382  1.00  0.00    -0.006 C 
HETATM   16  C   UNL     1     -46.409 -52.862  14.829  1.00  0.00     0.005 C 
HETATM   17  C   UNL     1     -46.328 -54.357  15.140  1.00  0.00     0.000 C 
HETATM   18  C   UNL     1     -45.757 -55.021  13.894  1.00  0.00     0.000 C 
HETATM   19  C   UNL     1     -45.011 -53.906  13.181  1.00  0.00     0.005 C 
ENDBRANCH  14  15
ENDBRANCH   2  14
TORSDOF 5
ENDMDL
