MODEL 1
REMARK VINA RESULT:      -6.4      0.000      0.000
REMARK  6 active torsions:
REMARK  status: ('A' for Active; 'I' for Inactive)
REMARK    1  A    between atoms: C_6  and  O_7 
REMARK    2  A    between atoms: O_7  and  C_8 
REMARK    3  A    between atoms: C_8  and  C_9 
REMARK    4  A    between atoms: C_9  and  O_10 
REMARK    5  A    between atoms: C_9  and  C_11 
REMARK    6  A    between atoms: C_11  and  N_12 
ROOT
HETATM    1  C   UNL     1     -41.048 -53.749  12.979  1.00  0.00     0.161 C 
ENDROOT
BRANCH   1   2
HETATM    2  C   UNL     1     -42.589 -53.814  12.890  1.00  0.00     0.209 C 
BRANCH   2   3
HETATM    3  O   UNL     1     -43.146 -53.281  14.095  1.00  0.00    -0.349 OA
BRANCH   3   4
HETATM    4  C   UNL     1     -44.367 -52.667  14.009  1.00  0.00     0.069 A 
HETATM    5  C   UNL     1     -44.865 -52.184  15.223  1.00  0.00     0.037 A 
HETATM    6  C   UNL     1     -46.099 -51.537  15.280  1.00  0.00     0.003 A 
HETATM    7  C   UNL     1     -46.848 -51.361  14.118  1.00  0.00     0.007 A 
HETATM    8  C   UNL     1     -46.363 -51.831  12.893  1.00  0.00    -0.059 A 
HETATM    9  C   UNL     1     -47.153 -51.640  11.631  1.00  0.00     0.048 C 
HETATM   10  C   UNL     1     -45.123 -52.493  12.848  1.00  0.00     0.043 A 
ENDBRANCH   3   4
ENDBRANCH   2   3
ENDBRANCH   1   2
BRANCH   1  11
HETATM   11  O   UNL     1     -40.477 -53.443  11.697  1.00  0.00    -0.392 OA
HETATM   12  H   UNL     1     -40.920 -53.979  11.018  1.00  0.00     0.210 HD
ENDBRANCH   1  11
BRANCH   1  13
HETATM   13  C   UNL     1     -40.610 -52.671  13.985  1.00  0.00     0.166 C 
BRANCH  13  14
HETATM   14  N   UNL     1     -40.323 -51.391  13.342  1.00  0.00    -0.307 N 
HETATM   15  C   UNL     1     -41.313 -50.449  13.219  1.00  0.00     0.186 A 
HETATM   16  N   UNL     1     -41.175 -49.292  12.664  1.00  0.00    -0.355 N 
HETATM   17  C   UNL     1     -39.957 -48.997  12.113  1.00  0.00     0.017 A 
ATOM     18  HN  UNL     1     -41.944 -48.622  12.637  1.00  0.00     0.166 HD
HETATM   19  C   UNL     1     -39.888 -47.643  11.454  1.00  0.00     0.069 C 
HETATM   20  C   UNL     1     -38.904 -49.840  12.126  1.00  0.00     0.028 A 
HETATM   21  C   UNL     1     -37.570 -49.604  11.492  1.00  0.00     0.056 C 
HETATM   22  C   UNL     1     -39.073 -51.144  12.824  1.00  0.00     0.256 A 
HETATM   23  O   UNL     1     -38.133 -51.930  12.923  1.00  0.00    -0.267 OA
ENDBRANCH  13  14
ENDBRANCH   1  13
TORSDOF 6
ENDMDL
MODEL 2
REMARK VINA RESULT:      -6.4      1.487      2.250
REMARK  6 active torsions:
REMARK  status: ('A' for Active; 'I' for Inactive)
REMARK    1  A    between atoms: C_6  and  O_7 
REMARK    2  A    between atoms: O_7  and  C_8 
REMARK    3  A    between atoms: C_8  and  C_9 
REMARK    4  A    between atoms: C_9  and  O_10 
REMARK    5  A    between atoms: C_9  and  C_11 
REMARK    6  A    between atoms: C_11  and  N_12 
ROOT
HETATM    1  C   UNL     1     -42.071 -54.196  14.693  1.00  0.00     0.161 C 
ENDROOT
BRANCH   1   2
HETATM    2  C   UNL     1     -43.411 -54.958  14.804  1.00  0.00     0.209 C 
BRANCH   2   3
HETATM    3  O   UNL     1     -44.241 -54.601  13.695  1.00  0.00    -0.349 OA
BRANCH   3   4
HETATM    4  C   UNL     1     -45.104 -53.552  13.863  1.00  0.00     0.069 A 
HETATM    5  C   UNL     1     -45.431 -52.869  12.688  1.00  0.00     0.037 A 
HETATM    6  C   UNL     1     -46.301 -51.779  12.715  1.00  0.00     0.003 A 
HETATM    7  C   UNL     1     -46.859 -51.363  13.922  1.00  0.00     0.007 A 
HETATM    8  C   UNL     1     -46.550 -52.038  15.108  1.00  0.00    -0.059 A 
HETATM    9  C   UNL     1     -47.151 -51.609  16.414  1.00  0.00     0.048 C 
HETATM   10  C   UNL     1     -45.662 -53.128  15.072  1.00  0.00     0.043 A 
ENDBRANCH   3   4
ENDBRANCH   2   3
ENDBRANCH   1   2
BRANCH   1  11
HETATM   11  O   UNL     1     -41.058 -54.830  15.490  1.00  0.00    -0.392 OA
HETATM   12  H   UNL     1     -40.932 -55.740  15.173  1.00  0.00     0.210 HD
ENDBRANCH   1  11
BRANCH   1  13
HETATM   13  C   UNL     1     -41.595 -54.152  13.231  1.00  0.00     0.166 C 
BRANCH  13  14
HETATM   14  N   UNL     1     -41.159 -52.817  12.826  1.00  0.00    -0.307 N 
HETATM   15  C   UNL     1     -42.030 -51.979  12.177  1.00  0.00     0.186 A 
HETATM   16  N   UNL     1     -41.752 -50.788  11.768  1.00  0.00    -0.355 N 
HETATM   17  C   UNL     1     -40.472 -50.339  11.954  1.00  0.00     0.017 A 
ATOM     18  HN  UNL     1     -42.459 -50.203  11.322  1.00  0.00     0.166 HD
HETATM   19  C   UNL     1     -40.219 -48.953  11.418  1.00  0.00     0.069 C 
HETATM   20  C   UNL     1     -39.500 -51.065  12.544  1.00  0.00     0.028 A 
HETATM   21  C   UNL     1     -38.072 -50.659  12.723  1.00  0.00     0.056 C 
HETATM   22  C   UNL     1     -39.865 -52.414  13.058  1.00  0.00     0.256 A 
HETATM   23  O   UNL     1     -39.040 -53.101  13.659  1.00  0.00    -0.267 OA
ENDBRANCH  13  14
ENDBRANCH   1  13
TORSDOF 6
ENDMDL
MODEL 3
REMARK VINA RESULT:      -6.3      2.061      6.638
REMARK  6 active torsions:
REMARK  status: ('A' for Active; 'I' for Inactive)
REMARK    1  A    between atoms: C_6  and  O_7 
REMARK    2  A    between atoms: O_7  and  C_8 
REMARK    3  A    between atoms: C_8  and  C_9 
REMARK    4  A    between atoms: C_9  and  O_10 
REMARK    5  A    between atoms: C_9  and  C_11 
REMARK    6  A    between atoms: C_11  and  N_12 
ROOT
HETATM    1  C   UNL     1     -39.901 -53.936  13.557  1.00  0.00     0.161 C 
ENDROOT
BRANCH   1   2
HETATM    2  C   UNL     1     -39.097 -52.830  14.275  1.00  0.00     0.209 C 
BRANCH   2   3
HETATM    3  O   UNL     1     -38.285 -52.149  13.314  1.00  0.00    -0.349 OA
BRANCH   3   4
HETATM    4  C   UNL     1     -38.406 -50.788  13.234  1.00  0.00     0.069 A 
HETATM    5  C   UNL     1     -39.367 -50.338  12.325  1.00  0.00     0.037 A 
HETATM    6  C   UNL     1     -39.594 -48.974  12.143  1.00  0.00     0.003 A 
HETATM    7  C   UNL     1     -38.863 -48.043  12.877  1.00  0.00     0.007 A 
HETATM    8  C   UNL     1     -37.902 -48.473  13.799  1.00  0.00    -0.059 A 
HETATM    9  C   UNL     1     -37.113 -47.483  14.604  1.00  0.00     0.048 C 
HETATM   10  C   UNL     1     -37.671 -49.851  13.965  1.00  0.00     0.043 A 
ENDBRANCH   3   4
ENDBRANCH   2   3
ENDBRANCH   1   2
BRANCH   1  11
HETATM   11  O   UNL     1     -39.059 -55.058  13.247  1.00  0.00    -0.392 OA
HETATM   12  H   UNL     1     -38.336 -55.098  13.896  1.00  0.00     0.210 HD
ENDBRANCH   1  11
BRANCH   1  13
HETATM   13  C   UNL     1     -41.062 -54.420  14.443  1.00  0.00     0.166 C 
BRANCH  13  14
HETATM   14  N   UNL     1     -42.367 -54.022  13.920  1.00  0.00    -0.307 N 
HETATM   15  C   UNL     1     -42.460 -52.981  13.031  1.00  0.00     0.186 A 
HETATM   16  N   UNL     1     -43.556 -52.541  12.513  1.00  0.00    -0.355 N 
HETATM   17  C   UNL     1     -44.726 -53.127  12.916  1.00  0.00     0.017 A 
ATOM     18  HN  UNL     1     -43.552 -51.784  11.828  1.00  0.00     0.166 HD
HETATM   19  C   UNL     1     -45.963 -52.533  12.291  1.00  0.00     0.069 C 
HETATM   20  C   UNL     1     -44.791 -54.136  13.810  1.00  0.00     0.028 A 
HETATM   21  C   UNL     1     -46.035 -54.777  14.336  1.00  0.00     0.056 C 
HETATM   22  C   UNL     1     -43.506 -54.663  14.348  1.00  0.00     0.256 A 
HETATM   23  O   UNL     1     -43.495 -55.620  15.119  1.00  0.00    -0.267 OA
ENDBRANCH  13  14
ENDBRANCH   1  13
TORSDOF 6
ENDMDL
MODEL 4
REMARK VINA RESULT:      -6.2      3.370      5.478
REMARK  6 active torsions:
REMARK  status: ('A' for Active; 'I' for Inactive)
REMARK    1  A    between atoms: C_6  and  O_7 
REMARK    2  A    between atoms: O_7  and  C_8 
REMARK    3  A    between atoms: C_8  and  C_9 
REMARK    4  A    between atoms: C_9  and  O_10 
REMARK    5  A    between atoms: C_9  and  C_11 
REMARK    6  A    between atoms: C_11  and  N_12 
ROOT
HETATM    1  C   UNL     1     -41.088 -49.385  11.340  1.00  0.00     0.161 C 
ENDROOT
BRANCH   1   2
HETATM    2  C   UNL     1     -41.035 -47.867  11.057  1.00  0.00     0.209 C 
BRANCH   2   3
HETATM    3  O   UNL     1     -42.227 -47.259  11.562  1.00  0.00    -0.349 OA
BRANCH   3   4
HETATM    4  C   UNL     1     -43.220 -46.972  10.664  1.00  0.00     0.069 A 
HETATM    5  C   UNL     1     -43.068 -45.754   9.995  1.00  0.00     0.037 A 
HETATM    6  C   UNL     1     -44.008 -45.337   9.053  1.00  0.00     0.003 A 
HETATM    7  C   UNL     1     -45.109 -46.139   8.764  1.00  0.00     0.007 A 
HETATM    8  C   UNL     1     -45.274 -47.365   9.417  1.00  0.00    -0.059 A 
HETATM    9  C   UNL     1     -46.450 -48.246   9.111  1.00  0.00     0.048 C 
HETATM   10  C   UNL     1     -44.328 -47.771  10.376  1.00  0.00     0.043 A 
ENDBRANCH   3   4
ENDBRANCH   2   3
ENDBRANCH   1   2
BRANCH   1  11
HETATM   11  O   UNL     1     -40.297 -50.109  10.384  1.00  0.00    -0.392 OA
HETATM   12  H   UNL     1     -40.146 -51.010  10.716  1.00  0.00     0.210 HD
ENDBRANCH   1  11
BRANCH   1  13
HETATM   13  C   UNL     1     -40.557 -49.690  12.751  1.00  0.00     0.166 C 
BRANCH  13  14
HETATM   14  N   UNL     1     -40.948 -51.017  13.220  1.00  0.00    -0.307 N 
HETATM   15  C   UNL     1     -42.217 -51.229  13.697  1.00  0.00     0.186 A 
HETATM   16  N   UNL     1     -42.667 -52.353  14.143  1.00  0.00    -0.355 N 
HETATM   17  C   UNL     1     -41.796 -53.409  14.187  1.00  0.00     0.017 A 
ATOM     18  HN  UNL     1     -43.634 -52.452  14.451  1.00  0.00     0.166 HD
HETATM   19  C   UNL     1     -42.388 -54.676  14.751  1.00  0.00     0.069 C 
HETATM   20  C   UNL     1     -40.510 -53.338  13.785  1.00  0.00     0.028 A 
HETATM   21  C   UNL     1     -39.494 -54.433  13.862  1.00  0.00     0.056 C 
HETATM   22  C   UNL     1     -40.034 -52.045  13.221  1.00  0.00     0.256 A 
HETATM   23  O   UNL     1     -38.891 -51.934  12.783  1.00  0.00    -0.267 OA
ENDBRANCH  13  14
ENDBRANCH   1  13
TORSDOF 6
ENDMDL
MODEL 5
REMARK VINA RESULT:      -6.2      2.630      3.810
REMARK  6 active torsions:
REMARK  status: ('A' for Active; 'I' for Inactive)
REMARK    1  A    between atoms: C_6  and  O_7 
REMARK    2  A    between atoms: O_7  and  C_8 
REMARK    3  A    between atoms: C_8  and  C_9 
REMARK    4  A    between atoms: C_9  and  O_10 
REMARK    5  A    between atoms: C_9  and  C_11 
REMARK    6  A    between atoms: C_11  and  N_12 
ROOT
HETATM    1  C   UNL     1     -40.558 -51.304  11.908  1.00  0.00     0.161 C 
ENDROOT
BRANCH   1   2
HETATM    2  C   UNL     1     -40.000 -52.032  13.151  1.00  0.00     0.209 C 
BRANCH   2   3
HETATM    3  O   UNL     1     -40.211 -53.439  12.998  1.00  0.00    -0.349 OA
BRANCH   3   4
HETATM    4  C   UNL     1     -41.120 -54.036  13.829  1.00  0.00     0.069 A 
HETATM    5  C   UNL     1     -40.587 -54.520  15.027  1.00  0.00     0.037 A 
HETATM    6  C   UNL     1     -41.402 -55.151  15.967  1.00  0.00     0.003 A 
HETATM    7  C   UNL     1     -42.765 -55.301  15.718  1.00  0.00     0.007 A 
HETATM    8  C   UNL     1     -43.319 -54.817  14.528  1.00  0.00    -0.059 A 
HETATM    9  C   UNL     1     -44.786 -54.961  14.251  1.00  0.00     0.048 C 
HETATM   10  C   UNL     1     -42.486 -54.193  13.582  1.00  0.00     0.043 A 
ENDBRANCH   3   4
ENDBRANCH   2   3
ENDBRANCH   1   2
BRANCH   1  11
HETATM   11  O   UNL     1     -41.186 -52.235  11.012  1.00  0.00    -0.392 OA
HETATM   12  H   UNL     1     -40.497 -52.744  10.553  1.00  0.00     0.210 HD
ENDBRANCH   1  11
BRANCH   1  13
HETATM   13  C   UNL     1     -41.592 -50.243  12.323  1.00  0.00     0.166 C 
BRANCH  13  14
HETATM   14  N   UNL     1     -41.180 -48.890  11.958  1.00  0.00    -0.307 N 
HETATM   15  C   UNL     1     -41.430 -48.415  10.694  1.00  0.00     0.186 A 
HETATM   16  N   UNL     1     -41.106 -47.244  10.262  1.00  0.00    -0.355 N 
HETATM   17  C   UNL     1     -40.416 -46.424  11.114  1.00  0.00     0.017 A 
ATOM     18  HN  UNL     1     -41.353 -46.940   9.320  1.00  0.00     0.166 HD
HETATM   19  C   UNL     1     -40.044 -45.088  10.523  1.00  0.00     0.069 C 
HETATM   20  C   UNL     1     -40.070 -46.770  12.372  1.00  0.00     0.028 A 
HETATM   21  C   UNL     1     -39.268 -45.948  13.330  1.00  0.00     0.056 C 
HETATM   22  C   UNL     1     -40.508 -48.105  12.865  1.00  0.00     0.256 A 
HETATM   23  O   UNL     1     -40.276 -48.454  14.020  1.00  0.00    -0.267 OA
ENDBRANCH  13  14
ENDBRANCH   1  13
TORSDOF 6
ENDMDL
MODEL 6
REMARK VINA RESULT:      -6.2      3.154      5.340
REMARK  6 active torsions:
REMARK  status: ('A' for Active; 'I' for Inactive)
REMARK    1  A    between atoms: C_6  and  O_7 
REMARK    2  A    between atoms: O_7  and  C_8 
REMARK    3  A    between atoms: C_8  and  C_9 
REMARK    4  A    between atoms: C_9  and  O_10 
REMARK    5  A    between atoms: C_9  and  C_11 
REMARK    6  A    between atoms: C_11  and  N_12 
ROOT
HETATM    1  C   UNL     1     -46.577 -54.377  15.029  1.00  0.00     0.161 C 
ENDROOT
BRANCH   1   2
HETATM    2  C   UNL     1     -45.550 -54.732  13.930  1.00  0.00     0.209 C 
BRANCH   2   3
HETATM    3  O   UNL     1     -44.429 -55.382  14.536  1.00  0.00    -0.349 OA
BRANCH   3   4
HETATM    4  C   UNL     1     -43.205 -54.784  14.405  1.00  0.00     0.069 A 
HETATM    5  C   UNL     1     -42.364 -54.924  15.513  1.00  0.00     0.037 A 
HETATM    6  C   UNL     1     -41.087 -54.363  15.513  1.00  0.00     0.003 A 
HETATM    7  C   UNL     1     -40.634 -53.660  14.399  1.00  0.00     0.007 A 
HETATM    8  C   UNL     1     -41.458 -53.516  13.278  1.00  0.00    -0.059 A 
HETATM    9  C   UNL     1     -40.981 -52.769  12.066  1.00  0.00     0.048 C 
HETATM   10  C   UNL     1     -42.749 -54.074  13.292  1.00  0.00     0.043 A 
ENDBRANCH   3   4
ENDBRANCH   2   3
ENDBRANCH   1   2
BRANCH   1  11
HETATM   11  O   UNL     1     -46.032 -54.625  16.334  1.00  0.00    -0.392 OA
HETATM   12  H   UNL     1     -45.793 -53.776  16.743  1.00  0.00     0.210 HD
ENDBRANCH   1  11
BRANCH   1  13
HETATM   13  C   UNL     1     -46.978 -52.895  14.934  1.00  0.00     0.166 C 
BRANCH  13  14
HETATM   14  N   UNL     1     -45.880 -52.048  14.472  1.00  0.00    -0.307 N 
HETATM   15  C   UNL     1     -45.829 -51.647  13.161  1.00  0.00     0.186 A 
HETATM   16  N   UNL     1     -44.906 -50.909  12.644  1.00  0.00    -0.355 N 
HETATM   17  C   UNL     1     -43.870 -50.532  13.455  1.00  0.00     0.017 A 
ATOM     18  HN  UNL     1     -44.946 -50.617  11.667  1.00  0.00     0.166 HD
HETATM   19  C   UNL     1     -42.816 -49.701  12.768  1.00  0.00     0.069 C 
HETATM   20  C   UNL     1     -43.769 -50.881  14.755  1.00  0.00     0.028 A 
HETATM   21  C   UNL     1     -42.637 -50.555  15.677  1.00  0.00     0.056 C 
HETATM   22  C   UNL     1     -44.877 -51.685  15.340  1.00  0.00     0.256 A 
HETATM   23  O   UNL     1     -44.874 -51.984  16.533  1.00  0.00    -0.267 OA
ENDBRANCH  13  14
ENDBRANCH   1  13
TORSDOF 6
ENDMDL
MODEL 7
REMARK VINA RESULT:      -6.2      2.331      4.439
REMARK  6 active torsions:
REMARK  status: ('A' for Active; 'I' for Inactive)
REMARK    1  A    between atoms: C_6  and  O_7 
REMARK    2  A    between atoms: O_7  and  C_8 
REMARK    3  A    between atoms: C_8  and  C_9 
REMARK    4  A    between atoms: C_9  and  O_10 
REMARK    5  A    between atoms: C_9  and  C_11 
REMARK    6  A    between atoms: C_11  and  N_12 
ROOT
HETATM    1  C   UNL     1     -40.552 -50.614  13.758  1.00  0.00     0.161 C 
ENDROOT
BRANCH   1   2
HETATM    2  C   UNL     1     -41.933 -50.207  13.198  1.00  0.00     0.209 C 
BRANCH   2   3
HETATM    3  O   UNL     1     -42.789 -49.853  14.288  1.00  0.00    -0.349 OA
BRANCH   3   4
HETATM    4  C   UNL     1     -44.040 -50.408  14.315  1.00  0.00     0.069 A 
HETATM    5  C   UNL     1     -44.588 -50.554  15.593  1.00  0.00     0.037 A 
HETATM    6  C   UNL     1     -45.857 -51.106  15.766  1.00  0.00     0.003 A 
HETATM    7  C   UNL     1     -46.597 -51.512  14.658  1.00  0.00     0.007 A 
HETATM    8  C   UNL     1     -46.069 -51.367  13.370  1.00  0.00    -0.059 A 
HETATM    9  C   UNL     1     -46.858 -51.791  12.165  1.00  0.00     0.048 C 
HETATM   10  C   UNL     1     -44.783 -50.821  13.207  1.00  0.00     0.043 A 
ENDBRANCH   3   4
ENDBRANCH   2   3
ENDBRANCH   1   2
BRANCH   1  11
HETATM   11  O   UNL     1     -40.461 -50.310  15.159  1.00  0.00    -0.392 OA
HETATM   12  H   UNL     1     -39.688 -50.767  15.531  1.00  0.00     0.210 HD
ENDBRANCH   1  11
BRANCH   1  13
HETATM   13  C   UNL     1     -40.313 -52.121  13.563  1.00  0.00     0.166 C 
BRANCH  13  14
HETATM   14  N   UNL     1     -41.538 -52.904  13.712  1.00  0.00    -0.307 N 
HETATM   15  C   UNL     1     -42.251 -53.278  12.601  1.00  0.00     0.186 A 
HETATM   16  N   UNL     1     -43.346 -53.960  12.615  1.00  0.00    -0.355 N 
HETATM   17  C   UNL     1     -43.864 -54.300  13.836  1.00  0.00     0.017 A 
ATOM     18  HN  UNL     1     -43.809 -54.237  11.748  1.00  0.00     0.166 HD
HETATM   19  C   UNL     1     -45.161 -55.066  13.767  1.00  0.00     0.069 C 
HETATM   20  C   UNL     1     -43.291 -53.970  15.012  1.00  0.00     0.028 A 
HETATM   21  C   UNL     1     -43.834 -54.257  16.376  1.00  0.00     0.056 C 
HETATM   22  C   UNL     1     -41.998 -53.233  14.966  1.00  0.00     0.256 A 
HETATM   23  O   UNL     1     -41.396 -52.956  16.001  1.00  0.00    -0.267 OA
ENDBRANCH  13  14
ENDBRANCH   1  13
TORSDOF 6
ENDMDL
MODEL 8
REMARK VINA RESULT:      -6.1      2.584      4.859
REMARK  6 active torsions:
REMARK  status: ('A' for Active; 'I' for Inactive)
REMARK    1  A    between atoms: C_6  and  O_7 
REMARK    2  A    between atoms: O_7  and  C_8 
REMARK    3  A    between atoms: C_8  and  C_9 
REMARK    4  A    between atoms: C_9  and  O_10 
REMARK    5  A    between atoms: C_9  and  C_11 
REMARK    6  A    between atoms: C_11  and  N_12 
ROOT
HETATM    1  C   UNL     1     -41.277 -53.054  12.494  1.00  0.00     0.161 C 
ENDROOT
BRANCH   1   2
HETATM    2  C   UNL     1     -40.925 -51.618  12.942  1.00  0.00     0.209 C 
BRANCH   2   3
HETATM    3  O   UNL     1     -42.031 -50.758  12.655  1.00  0.00    -0.349 OA
BRANCH   3   4
HETATM    4  C   UNL     1     -43.049 -50.712  13.569  1.00  0.00     0.069 A 
HETATM    5  C   UNL     1     -42.715 -50.118  14.789  1.00  0.00     0.037 A 
HETATM    6  C   UNL     1     -43.658 -50.006  15.810  1.00  0.00     0.003 A 
HETATM    7  C   UNL     1     -44.953 -50.483  15.617  1.00  0.00     0.007 A 
HETATM    8  C   UNL     1     -45.310 -51.073  14.400  1.00  0.00    -0.059 A 
HETATM    9  C   UNL     1     -46.703 -51.583  14.174  1.00  0.00     0.048 C 
HETATM   10  C   UNL     1     -44.347 -51.193  13.381  1.00  0.00     0.043 A 
ENDBRANCH   3   4
ENDBRANCH   2   3
ENDBRANCH   1   2
BRANCH   1  11
HETATM   11  O   UNL     1     -40.454 -53.458  11.388  1.00  0.00    -0.392 OA
HETATM   12  H   UNL     1     -40.955 -53.343  10.563  1.00  0.00     0.210 HD
ENDBRANCH   1  11
BRANCH   1  13
HETATM   13  C   UNL     1     -41.073 -54.046  13.651  1.00  0.00     0.166 C 
BRANCH  13  14
HETATM   14  N   UNL     1     -42.205 -54.069  14.574  1.00  0.00    -0.307 N 
HETATM   15  C   UNL     1     -43.423 -54.541  14.153  1.00  0.00     0.186 A 
HETATM   16  N   UNL     1     -44.489 -54.599  14.877  1.00  0.00    -0.355 N 
HETATM   17  C   UNL     1     -44.414 -54.109  16.153  1.00  0.00     0.017 A 
ATOM     18  HN  UNL     1     -45.355 -54.996  14.513  1.00  0.00     0.166 HD
HETATM   19  C   UNL     1     -45.709 -54.182  16.921  1.00  0.00     0.069 C 
HETATM   20  C   UNL     1     -43.294 -53.582  16.690  1.00  0.00     0.028 A 
HETATM   21  C   UNL     1     -43.161 -52.976  18.051  1.00  0.00     0.056 C 
HETATM   22  C   UNL     1     -42.063 -53.580  15.852  1.00  0.00     0.256 A 
HETATM   23  O   UNL     1     -40.996 -53.169  16.304  1.00  0.00    -0.267 OA
ENDBRANCH  13  14
ENDBRANCH   1  13
TORSDOF 6
ENDMDL
MODEL 9
REMARK VINA RESULT:      -6.0      1.986      2.895
REMARK  6 active torsions:
REMARK  status: ('A' for Active; 'I' for Inactive)
REMARK    1  A    between atoms: C_6  and  O_7 
REMARK    2  A    between atoms: O_7  and  C_8 
REMARK    3  A    between atoms: C_8  and  C_9 
REMARK    4  A    between atoms: C_9  and  O_10 
REMARK    5  A    between atoms: C_9  and  C_11 
REMARK    6  A    between atoms: C_11  and  N_12 
ROOT
HETATM    1  C   UNL     1     -40.999 -52.305  12.435  1.00  0.00     0.161 C 
ENDROOT
BRANCH   1   2
HETATM    2  C   UNL     1     -42.447 -52.538  12.923  1.00  0.00     0.209 C 
BRANCH   2   3
HETATM    3  O   UNL     1     -43.062 -51.271  13.174  1.00  0.00    -0.349 OA
BRANCH   3   4
HETATM    4  C   UNL     1     -44.274 -51.272  13.810  1.00  0.00     0.069 A 
HETATM    5  C   UNL     1     -45.361 -51.605  12.997  1.00  0.00     0.037 A 
HETATM    6  C   UNL     1     -46.655 -51.644  13.517  1.00  0.00     0.003 A 
HETATM    7  C   UNL     1     -46.874 -51.355  14.862  1.00  0.00     0.007 A 
HETATM    8  C   UNL     1     -45.798 -51.028  15.694  1.00  0.00    -0.059 A 
HETATM    9  C   UNL     1     -46.016 -50.725  17.148  1.00  0.00     0.048 C 
HETATM   10  C   UNL     1     -44.498 -50.979  15.157  1.00  0.00     0.043 A 
ENDBRANCH   3   4
ENDBRANCH   2   3
ENDBRANCH   1   2
BRANCH   1  11
HETATM   11  O   UNL     1     -40.602 -53.331  11.511  1.00  0.00    -0.392 OA
HETATM   12  H   UNL     1     -39.746 -53.089  11.120  1.00  0.00     0.210 HD
ENDBRANCH   1  11
BRANCH   1  13
HETATM   13  C   UNL     1     -40.879 -50.939  11.738  1.00  0.00     0.166 C 
BRANCH  13  14
HETATM   14  N   UNL     1     -39.941 -50.047  12.417  1.00  0.00    -0.307 N 
HETATM   15  C   UNL     1     -38.861 -50.568  13.084  1.00  0.00     0.186 A 
HETATM   16  N   UNL     1     -37.977 -49.878  13.722  1.00  0.00    -0.355 N 
HETATM   17  C   UNL     1     -38.154 -48.522  13.778  1.00  0.00     0.017 A 
ATOM     18  HN  UNL     1     -37.177 -50.326  14.168  1.00  0.00     0.166 HD
HETATM   19  C   UNL     1     -37.098 -47.792  14.570  1.00  0.00     0.069 C 
HETATM   20  C   UNL     1     -39.187 -47.875  13.200  1.00  0.00     0.028 A 
HETATM   21  C   UNL     1     -39.470 -46.408  13.274  1.00  0.00     0.056 C 
HETATM   22  C   UNL     1     -40.161 -48.689  12.421  1.00  0.00     0.256 A 
HETATM   23  O   UNL     1     -41.090 -48.153  11.821  1.00  0.00    -0.267 OA
ENDBRANCH  13  14
ENDBRANCH   1  13
TORSDOF 6
ENDMDL
