MODEL 1
REMARK VINA RESULT:      -5.2      0.000      0.000
REMARK  6 active torsions:
REMARK  status: ('A' for Active; 'I' for Inactive)
REMARK    1  A    between atoms: C_8  and  C_9 
REMARK    2  A    between atoms: C_9  and  C_10 
REMARK       I    between atoms: C_10  and  N_12 
REMARK    3  A    between atoms: N_12  and  C_13 
REMARK    4  A    between atoms: C_13  and  C_14 
REMARK    5  A    between atoms: C_14  and  C_15 
REMARK    6  A    between atoms: C_15  and  C_16 
ROOT
HETATM    1  C   UNL     1     -43.024 -54.149  16.676  1.00  0.00     0.222 C 
HETATM    2  O   UNL     1     -41.997 -53.588  17.053  1.00  0.00    -0.273 OA
HETATM    3  N   UNL     1     -44.263 -53.862  17.210  1.00  0.00    -0.361 N 
HETATM    4  H   UNL     1     -45.082 -54.363  16.887  1.00  0.00     0.162 HD
ENDROOT
BRANCH   1   5
HETATM    5  C   UNL     1     -43.012 -55.190  15.573  1.00  0.00     0.146 C 
BRANCH   5   6
HETATM    6  C   UNL     1     -43.332 -54.679  14.206  1.00  0.00     0.006 A 
HETATM    7  C   UNL     1     -42.529 -53.990  13.247  1.00  0.00     0.038 A 
HETATM    8  C   UNL     1     -41.105 -53.582  13.308  1.00  0.00     0.071 C 
HETATM    9  N   UNL     1     -43.236 -53.683  12.150  1.00  0.00    -0.265 N 
HETATM   10  O   UNL     1     -44.514 -54.135  12.380  1.00  0.00    -0.242 OA
ATOM     11  HN  UNL     1     -42.895 -53.209  11.314  1.00  0.00     0.194 HD
HETATM   12  C   UNL     1     -44.575 -54.717  13.603  1.00  0.00     0.081 A 
HETATM   13  C   UNL     1     -45.902 -55.220  14.012  1.00  0.00     0.079 C 
ENDBRANCH   5   6
ENDBRANCH   1   5
BRANCH   3  14
HETATM   14  C   UNL     1     -44.402 -52.837  18.227  1.00  0.00     0.122 C 
BRANCH  14  15
HETATM   15  C   UNL     1     -45.232 -51.632  17.785  1.00  0.00     0.020 C 
BRANCH  15  16
HETATM   16  C   UNL     1     -46.212 -51.983  16.663  1.00  0.00     0.006 C 
BRANCH  16  17
HETATM   17  C   UNL     1     -45.991 -51.168  15.386  1.00  0.00    -0.014 C 
HETATM   18  C   UNL     1     -46.792 -51.638  14.168  1.00  0.00     0.004 C 
HETATM   19  C   UNL     1     -45.950 -51.259  12.945  1.00  0.00     0.000 C 
HETATM   20  C   UNL     1     -44.628 -50.723  13.483  1.00  0.00     0.000 C 
HETATM   21  C   UNL     1     -44.545 -51.264  14.899  1.00  0.00     0.004 C 
ENDBRANCH  16  17
ENDBRANCH  15  16
ENDBRANCH  14  15
ENDBRANCH   3  14
TORSDOF 6
ENDMDL
MODEL 2
REMARK VINA RESULT:      -5.1      3.081      4.425
REMARK  6 active torsions:
REMARK  status: ('A' for Active; 'I' for Inactive)
REMARK    1  A    between atoms: C_8  and  C_9 
REMARK    2  A    between atoms: C_9  and  C_10 
REMARK       I    between atoms: C_10  and  N_12 
REMARK    3  A    between atoms: N_12  and  C_13 
REMARK    4  A    between atoms: C_13  and  C_14 
REMARK    5  A    between atoms: C_14  and  C_15 
REMARK    6  A    between atoms: C_15  and  C_16 
ROOT
HETATM    1  C   UNL     1     -40.271 -53.054  14.063  1.00  0.00     0.222 C 
HETATM    2  O   UNL     1     -39.739 -53.907  13.356  1.00  0.00    -0.273 OA
HETATM    3  N   UNL     1     -41.329 -53.339  14.902  1.00  0.00    -0.361 N 
HETATM    4  H   UNL     1     -41.753 -52.602  15.452  1.00  0.00     0.162 HD
ENDROOT
BRANCH   1   5
HETATM    5  C   UNL     1     -39.788 -51.615  14.086  1.00  0.00     0.146 C 
BRANCH   5   6
HETATM    6  C   UNL     1     -39.908 -50.879  12.792  1.00  0.00     0.006 A 
HETATM    7  C   UNL     1     -38.914 -50.417  11.876  1.00  0.00     0.038 A 
HETATM    8  C   UNL     1     -37.437 -50.545  11.922  1.00  0.00     0.071 C 
HETATM    9  N   UNL     1     -39.468 -49.764  10.844  1.00  0.00    -0.265 N 
HETATM   10  O   UNL     1     -40.823 -49.761  11.077  1.00  0.00    -0.242 OA
ATOM     11  HN  UNL     1     -38.983 -49.353  10.047  1.00  0.00     0.194 HD
HETATM   12  C   UNL     1     -41.085 -50.412  12.237  1.00  0.00     0.081 A 
HETATM   13  C   UNL     1     -42.503 -50.459  12.644  1.00  0.00     0.079 C 
ENDBRANCH   5   6
ENDBRANCH   1   5
BRANCH   3  14
HETATM   14  C   UNL     1     -41.831 -54.696  15.010  1.00  0.00     0.122 C 
BRANCH  14  15
HETATM   15  C   UNL     1     -43.340 -54.819  14.798  1.00  0.00     0.020 C 
BRANCH  15  16
HETATM   16  C   UNL     1     -43.808 -54.101  13.529  1.00  0.00     0.006 C 
BRANCH  16  17
HETATM   17  C   UNL     1     -45.154 -53.392  13.694  1.00  0.00    -0.014 C 
HETATM   18  C   UNL     1     -45.687 -52.709  12.430  1.00  0.00     0.004 C 
HETATM   19  C   UNL     1     -46.534 -51.529  12.921  1.00  0.00     0.000 C 
HETATM   20  C   UNL     1     -46.348 -51.468  14.434  1.00  0.00     0.000 C 
HETATM   21  C   UNL     1     -45.066 -52.237  14.692  1.00  0.00     0.004 C 
ENDBRANCH  16  17
ENDBRANCH  15  16
ENDBRANCH  14  15
ENDBRANCH   3  14
TORSDOF 6
ENDMDL
MODEL 3
REMARK VINA RESULT:      -5.1      4.941      7.127
REMARK  6 active torsions:
REMARK  status: ('A' for Active; 'I' for Inactive)
REMARK    1  A    between atoms: C_8  and  C_9 
REMARK    2  A    between atoms: C_9  and  C_10 
REMARK       I    between atoms: C_10  and  N_12 
REMARK    3  A    between atoms: N_12  and  C_13 
REMARK    4  A    between atoms: C_13  and  C_14 
REMARK    5  A    between atoms: C_14  and  C_15 
REMARK    6  A    between atoms: C_15  and  C_16 
ROOT
HETATM    1  C   UNL     1     -42.042 -48.934  11.661  1.00  0.00     0.222 C 
HETATM    2  O   UNL     1     -41.064 -49.100  12.386  1.00  0.00    -0.273 OA
HETATM    3  N   UNL     1     -43.327 -49.230  12.068  1.00  0.00    -0.361 N 
HETATM    4  H   UNL     1     -44.103 -49.098  11.431  1.00  0.00     0.162 HD
ENDROOT
BRANCH   1   5
HETATM    5  C   UNL     1     -41.915 -48.365  10.260  1.00  0.00     0.146 C 
BRANCH   5   6
HETATM    6  C   UNL     1     -42.546 -47.028  10.052  1.00  0.00     0.006 A 
HETATM    7  C   UNL     1     -43.834 -46.662   9.554  1.00  0.00     0.038 A 
HETATM    8  C   UNL     1     -44.962 -47.512   9.102  1.00  0.00     0.071 C 
HETATM    9  N   UNL     1     -43.976 -45.330   9.501  1.00  0.00    -0.265 N 
HETATM   10  O   UNL     1     -42.782 -44.801   9.932  1.00  0.00    -0.242 OA
ATOM     11  HN  UNL     1     -44.802 -44.813   9.201  1.00  0.00     0.194 HD
HETATM   12  C   UNL     1     -41.930 -45.807  10.249  1.00  0.00     0.081 A 
HETATM   13  C   UNL     1     -40.584 -45.394  10.696  1.00  0.00     0.079 C 
ENDBRANCH   5   6
ENDBRANCH   1   5
BRANCH   3  14
HETATM   14  C   UNL     1     -43.574 -49.719  13.411  1.00  0.00     0.122 C 
BRANCH  14  15
HETATM   15  C   UNL     1     -44.005 -51.184  13.470  1.00  0.00     0.020 C 
BRANCH  15  16
HETATM   16  C   UNL     1     -45.442 -51.386  12.984  1.00  0.00     0.006 C 
BRANCH  16  17
HETATM   17  C   UNL     1     -45.948 -52.819  13.163  1.00  0.00    -0.014 C 
HETATM   18  C   UNL     1     -46.665 -53.095  14.489  1.00  0.00     0.004 C 
HETATM   19  C   UNL     1     -46.423 -54.578  14.792  1.00  0.00     0.000 C 
HETATM   20  C   UNL     1     -45.456 -55.082  13.726  1.00  0.00     0.000 C 
HETATM   21  C   UNL     1     -44.798 -53.826  13.184  1.00  0.00     0.004 C 
ENDBRANCH  16  17
ENDBRANCH  15  16
ENDBRANCH  14  15
ENDBRANCH   3  14
TORSDOF 6
ENDMDL
MODEL 4
REMARK VINA RESULT:      -5.0      4.988      7.172
REMARK  6 active torsions:
REMARK  status: ('A' for Active; 'I' for Inactive)
REMARK    1  A    between atoms: C_8  and  C_9 
REMARK    2  A    between atoms: C_9  and  C_10 
REMARK       I    between atoms: C_10  and  N_12 
REMARK    3  A    between atoms: N_12  and  C_13 
REMARK    4  A    between atoms: C_13  and  C_14 
REMARK    5  A    between atoms: C_14  and  C_15 
REMARK    6  A    between atoms: C_15  and  C_16 
ROOT
HETATM    1  C   UNL     1     -42.317 -48.775  11.589  1.00  0.00     0.222 C 
HETATM    2  O   UNL     1     -42.804 -48.115  12.505  1.00  0.00    -0.273 OA
HETATM    3  N   UNL     1     -41.956 -50.098  11.739  1.00  0.00    -0.361 N 
HETATM    4  H   UNL     1     -41.538 -50.600  10.965  1.00  0.00     0.162 HD
ENDROOT
BRANCH   1   5
HETATM    5  C   UNL     1     -42.094 -48.188  10.208  1.00  0.00     0.146 C 
BRANCH   5   6
HETATM    6  C   UNL     1     -42.794 -46.897   9.939  1.00  0.00     0.006 A 
HETATM    7  C   UNL     1     -44.068 -46.620   9.356  1.00  0.00     0.038 A 
HETATM    8  C   UNL     1     -45.109 -47.546   8.847  1.00  0.00     0.071 C 
HETATM    9  N   UNL     1     -44.290 -45.301   9.273  1.00  0.00    -0.265 N 
HETATM   10  O   UNL     1     -43.163 -44.692   9.770  1.00  0.00    -0.242 OA
ATOM     11  HN  UNL     1     -45.127 -44.841   8.914  1.00  0.00     0.194 HD
HETATM   12  C   UNL     1     -42.270 -45.637  10.156  1.00  0.00     0.081 A 
HETATM   13  C   UNL     1     -40.985 -45.133  10.679  1.00  0.00     0.079 C 
ENDBRANCH   5   6
ENDBRANCH   1   5
BRANCH   3  14
HETATM   14  C   UNL     1     -42.184 -50.781  12.999  1.00  0.00     0.122 C 
BRANCH  14  15
HETATM   15  C   UNL     1     -43.388 -51.722  12.987  1.00  0.00     0.020 C 
BRANCH  15  16
HETATM   16  C   UNL     1     -44.691 -51.001  13.342  1.00  0.00     0.006 C 
BRANCH  16  17
HETATM   17  C   UNL     1     -45.364 -51.549  14.603  1.00  0.00    -0.014 C 
HETATM   18  C   UNL     1     -46.894 -51.467  14.610  1.00  0.00     0.004 C 
HETATM   19  C   UNL     1     -47.296 -51.337  16.084  1.00  0.00     0.000 C 
HETATM   20  C   UNL     1     -45.998 -51.194  16.872  1.00  0.00     0.000 C 
HETATM   21  C   UNL     1     -44.975 -50.745  15.844  1.00  0.00     0.004 C 
ENDBRANCH  16  17
ENDBRANCH  15  16
ENDBRANCH  14  15
ENDBRANCH   3  14
TORSDOF 6
ENDMDL
MODEL 5
REMARK VINA RESULT:      -4.9      2.408      4.082
REMARK  6 active torsions:
REMARK  status: ('A' for Active; 'I' for Inactive)
REMARK    1  A    between atoms: C_8  and  C_9 
REMARK    2  A    between atoms: C_9  and  C_10 
REMARK       I    between atoms: C_10  and  N_12 
REMARK    3  A    between atoms: N_12  and  C_13 
REMARK    4  A    between atoms: C_13  and  C_14 
REMARK    5  A    between atoms: C_14  and  C_15 
REMARK    6  A    between atoms: C_15  and  C_16 
ROOT
HETATM    1  C   UNL     1     -43.066 -54.644  14.895  1.00  0.00     0.222 C 
HETATM    2  O   UNL     1     -43.727 -55.671  15.033  1.00  0.00    -0.273 OA
HETATM    3  N   UNL     1     -43.226 -53.798  13.817  1.00  0.00    -0.361 N 
HETATM    4  H   UNL     1     -42.646 -52.972  13.730  1.00  0.00     0.162 HD
ENDROOT
BRANCH   1   5
HETATM    5  C   UNL     1     -42.032 -54.211  15.918  1.00  0.00     0.146 C 
BRANCH   5   6
HETATM    6  C   UNL     1     -40.658 -54.760  15.711  1.00  0.00     0.006 A 
HETATM    7  C   UNL     1     -39.591 -54.331  14.864  1.00  0.00     0.038 A 
HETATM    8  C   UNL     1     -39.513 -53.182  13.930  1.00  0.00     0.071 C 
HETATM    9  N   UNL     1     -38.530 -55.144  14.969  1.00  0.00    -0.265 N 
HETATM   10  O   UNL     1     -38.890 -56.129  15.857  1.00  0.00    -0.242 OA
ATOM     11  HN  UNL     1     -37.636 -55.050  14.486  1.00  0.00     0.194 HD
HETATM   12  C   UNL     1     -40.155 -55.909  16.291  1.00  0.00     0.081 A 
HETATM   13  C   UNL     1     -40.699 -56.912  17.227  1.00  0.00     0.079 C 
ENDBRANCH   5   6
ENDBRANCH   1   5
BRANCH   3  14
HETATM   14  C   UNL     1     -44.232 -54.080  12.809  1.00  0.00     0.122 C 
BRANCH  14  15
HETATM   15  C   UNL     1     -45.387 -53.079  12.787  1.00  0.00     0.020 C 
BRANCH  15  16
HETATM   16  C   UNL     1     -44.952 -51.681  13.236  1.00  0.00     0.006 C 
BRANCH  16  17
HETATM   17  C   UNL     1     -45.787 -51.127  14.392  1.00  0.00    -0.014 C 
HETATM   18  C   UNL     1     -45.024 -50.920  15.705  1.00  0.00     0.004 C 
HETATM   19  C   UNL     1     -46.060 -51.097  16.820  1.00  0.00     0.000 C 
HETATM   20  C   UNL     1     -47.349 -51.548  16.141  1.00  0.00     0.000 C 
HETATM   21  C   UNL     1     -46.902 -52.092  14.796  1.00  0.00     0.004 C 
ENDBRANCH  16  17
ENDBRANCH  15  16
ENDBRANCH  14  15
ENDBRANCH   3  14
TORSDOF 6
ENDMDL
MODEL 6
REMARK VINA RESULT:      -4.9      4.580      6.570
REMARK  6 active torsions:
REMARK  status: ('A' for Active; 'I' for Inactive)
REMARK    1  A    between atoms: C_8  and  C_9 
REMARK    2  A    between atoms: C_9  and  C_10 
REMARK       I    between atoms: C_10  and  N_12 
REMARK    3  A    between atoms: N_12  and  C_13 
REMARK    4  A    between atoms: C_13  and  C_14 
REMARK    5  A    between atoms: C_14  and  C_15 
REMARK    6  A    between atoms: C_15  and  C_16 
ROOT
HETATM    1  C   UNL     1     -41.731 -49.764  11.779  1.00  0.00     0.222 C 
HETATM    2  O   UNL     1     -40.611 -49.822  11.277  1.00  0.00    -0.273 OA
HETATM    3  N   UNL     1     -42.433 -50.890  12.159  1.00  0.00    -0.361 N 
HETATM    4  H   UNL     1     -43.363 -50.800  12.550  1.00  0.00     0.162 HD
ENDROOT
BRANCH   1   5
HETATM    5  C   UNL     1     -42.426 -48.441  12.044  1.00  0.00     0.146 C 
BRANCH   5   6
HETATM    6  C   UNL     1     -42.187 -47.377  11.024  1.00  0.00     0.006 A 
HETATM    7  C   UNL     1     -41.084 -46.490  10.829  1.00  0.00     0.038 A 
HETATM    8  C   UNL     1     -39.811 -46.366  11.580  1.00  0.00     0.071 C 
HETATM    9  N   UNL     1     -41.302 -45.660   9.799  1.00  0.00    -0.265 N 
HETATM   10  O   UNL     1     -42.555 -45.964   9.322  1.00  0.00    -0.242 OA
ATOM     11  HN  UNL     1     -40.667 -44.946   9.442  1.00  0.00     0.194 HD
HETATM   12  C   UNL     1     -43.085 -46.975  10.054  1.00  0.00     0.081 A 
HETATM   13  C   UNL     1     -44.452 -47.391   9.683  1.00  0.00     0.079 C 
ENDBRANCH   5   6
ENDBRANCH   1   5
BRANCH   3  14
HETATM   14  C   UNL     1     -41.840 -52.206  12.012  1.00  0.00     0.122 C 
BRANCH  14  15
HETATM   15  C   UNL     1     -42.585 -53.311  12.759  1.00  0.00     0.020 C 
BRANCH  15  16
HETATM   16  C   UNL     1     -44.093 -53.271  12.499  1.00  0.00     0.006 C 
BRANCH  16  17
HETATM   17  C   UNL     1     -44.903 -52.765  13.696  1.00  0.00    -0.014 C 
HETATM   18  C   UNL     1     -45.933 -53.755  14.249  1.00  0.00     0.004 C 
HETATM   19  C   UNL     1     -47.054 -52.898  14.848  1.00  0.00     0.000 C 
HETATM   20  C   UNL     1     -46.724 -51.452  14.494  1.00  0.00     0.000 C 
HETATM   21  C   UNL     1     -45.761 -51.555  13.324  1.00  0.00     0.004 C 
ENDBRANCH  16  17
ENDBRANCH  15  16
ENDBRANCH  14  15
ENDBRANCH   3  14
TORSDOF 6
ENDMDL
MODEL 7
REMARK VINA RESULT:      -4.8      3.392      5.219
REMARK  6 active torsions:
REMARK  status: ('A' for Active; 'I' for Inactive)
REMARK    1  A    between atoms: C_8  and  C_9 
REMARK    2  A    between atoms: C_9  and  C_10 
REMARK       I    between atoms: C_10  and  N_12 
REMARK    3  A    between atoms: N_12  and  C_13 
REMARK    4  A    between atoms: C_13  and  C_14 
REMARK    5  A    between atoms: C_14  and  C_15 
REMARK    6  A    between atoms: C_15  and  C_16 
ROOT
HETATM    1  C   UNL     1     -40.888 -52.737  13.306  1.00  0.00     0.222 C 
HETATM    2  O   UNL     1     -40.583 -53.301  12.258  1.00  0.00    -0.273 OA
HETATM    3  N   UNL     1     -41.915 -53.179  14.115  1.00  0.00    -0.361 N 
HETATM    4  H   UNL     1     -42.149 -52.673  14.960  1.00  0.00     0.162 HD
ENDROOT
BRANCH   1   5
HETATM    5  C   UNL     1     -40.140 -51.516  13.808  1.00  0.00     0.146 C 
BRANCH   5   6
HETATM    6  C   UNL     1     -39.676 -50.569  12.750  1.00  0.00     0.006 A 
HETATM    7  C   UNL     1     -40.400 -49.681  11.898  1.00  0.00     0.038 A 
HETATM    8  C   UNL     1     -41.856 -49.409  11.815  1.00  0.00     0.071 C 
HETATM    9  N   UNL     1     -39.579 -49.033  11.060  1.00  0.00    -0.265 N 
HETATM   10  O   UNL     1     -38.315 -49.502  11.324  1.00  0.00    -0.242 OA
ATOM     11  HN  UNL     1     -39.840 -48.332  10.365  1.00  0.00     0.194 HD
HETATM   12  C   UNL     1     -38.372 -50.420  12.320  1.00  0.00     0.081 A 
HETATM   13  C   UNL     1     -37.087 -51.047  12.692  1.00  0.00     0.079 C 
ENDBRANCH   5   6
ENDBRANCH   1   5
BRANCH   3  14
HETATM   14  C   UNL     1     -42.657 -54.376  13.766  1.00  0.00     0.122 C 
BRANCH  14  15
HETATM   15  C   UNL     1     -43.967 -54.102  13.027  1.00  0.00     0.020 C 
BRANCH  15  16
HETATM   16  C   UNL     1     -45.171 -54.736  13.727  1.00  0.00     0.006 C 
BRANCH  16  17
HETATM   17  C   UNL     1     -46.249 -53.722  14.120  1.00  0.00    -0.014 C 
HETATM   18  C   UNL     1     -46.215 -52.403  13.340  1.00  0.00     0.004 C 
HETATM   19  C   UNL     1     -46.779 -51.343  14.292  1.00  0.00     0.000 C 
HETATM   20  C   UNL     1     -46.981 -52.036  15.636  1.00  0.00     0.000 C 
HETATM   21  C   UNL     1     -46.089 -53.263  15.569  1.00  0.00     0.004 C 
ENDBRANCH  16  17
ENDBRANCH  15  16
ENDBRANCH  14  15
ENDBRANCH   3  14
TORSDOF 6
ENDMDL
MODEL 8
REMARK VINA RESULT:      -4.8      3.595      6.037
REMARK  6 active torsions:
REMARK  status: ('A' for Active; 'I' for Inactive)
REMARK    1  A    between atoms: C_8  and  C_9 
REMARK    2  A    between atoms: C_9  and  C_10 
REMARK       I    between atoms: C_10  and  N_12 
REMARK    3  A    between atoms: N_12  and  C_13 
REMARK    4  A    between atoms: C_13  and  C_14 
REMARK    5  A    between atoms: C_14  and  C_15 
REMARK    6  A    between atoms: C_15  and  C_16 
ROOT
HETATM    1  C   UNL     1     -43.094 -49.501  13.511  1.00  0.00     0.222 C 
HETATM    2  O   UNL     1     -42.929 -48.404  14.039  1.00  0.00    -0.273 OA
HETATM    3  N   UNL     1     -42.808 -49.735  12.181  1.00  0.00    -0.361 N 
HETATM    4  H   UNL     1     -42.979 -50.648  11.779  1.00  0.00     0.162 HD
ENDROOT
BRANCH   1   5
HETATM    5  C   UNL     1     -43.608 -50.698  14.289  1.00  0.00     0.146 C 
BRANCH   5   6
HETATM    6  C   UNL     1     -43.944 -51.900  13.468  1.00  0.00     0.006 A 
HETATM    7  C   UNL     1     -43.118 -52.933  12.930  1.00  0.00     0.038 A 
HETATM    8  C   UNL     1     -41.653 -53.142  13.041  1.00  0.00     0.071 C 
HETATM    9  N   UNL     1     -43.837 -53.810  12.216  1.00  0.00    -0.265 N 
HETATM   10  O   UNL     1     -45.134 -53.356  12.247  1.00  0.00    -0.242 OA
ATOM     11  HN  UNL     1     -43.492 -54.646  11.745  1.00  0.00     0.194 HD
HETATM   12  C   UNL     1     -45.197 -52.217  12.981  1.00  0.00     0.081 A 
HETATM   13  C   UNL     1     -46.528 -51.584  13.074  1.00  0.00     0.079 C 
ENDBRANCH   5   6
ENDBRANCH   1   5
BRANCH   3  14
HETATM   14  C   UNL     1     -42.250 -48.679  11.356  1.00  0.00     0.122 C 
BRANCH  14  15
HETATM   15  C   UNL     1     -40.756 -48.835  11.073  1.00  0.00     0.020 C 
BRANCH  15  16
HETATM   16  C   UNL     1     -39.891 -48.112  12.107  1.00  0.00     0.006 C 
BRANCH  16  17
HETATM   17  C   UNL     1     -38.747 -48.971  12.651  1.00  0.00    -0.014 C 
HETATM   18  C   UNL     1     -37.839 -49.593  11.585  1.00  0.00     0.004 C 
HETATM   19  C   UNL     1     -37.309 -50.894  12.198  1.00  0.00     0.000 C 
HETATM   20  C   UNL     1     -38.035 -51.069  13.528  1.00  0.00     0.000 C 
HETATM   21  C   UNL     1     -39.270 -50.193  13.406  1.00  0.00     0.004 C 
ENDBRANCH  16  17
ENDBRANCH  15  16
ENDBRANCH  14  15
ENDBRANCH   3  14
TORSDOF 6
ENDMDL
MODEL 9
REMARK VINA RESULT:      -4.8      2.160      4.134
REMARK  6 active torsions:
REMARK  status: ('A' for Active; 'I' for Inactive)
REMARK    1  A    between atoms: C_8  and  C_9 
REMARK    2  A    between atoms: C_9  and  C_10 
REMARK       I    between atoms: C_10  and  N_12 
REMARK    3  A    between atoms: N_12  and  C_13 
REMARK    4  A    between atoms: C_13  and  C_14 
REMARK    5  A    between atoms: C_14  and  C_15 
REMARK    6  A    between atoms: C_15  and  C_16 
ROOT
HETATM    1  C   UNL     1     -42.845 -54.030  13.486  1.00  0.00     0.222 C 
HETATM    2  O   UNL     1     -43.038 -53.960  14.697  1.00  0.00    -0.273 OA
HETATM    3  N   UNL     1     -43.865 -53.919  12.563  1.00  0.00    -0.361 N 
HETATM    4  H   UNL     1     -43.666 -54.004  11.574  1.00  0.00     0.162 HD
ENDROOT
BRANCH   1   5
HETATM    5  C   UNL     1     -41.456 -54.224  12.904  1.00  0.00     0.146 C 
BRANCH   5   6
HETATM    6  C   UNL     1     -40.442 -53.207  13.315  1.00  0.00     0.006 A 
HETATM    7  C   UNL     1     -40.229 -51.862  12.883  1.00  0.00     0.038 A 
HETATM    8  C   UNL     1     -40.972 -51.046  11.892  1.00  0.00     0.071 C 
HETATM    9  N   UNL     1     -39.171 -51.316  13.498  1.00  0.00    -0.265 N 
HETATM   10  O   UNL     1     -38.657 -52.293  14.316  1.00  0.00    -0.242 OA
ATOM     11  HN  UNL     1     -38.818 -50.365  13.382  1.00  0.00     0.194 HD
HETATM   12  C   UNL     1     -39.404 -53.419  14.201  1.00  0.00     0.081 A 
HETATM   13  C   UNL     1     -38.950 -54.577  14.997  1.00  0.00     0.079 C 
ENDBRANCH   5   6
ENDBRANCH   1   5
BRANCH   3  14
HETATM   14  C   UNL     1     -45.225 -53.668  13.004  1.00  0.00     0.122 C 
BRANCH  14  15
HETATM   15  C   UNL     1     -45.888 -52.472  12.321  1.00  0.00     0.020 C 
BRANCH  15  16
HETATM   16  C   UNL     1     -46.631 -51.576  13.315  1.00  0.00     0.006 C 
BRANCH  16  17
HETATM   17  C   UNL     1     -46.129 -51.718  14.754  1.00  0.00    -0.014 C 
HETATM   18  C   UNL     1     -47.152 -51.359  15.837  1.00  0.00     0.004 C 
HETATM   19  C   UNL     1     -46.333 -50.855  17.031  1.00  0.00     0.000 C 
HETATM   20  C   UNL     1     -44.884 -50.791  16.562  1.00  0.00     0.000 C 
HETATM   21  C   UNL     1     -44.975 -50.759  15.047  1.00  0.00     0.004 C 
ENDBRANCH  16  17
ENDBRANCH  15  16
ENDBRANCH  14  15
ENDBRANCH   3  14
TORSDOF 6
ENDMDL
