MODEL 1
REMARK VINA RESULT:      -4.8      0.000      0.000
REMARK  3 active torsions:
REMARK  status: ('A' for Active; 'I' for Inactive)
REMARK    1  A    between atoms: C_2  and  C_3 
REMARK    2  A    between atoms: C_2  and  N_10 
REMARK    3  A    between atoms: C_3  and  N_4 
REMARK       I    between atoms: N_10  and  C_11 
REMARK       I    between atoms: C_11  and  N_13 
ROOT
HETATM    1  N   UNL     1     -39.264 -50.993  12.294  1.00  0.00    -0.337 N 
HETATM    2  C   UNL     1     -39.477 -52.183  12.946  1.00  0.00     0.318 C 
HETATM    3  O   UNL     1     -38.644 -52.649  13.718  1.00  0.00    -0.247 OA
HETATM    4  N   UNL     1     -40.679 -52.804  12.655  1.00  0.00    -0.333 N 
HETATM    5  C   UNL     1     -41.822 -52.194  11.959  1.00  0.00     0.137 C 
HETATM    6  C   UNL     1     -43.082 -52.120  12.830  1.00  0.00     0.093 C 
HETATM    7  S   UNL     1     -43.623 -53.760  13.405  1.00  0.00    -0.166 SA
HETATM    8  C   UNL     1     -42.040 -54.292  14.139  1.00  0.00     0.093 C 
HETATM    9  C   UNL     1     -40.890 -54.174  13.139  1.00  0.00     0.137 C 
HETATM   10  H   UNL     1     -39.640 -50.984  11.358  1.00  0.00     0.164 HD
ENDROOT
BRANCH   1  11
HETATM   11  C   UNL     1     -37.994 -50.273  12.465  1.00  0.00     0.100 C 
HETATM   12  C   UNL     1     -37.377 -50.011  11.088  1.00  0.00     0.034 C 
BRANCH  11  13
HETATM   13  C   UNL     1     -38.200 -48.965  13.260  1.00  0.00     0.153 C 
BRANCH  13  14
HETATM   14  N   UNL     1     -37.391 -48.866  14.458  1.00  0.00    -0.350 N 
HETATM   15  C   UNL     1     -36.982 -49.901  15.249  1.00  0.00     0.108 A 
HETATM   16  C   UNL     1     -36.261 -49.313  16.262  1.00  0.00     0.106 A 
HETATM   17  N   UNL     1     -36.218 -47.952  16.099  1.00  0.00    -0.361 N 
HETATM   18  C   UNL     1     -36.891 -47.713  14.995  1.00  0.00     0.182 A 
ATOM     19  HN  UNL     1     -35.762 -47.270  16.704  1.00  0.00     0.166 HD
ENDBRANCH  13  14
ENDBRANCH  11  13
ENDBRANCH   1  11
TORSDOF 3
ENDMDL
MODEL 2
REMARK VINA RESULT:      -4.7      4.211      6.463
REMARK  3 active torsions:
REMARK  status: ('A' for Active; 'I' for Inactive)
REMARK    1  A    between atoms: C_2  and  C_3 
REMARK    2  A    between atoms: C_2  and  N_10 
REMARK    3  A    between atoms: C_3  and  N_4 
REMARK       I    between atoms: N_10  and  C_11 
REMARK       I    between atoms: C_11  and  N_13 
ROOT
HETATM    1  N   UNL     1     -39.306 -48.324  11.631  1.00  0.00    -0.337 N 
HETATM    2  C   UNL     1     -40.461 -47.842  11.062  1.00  0.00     0.318 C 
HETATM    3  O   UNL     1     -41.310 -48.596  10.599  1.00  0.00    -0.247 OA
HETATM    4  N   UNL     1     -40.575 -46.463  11.046  1.00  0.00    -0.333 N 
HETATM    5  C   UNL     1     -39.740 -45.516  11.802  1.00  0.00     0.137 C 
HETATM    6  C   UNL     1     -40.542 -44.690  12.814  1.00  0.00     0.093 C 
HETATM    7  S   UNL     1     -41.864 -43.719  12.023  1.00  0.00    -0.166 SA
HETATM    8  C   UNL     1     -42.668 -45.092  11.130  1.00  0.00     0.093 C 
HETATM    9  C   UNL     1     -41.668 -45.864  10.270  1.00  0.00     0.137 C 
HETATM   10  H   UNL     1     -38.505 -47.738  11.450  1.00  0.00     0.164 HD
ENDROOT
BRANCH   1  11
HETATM   11  C   UNL     1     -39.035 -49.768  11.644  1.00  0.00     0.100 C 
HETATM   12  C   UNL     1     -37.544 -50.001  11.390  1.00  0.00     0.034 C 
BRANCH  11  13
HETATM   13  C   UNL     1     -39.498 -50.408  12.972  1.00  0.00     0.153 C 
BRANCH  13  14
HETATM   14  N   UNL     1     -40.185 -51.674  12.812  1.00  0.00    -0.350 N 
HETATM   15  C   UNL     1     -39.986 -52.804  13.553  1.00  0.00     0.108 A 
HETATM   16  C   UNL     1     -40.848 -53.735  13.021  1.00  0.00     0.106 A 
HETATM   17  N   UNL     1     -41.567 -53.194  11.985  1.00  0.00    -0.361 N 
HETATM   18  C   UNL     1     -41.160 -51.947  11.894  1.00  0.00     0.182 A 
ATOM     19  HN  UNL     1     -42.267 -53.659  11.409  1.00  0.00     0.166 HD
ENDBRANCH  13  14
ENDBRANCH  11  13
ENDBRANCH   1  11
TORSDOF 3
ENDMDL
MODEL 3
REMARK VINA RESULT:      -4.7      5.065      7.244
REMARK  3 active torsions:
REMARK  status: ('A' for Active; 'I' for Inactive)
REMARK    1  A    between atoms: C_2  and  C_3 
REMARK    2  A    between atoms: C_2  and  N_10 
REMARK    3  A    between atoms: C_3  and  N_4 
REMARK       I    between atoms: N_10  and  C_11 
REMARK       I    between atoms: C_11  and  N_13 
ROOT
HETATM    1  N   UNL     1     -41.284 -47.149  11.807  1.00  0.00    -0.337 N 
HETATM    2  C   UNL     1     -41.435 -48.415  12.322  1.00  0.00     0.318 C 
HETATM    3  O   UNL     1     -42.509 -49.005  12.263  1.00  0.00    -0.247 OA
HETATM    4  N   UNL     1     -40.302 -48.948  12.910  1.00  0.00    -0.333 N 
HETATM    5  C   UNL     1     -38.934 -48.420  12.789  1.00  0.00     0.137 C 
HETATM    6  C   UNL     1     -37.973 -49.403  12.110  1.00  0.00     0.093 C 
HETATM    7  S   UNL     1     -37.855 -50.985  13.003  1.00  0.00    -0.166 SA
HETATM    8  C   UNL     1     -39.640 -51.357  13.067  1.00  0.00     0.093 C 
HETATM    9  C   UNL     1     -40.434 -50.198  13.669  1.00  0.00     0.137 C 
HETATM   10  H   UNL     1     -40.663 -46.574  12.356  1.00  0.00     0.164 HD
ENDROOT
BRANCH   1  11
HETATM   11  C   UNL     1     -42.433 -46.447  11.221  1.00  0.00     0.100 C 
HETATM   12  C   UNL     1     -42.438 -44.996  11.712  1.00  0.00     0.034 C 
BRANCH  11  13
HETATM   13  C   UNL     1     -42.408 -46.531   9.679  1.00  0.00     0.153 C 
BRANCH  13  14
HETATM   14  N   UNL     1     -43.574 -47.169   9.101  1.00  0.00    -0.350 N 
HETATM   15  C   UNL     1     -44.811 -47.267   9.670  1.00  0.00     0.108 A 
HETATM   16  C   UNL     1     -45.569 -47.965   8.758  1.00  0.00     0.106 A 
HETATM   17  N   UNL     1     -44.823 -48.282   7.651  1.00  0.00    -0.361 N 
HETATM   18  C   UNL     1     -43.632 -47.775   7.878  1.00  0.00     0.182 A 
ATOM     19  HN  UNL     1     -45.128 -48.801   6.828  1.00  0.00     0.166 HD
ENDBRANCH  13  14
ENDBRANCH  11  13
ENDBRANCH   1  11
TORSDOF 3
ENDMDL
MODEL 4
REMARK VINA RESULT:      -4.6      4.325      6.998
REMARK  3 active torsions:
REMARK  status: ('A' for Active; 'I' for Inactive)
REMARK    1  A    between atoms: C_2  and  C_3 
REMARK    2  A    between atoms: C_2  and  N_10 
REMARK    3  A    between atoms: C_3  and  N_4 
REMARK       I    between atoms: N_10  and  C_11 
REMARK       I    between atoms: C_11  and  N_13 
ROOT
HETATM    1  N   UNL     1     -44.331 -50.553  12.715  1.00  0.00    -0.337 N 
HETATM    2  C   UNL     1     -43.303 -49.975  13.420  1.00  0.00     0.318 C 
HETATM    3  O   UNL     1     -42.893 -50.462  14.469  1.00  0.00    -0.247 OA
HETATM    4  N   UNL     1     -42.791 -48.815  12.866  1.00  0.00    -0.333 N 
HETATM    5  C   UNL     1     -43.045 -48.322  11.503  1.00  0.00     0.137 C 
HETATM    6  C   UNL     1     -41.773 -48.245  10.649  1.00  0.00     0.093 C 
HETATM    7  S   UNL     1     -40.512 -47.156  11.383  1.00  0.00    -0.166 SA
HETATM    8  C   UNL     1     -40.454 -47.933  13.032  1.00  0.00     0.093 C 
HETATM    9  C   UNL     1     -41.844 -48.022  13.660  1.00  0.00     0.137 C 
HETATM   10  H   UNL     1     -44.936 -49.876  12.275  1.00  0.00     0.164 HD
ENDROOT
BRANCH   1  11
HETATM   11  C   UNL     1     -45.006 -51.749  13.238  1.00  0.00     0.100 C 
HETATM   12  C   UNL     1     -46.509 -51.631  12.973  1.00  0.00     0.034 C 
BRANCH  11  13
HETATM   13  C   UNL     1     -44.414 -53.035  12.622  1.00  0.00     0.153 C 
BRANCH  13  14
HETATM   14  N   UNL     1     -43.627 -53.827  13.547  1.00  0.00    -0.350 N 
HETATM   15  C   UNL     1     -44.109 -54.688  14.491  1.00  0.00     0.108 A 
HETATM   16  C   UNL     1     -42.992 -55.185  15.123  1.00  0.00     0.106 A 
HETATM   17  N   UNL     1     -41.851 -54.652  14.580  1.00  0.00    -0.361 N 
HETATM   18  C   UNL     1     -42.263 -53.852  13.621  1.00  0.00     0.182 A 
ATOM     19  HN  UNL     1     -40.888 -54.836  14.860  1.00  0.00     0.166 HD
ENDBRANCH  13  14
ENDBRANCH  11  13
ENDBRANCH   1  11
TORSDOF 3
ENDMDL
MODEL 5
REMARK VINA RESULT:      -4.6      4.609      6.316
REMARK  3 active torsions:
REMARK  status: ('A' for Active; 'I' for Inactive)
REMARK    1  A    between atoms: C_2  and  C_3 
REMARK    2  A    between atoms: C_2  and  N_10 
REMARK    3  A    between atoms: C_3  and  N_4 
REMARK       I    between atoms: N_10  and  C_11 
REMARK       I    between atoms: C_11  and  N_13 
ROOT
HETATM    1  N   UNL     1     -40.329 -46.954  11.231  1.00  0.00    -0.337 N 
HETATM    2  C   UNL     1     -39.664 -47.536  12.283  1.00  0.00     0.318 C 
HETATM    3  O   UNL     1     -39.241 -46.868  13.221  1.00  0.00    -0.247 OA
HETATM    4  N   UNL     1     -39.504 -48.907  12.189  1.00  0.00    -0.333 N 
HETATM    5  C   UNL     1     -40.198 -49.797  11.245  1.00  0.00     0.137 C 
HETATM    6  C   UNL     1     -41.085 -50.834  11.944  1.00  0.00     0.093 C 
HETATM    7  S   UNL     1     -40.142 -51.897  13.083  1.00  0.00    -0.166 SA
HETATM    8  C   UNL     1     -39.356 -50.569  14.056  1.00  0.00     0.093 C 
HETATM    9  C   UNL     1     -38.623 -49.573  13.157  1.00  0.00     0.137 C 
HETATM   10  H   UNL     1     -40.127 -47.394  10.346  1.00  0.00     0.164 HD
ENDROOT
BRANCH   1  11
HETATM   11  C   UNL     1     -40.500 -45.495  11.179  1.00  0.00     0.100 C 
HETATM   12  C   UNL     1     -39.643 -44.930  10.043  1.00  0.00     0.034 C 
BRANCH  11  13
HETATM   13  C   UNL     1     -41.988 -45.115  11.019  1.00  0.00     0.153 C 
BRANCH  13  14
HETATM   14  N   UNL     1     -42.801 -46.147  10.407  1.00  0.00    -0.350 N 
HETATM   15  C   UNL     1     -43.082 -46.277   9.077  1.00  0.00     0.108 A 
HETATM   16  C   UNL     1     -43.894 -47.385   8.991  1.00  0.00     0.106 A 
HETATM   17  N   UNL     1     -44.102 -47.930  10.232  1.00  0.00    -0.361 N 
HETATM   18  C   UNL     1     -43.417 -47.176  11.062  1.00  0.00     0.182 A 
ATOM     19  HN  UNL     1     -44.668 -48.747  10.461  1.00  0.00     0.166 HD
ENDBRANCH  13  14
ENDBRANCH  11  13
ENDBRANCH   1  11
TORSDOF 3
ENDMDL
MODEL 6
REMARK VINA RESULT:      -4.6     17.391     19.647
REMARK  3 active torsions:
REMARK  status: ('A' for Active; 'I' for Inactive)
REMARK    1  A    between atoms: C_2  and  C_3 
REMARK    2  A    between atoms: C_2  and  N_10 
REMARK    3  A    between atoms: C_3  and  N_4 
REMARK       I    between atoms: N_10  and  C_11 
REMARK       I    between atoms: C_11  and  N_13 
ROOT
HETATM    1  N   UNL     1     -51.786 -52.175  -0.732  1.00  0.00    -0.337 N 
HETATM    2  C   UNL     1     -50.689 -51.566  -0.172  1.00  0.00     0.318 C 
HETATM    3  O   UNL     1     -49.666 -52.194   0.079  1.00  0.00    -0.247 OA
HETATM    4  N   UNL     1     -50.839 -50.215   0.090  1.00  0.00    -0.333 N 
HETATM    5  C   UNL     1     -51.916 -49.350  -0.415  1.00  0.00     0.137 C 
HETATM    6  C   UNL     1     -51.403 -48.219  -1.314  1.00  0.00     0.093 C 
HETATM    7  S   UNL     1     -50.211 -47.141  -0.459  1.00  0.00    -0.166 SA
HETATM    8  C   UNL     1     -49.067 -48.446   0.103  1.00  0.00     0.093 C 
HETATM    9  C   UNL     1     -49.801 -49.540   0.879  1.00  0.00     0.137 C 
HETATM   10  H   UNL     1     -52.660 -51.806  -0.387  1.00  0.00     0.164 HD
ENDROOT
BRANCH   1  11
HETATM   11  C   UNL     1     -51.777 -53.622  -0.991  1.00  0.00     0.100 C 
HETATM   12  C   UNL     1     -53.102 -54.224  -0.517  1.00  0.00     0.034 C 
BRANCH  11  13
HETATM   13  C   UNL     1     -51.513 -53.917  -2.483  1.00  0.00     0.153 C 
BRANCH  13  14
HETATM   14  N   UNL     1     -50.532 -54.958  -2.717  1.00  0.00    -0.350 N 
HETATM   15  C   UNL     1     -50.742 -56.138  -3.373  1.00  0.00     0.108 A 
HETATM   16  C   UNL     1     -49.533 -56.792  -3.325  1.00  0.00     0.106 A 
HETATM   17  N   UNL     1     -48.598 -56.035  -2.666  1.00  0.00    -0.361 N 
HETATM   18  C   UNL     1     -49.223 -54.929  -2.328  1.00  0.00     0.182 A 
ATOM     19  HN  UNL     1     -47.626 -56.277  -2.478  1.00  0.00     0.166 HD
ENDBRANCH  13  14
ENDBRANCH  11  13
ENDBRANCH   1  11
TORSDOF 3
ENDMDL
MODEL 7
REMARK VINA RESULT:      -4.5      3.383      7.265
REMARK  3 active torsions:
REMARK  status: ('A' for Active; 'I' for Inactive)
REMARK    1  A    between atoms: C_2  and  C_3 
REMARK    2  A    between atoms: C_2  and  N_10 
REMARK    3  A    between atoms: C_3  and  N_4 
REMARK       I    between atoms: N_10  and  C_11 
REMARK       I    between atoms: C_11  and  N_13 
ROOT
HETATM    1  N   UNL     1     -41.957 -52.597  13.597  1.00  0.00    -0.337 N 
HETATM    2  C   UNL     1     -40.775 -52.244  12.991  1.00  0.00     0.318 C 
HETATM    3  O   UNL     1     -40.165 -53.030  12.274  1.00  0.00    -0.247 OA
HETATM    4  N   UNL     1     -40.337 -50.961  13.263  1.00  0.00    -0.333 N 
HETATM    5  C   UNL     1     -41.129 -49.889  13.887  1.00  0.00     0.137 C 
HETATM    6  C   UNL     1     -41.329 -48.680  12.966  1.00  0.00     0.093 C 
HETATM    7  S   UNL     1     -39.750 -47.939  12.444  1.00  0.00    -0.166 SA
HETATM    8  C   UNL     1     -38.975 -49.458  11.796  1.00  0.00     0.093 C 
HETATM    9  C   UNL     1     -38.986 -50.581  12.833  1.00  0.00     0.137 C 
HETATM   10  H   UNL     1     -42.062 -52.196  14.517  1.00  0.00     0.164 HD
ENDROOT
BRANCH   1  11
HETATM   11  C   UNL     1     -42.491 -53.957  13.444  1.00  0.00     0.100 C 
HETATM   12  C   UNL     1     -42.672 -54.584  14.829  1.00  0.00     0.034 C 
BRANCH  11  13
HETATM   13  C   UNL     1     -43.810 -53.949  12.640  1.00  0.00     0.153 C 
BRANCH  13  14
HETATM   14  N   UNL     1     -45.004 -53.978  13.461  1.00  0.00    -0.350 N 
HETATM   15  C   UNL     1     -45.640 -52.900  14.006  1.00  0.00     0.108 A 
HETATM   16  C   UNL     1     -46.701 -53.428  14.705  1.00  0.00     0.106 A 
HETATM   17  N   UNL     1     -46.726 -54.794  14.589  1.00  0.00    -0.361 N 
HETATM   18  C   UNL     1     -45.703 -55.096  13.819  1.00  0.00     0.182 A 
ATOM     19  HN  UNL     1     -47.394 -55.439  15.010  1.00  0.00     0.166 HD
ENDBRANCH  13  14
ENDBRANCH  11  13
ENDBRANCH   1  11
TORSDOF 3
ENDMDL
MODEL 8
REMARK VINA RESULT:      -4.3      2.895      6.813
REMARK  3 active torsions:
REMARK  status: ('A' for Active; 'I' for Inactive)
REMARK    1  A    between atoms: C_2  and  C_3 
REMARK    2  A    between atoms: C_2  and  N_10 
REMARK    3  A    between atoms: C_3  and  N_4 
REMARK       I    between atoms: N_10  and  C_11 
REMARK       I    between atoms: C_11  and  N_13 
ROOT
HETATM    1  N   UNL     1     -39.850 -53.036  15.155  1.00  0.00    -0.337 N 
HETATM    2  C   UNL     1     -39.338 -52.488  14.003  1.00  0.00     0.318 C 
HETATM    3  O   UNL     1     -39.634 -52.930  12.897  1.00  0.00    -0.247 OA
HETATM    4  N   UNL     1     -38.471 -51.426  14.193  1.00  0.00    -0.333 N 
HETATM    5  C   UNL     1     -38.276 -50.683  15.448  1.00  0.00     0.137 C 
HETATM    6  C   UNL     1     -38.661 -49.203  15.331  1.00  0.00     0.093 C 
HETATM    7  S   UNL     1     -37.705 -48.338  14.046  1.00  0.00    -0.166 SA
HETATM    8  C   UNL     1     -38.063 -49.482  12.670  1.00  0.00     0.093 C 
HETATM    9  C   UNL     1     -37.719 -50.925  13.036  1.00  0.00     0.137 C 
HETATM   10  H   UNL     1     -39.189 -53.035  15.918  1.00  0.00     0.164 HD
ENDROOT
BRANCH   1  11
HETATM   11  C   UNL     1     -40.725 -54.214  15.088  1.00  0.00     0.100 C 
HETATM   12  C   UNL     1     -40.139 -55.325  15.962  1.00  0.00     0.034 C 
BRANCH  11  13
HETATM   13  C   UNL     1     -42.169 -53.857  15.506  1.00  0.00     0.153 C 
BRANCH  13  14
HETATM   14  N   UNL     1     -43.141 -53.974  14.437  1.00  0.00    -0.350 N 
HETATM   15  C   UNL     1     -43.118 -53.312  13.243  1.00  0.00     0.108 A 
HETATM   16  C   UNL     1     -44.246 -53.736  12.579  1.00  0.00     0.106 A 
HETATM   17  N   UNL     1     -44.943 -54.641  13.338  1.00  0.00    -0.361 N 
HETATM   18  C   UNL     1     -44.246 -54.778  14.443  1.00  0.00     0.182 A 
ATOM     19  HN  UNL     1     -45.817 -55.107  13.096  1.00  0.00     0.166 HD
ENDBRANCH  13  14
ENDBRANCH  11  13
ENDBRANCH   1  11
TORSDOF 3
ENDMDL
MODEL 9
REMARK VINA RESULT:      -4.3      3.641      7.338
REMARK  3 active torsions:
REMARK  status: ('A' for Active; 'I' for Inactive)
REMARK    1  A    between atoms: C_2  and  C_3 
REMARK    2  A    between atoms: C_2  and  N_10 
REMARK    3  A    between atoms: C_3  and  N_4 
REMARK       I    between atoms: N_10  and  C_11 
REMARK       I    between atoms: C_11  and  N_13 
ROOT
HETATM    1  N   UNL     1     -41.932 -54.085  14.960  1.00  0.00    -0.337 N 
HETATM    2  C   UNL     1     -42.036 -53.529  13.708  1.00  0.00     0.318 C 
HETATM    3  O   UNL     1     -43.021 -53.720  13.002  1.00  0.00    -0.247 OA
HETATM    4  N   UNL     1     -40.953 -52.762  13.315  1.00  0.00    -0.333 N 
HETATM    5  C   UNL     1     -39.873 -52.278  14.190  1.00  0.00     0.137 C 
HETATM    6  C   UNL     1     -39.807 -50.748  14.266  1.00  0.00     0.093 C 
HETATM    7  S   UNL     1     -39.553 -49.983  12.634  1.00  0.00    -0.166 SA
HETATM    8  C   UNL     1     -40.943 -50.791  11.771  1.00  0.00     0.093 C 
HETATM    9  C   UNL     1     -40.887 -52.312  11.920  1.00  0.00     0.137 C 
HETATM   10  H   UNL     1     -40.989 -54.360  15.191  1.00  0.00     0.164 HD
ENDROOT
BRANCH   1  11
HETATM   11  C   UNL     1     -42.985 -54.978  15.462  1.00  0.00     0.100 C 
HETATM   12  C   UNL     1     -42.341 -56.112  16.264  1.00  0.00     0.034 C 
BRANCH  11  13
HETATM   13  C   UNL     1     -44.022 -54.199  16.301  1.00  0.00     0.153 C 
BRANCH  13  14
HETATM   14  N   UNL     1     -45.155 -53.712  15.540  1.00  0.00    -0.350 N 
HETATM   15  C   UNL     1     -45.520 -52.407  15.373  1.00  0.00     0.108 A 
HETATM   16  C   UNL     1     -46.654 -52.450  14.595  1.00  0.00     0.106 A 
HETATM   17  N   UNL     1     -46.977 -53.746  14.282  1.00  0.00    -0.361 N 
HETATM   18  C   UNL     1     -46.047 -54.483  14.849  1.00  0.00     0.182 A 
ATOM     19  HN  UNL     1     -47.770 -54.070  13.729  1.00  0.00     0.166 HD
ENDBRANCH  13  14
ENDBRANCH  11  13
ENDBRANCH   1  11
TORSDOF 3
ENDMDL
