MODEL 1
REMARK VINA RESULT:      -6.1      0.000      0.000
REMARK  5 active torsions:
REMARK  status: ('A' for Active; 'I' for Inactive)
REMARK    1  A    between atoms: C_2  and  C_3 
REMARK    2  A    between atoms: C_6  and  N_7 
REMARK       I    between atoms: N_7  and  C_8 
REMARK       I    between atoms: C_8  and  N_10 
REMARK    3  A    between atoms: N_10  and  C_11 
REMARK    4  A    between atoms: C_11  and  C_12 
REMARK    5  A    between atoms: C_16  and  C_17 
ROOT
HETATM    1  N   UNL     1     -40.708 -49.509  10.784  1.00  0.00    -0.289 N 
HETATM    2  C   UNL     1     -41.197 -50.481  11.614  1.00  0.00     0.322 C 
HETATM    3  O   UNL     1     -42.286 -50.496  12.171  1.00  0.00    -0.247 OA
HETATM    4  N   UNL     1     -40.298 -51.530  11.757  1.00  0.00    -0.342 N 
HETATM    5  H   UNL     1     -39.848 -49.638  10.284  1.00  0.00     0.172 HD
HETATM    6  H   UNL     1     -39.600 -51.633  11.039  1.00  0.00     0.164 HD
ENDROOT
BRANCH   1   7
HETATM    7  C   UNL     1     -41.420 -48.373  10.509  1.00  0.00     0.152 A 
HETATM    8  S   UNL     1     -40.755 -46.943  11.158  1.00  0.00    -0.064 SA
HETATM    9  C   UNL     1     -42.043 -46.050  10.453  1.00  0.00     0.078 A 
HETATM   10  C   UNL     1     -42.915 -46.910   9.810  1.00  0.00     0.017 A 
HETATM   11  N   UNL     1     -42.532 -48.238   9.837  1.00  0.00    -0.340 N 
ATOM     12  HN  UNL     1     -43.043 -49.002   9.395  1.00  0.00     0.168 HD
BRANCH  10  13
HETATM   13  C   UNL     1     -44.191 -46.553   9.122  1.00  0.00     0.053 C 
HETATM   14  C   UNL     1     -45.332 -47.487   9.491  1.00  0.00     0.011 C 
ENDBRANCH  10  13
ENDBRANCH   1   7
BRANCH   4  15
HETATM   15  C   UNL     1     -40.781 -52.734  12.411  1.00  0.00     0.131 C 
BRANCH  15  16
HETATM   16  C   UNL     1     -40.347 -52.850  13.857  1.00  0.00     0.035 C 
HETATM   17  C   UNL     1     -39.178 -53.797  14.063  1.00  0.00     0.035 C 
HETATM   18  C   UNL     1     -39.302 -54.213  15.514  1.00  0.00     0.168 C 
HETATM   19  O   UNL     1     -40.556 -53.716  15.999  1.00  0.00    -0.385 OA
HETATM   20  C   UNL     1     -41.385 -53.363  14.865  1.00  0.00     0.130 C 
BRANCH  20  21
HETATM   21  C   UNL     1     -42.278 -54.589  14.526  1.00  0.00     0.007 C 
HETATM   22  C   UNL     1     -42.566 -55.395  15.809  1.00  0.00     0.012 C 
HETATM   23  C   UNL     1     -43.632 -54.243  13.900  1.00  0.00     0.012 C 
ENDBRANCH  20  21
ENDBRANCH  15  16
ENDBRANCH   4  15
TORSDOF 5
ENDMDL
MODEL 2
REMARK VINA RESULT:      -6.1      1.783      2.977
REMARK  5 active torsions:
REMARK  status: ('A' for Active; 'I' for Inactive)
REMARK    1  A    between atoms: C_2  and  C_3 
REMARK    2  A    between atoms: C_6  and  N_7 
REMARK       I    between atoms: N_7  and  C_8 
REMARK       I    between atoms: C_8  and  N_10 
REMARK    3  A    between atoms: N_10  and  C_11 
REMARK    4  A    between atoms: C_11  and  C_12 
REMARK    5  A    between atoms: C_16  and  C_17 
ROOT
HETATM    1  N   UNL     1     -41.317 -49.158  10.477  1.00  0.00    -0.289 N 
HETATM    2  C   UNL     1     -40.852 -49.895  11.532  1.00  0.00     0.322 C 
HETATM    3  O   UNL     1     -40.472 -49.474  12.616  1.00  0.00    -0.247 OA
HETATM    4  N   UNL     1     -40.874 -51.255  11.253  1.00  0.00    -0.342 N 
HETATM    5  H   UNL     1     -41.712 -49.601   9.668  1.00  0.00     0.172 HD
HETATM    6  H   UNL     1     -41.492 -51.560  10.520  1.00  0.00     0.164 HD
ENDROOT
BRANCH   1   7
HETATM    7  C   UNL     1     -41.371 -47.791  10.524  1.00  0.00     0.152 A 
HETATM    8  S   UNL     1     -42.950 -47.144  10.551  1.00  0.00    -0.064 SA
HETATM    9  C   UNL     1     -42.277 -45.565  10.623  1.00  0.00     0.078 A 
HETATM   10  C   UNL     1     -40.897 -45.638  10.577  1.00  0.00     0.017 A 
HETATM   11  N   UNL     1     -40.394 -46.926  10.538  1.00  0.00    -0.340 N 
ATOM     12  HN  UNL     1     -39.402 -47.165  10.523  1.00  0.00     0.168 HD
BRANCH  10  13
HETATM   13  C   UNL     1     -39.932 -44.498  10.555  1.00  0.00     0.053 C 
HETATM   14  C   UNL     1     -38.951 -44.588   9.397  1.00  0.00     0.011 C 
ENDBRANCH  10  13
ENDBRANCH   1   7
BRANCH   4  15
HETATM   15  C   UNL     1     -40.639 -52.164  12.361  1.00  0.00     0.131 C 
BRANCH  15  16
HETATM   16  C   UNL     1     -41.860 -52.972  12.750  1.00  0.00     0.035 C 
HETATM   17  C   UNL     1     -42.858 -52.192  13.588  1.00  0.00     0.035 C 
HETATM   18  C   UNL     1     -43.626 -53.268  14.327  1.00  0.00     0.168 C 
HETATM   19  O   UNL     1     -42.961 -54.514  14.087  1.00  0.00    -0.385 OA
HETATM   20  C   UNL     1     -41.630 -54.240  13.582  1.00  0.00     0.130 C 
BRANCH  20  21
HETATM   21  C   UNL     1     -40.654 -54.227  14.791  1.00  0.00     0.007 C 
HETATM   22  C   UNL     1     -41.187 -55.153  15.903  1.00  0.00     0.012 C 
HETATM   23  C   UNL     1     -39.229 -54.688  14.469  1.00  0.00     0.012 C 
ENDBRANCH  20  21
ENDBRANCH  15  16
ENDBRANCH   4  15
TORSDOF 5
ENDMDL
MODEL 3
REMARK VINA RESULT:      -5.9      3.008      4.724
REMARK  5 active torsions:
REMARK  status: ('A' for Active; 'I' for Inactive)
REMARK    1  A    between atoms: C_2  and  C_3 
REMARK    2  A    between atoms: C_6  and  N_7 
REMARK       I    between atoms: N_7  and  C_8 
REMARK       I    between atoms: C_8  and  N_10 
REMARK    3  A    between atoms: N_10  and  C_11 
REMARK    4  A    between atoms: C_11  and  C_12 
REMARK    5  A    between atoms: C_16  and  C_17 
ROOT
HETATM    1  N   UNL     1     -42.299 -50.988  11.925  1.00  0.00    -0.289 N 
HETATM    2  C   UNL     1     -42.334 -52.340  12.128  1.00  0.00     0.322 C 
HETATM    3  O   UNL     1     -41.382 -53.082  12.329  1.00  0.00    -0.247 OA
HETATM    4  N   UNL     1     -43.635 -52.826  12.109  1.00  0.00    -0.342 N 
HETATM    5  H   UNL     1     -43.143 -50.447  11.880  1.00  0.00     0.172 HD
HETATM    6  H   UNL     1     -44.372 -52.162  12.282  1.00  0.00     0.164 HD
ENDROOT
BRANCH   1   7
HETATM    7  C   UNL     1     -41.118 -50.296  11.890  1.00  0.00     0.152 A 
HETATM    8  S   UNL     1     -41.282 -48.603  12.023  1.00  0.00    -0.064 SA
HETATM    9  C   UNL     1     -39.573 -48.453  11.933  1.00  0.00     0.078 A 
HETATM   10  C   UNL     1     -38.998 -49.700  11.763  1.00  0.00     0.017 A 
HETATM   11  N   UNL     1     -39.900 -50.749  11.759  1.00  0.00    -0.340 N 
ATOM     12  HN  UNL     1     -39.650 -51.733  11.666  1.00  0.00     0.168 HD
BRANCH  10  13
HETATM   13  C   UNL     1     -37.549 -50.010  11.579  1.00  0.00     0.053 C 
HETATM   14  C   UNL     1     -37.063 -51.099  12.520  1.00  0.00     0.011 C 
ENDBRANCH  10  13
ENDBRANCH   1   7
BRANCH   4  15
HETATM   15  C   UNL     1     -43.840 -54.195  12.548  1.00  0.00     0.131 C 
BRANCH  15  16
HETATM   16  C   UNL     1     -45.047 -54.366  13.447  1.00  0.00     0.035 C 
HETATM   17  C   UNL     1     -45.866 -53.097  13.607  1.00  0.00     0.035 C 
HETATM   18  C   UNL     1     -46.596 -53.303  14.918  1.00  0.00     0.168 C 
HETATM   19  O   UNL     1     -46.055 -54.479  15.533  1.00  0.00    -0.385 OA
HETATM   20  C   UNL     1     -44.791 -54.795  14.897  1.00  0.00     0.130 C 
BRANCH  20  21
HETATM   21  C   UNL     1     -43.659 -54.133  15.730  1.00  0.00     0.007 C 
HETATM   22  C   UNL     1     -44.022 -54.171  17.228  1.00  0.00     0.012 C 
HETATM   23  C   UNL     1     -42.285 -54.793  15.584  1.00  0.00     0.012 C 
ENDBRANCH  20  21
ENDBRANCH  15  16
ENDBRANCH   4  15
TORSDOF 5
ENDMDL
MODEL 4
REMARK VINA RESULT:      -5.8      1.578      2.276
REMARK  5 active torsions:
REMARK  status: ('A' for Active; 'I' for Inactive)
REMARK    1  A    between atoms: C_2  and  C_3 
REMARK    2  A    between atoms: C_6  and  N_7 
REMARK       I    between atoms: N_7  and  C_8 
REMARK       I    between atoms: C_8  and  N_10 
REMARK    3  A    between atoms: N_10  and  C_11 
REMARK    4  A    between atoms: C_11  and  C_12 
REMARK    5  A    between atoms: C_16  and  C_17 
ROOT
HETATM    1  N   UNL     1     -41.946 -49.337  10.965  1.00  0.00    -0.289 N 
HETATM    2  C   UNL     1     -40.919 -50.115  11.426  1.00  0.00     0.322 C 
HETATM    3  O   UNL     1     -39.786 -49.750  11.712  1.00  0.00    -0.247 OA
HETATM    4  N   UNL     1     -41.309 -51.439  11.577  1.00  0.00    -0.342 N 
HETATM    5  H   UNL     1     -42.873 -49.707  10.866  1.00  0.00     0.172 HD
HETATM    6  H   UNL     1     -42.296 -51.617  11.661  1.00  0.00     0.164 HD
ENDROOT
BRANCH   1   7
HETATM    7  C   UNL     1     -41.784 -47.999  10.730  1.00  0.00     0.152 A 
HETATM    8  S   UNL     1     -43.231 -47.154  10.411  1.00  0.00    -0.064 SA
HETATM    9  C   UNL     1     -42.324 -45.703  10.257  1.00  0.00     0.078 A 
HETATM   10  C   UNL     1     -40.976 -45.971  10.416  1.00  0.00     0.017 A 
HETATM   11  N   UNL     1     -40.686 -47.292  10.704  1.00  0.00    -0.340 N 
ATOM     12  HN  UNL     1     -39.750 -47.660  10.873  1.00  0.00     0.168 HD
BRANCH  10  13
HETATM   13  C   UNL     1     -39.843 -45.005  10.298  1.00  0.00     0.053 C 
HETATM   14  C   UNL     1     -40.145 -43.671  10.960  1.00  0.00     0.011 C 
ENDBRANCH  10  13
ENDBRANCH   1   7
BRANCH   4  15
HETATM   15  C   UNL     1     -40.399 -52.324  12.283  1.00  0.00     0.131 C 
BRANCH  15  16
HETATM   16  C   UNL     1     -40.611 -52.337  13.783  1.00  0.00     0.035 C 
HETATM   17  C   UNL     1     -39.628 -53.226  14.524  1.00  0.00     0.035 C 
HETATM   18  C   UNL     1     -40.346 -53.556  15.816  1.00  0.00     0.168 C 
HETATM   19  O   UNL     1     -41.691 -53.077  15.697  1.00  0.00    -0.385 OA
HETATM   20  C   UNL     1     -41.972 -52.825  14.298  1.00  0.00     0.130 C 
BRANCH  20  21
HETATM   21  C   UNL     1     -42.630 -54.101  13.705  1.00  0.00     0.007 C 
HETATM   22  C   UNL     1     -43.237 -54.951  14.840  1.00  0.00     0.012 C 
HETATM   23  C   UNL     1     -43.752 -53.835  12.696  1.00  0.00     0.012 C 
ENDBRANCH  20  21
ENDBRANCH  15  16
ENDBRANCH   4  15
TORSDOF 5
ENDMDL
MODEL 5
REMARK VINA RESULT:      -5.8      2.290      3.166
REMARK  5 active torsions:
REMARK  status: ('A' for Active; 'I' for Inactive)
REMARK    1  A    between atoms: C_2  and  C_3 
REMARK    2  A    between atoms: C_6  and  N_7 
REMARK       I    between atoms: N_7  and  C_8 
REMARK       I    between atoms: C_8  and  N_10 
REMARK    3  A    between atoms: N_10  and  C_11 
REMARK    4  A    between atoms: C_11  and  C_12 
REMARK    5  A    between atoms: C_16  and  C_17 
ROOT
HETATM    1  N   UNL     1     -41.837 -49.465  11.294  1.00  0.00    -0.289 N 
HETATM    2  C   UNL     1     -42.190 -49.793  12.574  1.00  0.00     0.322 C 
HETATM    3  O   UNL     1     -42.920 -49.158  13.324  1.00  0.00    -0.247 OA
HETATM    4  N   UNL     1     -41.632 -51.003  12.964  1.00  0.00    -0.342 N 
HETATM    5  H   UNL     1     -41.323 -50.106  10.717  1.00  0.00     0.172 HD
HETATM    6  H   UNL     1     -41.341 -51.629  12.231  1.00  0.00     0.164 HD
ENDROOT
BRANCH   1   7
HETATM    7  C   UNL     1     -42.263 -48.306  10.705  1.00  0.00     0.152 A 
HETATM    8  S   UNL     1     -41.194 -46.987  10.877  1.00  0.00    -0.064 SA
HETATM    9  C   UNL     1     -42.279 -46.017   9.965  1.00  0.00     0.078 A 
HETATM   10  C   UNL     1     -43.402 -46.752   9.630  1.00  0.00     0.017 A 
HETATM   11  N   UNL     1     -43.367 -48.070  10.048  1.00  0.00    -0.340 N 
ATOM     12  HN  UNL     1     -44.098 -48.759   9.869  1.00  0.00     0.168 HD
BRANCH  10  13
HETATM   13  C   UNL     1     -44.610 -46.273   8.895  1.00  0.00     0.053 C 
HETATM   14  C   UNL     1     -45.819 -47.166   9.119  1.00  0.00     0.011 C 
ENDBRANCH  10  13
ENDBRANCH   1   7
BRANCH   4  15
HETATM   15  C   UNL     1     -42.114 -51.589  14.203  1.00  0.00     0.131 C 
BRANCH  15  16
HETATM   16  C   UNL     1     -43.113 -52.709  13.992  1.00  0.00     0.035 C 
HETATM   17  C   UNL     1     -43.550 -52.864  12.546  1.00  0.00     0.035 C 
HETATM   18  C   UNL     1     -44.893 -53.556  12.648  1.00  0.00     0.168 C 
HETATM   19  O   UNL     1     -45.264 -53.575  14.033  1.00  0.00    -0.385 OA
HETATM   20  C   UNL     1     -44.446 -52.614  14.746  1.00  0.00     0.130 C 
BRANCH  20  21
HETATM   21  C   UNL     1     -45.228 -51.273  14.805  1.00  0.00     0.007 C 
HETATM   22  C   UNL     1     -46.742 -51.547  14.704  1.00  0.00     0.012 C 
HETATM   23  C   UNL     1     -45.003 -50.455  16.080  1.00  0.00     0.012 C 
ENDBRANCH  20  21
ENDBRANCH  15  16
ENDBRANCH   4  15
TORSDOF 5
ENDMDL
MODEL 6
REMARK VINA RESULT:      -5.7      3.095      4.644
REMARK  5 active torsions:
REMARK  status: ('A' for Active; 'I' for Inactive)
REMARK    1  A    between atoms: C_2  and  C_3 
REMARK    2  A    between atoms: C_6  and  N_7 
REMARK       I    between atoms: N_7  and  C_8 
REMARK       I    between atoms: C_8  and  N_10 
REMARK    3  A    between atoms: N_10  and  C_11 
REMARK    4  A    between atoms: C_11  and  C_12 
REMARK    5  A    between atoms: C_16  and  C_17 
ROOT
HETATM    1  N   UNL     1     -42.184 -50.772  11.768  1.00  0.00    -0.289 N 
HETATM    2  C   UNL     1     -42.292 -51.984  12.394  1.00  0.00     0.322 C 
HETATM    3  O   UNL     1     -41.415 -52.580  13.005  1.00  0.00    -0.247 OA
HETATM    4  N   UNL     1     -43.577 -52.498  12.292  1.00  0.00    -0.342 N 
HETATM    5  H   UNL     1     -42.989 -50.310  11.389  1.00  0.00     0.172 HD
HETATM    6  H   UNL     1     -44.316 -51.844  12.095  1.00  0.00     0.164 HD
ENDROOT
BRANCH   1   7
HETATM    7  C   UNL     1     -41.000 -50.085  11.730  1.00  0.00     0.152 A 
HETATM    8  S   UNL     1     -41.162 -48.388  11.798  1.00  0.00    -0.064 SA
HETATM    9  C   UNL     1     -39.451 -48.245  11.734  1.00  0.00     0.078 A 
HETATM   10  C   UNL     1     -38.877 -49.499  11.620  1.00  0.00     0.017 A 
HETATM   11  N   UNL     1     -39.781 -50.545  11.638  1.00  0.00    -0.340 N 
ATOM     12  HN  UNL     1     -39.532 -51.533  11.586  1.00  0.00     0.168 HD
BRANCH  10  13
HETATM   13  C   UNL     1     -37.425 -49.819  11.476  1.00  0.00     0.053 C 
HETATM   14  C   UNL     1     -37.029 -51.079  12.227  1.00  0.00     0.011 C 
ENDBRANCH  10  13
ENDBRANCH   1   7
BRANCH   4  15
HETATM   15  C   UNL     1     -43.897 -53.654  13.112  1.00  0.00     0.131 C 
BRANCH  15  16
HETATM   16  C   UNL     1     -43.892 -53.361  14.598  1.00  0.00     0.035 C 
HETATM   17  C   UNL     1     -44.189 -54.579  15.455  1.00  0.00     0.035 C 
HETATM   18  C   UNL     1     -44.709 -53.990  16.750  1.00  0.00     0.168 C 
HETATM   19  O   UNL     1     -44.892 -52.583  16.541  1.00  0.00    -0.385 OA
HETATM   20  C   UNL     1     -44.897 -52.323  15.115  1.00  0.00     0.130 C 
BRANCH  20  21
HETATM   21  C   UNL     1     -46.373 -52.342  14.631  1.00  0.00     0.007 C 
HETATM   22  C   UNL     1     -47.300 -51.858  15.764  1.00  0.00     0.012 C 
HETATM   23  C   UNL     1     -46.659 -51.462  13.411  1.00  0.00     0.012 C 
ENDBRANCH  20  21
ENDBRANCH  15  16
ENDBRANCH   4  15
TORSDOF 5
ENDMDL
MODEL 7
REMARK VINA RESULT:      -5.5      2.553      3.840
REMARK  5 active torsions:
REMARK  status: ('A' for Active; 'I' for Inactive)
REMARK    1  A    between atoms: C_2  and  C_3 
REMARK    2  A    between atoms: C_6  and  N_7 
REMARK       I    between atoms: N_7  and  C_8 
REMARK       I    between atoms: C_8  and  N_10 
REMARK    3  A    between atoms: N_10  and  C_11 
REMARK    4  A    between atoms: C_11  and  C_12 
REMARK    5  A    between atoms: C_16  and  C_17 
ROOT
HETATM    1  N   UNL     1     -41.775 -49.261  10.834  1.00  0.00    -0.289 N 
HETATM    2  C   UNL     1     -42.071 -49.798  12.057  1.00  0.00     0.322 C 
HETATM    3  O   UNL     1     -42.230 -49.195  13.110  1.00  0.00    -0.247 OA
HETATM    4  N   UNL     1     -42.211 -51.178  11.988  1.00  0.00    -0.342 N 
HETATM    5  H   UNL     1     -41.774 -49.826  10.005  1.00  0.00     0.172 HD
HETATM    6  H   UNL     1     -42.408 -51.572  11.084  1.00  0.00     0.164 HD
ENDROOT
BRANCH   1   7
HETATM    7  C   UNL     1     -41.580 -47.917  10.668  1.00  0.00     0.152 A 
HETATM    8  S   UNL     1     -42.956 -47.060  10.136  1.00  0.00    -0.064 SA
HETATM    9  C   UNL     1     -42.040 -45.607  10.178  1.00  0.00     0.078 A 
HETATM   10  C   UNL     1     -40.737 -45.882  10.551  1.00  0.00     0.017 A 
HETATM   11  N   UNL     1     -40.495 -47.211  10.846  1.00  0.00    -0.340 N 
ATOM     12  HN  UNL     1     -39.600 -47.586  11.158  1.00  0.00     0.168 HD
BRANCH  10  13
HETATM   13  C   UNL     1     -39.603 -44.915  10.653  1.00  0.00     0.053 C 
HETATM   14  C   UNL     1     -38.923 -44.674   9.316  1.00  0.00     0.011 C 
ENDBRANCH  10  13
ENDBRANCH   1   7
BRANCH   4  15
HETATM   15  C   UNL     1     -42.760 -51.849  13.154  1.00  0.00     0.131 C 
BRANCH  15  16
HETATM   16  C   UNL     1     -44.229 -52.192  13.017  1.00  0.00     0.035 C 
HETATM   17  C   UNL     1     -45.154 -51.101  13.528  1.00  0.00     0.035 C 
HETATM   18  C   UNL     1     -46.437 -51.837  13.849  1.00  0.00     0.168 C 
HETATM   19  O   UNL     1     -46.169 -53.241  13.736  1.00  0.00    -0.385 OA
HETATM   20  C   UNL     1     -44.733 -53.441  13.751  1.00  0.00     0.130 C 
BRANCH  20  21
HETATM   21  C   UNL     1     -44.306 -53.723  15.218  1.00  0.00     0.007 C 
HETATM   22  C   UNL     1     -45.535 -54.143  16.049  1.00  0.00     0.012 C 
HETATM   23  C   UNL     1     -43.256 -54.827  15.379  1.00  0.00     0.012 C 
ENDBRANCH  20  21
ENDBRANCH  15  16
ENDBRANCH   4  15
TORSDOF 5
ENDMDL
MODEL 8
REMARK VINA RESULT:      -5.5      3.135      7.153
REMARK  5 active torsions:
REMARK  status: ('A' for Active; 'I' for Inactive)
REMARK    1  A    between atoms: C_2  and  C_3 
REMARK    2  A    between atoms: C_6  and  N_7 
REMARK       I    between atoms: N_7  and  C_8 
REMARK       I    between atoms: C_8  and  N_10 
REMARK    3  A    between atoms: N_10  and  C_11 
REMARK    4  A    between atoms: C_11  and  C_12 
REMARK    5  A    between atoms: C_16  and  C_17 
ROOT
HETATM    1  N   UNL     1     -41.020 -51.435  11.347  1.00  0.00    -0.289 N 
HETATM    2  C   UNL     1     -40.706 -50.229  11.912  1.00  0.00     0.322 C 
HETATM    3  O   UNL     1     -40.936 -49.869  13.059  1.00  0.00    -0.247 OA
HETATM    4  N   UNL     1     -40.037 -49.405  11.017  1.00  0.00    -0.342 N 
HETATM    5  H   UNL     1     -40.691 -51.682  10.432  1.00  0.00     0.172 HD
HETATM    6  H   UNL     1     -39.582 -49.852  10.239  1.00  0.00     0.164 HD
ENDROOT
BRANCH   1   7
HETATM    7  C   UNL     1     -41.695 -52.401  12.043  1.00  0.00     0.152 A 
HETATM    8  S   UNL     1     -40.704 -53.418  12.990  1.00  0.00    -0.064 SA
HETATM    9  C   UNL     1     -42.108 -54.257  13.518  1.00  0.00     0.078 A 
HETATM   10  C   UNL     1     -43.230 -53.732  12.902  1.00  0.00     0.017 A 
HETATM   11  N   UNL     1     -42.976 -52.655  12.072  1.00  0.00    -0.340 N 
ATOM     12  HN  UNL     1     -43.686 -52.135  11.558  1.00  0.00     0.168 HD
BRANCH  10  13
HETATM   13  C   UNL     1     -44.639 -54.207  13.036  1.00  0.00     0.053 C 
HETATM   14  C   UNL     1     -45.650 -53.083  12.884  1.00  0.00     0.011 C 
ENDBRANCH  10  13
ENDBRANCH   1   7
BRANCH   4  15
HETATM   15  C   UNL     1     -39.433 -48.197  11.551  1.00  0.00     0.131 C 
BRANCH  15  16
HETATM   16  C   UNL     1     -40.360 -46.999  11.533  1.00  0.00     0.035 C 
HETATM   17  C   UNL     1     -39.878 -45.876  10.631  1.00  0.00     0.035 C 
HETATM   18  C   UNL     1     -40.558 -44.646  11.194  1.00  0.00     0.168 C 
HETATM   19  O   UNL     1     -41.179 -45.023  12.429  1.00  0.00    -0.385 OA
HETATM   20  C   UNL     1     -40.614 -46.284  12.866  1.00  0.00     0.130 C 
BRANCH  20  21
HETATM   21  C   UNL     1     -39.437 -45.971  13.832  1.00  0.00     0.007 C 
HETATM   22  C   UNL     1     -39.752 -44.697  14.642  1.00  0.00     0.012 C 
HETATM   23  C   UNL     1     -39.124 -47.079  14.842  1.00  0.00     0.012 C 
ENDBRANCH  20  21
ENDBRANCH  15  16
ENDBRANCH   4  15
TORSDOF 5
ENDMDL
MODEL 9
REMARK VINA RESULT:      -5.5      3.820      5.747
REMARK  5 active torsions:
REMARK  status: ('A' for Active; 'I' for Inactive)
REMARK    1  A    between atoms: C_2  and  C_3 
REMARK    2  A    between atoms: C_6  and  N_7 
REMARK       I    between atoms: N_7  and  C_8 
REMARK       I    between atoms: C_8  and  N_10 
REMARK    3  A    between atoms: N_10  and  C_11 
REMARK    4  A    between atoms: C_11  and  C_12 
REMARK    5  A    between atoms: C_16  and  C_17 
ROOT
HETATM    1  N   UNL     1     -41.142 -52.390  12.229  1.00  0.00    -0.289 N 
HETATM    2  C   UNL     1     -40.810 -51.076  12.042  1.00  0.00     0.322 C 
HETATM    3  O   UNL     1     -41.535 -50.102  12.192  1.00  0.00    -0.247 OA
HETATM    4  N   UNL     1     -39.480 -50.933  11.668  1.00  0.00    -0.342 N 
HETATM    5  H   UNL     1     -40.446 -53.112  12.190  1.00  0.00     0.172 HD
HETATM    6  H   UNL     1     -38.860 -51.695  11.888  1.00  0.00     0.164 HD
ENDROOT
BRANCH   1   7
HETATM    7  C   UNL     1     -42.407 -52.767  12.588  1.00  0.00     0.152 A 
HETATM    8  S   UNL     1     -42.478 -54.139  13.600  1.00  0.00    -0.064 SA
HETATM    9  C   UNL     1     -44.191 -53.998  13.634  1.00  0.00     0.078 A 
HETATM   10  C   UNL     1     -44.592 -52.942  12.835  1.00  0.00     0.017 A 
HETATM   11  N   UNL     1     -43.553 -52.235  12.257  1.00  0.00    -0.340 N 
ATOM     12  HN  UNL     1     -43.666 -51.417  11.659  1.00  0.00     0.168 HD
BRANCH  10  13
HETATM   13  C   UNL     1     -45.992 -52.513  12.540  1.00  0.00     0.053 C 
HETATM   14  C   UNL     1     -46.516 -51.505  13.549  1.00  0.00     0.011 C 
ENDBRANCH  10  13
ENDBRANCH   1   7
BRANCH   4  15
HETATM   15  C   UNL     1     -38.929 -49.589  11.672  1.00  0.00     0.131 C 
BRANCH  15  16
HETATM   16  C   UNL     1     -37.867 -49.375  12.731  1.00  0.00     0.035 C 
HETATM   17  C   UNL     1     -37.627 -50.596  13.601  1.00  0.00     0.035 C 
HETATM   18  C   UNL     1     -37.040 -50.022  14.874  1.00  0.00     0.168 C 
HETATM   19  O   UNL     1     -37.156 -48.596  14.796  1.00  0.00    -0.385 OA
HETATM   20  C   UNL     1     -38.112 -48.263  13.760  1.00  0.00     0.130 C 
BRANCH  20  21
HETATM   21  C   UNL     1     -39.504 -48.098  14.430  1.00  0.00     0.007 C 
HETATM   22  C   UNL     1     -39.333 -47.557  15.863  1.00  0.00     0.012 C 
HETATM   23  C   UNL     1     -40.458 -47.146  13.701  1.00  0.00     0.012 C 
ENDBRANCH  20  21
ENDBRANCH  15  16
ENDBRANCH   4  15
TORSDOF 5
ENDMDL
