MODEL 1
REMARK VINA RESULT:      -6.4      0.000      0.000
REMARK  3 active torsions:
REMARK  status: ('A' for Active; 'I' for Inactive)
REMARK    1  A    between atoms: N_5  and  C_6 
REMARK    2  A    between atoms: C_6  and  C_7 
REMARK       I    between atoms: C_7  and  N_9 
REMARK    3  A    between atoms: N_9  and  C_10 
ROOT
HETATM    1  C   UNL     1     -42.015 -52.363  13.062  1.00  0.00     0.236 C 
HETATM    2  O   UNL     1     -41.851 -52.400  14.280  1.00  0.00    -0.272 OA
HETATM    3  N   UNL     1     -43.259 -52.468  12.459  1.00  0.00    -0.355 N 
HETATM    4  H   UNL     1     -43.335 -52.353  11.455  1.00  0.00     0.162 HD
ENDROOT
BRANCH   1   5
HETATM    5  C   UNL     1     -40.841 -52.231  12.089  1.00  0.00     0.234 C 
BRANCH   5   6
HETATM    6  N   UNL     1     -39.864 -51.215  12.475  1.00  0.00    -0.316 N 
HETATM    7  C   UNL     1     -40.047 -49.898  12.093  1.00  0.00     0.095 A 
HETATM    8  C   UNL     1     -39.244 -48.925  12.546  1.00  0.00     0.024 A 
HETATM    9  C   UNL     1     -38.175 -49.232  13.473  1.00  0.00    -0.055 A 
HETATM   10  C   UNL     1     -37.397 -48.100  14.072  1.00  0.00     0.048 C 
HETATM   11  C   UNL     1     -37.935 -50.513  13.798  1.00  0.00     0.081 A 
HETATM   12  C   UNL     1     -38.792 -51.610  13.269  1.00  0.00     0.248 A 
HETATM   13  O   UNL     1     -38.556 -52.774  13.586  1.00  0.00    -0.268 OA
ENDBRANCH   5   6
ENDBRANCH   1   5
BRANCH   3  14
HETATM   14  C   UNL     1     -44.484 -52.637  13.245  1.00  0.00     0.084 C 
HETATM   15  C   UNL     1     -44.883 -54.121  13.279  1.00  0.00     0.025 C 
HETATM   16  C   UNL     1     -46.008 -54.513  14.243  1.00  0.00     0.002 C 
HETATM   17  C   UNL     1     -45.916 -53.884  15.635  1.00  0.00     0.000 C 
HETATM   18  C   UNL     1     -46.846 -52.688  15.867  1.00  0.00     0.000 C 
HETATM   19  C   UNL     1     -46.573 -51.410  15.067  1.00  0.00     0.000 C 
HETATM   20  C   UNL     1     -46.829 -51.532  13.562  1.00  0.00     0.002 C 
HETATM   21  C   UNL     1     -45.577 -51.712  12.697  1.00  0.00     0.025 C 
ENDBRANCH   3  14
TORSDOF 3
ENDMDL
MODEL 2
REMARK VINA RESULT:      -6.2      2.016      2.532
REMARK  3 active torsions:
REMARK  status: ('A' for Active; 'I' for Inactive)
REMARK    1  A    between atoms: N_5  and  C_6 
REMARK    2  A    between atoms: C_6  and  C_7 
REMARK       I    between atoms: C_7  and  N_9 
REMARK    3  A    between atoms: N_9  and  C_10 
ROOT
HETATM    1  C   UNL     1     -42.111 -51.006  12.827  1.00  0.00     0.236 C 
HETATM    2  O   UNL     1     -42.178 -50.490  13.941  1.00  0.00    -0.272 OA
HETATM    3  N   UNL     1     -43.053 -51.903  12.348  1.00  0.00    -0.355 N 
HETATM    4  H   UNL     1     -42.982 -52.234  11.393  1.00  0.00     0.162 HD
ENDROOT
BRANCH   1   5
HETATM    5  C   UNL     1     -40.949 -50.727  11.871  1.00  0.00     0.234 C 
BRANCH   5   6
HETATM    6  N   UNL     1     -40.809 -49.319  11.506  1.00  0.00    -0.316 N 
HETATM    7  C   UNL     1     -41.813 -48.684  10.797  1.00  0.00     0.095 A 
HETATM    8  C   UNL     1     -41.774 -47.364  10.568  1.00  0.00     0.024 A 
HETATM    9  C   UNL     1     -40.683 -46.565  11.084  1.00  0.00    -0.055 A 
HETATM   10  C   UNL     1     -40.753 -45.075  10.938  1.00  0.00     0.048 C 
HETATM   11  C   UNL     1     -39.662 -47.172  11.711  1.00  0.00     0.081 A 
HETATM   12  C   UNL     1     -39.670 -48.645  11.936  1.00  0.00     0.248 A 
HETATM   13  O   UNL     1     -38.727 -49.177  12.516  1.00  0.00    -0.268 OA
ENDBRANCH   5   6
ENDBRANCH   1   5
BRANCH   3  14
HETATM   14  C   UNL     1     -44.210 -52.308  13.151  1.00  0.00     0.084 C 
HETATM   15  C   UNL     1     -44.489 -53.806  12.948  1.00  0.00     0.025 C 
HETATM   16  C   UNL     1     -45.518 -54.450  13.884  1.00  0.00     0.002 C 
HETATM   17  C   UNL     1     -45.388 -54.058  15.357  1.00  0.00     0.000 C 
HETATM   18  C   UNL     1     -46.391 -53.004  15.837  1.00  0.00     0.000 C 
HETATM   19  C   UNL     1     -46.269 -51.591  15.257  1.00  0.00     0.000 C 
HETATM   20  C   UNL     1     -46.609 -51.481  13.768  1.00  0.00     0.002 C 
HETATM   21  C   UNL     1     -45.404 -51.402  12.825  1.00  0.00     0.025 C 
ENDBRANCH   3  14
TORSDOF 3
ENDMDL
MODEL 3
REMARK VINA RESULT:      -6.0      1.604      2.177
REMARK  3 active torsions:
REMARK  status: ('A' for Active; 'I' for Inactive)
REMARK    1  A    between atoms: N_5  and  C_6 
REMARK    2  A    between atoms: C_6  and  C_7 
REMARK       I    between atoms: C_7  and  N_9 
REMARK    3  A    between atoms: N_9  and  C_10 
ROOT
HETATM    1  C   UNL     1     -41.721 -50.170  12.045  1.00  0.00     0.236 C 
HETATM    2  O   UNL     1     -42.491 -49.215  12.115  1.00  0.00    -0.272 OA
HETATM    3  N   UNL     1     -42.029 -51.432  12.528  1.00  0.00    -0.355 N 
HETATM    4  H   UNL     1     -41.381 -52.195  12.372  1.00  0.00     0.162 HD
ENDROOT
BRANCH   1   5
HETATM    5  C   UNL     1     -40.319 -50.040  11.443  1.00  0.00     0.234 C 
BRANCH   5   6
HETATM    6  N   UNL     1     -39.306 -49.591  12.395  1.00  0.00    -0.316 N 
HETATM    7  C   UNL     1     -39.203 -48.250  12.717  1.00  0.00     0.095 A 
HETATM    8  C   UNL     1     -38.379 -47.828  13.685  1.00  0.00     0.024 A 
HETATM    9  C   UNL     1     -37.590 -48.780  14.439  1.00  0.00    -0.055 A 
HETATM   10  C   UNL     1     -36.796 -48.286  15.611  1.00  0.00     0.048 C 
HETATM   11  C   UNL     1     -37.619 -50.078  14.094  1.00  0.00     0.081 A 
HETATM   12  C   UNL     1     -38.499 -50.556  12.991  1.00  0.00     0.248 A 
HETATM   13  O   UNL     1     -38.513 -51.749  12.697  1.00  0.00    -0.268 OA
ENDBRANCH   5   6
ENDBRANCH   1   5
BRANCH   3  14
HETATM   14  C   UNL     1     -43.315 -51.719  13.169  1.00  0.00     0.084 C 
HETATM   15  C   UNL     1     -43.104 -51.993  14.666  1.00  0.00     0.025 C 
HETATM   16  C   UNL     1     -44.362 -52.086  15.537  1.00  0.00     0.002 C 
HETATM   17  C   UNL     1     -45.416 -51.010  15.266  1.00  0.00     0.000 C 
HETATM   18  C   UNL     1     -46.607 -51.470  14.417  1.00  0.00     0.000 C 
HETATM   19  C   UNL     1     -46.337 -51.837  12.955  1.00  0.00     0.000 C 
HETATM   20  C   UNL     1     -45.494 -53.100  12.759  1.00  0.00     0.002 C 
HETATM   21  C   UNL     1     -44.019 -52.857  12.420  1.00  0.00     0.025 C 
ENDBRANCH   3  14
TORSDOF 3
ENDMDL
MODEL 4
REMARK VINA RESULT:      -5.8      1.821      7.184
REMARK  3 active torsions:
REMARK  status: ('A' for Active; 'I' for Inactive)
REMARK    1  A    between atoms: N_5  and  C_6 
REMARK    2  A    between atoms: C_6  and  C_7 
REMARK       I    between atoms: C_7  and  N_9 
REMARK    3  A    between atoms: N_9  and  C_10 
ROOT
HETATM    1  C   UNL     1     -41.932 -52.858  13.091  1.00  0.00     0.236 C 
HETATM    2  O   UNL     1     -42.153 -52.384  11.979  1.00  0.00    -0.272 OA
HETATM    3  N   UNL     1     -40.863 -52.470  13.884  1.00  0.00    -0.355 N 
HETATM    4  H   UNL     1     -40.779 -52.844  14.822  1.00  0.00     0.162 HD
ENDROOT
BRANCH   1   5
HETATM    5  C   UNL     1     -42.808 -53.959  13.693  1.00  0.00     0.234 C 
BRANCH   5   6
HETATM    6  N   UNL     1     -44.021 -53.463  14.339  1.00  0.00    -0.316 N 
HETATM    7  C   UNL     1     -43.935 -52.745  15.517  1.00  0.00     0.095 A 
HETATM    8  C   UNL     1     -45.014 -52.162  16.057  1.00  0.00     0.024 A 
HETATM    9  C   UNL     1     -46.300 -52.253  15.398  1.00  0.00    -0.055 A 
HETATM   10  C   UNL     1     -47.447 -51.463  15.951  1.00  0.00     0.048 C 
HETATM   11  C   UNL     1     -46.420 -53.007  14.293  1.00  0.00     0.081 A 
HETATM   12  C   UNL     1     -45.238 -53.696  13.704  1.00  0.00     0.248 A 
HETATM   13  O   UNL     1     -45.372 -54.376  12.690  1.00  0.00    -0.268 OA
ENDBRANCH   5   6
ENDBRANCH   1   5
BRANCH   3  14
HETATM   14  C   UNL     1     -39.905 -51.453  13.442  1.00  0.00     0.084 C 
HETATM   15  C   UNL     1     -38.496 -51.808  13.942  1.00  0.00     0.025 C 
HETATM   16  C   UNL     1     -37.334 -50.980  13.382  1.00  0.00     0.002 C 
HETATM   17  C   UNL     1     -37.389 -50.725  11.874  1.00  0.00     0.000 C 
HETATM   18  C   UNL     1     -37.886 -49.332  11.472  1.00  0.00     0.000 C 
HETATM   19  C   UNL     1     -39.347 -48.984  11.772  1.00  0.00     0.000 C 
HETATM   20  C   UNL     1     -39.680 -48.857  13.262  1.00  0.00     0.002 C 
HETATM   21  C   UNL     1     -40.390 -50.066  13.880  1.00  0.00     0.025 C 
ENDBRANCH   3  14
TORSDOF 3
ENDMDL
MODEL 5
REMARK VINA RESULT:      -5.7      1.753      6.950
REMARK  3 active torsions:
REMARK  status: ('A' for Active; 'I' for Inactive)
REMARK    1  A    between atoms: N_5  and  C_6 
REMARK    2  A    between atoms: C_6  and  C_7 
REMARK       I    between atoms: C_7  and  N_9 
REMARK    3  A    between atoms: N_9  and  C_10 
ROOT
HETATM    1  C   UNL     1     -42.668 -53.493  12.943  1.00  0.00     0.236 C 
HETATM    2  O   UNL     1     -41.685 -54.218  13.078  1.00  0.00    -0.272 OA
HETATM    3  N   UNL     1     -42.597 -52.109  12.936  1.00  0.00    -0.355 N 
HETATM    4  H   UNL     1     -43.433 -51.569  12.745  1.00  0.00     0.162 HD
ENDROOT
BRANCH   1   5
HETATM    5  C   UNL     1     -44.083 -54.061  12.803  1.00  0.00     0.234 C 
BRANCH   5   6
HETATM    6  N   UNL     1     -45.058 -53.447  13.702  1.00  0.00    -0.316 N 
HETATM    7  C   UNL     1     -44.941 -53.614  15.070  1.00  0.00     0.095 A 
HETATM    8  C   UNL     1     -45.735 -52.952  15.922  1.00  0.00     0.024 A 
HETATM    9  C   UNL     1     -46.726 -52.022  15.424  1.00  0.00    -0.055 A 
HETATM   10  C   UNL     1     -47.491 -51.191  16.410  1.00  0.00     0.048 C 
HETATM   11  C   UNL     1     -46.907 -51.900  14.098  1.00  0.00     0.081 A 
HETATM   12  C   UNL     1     -46.059 -52.661  13.138  1.00  0.00     0.248 A 
HETATM   13  O   UNL     1     -46.239 -52.529  11.930  1.00  0.00    -0.268 OA
ENDBRANCH   5   6
ENDBRANCH   1   5
BRANCH   3  14
HETATM   14  C   UNL     1     -41.323 -51.403  13.097  1.00  0.00     0.084 C 
HETATM   15  C   UNL     1     -40.989 -51.258  14.589  1.00  0.00     0.025 C 
HETATM   16  C   UNL     1     -39.586 -50.750  14.939  1.00  0.00     0.002 C 
HETATM   17  C   UNL     1     -38.450 -51.377  14.127  1.00  0.00     0.000 C 
HETATM   18  C   UNL     1     -37.911 -50.505  12.987  1.00  0.00     0.000 C 
HETATM   19  C   UNL     1     -38.846 -50.220  11.808  1.00  0.00     0.000 C 
HETATM   20  C   UNL     1     -40.047 -49.332  12.146  1.00  0.00     0.002 C 
HETATM   21  C   UNL     1     -41.375 -50.071  12.339  1.00  0.00     0.025 C 
ENDBRANCH   3  14
TORSDOF 3
ENDMDL
MODEL 6
REMARK VINA RESULT:      -5.7      2.548      6.487
REMARK  3 active torsions:
REMARK  status: ('A' for Active; 'I' for Inactive)
REMARK    1  A    between atoms: N_5  and  C_6 
REMARK    2  A    between atoms: C_6  and  C_7 
REMARK       I    between atoms: C_7  and  N_9 
REMARK    3  A    between atoms: N_9  and  C_10 
ROOT
HETATM    1  C   UNL     1     -40.978 -51.074  12.542  1.00  0.00     0.236 C 
HETATM    2  O   UNL     1     -40.282 -50.587  13.430  1.00  0.00    -0.272 OA
HETATM    3  N   UNL     1     -41.763 -50.313  11.689  1.00  0.00    -0.355 N 
HETATM    4  H   UNL     1     -42.255 -50.769  10.929  1.00  0.00     0.162 HD
ENDROOT
BRANCH   1   5
HETATM    5  C   UNL     1     -41.069 -52.585  12.318  1.00  0.00     0.234 C 
BRANCH   5   6
HETATM    6  N   UNL     1     -42.284 -53.190  12.858  1.00  0.00    -0.316 N 
HETATM    7  C   UNL     1     -43.513 -52.897  12.295  1.00  0.00     0.095 A 
HETATM    8  C   UNL     1     -44.625 -53.540  12.678  1.00  0.00     0.024 A 
HETATM    9  C   UNL     1     -44.557 -54.581  13.682  1.00  0.00    -0.055 A 
HETATM   10  C   UNL     1     -45.793 -55.377  13.975  1.00  0.00     0.048 C 
HETATM   11  C   UNL     1     -43.387 -54.829  14.294  1.00  0.00     0.081 A 
HETATM   12  C   UNL     1     -42.151 -54.093  13.908  1.00  0.00     0.248 A 
HETATM   13  O   UNL     1     -41.092 -54.342  14.479  1.00  0.00    -0.268 OA
ENDBRANCH   5   6
ENDBRANCH   1   5
BRANCH   3  14
HETATM   14  C   UNL     1     -41.821 -48.853  11.792  1.00  0.00     0.084 C 
HETATM   15  C   UNL     1     -42.911 -48.441  12.792  1.00  0.00     0.025 C 
HETATM   16  C   UNL     1     -42.957 -46.963  13.197  1.00  0.00     0.002 C 
HETATM   17  C   UNL     1     -41.597 -46.332  13.499  1.00  0.00     0.000 C 
HETATM   18  C   UNL     1     -41.022 -45.465  12.374  1.00  0.00     0.000 C 
HETATM   19  C   UNL     1     -40.618 -46.164  11.072  1.00  0.00     0.000 C 
HETATM   20  C   UNL     1     -41.787 -46.734  10.264  1.00  0.00     0.002 C 
HETATM   21  C   UNL     1     -41.998 -48.246  10.394  1.00  0.00     0.025 C 
ENDBRANCH   3  14
TORSDOF 3
ENDMDL
MODEL 7
REMARK VINA RESULT:      -5.7      1.858      2.323
REMARK  3 active torsions:
REMARK  status: ('A' for Active; 'I' for Inactive)
REMARK    1  A    between atoms: N_5  and  C_6 
REMARK    2  A    between atoms: C_6  and  C_7 
REMARK       I    between atoms: C_7  and  N_9 
REMARK    3  A    between atoms: N_9  and  C_10 
ROOT
HETATM    1  C   UNL     1     -41.402 -53.729  15.124  1.00  0.00     0.236 C 
HETATM    2  O   UNL     1     -41.942 -54.079  16.171  1.00  0.00    -0.272 OA
HETATM    3  N   UNL     1     -42.106 -53.241  14.033  1.00  0.00    -0.355 N 
HETATM    4  H   UNL     1     -41.597 -52.897  13.228  1.00  0.00     0.162 HD
ENDROOT
BRANCH   1   5
HETATM    5  C   UNL     1     -39.890 -53.834  14.914  1.00  0.00     0.234 C 
BRANCH   5   6
HETATM    6  N   UNL     1     -39.176 -52.576  15.121  1.00  0.00    -0.316 N 
HETATM    7  C   UNL     1     -38.766 -52.212  16.391  1.00  0.00     0.095 A 
HETATM    8  C   UNL     1     -37.992 -51.137  16.590  1.00  0.00     0.024 A 
HETATM    9  C   UNL     1     -37.546 -50.339  15.467  1.00  0.00    -0.055 A 
HETATM   10  C   UNL     1     -36.562 -49.236  15.716  1.00  0.00     0.048 C 
HETATM   11  C   UNL     1     -37.993 -50.631  14.234  1.00  0.00     0.081 A 
HETATM   12  C   UNL     1     -38.888 -51.799  14.002  1.00  0.00     0.248 A 
HETATM   13  O   UNL     1     -39.280 -52.050  12.865  1.00  0.00    -0.268 OA
ENDBRANCH   5   6
ENDBRANCH   1   5
BRANCH   3  14
HETATM   14  C   UNL     1     -43.565 -53.111  14.054  1.00  0.00     0.084 C 
HETATM   15  C   UNL     1     -44.215 -54.450  13.669  1.00  0.00     0.025 C 
HETATM   16  C   UNL     1     -45.732 -54.563  13.860  1.00  0.00     0.002 C 
HETATM   17  C   UNL     1     -46.262 -53.995  15.178  1.00  0.00     0.000 C 
HETATM   18  C   UNL     1     -46.907 -52.608  15.072  1.00  0.00     0.000 C 
HETATM   19  C   UNL     1     -45.999 -51.428  14.713  1.00  0.00     0.000 C 
HETATM   20  C   UNL     1     -45.441 -51.462  13.288  1.00  0.00     0.002 C 
HETATM   21  C   UNL     1     -43.988 -51.936  13.164  1.00  0.00     0.025 C 
ENDBRANCH   3  14
TORSDOF 3
ENDMDL
MODEL 8
REMARK VINA RESULT:      -5.6      2.972      3.894
REMARK  3 active torsions:
REMARK  status: ('A' for Active; 'I' for Inactive)
REMARK    1  A    between atoms: N_5  and  C_6 
REMARK    2  A    between atoms: C_6  and  C_7 
REMARK       I    between atoms: C_7  and  N_9 
REMARK    3  A    between atoms: N_9  and  C_10 
ROOT
HETATM    1  C   UNL     1     -41.686 -50.397  12.116  1.00  0.00     0.236 C 
HETATM    2  O   UNL     1     -42.069 -49.814  13.128  1.00  0.00    -0.272 OA
HETATM    3  N   UNL     1     -41.917 -51.743  11.880  1.00  0.00    -0.355 N 
HETATM    4  H   UNL     1     -41.641 -52.146  10.993  1.00  0.00     0.162 HD
ENDROOT
BRANCH   1   5
HETATM    5  C   UNL     1     -40.877 -49.687  11.028  1.00  0.00     0.234 C 
BRANCH   5   6
HETATM    6  N   UNL     1     -40.862 -48.231  11.157  1.00  0.00    -0.316 N 
HETATM    7  C   UNL     1     -39.907 -47.616  11.945  1.00  0.00     0.095 A 
HETATM    8  C   UNL     1     -39.783 -46.282  11.973  1.00  0.00     0.024 A 
HETATM    9  C   UNL     1     -40.640 -45.451  11.153  1.00  0.00    -0.055 A 
HETATM   10  C   UNL     1     -40.372 -43.978  11.098  1.00  0.00     0.048 C 
HETATM   11  C   UNL     1     -41.623 -46.024  10.439  1.00  0.00     0.081 A 
HETATM   12  C   UNL     1     -41.799 -47.503  10.430  1.00  0.00     0.248 A 
HETATM   13  O   UNL     1     -42.702 -48.005   9.764  1.00  0.00    -0.268 OA
ENDBRANCH   5   6
ENDBRANCH   1   5
BRANCH   3  14
HETATM   14  C   UNL     1     -42.643 -52.580  12.840  1.00  0.00     0.084 C 
HETATM   15  C   UNL     1     -41.748 -53.738  13.307  1.00  0.00     0.025 C 
HETATM   16  C   UNL     1     -42.262 -54.579  14.481  1.00  0.00     0.002 C 
HETATM   17  C   UNL     1     -42.860 -53.777  15.639  1.00  0.00     0.000 C 
HETATM   18  C   UNL     1     -44.391 -53.740  15.678  1.00  0.00     0.000 C 
HETATM   19  C   UNL     1     -45.113 -53.000  14.547  1.00  0.00     0.000 C 
HETATM   20  C   UNL     1     -44.996 -53.664  13.173  1.00  0.00     0.002 C 
HETATM   21  C   UNL     1     -43.973 -53.030  12.223  1.00  0.00     0.025 C 
ENDBRANCH   3  14
TORSDOF 3
ENDMDL
MODEL 9
REMARK VINA RESULT:      -5.6      3.723      4.749
REMARK  3 active torsions:
REMARK  status: ('A' for Active; 'I' for Inactive)
REMARK    1  A    between atoms: N_5  and  C_6 
REMARK    2  A    between atoms: C_6  and  C_7 
REMARK       I    between atoms: C_7  and  N_9 
REMARK    3  A    between atoms: N_9  and  C_10 
ROOT
HETATM    1  C   UNL     1     -42.386 -48.788  11.418  1.00  0.00     0.236 C 
HETATM    2  O   UNL     1     -43.504 -48.313  11.609  1.00  0.00    -0.272 OA
HETATM    3  N   UNL     1     -42.011 -50.049  11.856  1.00  0.00    -0.355 N 
HETATM    4  H   UNL     1     -41.100 -50.412  11.601  1.00  0.00     0.162 HD
ENDROOT
BRANCH   1   5
HETATM    5  C   UNL     1     -41.282 -48.004  10.703  1.00  0.00     0.234 C 
BRANCH   5   6
HETATM    6  N   UNL     1     -40.971 -46.720  11.326  1.00  0.00    -0.316 N 
HETATM    7  C   UNL     1     -40.256 -46.679  12.510  1.00  0.00     0.095 A 
HETATM    8  C   UNL     1     -39.838 -45.517  13.030  1.00  0.00     0.024 A 
HETATM    9  C   UNL     1     -40.108 -44.271  12.345  1.00  0.00    -0.055 A 
HETATM   10  C   UNL     1     -39.497 -43.011  12.879  1.00  0.00     0.048 C 
HETATM   11  C   UNL     1     -40.864 -44.281  11.234  1.00  0.00     0.081 A 
HETATM   12  C   UNL     1     -41.371 -45.562  10.667  1.00  0.00     0.248 A 
HETATM   13  O   UNL     1     -42.056 -45.547   9.646  1.00  0.00    -0.268 OA
ENDBRANCH   5   6
ENDBRANCH   1   5
BRANCH   3  14
HETATM   14  C   UNL     1     -42.936 -50.916  12.590  1.00  0.00     0.084 C 
HETATM   15  C   UNL     1     -43.001 -50.483  14.063  1.00  0.00     0.025 C 
HETATM   16  C   UNL     1     -44.088 -51.131  14.928  1.00  0.00     0.002 C 
HETATM   17  C   UNL     1     -45.466 -51.227  14.269  1.00  0.00     0.000 C 
HETATM   18  C   UNL     1     -45.821 -52.611  13.712  1.00  0.00     0.000 C 
HETATM   19  C   UNL     1     -45.009 -53.127  12.521  1.00  0.00     0.000 C 
HETATM   20  C   UNL     1     -43.544 -53.444  12.836  1.00  0.00     0.002 C 
HETATM   21  C   UNL     1     -42.533 -52.382  12.390  1.00  0.00     0.025 C 
ENDBRANCH   3  14
TORSDOF 3
ENDMDL
