MODEL 1
REMARK VINA RESULT:      -6.4      0.000      0.000
REMARK  6 active torsions:
REMARK  status: ('A' for Active; 'I' for Inactive)
REMARK    1  A    between atoms: N_2  and  C_3 
REMARK    2  A    between atoms: N_2  and  S_21 
REMARK    3  A    between atoms: C_3  and  C_4 
REMARK       I    between atoms: C_4  and  N_6 
REMARK    4  A    between atoms: N_6  and  C_7 
REMARK    5  A    between atoms: C_7  and  C_8 
REMARK    6  A    between atoms: C_11  and  N_15 
ROOT
HETATM    1  C   UNL     1     -41.089 -50.691  12.365  1.00  0.00    -0.025 A 
HETATM    2  C   UNL     1     -42.242 -49.996  12.715  1.00  0.00     0.014 A 
HETATM    3  C   UNL     1     -42.642 -48.894  11.953  1.00  0.00     0.049 A 
HETATM    4  C   UNL     1     -41.897 -48.494  10.845  1.00  0.00     0.103 A 
HETATM    5  N   UNL     1     -40.754 -49.144  10.530  1.00  0.00    -0.352 N 
ATOM      6  HN  UNL     1     -40.190 -48.844   9.735  1.00  0.00     0.166 HD
HETATM    7  C   UNL     1     -40.370 -50.199  11.289  1.00  0.00     0.098 A 
ENDROOT
BRANCH   1   8
HETATM    8  C   UNL     1     -40.684 -51.951  13.063  1.00  0.00     0.162 C 
BRANCH   8   9
HETATM    9  N   UNL     1     -41.792 -52.782  13.471  1.00  0.00    -0.356 N 
HETATM   10  C   UNL     1     -41.546 -53.818  14.346  1.00  0.00     0.232 C 
HETATM   11  O   UNL     1     -40.446 -54.011  14.864  1.00  0.00    -0.272 OA
HETATM   12  H   UNL     1     -42.628 -52.817  12.889  1.00  0.00     0.162 HD
BRANCH  10  13
HETATM   13  C   UNL     1     -42.725 -54.736  14.630  1.00  0.00     0.209 C 
BRANCH  13  14
HETATM   14  N   UNL     1     -44.015 -54.020  14.817  1.00  0.00    -0.206 NA
HETATM   15  C   UNL     1     -44.485 -54.027  16.223  1.00  0.00     0.129 C 
BRANCH  14  16
HETATM   16  S   UNL     1     -45.200 -54.343  13.648  1.00  0.00     0.207 S 
HETATM   17  O   UNL     1     -44.614 -54.089  12.348  1.00  0.00    -0.212 OA
HETATM   18  O   UNL     1     -45.801 -55.622  13.949  1.00  0.00    -0.212 OA
HETATM   19  C   UNL     1     -46.379 -53.047  13.984  1.00  0.00     0.180 C 
ENDBRANCH  14  16
ENDBRANCH  13  14
ENDBRANCH  10  13
ENDBRANCH   8   9
ENDBRANCH   1   8
BRANCH   4  20
HETATM   20  N   UNL     1     -42.293 -47.460  10.035  1.00  0.00    -0.363 N 
HETATM   21  C   UNL     1     -41.751 -46.114  10.247  1.00  0.00     0.150 C 
HETATM   22  C   UNL     1     -42.888 -45.085  10.276  1.00  0.00     0.187 C 
HETATM   23  O   UNL     1     -43.728 -45.187   9.112  1.00  0.00    -0.388 OA
HETATM   24  C   UNL     1     -44.309 -46.500   9.039  1.00  0.00     0.187 C 
HETATM   25  C   UNL     1     -43.231 -47.593   8.924  1.00  0.00     0.150 C 
ENDBRANCH   4  20
TORSDOF 6
ENDMDL
MODEL 2
REMARK VINA RESULT:      -6.0      1.745      2.150
REMARK  6 active torsions:
REMARK  status: ('A' for Active; 'I' for Inactive)
REMARK    1  A    between atoms: N_2  and  C_3 
REMARK    2  A    between atoms: N_2  and  S_21 
REMARK    3  A    between atoms: C_3  and  C_4 
REMARK       I    between atoms: C_4  and  N_6 
REMARK    4  A    between atoms: N_6  and  C_7 
REMARK    5  A    between atoms: C_7  and  C_8 
REMARK    6  A    between atoms: C_11  and  N_15 
ROOT
HETATM    1  C   UNL     1     -39.718 -49.811  12.229  1.00  0.00    -0.025 A 
HETATM    2  C   UNL     1     -39.142 -48.660  12.755  1.00  0.00     0.014 A 
HETATM    3  C   UNL     1     -39.483 -47.412  12.225  1.00  0.00     0.049 A 
HETATM    4  C   UNL     1     -40.399 -47.316  11.180  1.00  0.00     0.103 A 
HETATM    5  N   UNL     1     -40.927 -48.437  10.640  1.00  0.00    -0.352 N 
ATOM      6  HN  UNL     1     -41.581 -48.378   9.860  1.00  0.00     0.166 HD
HETATM    7  C   UNL     1     -40.573 -49.640  11.153  1.00  0.00     0.098 A 
ENDROOT
BRANCH   1   8
HETATM    8  C   UNL     1     -39.490 -51.159  12.839  1.00  0.00     0.162 C 
BRANCH   8   9
HETATM    9  N   UNL     1     -40.660 -52.002  12.858  1.00  0.00    -0.356 N 
HETATM   10  C   UNL     1     -40.499 -53.341  13.146  1.00  0.00     0.232 C 
HETATM   11  O   UNL     1     -39.417 -53.829  13.474  1.00  0.00    -0.272 OA
HETATM   12  H   UNL     1     -41.497 -51.705  12.357  1.00  0.00     0.162 HD
BRANCH  10  13
HETATM   13  C   UNL     1     -41.747 -54.200  13.017  1.00  0.00     0.209 C 
BRANCH  13  14
HETATM   14  N   UNL     1     -42.659 -54.117  14.189  1.00  0.00    -0.206 NA
HETATM   15  C   UNL     1     -42.226 -54.969  15.323  1.00  0.00     0.129 C 
BRANCH  14  16
HETATM   16  S   UNL     1     -44.314 -54.167  13.826  1.00  0.00     0.207 S 
HETATM   17  O   UNL     1     -44.445 -54.262  12.387  1.00  0.00    -0.212 OA
HETATM   18  O   UNL     1     -44.941 -55.141  14.690  1.00  0.00    -0.212 OA
HETATM   19  C   UNL     1     -44.826 -52.531  14.319  1.00  0.00     0.180 C 
ENDBRANCH  14  16
ENDBRANCH  13  14
ENDBRANCH  10  13
ENDBRANCH   8   9
ENDBRANCH   1   8
BRANCH   4  20
HETATM   20  N   UNL     1     -40.808 -46.107  10.678  1.00  0.00    -0.363 N 
HETATM   21  C   UNL     1     -39.818 -45.073  10.356  1.00  0.00     0.150 C 
HETATM   22  C   UNL     1     -40.240 -43.730  10.966  1.00  0.00     0.187 C 
HETATM   23  O   UNL     1     -41.583 -43.373  10.590  1.00  0.00    -0.388 OA
HETATM   24  C   UNL     1     -42.503 -44.382  11.040  1.00  0.00     0.187 C 
HETATM   25  C   UNL     1     -42.199 -45.752  10.407  1.00  0.00     0.150 C 
ENDBRANCH   4  20
TORSDOF 6
ENDMDL
MODEL 3
REMARK VINA RESULT:      -6.0      2.904      7.649
REMARK  6 active torsions:
REMARK  status: ('A' for Active; 'I' for Inactive)
REMARK    1  A    between atoms: N_2  and  C_3 
REMARK    2  A    between atoms: N_2  and  S_21 
REMARK    3  A    between atoms: C_3  and  C_4 
REMARK       I    between atoms: C_4  and  N_6 
REMARK    4  A    between atoms: N_6  and  C_7 
REMARK    5  A    between atoms: C_7  and  C_8 
REMARK    6  A    between atoms: C_11  and  N_15 
ROOT
HETATM    1  C   UNL     1     -39.930 -50.948  12.276  1.00  0.00    -0.025 A 
HETATM    2  C   UNL     1     -39.709 -51.758  13.384  1.00  0.00     0.014 A 
HETATM    3  C   UNL     1     -40.687 -52.678  13.774  1.00  0.00     0.049 A 
HETATM    4  C   UNL     1     -41.876 -52.790  13.056  1.00  0.00     0.103 A 
HETATM    5  N   UNL     1     -42.109 -51.973  12.005  1.00  0.00    -0.352 N 
ATOM      6  HN  UNL     1     -42.986 -52.032  11.488  1.00  0.00     0.166 HD
HETATM    7  C   UNL     1     -41.159 -51.075  11.650  1.00  0.00     0.098 A 
ENDROOT
BRANCH   1   8
HETATM    8  C   UNL     1     -38.869 -50.040  11.737  1.00  0.00     0.162 C 
BRANCH   8   9
HETATM    9  N   UNL     1     -39.322 -48.694  11.477  1.00  0.00    -0.356 N 
HETATM   10  C   UNL     1     -39.318 -47.790  12.517  1.00  0.00     0.232 C 
HETATM   11  O   UNL     1     -38.865 -48.052  13.631  1.00  0.00    -0.272 OA
HETATM   12  H   UNL     1     -39.924 -48.518  10.673  1.00  0.00     0.162 HD
BRANCH  10  13
HETATM   13  C   UNL     1     -39.932 -46.431  12.213  1.00  0.00     0.209 C 
BRANCH  13  14
HETATM   14  N   UNL     1     -40.306 -46.245  10.786  1.00  0.00    -0.206 NA
HETATM   15  C   UNL     1     -39.764 -44.994  10.203  1.00  0.00     0.129 C 
BRANCH  14  16
HETATM   16  S   UNL     1     -41.922 -46.589  10.409  1.00  0.00     0.207 S 
HETATM   17  O   UNL     1     -42.396 -45.547   9.521  1.00  0.00    -0.212 OA
HETATM   18  O   UNL     1     -42.016 -47.980  10.029  1.00  0.00    -0.212 OA
HETATM   19  C   UNL     1     -42.705 -46.360  11.995  1.00  0.00     0.180 C 
ENDBRANCH  14  16
ENDBRANCH  13  14
ENDBRANCH  10  13
ENDBRANCH   8   9
ENDBRANCH   1   8
BRANCH   4  20
HETATM   20  N   UNL     1     -42.830 -53.724  13.368  1.00  0.00    -0.363 N 
HETATM   21  C   UNL     1     -44.054 -53.820  12.566  1.00  0.00     0.150 C 
HETATM   22  C   UNL     1     -45.285 -53.852  13.481  1.00  0.00     0.187 C 
HETATM   23  O   UNL     1     -45.177 -54.879  14.483  1.00  0.00    -0.388 OA
HETATM   24  C   UNL     1     -44.014 -54.650  15.298  1.00  0.00     0.187 C 
HETATM   25  C   UNL     1     -42.720 -54.683  14.464  1.00  0.00     0.150 C 
ENDBRANCH   4  20
TORSDOF 6
ENDMDL
MODEL 4
REMARK VINA RESULT:      -6.0      2.096      2.480
REMARK  6 active torsions:
REMARK  status: ('A' for Active; 'I' for Inactive)
REMARK    1  A    between atoms: N_2  and  C_3 
REMARK    2  A    between atoms: N_2  and  S_21 
REMARK    3  A    between atoms: C_3  and  C_4 
REMARK       I    between atoms: C_4  and  N_6 
REMARK    4  A    between atoms: N_6  and  C_7 
REMARK    5  A    between atoms: C_7  and  C_8 
REMARK    6  A    between atoms: C_11  and  N_15 
ROOT
HETATM    1  C   UNL     1     -41.556 -50.020  11.911  1.00  0.00    -0.025 A 
HETATM    2  C   UNL     1     -42.621 -49.183  12.227  1.00  0.00     0.014 A 
HETATM    3  C   UNL     1     -42.575 -47.836  11.854  1.00  0.00     0.049 A 
HETATM    4  C   UNL     1     -41.473 -47.332  11.164  1.00  0.00     0.103 A 
HETATM    5  N   UNL     1     -40.421 -48.136  10.895  1.00  0.00    -0.352 N 
ATOM      6  HN  UNL     1     -39.600 -47.771  10.411  1.00  0.00     0.166 HD
HETATM    7  C   UNL     1     -40.473 -49.434  11.278  1.00  0.00     0.098 A 
ENDROOT
BRANCH   1   8
HETATM    8  C   UNL     1     -41.606 -51.494  12.169  1.00  0.00     0.162 C 
BRANCH   8   9
HETATM    9  N   UNL     1     -42.941 -52.020  12.324  1.00  0.00    -0.356 N 
HETATM   10  C   UNL     1     -43.089 -53.285  12.852  1.00  0.00     0.232 C 
HETATM   11  O   UNL     1     -42.143 -53.948  13.278  1.00  0.00    -0.272 OA
HETATM   12  H   UNL     1     -43.699 -51.628  11.766  1.00  0.00     0.162 HD
BRANCH  10  13
HETATM   13  C   UNL     1     -44.508 -53.834  12.863  1.00  0.00     0.209 C 
BRANCH  13  14
HETATM   14  N   UNL     1     -45.270 -53.507  14.097  1.00  0.00    -0.206 NA
HETATM   15  C   UNL     1     -46.101 -54.635  14.583  1.00  0.00     0.129 C 
BRANCH  14  16
HETATM   16  S   UNL     1     -46.023 -51.988  14.104  1.00  0.00     0.207 S 
HETATM   17  O   UNL     1     -47.186 -52.078  14.962  1.00  0.00    -0.212 OA
HETATM   18  O   UNL     1     -45.013 -50.980  14.334  1.00  0.00    -0.212 OA
HETATM   19  C   UNL     1     -46.590 -51.875  12.416  1.00  0.00     0.180 C 
ENDBRANCH  14  16
ENDBRANCH  13  14
ENDBRANCH  10  13
ENDBRANCH   8   9
ENDBRANCH   1   8
BRANCH   4  20
HETATM   20  N   UNL     1     -41.420 -46.034  10.725  1.00  0.00    -0.363 N 
HETATM   21  C   UNL     1     -40.128 -45.420  10.405  1.00  0.00     0.150 C 
HETATM   22  C   UNL     1     -40.013 -44.047  11.081  1.00  0.00     0.187 C 
HETATM   23  O   UNL     1     -41.139 -43.206  10.771  1.00  0.00    -0.388 OA
HETATM   24  C   UNL     1     -42.356 -43.829  11.217  1.00  0.00     0.187 C 
HETATM   25  C   UNL     1     -42.589 -45.182  10.522  1.00  0.00     0.150 C 
ENDBRANCH   4  20
TORSDOF 6
ENDMDL
MODEL 5
REMARK VINA RESULT:      -5.9      1.317      1.683
REMARK  6 active torsions:
REMARK  status: ('A' for Active; 'I' for Inactive)
REMARK    1  A    between atoms: N_2  and  C_3 
REMARK    2  A    between atoms: N_2  and  S_21 
REMARK    3  A    between atoms: C_3  and  C_4 
REMARK       I    between atoms: C_4  and  N_6 
REMARK    4  A    between atoms: N_6  and  C_7 
REMARK    5  A    between atoms: C_7  and  C_8 
REMARK    6  A    between atoms: C_11  and  N_15 
ROOT
HETATM    1  C   UNL     1     -41.113 -51.044  11.900  1.00  0.00    -0.025 A 
HETATM    2  C   UNL     1     -42.139 -50.359  12.542  1.00  0.00     0.014 A 
HETATM    3  C   UNL     1     -42.165 -48.961  12.507  1.00  0.00     0.049 A 
HETATM    4  C   UNL     1     -41.173 -48.254  11.829  1.00  0.00     0.103 A 
HETATM    5  N   UNL     1     -40.153 -48.918  11.242  1.00  0.00    -0.352 N 
ATOM      6  HN  UNL     1     -39.410 -48.408  10.763  1.00  0.00     0.166 HD
HETATM    7  C   UNL     1     -40.133 -50.272  11.299  1.00  0.00     0.098 A 
ENDROOT
BRANCH   1   8
HETATM    8  C   UNL     1     -41.105 -52.537  11.794  1.00  0.00     0.162 C 
BRANCH   8   9
HETATM    9  N   UNL     1     -42.130 -53.189  12.573  1.00  0.00    -0.356 N 
HETATM   10  C   UNL     1     -41.752 -53.879  13.705  1.00  0.00     0.232 C 
HETATM   11  O   UNL     1     -40.596 -53.889  14.129  1.00  0.00    -0.272 OA
HETATM   12  H   UNL     1     -43.021 -53.415  12.134  1.00  0.00     0.162 HD
BRANCH  10  13
HETATM   13  C   UNL     1     -42.858 -54.655  14.405  1.00  0.00     0.209 C 
BRANCH  13  14
HETATM   14  N   UNL     1     -44.077 -53.850  14.681  1.00  0.00    -0.206 NA
HETATM   15  C   UNL     1     -44.322 -53.646  16.129  1.00  0.00     0.129 C 
BRANCH  14  16
HETATM   16  S   UNL     1     -45.439 -54.255  13.758  1.00  0.00     0.207 S 
HETATM   17  O   UNL     1     -45.237 -53.730  12.424  1.00  0.00    -0.212 OA
HETATM   18  O   UNL     1     -45.728 -55.656  13.963  1.00  0.00    -0.212 OA
HETATM   19  C   UNL     1     -46.700 -53.275  14.552  1.00  0.00     0.180 C 
ENDBRANCH  14  16
ENDBRANCH  13  14
ENDBRANCH  10  13
ENDBRANCH   8   9
ENDBRANCH   1   8
BRANCH   4  20
HETATM   20  N   UNL     1     -41.200 -46.888  11.718  1.00  0.00    -0.363 N 
HETATM   21  C   UNL     1     -42.480 -46.173  11.759  1.00  0.00     0.150 C 
HETATM   22  C   UNL     1     -42.568 -45.179  10.594  1.00  0.00     0.187 C 
HETATM   23  O   UNL     1     -41.426 -44.304  10.553  1.00  0.00    -0.388 OA
HETATM   24  C   UNL     1     -40.222 -45.076  10.398  1.00  0.00     0.187 C 
HETATM   25  C   UNL     1     -40.014 -46.047  11.575  1.00  0.00     0.150 C 
ENDBRANCH   4  20
TORSDOF 6
ENDMDL
MODEL 6
REMARK VINA RESULT:      -5.9      2.679      7.434
REMARK  6 active torsions:
REMARK  status: ('A' for Active; 'I' for Inactive)
REMARK    1  A    between atoms: N_2  and  C_3 
REMARK    2  A    between atoms: N_2  and  S_21 
REMARK    3  A    between atoms: C_3  and  C_4 
REMARK       I    between atoms: C_4  and  N_6 
REMARK    4  A    between atoms: N_6  and  C_7 
REMARK    5  A    between atoms: C_7  and  C_8 
REMARK    6  A    between atoms: C_11  and  N_15 
ROOT
HETATM    1  C   UNL     1     -41.518 -51.023  12.056  1.00  0.00    -0.025 A 
HETATM    2  C   UNL     1     -42.449 -50.379  12.865  1.00  0.00     0.014 A 
HETATM    3  C   UNL     1     -43.398 -51.133  13.562  1.00  0.00     0.049 A 
HETATM    4  C   UNL     1     -43.411 -52.523  13.455  1.00  0.00     0.103 A 
HETATM    5  N   UNL     1     -42.534 -53.145  12.636  1.00  0.00    -0.352 N 
ATOM      6  HN  UNL     1     -42.551 -54.160  12.534  1.00  0.00     0.166 HD
HETATM    7  C   UNL     1     -41.632 -52.399  11.954  1.00  0.00     0.098 A 
ENDROOT
BRANCH   1   8
HETATM    8  C   UNL     1     -40.402 -50.280  11.391  1.00  0.00     0.162 C 
BRANCH   8   9
HETATM    9  N   UNL     1     -40.818 -49.080  10.707  1.00  0.00    -0.356 N 
HETATM   10  C   UNL     1     -40.537 -47.863  11.290  1.00  0.00     0.232 C 
HETATM   11  O   UNL     1     -39.871 -47.751  12.320  1.00  0.00    -0.272 OA
HETATM   12  H   UNL     1     -41.567 -49.133  10.017  1.00  0.00     0.162 HD
BRANCH  10  13
HETATM   13  C   UNL     1     -41.119 -46.644  10.590  1.00  0.00     0.209 C 
BRANCH  13  14
HETATM   14  N   UNL     1     -42.567 -46.434  10.851  1.00  0.00    -0.206 NA
HETATM   15  C   UNL     1     -42.944 -46.677  12.264  1.00  0.00     0.129 C 
BRANCH  14  16
HETATM   16  S   UNL     1     -43.616 -47.087   9.691  1.00  0.00     0.207 S 
HETATM   17  O   UNL     1     -42.813 -47.828   8.741  1.00  0.00    -0.212 OA
HETATM   18  O   UNL     1     -44.718 -47.722  10.378  1.00  0.00    -0.212 OA
HETATM   19  C   UNL     1     -44.203 -45.609   8.882  1.00  0.00     0.180 C 
ENDBRANCH  14  16
ENDBRANCH  13  14
ENDBRANCH  10  13
ENDBRANCH   8   9
ENDBRANCH   1   8
BRANCH   4  20
HETATM   20  N   UNL     1     -44.283 -53.300  14.173  1.00  0.00    -0.363 N 
HETATM   21  C   UNL     1     -44.200 -54.763  14.094  1.00  0.00     0.150 C 
HETATM   22  C   UNL     1     -45.590 -55.359  13.837  1.00  0.00     0.187 C 
HETATM   23  O   UNL     1     -46.555 -54.892  14.797  1.00  0.00    -0.388 OA
HETATM   24  C   UNL     1     -46.659 -53.459  14.733  1.00  0.00     0.187 C 
HETATM   25  C   UNL     1     -45.318 -52.777  15.061  1.00  0.00     0.150 C 
ENDBRANCH   4  20
TORSDOF 6
ENDMDL
MODEL 7
REMARK VINA RESULT:      -5.5      3.406      8.411
REMARK  6 active torsions:
REMARK  status: ('A' for Active; 'I' for Inactive)
REMARK    1  A    between atoms: N_2  and  C_3 
REMARK    2  A    between atoms: N_2  and  S_21 
REMARK    3  A    between atoms: C_3  and  C_4 
REMARK       I    between atoms: C_4  and  N_6 
REMARK    4  A    between atoms: N_6  and  C_7 
REMARK    5  A    between atoms: C_7  and  C_8 
REMARK    6  A    between atoms: C_11  and  N_15 
ROOT
HETATM    1  C   UNL     1     -41.596 -50.953  11.999  1.00  0.00    -0.025 A 
HETATM    2  C   UNL     1     -42.583 -50.318  12.745  1.00  0.00     0.014 A 
HETATM    3  C   UNL     1     -43.502 -51.084  13.469  1.00  0.00     0.049 A 
HETATM    4  C   UNL     1     -43.430 -52.476  13.451  1.00  0.00     0.103 A 
HETATM    5  N   UNL     1     -42.498 -53.093  12.692  1.00  0.00    -0.352 N 
ATOM      6  HN  UNL     1     -42.452 -54.112  12.654  1.00  0.00     0.166 HD
HETATM    7  C   UNL     1     -41.625 -52.338  11.982  1.00  0.00     0.098 A 
ENDROOT
BRANCH   1   8
HETATM    8  C   UNL     1     -40.510 -50.187  11.310  1.00  0.00     0.162 C 
BRANCH   8   9
HETATM    9  N   UNL     1     -40.949 -48.948  10.715  1.00  0.00    -0.356 N 
HETATM   10  C   UNL     1     -40.492 -47.764  11.255  1.00  0.00     0.232 C 
HETATM   11  O   UNL     1     -39.660 -47.719  12.161  1.00  0.00    -0.272 OA
HETATM   12  H   UNL     1     -41.803 -48.938  10.159  1.00  0.00     0.162 HD
BRANCH  10  13
HETATM   13  C   UNL     1     -41.096 -46.496  10.671  1.00  0.00     0.209 C 
BRANCH  13  14
HETATM   14  N   UNL     1     -41.180 -45.369  11.637  1.00  0.00    -0.206 NA
HETATM   15  C   UNL     1     -42.567 -45.086  12.078  1.00  0.00     0.129 C 
BRANCH  14  16
HETATM   16  S   UNL     1     -40.243 -44.011  11.252  1.00  0.00     0.207 S 
HETATM   17  O   UNL     1     -39.559 -44.289  10.007  1.00  0.00    -0.212 OA
HETATM   18  O   UNL     1     -41.067 -42.832  11.394  1.00  0.00    -0.212 OA
HETATM   19  C   UNL     1     -39.034 -44.041  12.564  1.00  0.00     0.180 C 
ENDBRANCH  14  16
ENDBRANCH  13  14
ENDBRANCH  10  13
ENDBRANCH   8   9
ENDBRANCH   1   8
BRANCH   4  20
HETATM   20  N   UNL     1     -44.272 -53.258  14.199  1.00  0.00    -0.363 N 
HETATM   21  C   UNL     1     -44.201 -54.720  14.096  1.00  0.00     0.150 C 
HETATM   22  C   UNL     1     -45.605 -55.304  13.897  1.00  0.00     0.187 C 
HETATM   23  O   UNL     1     -46.521 -54.846  14.908  1.00  0.00    -0.388 OA
HETATM   24  C   UNL     1     -46.619 -53.412  14.869  1.00  0.00     0.187 C 
HETATM   25  C   UNL     1     -45.260 -52.742  15.142  1.00  0.00     0.150 C 
ENDBRANCH   4  20
TORSDOF 6
ENDMDL
MODEL 8
REMARK VINA RESULT:      -5.2      3.233      7.139
REMARK  6 active torsions:
REMARK  status: ('A' for Active; 'I' for Inactive)
REMARK    1  A    between atoms: N_2  and  C_3 
REMARK    2  A    between atoms: N_2  and  S_21 
REMARK    3  A    between atoms: C_3  and  C_4 
REMARK       I    between atoms: C_4  and  N_6 
REMARK    4  A    between atoms: N_6  and  C_7 
REMARK    5  A    between atoms: C_7  and  C_8 
REMARK    6  A    between atoms: C_11  and  N_15 
ROOT
HETATM    1  C   UNL     1     -42.296 -52.731  12.788  1.00  0.00    -0.025 A 
HETATM    2  C   UNL     1     -42.699 -53.970  13.274  1.00  0.00     0.014 A 
HETATM    3  C   UNL     1     -43.803 -54.052  14.128  1.00  0.00     0.049 A 
HETATM    4  C   UNL     1     -44.502 -52.901  14.490  1.00  0.00     0.103 A 
HETATM    5  N   UNL     1     -44.085 -51.693  14.052  1.00  0.00    -0.352 N 
ATOM      6  HN  UNL     1     -44.576 -50.843  14.329  1.00  0.00     0.166 HD
HETATM    7  C   UNL     1     -43.003 -51.628  13.238  1.00  0.00     0.098 A 
ENDROOT
BRANCH   1   8
HETATM    8  C   UNL     1     -41.206 -52.597  11.771  1.00  0.00     0.162 C 
BRANCH   8   9
HETATM    9  N   UNL     1     -40.845 -51.233  11.470  1.00  0.00    -0.356 N 
HETATM   10  C   UNL     1     -39.670 -50.736  11.992  1.00  0.00     0.232 C 
HETATM   11  O   UNL     1     -38.873 -51.427  12.626  1.00  0.00    -0.272 OA
HETATM   12  H   UNL     1     -41.571 -50.577  11.182  1.00  0.00     0.162 HD
BRANCH  10  13
HETATM   13  C   UNL     1     -39.414 -49.255  11.752  1.00  0.00     0.209 C 
BRANCH  13  14
HETATM   14  N   UNL     1     -40.341 -48.356  12.489  1.00  0.00    -0.206 NA
HETATM   15  C   UNL     1     -40.574 -48.786  13.889  1.00  0.00     0.129 C 
BRANCH  14  16
HETATM   16  S   UNL     1     -41.721 -47.875  11.632  1.00  0.00     0.207 S 
HETATM   17  O   UNL     1     -41.620 -48.421  10.295  1.00  0.00    -0.212 OA
HETATM   18  O   UNL     1     -42.882 -48.140  12.450  1.00  0.00    -0.212 OA
HETATM   19  C   UNL     1     -41.467 -46.112  11.528  1.00  0.00     0.180 C 
ENDBRANCH  14  16
ENDBRANCH  13  14
ENDBRANCH  10  13
ENDBRANCH   8   9
ENDBRANCH   1   8
BRANCH   4  20
HETATM   20  N   UNL     1     -45.627 -52.949  15.272  1.00  0.00    -0.363 N 
HETATM   21  C   UNL     1     -46.816 -52.175  14.897  1.00  0.00     0.150 C 
HETATM   22  C   UNL     1     -47.334 -51.383  16.104  1.00  0.00     0.187 C 
HETATM   23  O   UNL     1     -47.542 -52.231  17.248  1.00  0.00    -0.388 OA
HETATM   24  C   UNL     1     -46.306 -52.865  17.620  1.00  0.00     0.187 C 
HETATM   25  C   UNL     1     -45.756 -53.750  16.486  1.00  0.00     0.150 C 
ENDBRANCH   4  20
TORSDOF 6
ENDMDL
MODEL 9
REMARK VINA RESULT:      -5.2      4.527      7.398
REMARK  6 active torsions:
REMARK  status: ('A' for Active; 'I' for Inactive)
REMARK    1  A    between atoms: N_2  and  C_3 
REMARK    2  A    between atoms: N_2  and  S_21 
REMARK    3  A    between atoms: C_3  and  C_4 
REMARK       I    between atoms: C_4  and  N_6 
REMARK    4  A    between atoms: N_6  and  C_7 
REMARK    5  A    between atoms: C_7  and  C_8 
REMARK    6  A    between atoms: C_11  and  N_15 
ROOT
HETATM    1  C   UNL     1     -45.408 -52.894  13.581  1.00  0.00    -0.025 A 
HETATM    2  C   UNL     1     -46.202 -51.755  13.651  1.00  0.00     0.014 A 
HETATM    3  C   UNL     1     -46.836 -51.427  14.854  1.00  0.00     0.049 A 
HETATM    4  C   UNL     1     -46.671 -52.231  15.980  1.00  0.00     0.103 A 
HETATM    5  N   UNL     1     -45.933 -53.360  15.900  1.00  0.00    -0.352 N 
ATOM      6  HN  UNL     1     -45.825 -53.967  16.713  1.00  0.00     0.166 HD
HETATM    7  C   UNL     1     -45.340 -53.674  14.724  1.00  0.00     0.098 A 
ENDROOT
BRANCH   1   8
HETATM    8  C   UNL     1     -44.604 -53.223  12.362  1.00  0.00     0.162 C 
BRANCH   8   9
HETATM    9  N   UNL     1     -43.247 -53.624  12.642  1.00  0.00    -0.356 N 
HETATM   10  C   UNL     1     -42.257 -52.665  12.592  1.00  0.00     0.232 C 
HETATM   11  O   UNL     1     -42.490 -51.471  12.408  1.00  0.00    -0.272 OA
HETATM   12  H   UNL     1     -42.987 -54.605  12.544  1.00  0.00     0.162 HD
BRANCH  10  13
HETATM   13  C   UNL     1     -40.834 -53.176  12.763  1.00  0.00     0.209 C 
BRANCH  13  14
HETATM   14  N   UNL     1     -40.225 -52.833  14.075  1.00  0.00    -0.206 NA
HETATM   15  C   UNL     1     -38.866 -52.253  13.951  1.00  0.00     0.129 C 
BRANCH  14  16
HETATM   16  S   UNL     1     -40.414 -54.001  15.290  1.00  0.00     0.207 S 
HETATM   17  O   UNL     1     -40.258 -53.335  16.566  1.00  0.00    -0.212 OA
HETATM   18  O   UNL     1     -41.602 -54.771  15.000  1.00  0.00    -0.212 OA
HETATM   19  C   UNL     1     -38.975 -55.019  15.019  1.00  0.00     0.180 C 
ENDBRANCH  14  16
ENDBRANCH  13  14
ENDBRANCH  10  13
ENDBRANCH   8   9
ENDBRANCH   1   8
BRANCH   4  20
HETATM   20  N   UNL     1     -47.222 -51.907  17.193  1.00  0.00    -0.363 N 
HETATM   21  C   UNL     1     -48.291 -50.905  17.270  1.00  0.00     0.150 C 
HETATM   22  C   UNL     1     -47.978 -49.881  18.368  1.00  0.00     0.187 C 
HETATM   23  O   UNL     1     -47.700 -50.518  19.628  1.00  0.00    -0.388 OA
HETATM   24  C   UNL     1     -46.570 -51.398  19.495  1.00  0.00     0.187 C 
HETATM   25  C   UNL     1     -46.835 -52.512  18.465  1.00  0.00     0.150 C 
ENDBRANCH   4  20
TORSDOF 6
ENDMDL
