MODEL 1
REMARK VINA RESULT:      -6.9      0.000      0.000
REMARK  6 active torsions:
REMARK  status: ('A' for Active; 'I' for Inactive)
REMARK    1  A    between atoms: N_5  and  C_6 
REMARK    2  A    between atoms: C_6  and  C_7 
REMARK    3  A    between atoms: C_7  and  O_8 
REMARK    4  A    between atoms: O_8  and  C_9 
REMARK    5  A    between atoms: C_12  and  S_15 
REMARK    6  A    between atoms: S_15  and  N_18 
ROOT
HETATM    1  C   UNL     1     -45.757 -52.677  12.327  1.00  0.00     0.070 C 
HETATM    2  C   UNL     1     -44.398 -53.150  12.797  1.00  0.00     0.029 A 
HETATM    3  N   UNL     1     -43.368 -52.681  12.166  1.00  0.00    -0.300 N 
ATOM      4  HN  UNL     1     -43.484 -52.036  11.385  1.00  0.00     0.187 HD
HETATM    5  N   UNL     1     -42.122 -53.074  12.573  1.00  0.00    -0.254 N 
HETATM    6  C   UNL     1     -41.891 -53.990  13.588  1.00  0.00     0.283 A 
HETATM    7  O   UNL     1     -40.769 -54.382  13.898  1.00  0.00    -0.265 OA
HETATM    8  C   UNL     1     -43.093 -54.492  14.302  1.00  0.00     0.121 A 
HETATM    9  C   UNL     1     -42.873 -55.398  15.376  1.00  0.00     0.105 C 
HETATM   10  N   UNL     1     -42.763 -56.140  16.263  1.00  0.00    -0.191 NA
HETATM   11  C   UNL     1     -44.328 -54.104  13.940  1.00  0.00    -0.012 A 
HETATM   12  C   UNL     1     -45.611 -54.550  14.580  1.00  0.00     0.052 C 
ENDROOT
BRANCH   5  13
HETATM   13  C   UNL     1     -40.994 -52.522  11.825  1.00  0.00     0.179 C 
BRANCH  13  14
HETATM   14  C   UNL     1     -40.708 -51.070  12.195  1.00  0.00     0.197 C 
BRANCH  14  15
HETATM   15  O   UNL     1     -41.792 -50.254  11.730  1.00  0.00    -0.349 OA
BRANCH  15  16
HETATM   16  C   UNL     1     -41.470 -48.954  11.452  1.00  0.00     0.068 A 
HETATM   17  C   UNL     1     -40.279 -48.494  12.022  1.00  0.00     0.038 A 
HETATM   18  C   UNL     1     -39.856 -47.179  11.818  1.00  0.00     0.027 A 
HETATM   19  C   UNL     1     -40.621 -46.333  11.012  1.00  0.00     0.074 A 
HETATM   20  C   UNL     1     -41.801 -46.789  10.419  1.00  0.00     0.027 A 
HETATM   21  C   UNL     1     -42.218 -48.104  10.634  1.00  0.00     0.038 A 
BRANCH  19  22
HETATM   22  S   UNL     1     -40.110 -44.662  10.760  1.00  0.00     0.239 S 
HETATM   23  O   UNL     1     -41.266 -43.846  10.477  1.00  0.00    -0.206 OA
HETATM   24  O   UNL     1     -39.135 -44.303  11.765  1.00  0.00    -0.206 OA
BRANCH  22  25
HETATM   25  N   UNL     1     -39.265 -44.785   9.315  1.00  0.00    -0.225 NA
HETATM   26  H   UNL     1     -38.644 -43.985   9.203  1.00  0.00     0.136 HD
HETATM   27  H   UNL     1     -38.801 -45.691   9.257  1.00  0.00     0.136 HD
ENDBRANCH  22  25
ENDBRANCH  19  22
ENDBRANCH  15  16
ENDBRANCH  14  15
ENDBRANCH  13  14
ENDBRANCH   5  13
TORSDOF 6
ENDMDL
MODEL 2
REMARK VINA RESULT:      -6.5      3.739      8.485
REMARK  6 active torsions:
REMARK  status: ('A' for Active; 'I' for Inactive)
REMARK    1  A    between atoms: N_5  and  C_6 
REMARK    2  A    between atoms: C_6  and  C_7 
REMARK    3  A    between atoms: C_7  and  O_8 
REMARK    4  A    between atoms: O_8  and  C_9 
REMARK    5  A    between atoms: C_12  and  S_15 
REMARK    6  A    between atoms: S_15  and  N_18 
ROOT
HETATM    1  C   UNL     1     -43.595 -47.862   7.938  1.00  0.00     0.070 C 
HETATM    2  C   UNL     1     -42.836 -47.493   9.195  1.00  0.00     0.029 A 
HETATM    3  N   UNL     1     -42.034 -48.390   9.675  1.00  0.00    -0.300 N 
ATOM      4  HN  UNL     1     -41.938 -49.299   9.224  1.00  0.00     0.187 HD
HETATM    5  N   UNL     1     -41.318 -48.087  10.801  1.00  0.00    -0.254 N 
HETATM    6  C   UNL     1     -41.439 -46.894  11.499  1.00  0.00     0.283 A 
HETATM    7  O   UNL     1     -40.839 -46.663  12.545  1.00  0.00    -0.265 OA
HETATM    8  C   UNL     1     -42.354 -45.882  10.910  1.00  0.00     0.121 A 
HETATM    9  C   UNL     1     -42.457 -44.636  11.587  1.00  0.00     0.105 C 
HETATM   10  N   UNL     1     -42.586 -43.596  12.090  1.00  0.00    -0.191 NA
HETATM   11  C   UNL     1     -43.051 -46.144   9.790  1.00  0.00    -0.012 A 
HETATM   12  C   UNL     1     -44.006 -45.205   9.113  1.00  0.00     0.052 C 
ENDROOT
BRANCH   5  13
HETATM   13  C   UNL     1     -40.432 -49.134  11.306  1.00  0.00     0.179 C 
BRANCH  13  14
HETATM   14  C   UNL     1     -41.193 -50.397  11.697  1.00  0.00     0.197 C 
BRANCH  14  15
HETATM   15  O   UNL     1     -41.753 -50.211  13.004  1.00  0.00    -0.349 OA
BRANCH  15  16
HETATM   16  C   UNL     1     -42.727 -51.105  13.357  1.00  0.00     0.068 A 
HETATM   17  C   UNL     1     -42.304 -52.429  13.502  1.00  0.00     0.038 A 
HETATM   18  C   UNL     1     -43.214 -53.431  13.847  1.00  0.00     0.027 A 
HETATM   19  C   UNL     1     -44.550 -53.091  14.076  1.00  0.00     0.074 A 
HETATM   20  C   UNL     1     -44.978 -51.767  13.957  1.00  0.00     0.027 A 
HETATM   21  C   UNL     1     -44.062 -50.774  13.606  1.00  0.00     0.038 A 
BRANCH  19  22
HETATM   22  S   UNL     1     -45.716 -54.349  14.494  1.00  0.00     0.239 S 
HETATM   23  O   UNL     1     -45.636 -55.416  13.525  1.00  0.00    -0.206 OA
HETATM   24  O   UNL     1     -45.671 -54.590  15.918  1.00  0.00    -0.206 OA
BRANCH  22  25
HETATM   25  N   UNL     1     -47.171 -53.566  14.199  1.00  0.00    -0.225 NA
HETATM   26  H   UNL     1     -47.750 -53.577  15.038  1.00  0.00     0.136 HD
HETATM   27  H   UNL     1     -46.998 -52.637  13.819  1.00  0.00     0.136 HD
ENDBRANCH  22  25
ENDBRANCH  19  22
ENDBRANCH  15  16
ENDBRANCH  14  15
ENDBRANCH  13  14
ENDBRANCH   5  13
TORSDOF 6
ENDMDL
MODEL 3
REMARK VINA RESULT:      -6.4      1.884      2.711
REMARK  6 active torsions:
REMARK  status: ('A' for Active; 'I' for Inactive)
REMARK    1  A    between atoms: N_5  and  C_6 
REMARK    2  A    between atoms: C_6  and  C_7 
REMARK    3  A    between atoms: C_7  and  O_8 
REMARK    4  A    between atoms: O_8  and  C_9 
REMARK    5  A    between atoms: C_12  and  S_15 
REMARK    6  A    between atoms: S_15  and  N_18 
ROOT
HETATM    1  C   UNL     1     -39.869 -54.497  15.690  1.00  0.00     0.070 C 
HETATM    2  C   UNL     1     -40.972 -54.133  14.719  1.00  0.00     0.029 A 
HETATM    3  N   UNL     1     -40.657 -53.328  13.755  1.00  0.00    -0.300 N 
ATOM      4  HN  UNL     1     -39.711 -52.956  13.673  1.00  0.00     0.187 HD
HETATM    5  N   UNL     1     -41.624 -52.990  12.848  1.00  0.00    -0.254 N 
HETATM    6  C   UNL     1     -42.943 -53.411  12.927  1.00  0.00     0.283 A 
HETATM    7  O   UNL     1     -43.815 -53.046  12.143  1.00  0.00    -0.265 OA
HETATM    8  C   UNL     1     -43.265 -54.348  14.035  1.00  0.00     0.121 A 
HETATM    9  C   UNL     1     -44.602 -54.827  14.107  1.00  0.00     0.105 C 
HETATM   10  N   UNL     1     -45.676 -55.255  14.221  1.00  0.00    -0.191 NA
HETATM   11  C   UNL     1     -42.328 -54.717  14.926  1.00  0.00    -0.012 A 
HETATM   12  C   UNL     1     -42.539 -55.647  16.086  1.00  0.00     0.052 C 
ENDROOT
BRANCH   5  13
HETATM   13  C   UNL     1     -41.220 -52.074  11.782  1.00  0.00     0.179 C 
BRANCH  13  14
HETATM   14  C   UNL     1     -41.401 -50.611  12.177  1.00  0.00     0.197 C 
BRANCH  14  15
HETATM   15  O   UNL     1     -40.827 -49.785  11.155  1.00  0.00    -0.349 OA
BRANCH  15  16
HETATM   16  C   UNL     1     -41.242 -48.481  11.154  1.00  0.00     0.068 A 
HETATM   17  C   UNL     1     -40.228 -47.526  11.272  1.00  0.00     0.038 A 
HETATM   18  C   UNL     1     -40.534 -46.164  11.296  1.00  0.00     0.027 A 
HETATM   19  C   UNL     1     -41.866 -45.762  11.169  1.00  0.00     0.074 A 
HETATM   20  C   UNL     1     -42.885 -46.706  11.027  1.00  0.00     0.027 A 
HETATM   21  C   UNL     1     -42.569 -48.066  11.011  1.00  0.00     0.038 A 
BRANCH  19  22
HETATM   22  S   UNL     1     -42.272 -44.044  11.217  1.00  0.00     0.239 S 
HETATM   23  O   UNL     1     -42.883 -43.733  12.487  1.00  0.00    -0.206 OA
HETATM   24  O   UNL     1     -41.173 -43.278  10.677  1.00  0.00    -0.206 OA
BRANCH  22  25
HETATM   25  N   UNL     1     -43.503 -43.960  10.079  1.00  0.00    -0.225 NA
HETATM   26  H   UNL     1     -44.210 -43.289  10.377  1.00  0.00     0.136 HD
HETATM   27  H   UNL     1     -43.114 -43.781   9.155  1.00  0.00     0.136 HD
ENDBRANCH  22  25
ENDBRANCH  19  22
ENDBRANCH  15  16
ENDBRANCH  14  15
ENDBRANCH  13  14
ENDBRANCH   5  13
TORSDOF 6
ENDMDL
MODEL 4
REMARK VINA RESULT:      -6.4      2.972      3.797
REMARK  6 active torsions:
REMARK  status: ('A' for Active; 'I' for Inactive)
REMARK    1  A    between atoms: N_5  and  C_6 
REMARK    2  A    between atoms: C_6  and  C_7 
REMARK    3  A    between atoms: C_7  and  O_8 
REMARK    4  A    between atoms: O_8  and  C_9 
REMARK    5  A    between atoms: C_12  and  S_15 
REMARK    6  A    between atoms: S_15  and  N_18 
ROOT
HETATM    1  C   UNL     1     -44.533 -50.474  16.997  1.00  0.00     0.070 C 
HETATM    2  C   UNL     1     -44.142 -51.082  15.666  1.00  0.00     0.029 A 
HETATM    3  N   UNL     1     -42.875 -51.238  15.446  1.00  0.00    -0.300 N 
ATOM      4  HN  UNL     1     -42.186 -50.950  16.139  1.00  0.00     0.187 HD
HETATM    5  N   UNL     1     -42.485 -51.799  14.260  1.00  0.00    -0.254 N 
HETATM    6  C   UNL     1     -43.362 -52.162  13.249  1.00  0.00     0.283 A 
HETATM    7  O   UNL     1     -42.993 -52.602  12.163  1.00  0.00    -0.265 OA
HETATM    8  C   UNL     1     -44.808 -51.986  13.542  1.00  0.00     0.121 A 
HETATM    9  C   UNL     1     -45.725 -52.395  12.535  1.00  0.00     0.105 C 
HETATM   10  N   UNL     1     -46.526 -52.709  11.754  1.00  0.00    -0.191 NA
HETATM   11  C   UNL     1     -45.221 -51.461  14.709  1.00  0.00    -0.012 A 
HETATM   12  C   UNL     1     -46.648 -51.229  15.110  1.00  0.00     0.052 C 
ENDROOT
BRANCH   5  13
HETATM   13  C   UNL     1     -41.045 -51.947  14.057  1.00  0.00     0.179 C 
BRANCH  13  14
HETATM   14  C   UNL     1     -40.429 -50.731  13.372  1.00  0.00     0.197 C 
BRANCH  14  15
HETATM   15  O   UNL     1     -41.268 -49.593  13.612  1.00  0.00    -0.349 OA
BRANCH  15  16
HETATM   16  C   UNL     1     -41.768 -48.988  12.491  1.00  0.00     0.068 A 
HETATM   17  C   UNL     1     -43.027 -48.398  12.637  1.00  0.00     0.038 A 
HETATM   18  C   UNL     1     -43.643 -47.763  11.557  1.00  0.00     0.027 A 
HETATM   19  C   UNL     1     -42.973 -47.696  10.332  1.00  0.00     0.074 A 
HETATM   20  C   UNL     1     -41.705 -48.261  10.181  1.00  0.00     0.027 A 
HETATM   21  C   UNL     1     -41.100 -48.900  11.266  1.00  0.00     0.038 A 
BRANCH  19  22
HETATM   22  S   UNL     1     -43.747 -46.913   8.951  1.00  0.00     0.239 S 
HETATM   23  O   UNL     1     -43.253 -45.562   8.830  1.00  0.00    -0.206 OA
HETATM   24  O   UNL     1     -43.776 -47.831   7.835  1.00  0.00    -0.206 OA
BRANCH  22  25
HETATM   25  N   UNL     1     -45.332 -46.781   9.487  1.00  0.00    -0.225 NA
HETATM   26  H   UNL     1     -45.896 -47.537   9.101  1.00  0.00     0.136 HD
HETATM   27  H   UNL     1     -45.353 -46.716  10.504  1.00  0.00     0.136 HD
ENDBRANCH  22  25
ENDBRANCH  19  22
ENDBRANCH  15  16
ENDBRANCH  14  15
ENDBRANCH  13  14
ENDBRANCH   5  13
TORSDOF 6
ENDMDL
MODEL 5
REMARK VINA RESULT:      -6.4      1.877      2.219
REMARK  6 active torsions:
REMARK  status: ('A' for Active; 'I' for Inactive)
REMARK    1  A    between atoms: N_5  and  C_6 
REMARK    2  A    between atoms: C_6  and  C_7 
REMARK    3  A    between atoms: C_7  and  O_8 
REMARK    4  A    between atoms: O_8  and  C_9 
REMARK    5  A    between atoms: C_12  and  S_15 
REMARK    6  A    between atoms: S_15  and  N_18 
ROOT
HETATM    1  C   UNL     1     -46.428 -51.531  12.405  1.00  0.00     0.070 C 
HETATM    2  C   UNL     1     -45.375 -52.285  13.190  1.00  0.00     0.029 A 
HETATM    3  N   UNL     1     -44.221 -52.437  12.620  1.00  0.00    -0.300 N 
ATOM      4  HN  UNL     1     -44.049 -52.072  11.684  1.00  0.00     0.187 HD
HETATM    5  N   UNL     1     -43.240 -53.099  13.306  1.00  0.00    -0.254 N 
HETATM    6  C   UNL     1     -43.418 -53.670  14.557  1.00  0.00     0.283 A 
HETATM    7  O   UNL     1     -42.548 -54.319  15.132  1.00  0.00    -0.265 OA
HETATM    8  C   UNL     1     -44.747 -53.461  15.189  1.00  0.00     0.121 A 
HETATM    9  C   UNL     1     -44.935 -54.000  16.490  1.00  0.00     0.105 C 
HETATM   10  N   UNL     1     -45.153 -54.415  17.554  1.00  0.00    -0.191 NA
HETATM   11  C   UNL     1     -45.722 -52.792  14.548  1.00  0.00    -0.012 A 
HETATM   12  C   UNL     1     -47.100 -52.528  15.080  1.00  0.00     0.052 C 
ENDROOT
BRANCH   5  13
HETATM   13  C   UNL     1     -41.959 -53.250  12.618  1.00  0.00     0.179 C 
BRANCH  13  14
HETATM   14  C   UNL     1     -41.496 -51.951  11.965  1.00  0.00     0.197 C 
BRANCH  14  15
HETATM   15  O   UNL     1     -41.717 -50.870  12.882  1.00  0.00    -0.349 OA
BRANCH  15  16
HETATM   16  C   UNL     1     -41.915 -49.644  12.306  1.00  0.00     0.068 A 
HETATM   17  C   UNL     1     -40.801 -49.094  11.666  1.00  0.00     0.038 A 
HETATM   18  C   UNL     1     -40.881 -47.841  11.055  1.00  0.00     0.027 A 
HETATM   19  C   UNL     1     -42.097 -47.154  11.064  1.00  0.00     0.074 A 
HETATM   20  C   UNL     1     -43.223 -47.704  11.681  1.00  0.00     0.027 A 
HETATM   21  C   UNL     1     -43.131 -48.956  12.294  1.00  0.00     0.038 A 
BRANCH  19  22
HETATM   22  S   UNL     1     -42.210 -45.559  10.312  1.00  0.00     0.239 S 
HETATM   23  O   UNL     1     -40.881 -45.047  10.079  1.00  0.00    -0.206 OA
HETATM   24  O   UNL     1     -43.222 -45.587   9.282  1.00  0.00    -0.206 OA
BRANCH  22  25
HETATM   25  N   UNL     1     -42.846 -44.644  11.567  1.00  0.00    -0.225 NA
HETATM   26  H   UNL     1     -43.815 -44.399  11.365  1.00  0.00     0.136 HD
HETATM   27  H   UNL     1     -42.708 -45.123  12.455  1.00  0.00     0.136 HD
ENDBRANCH  22  25
ENDBRANCH  19  22
ENDBRANCH  15  16
ENDBRANCH  14  15
ENDBRANCH  13  14
ENDBRANCH   5  13
TORSDOF 6
ENDMDL
MODEL 6
REMARK VINA RESULT:      -6.3      3.132      4.753
REMARK  6 active torsions:
REMARK  status: ('A' for Active; 'I' for Inactive)
REMARK    1  A    between atoms: N_5  and  C_6 
REMARK    2  A    between atoms: C_6  and  C_7 
REMARK    3  A    between atoms: C_7  and  O_8 
REMARK    4  A    between atoms: O_8  and  C_9 
REMARK    5  A    between atoms: C_12  and  S_15 
REMARK    6  A    between atoms: S_15  and  N_18 
ROOT
HETATM    1  C   UNL     1     -45.522 -52.007  17.420  1.00  0.00     0.070 C 
HETATM    2  C   UNL     1     -45.228 -52.661  16.086  1.00  0.00     0.029 A 
HETATM    3  N   UNL     1     -44.320 -53.584  16.077  1.00  0.00    -0.300 N 
ATOM      4  HN  UNL     1     -43.825 -53.838  16.932  1.00  0.00     0.187 HD
HETATM    5  N   UNL     1     -44.039 -54.208  14.893  1.00  0.00    -0.254 N 
HETATM    6  C   UNL     1     -44.630 -53.877  13.682  1.00  0.00     0.283 A 
HETATM    7  O   UNL     1     -44.319 -54.401  12.616  1.00  0.00    -0.265 OA
HETATM    8  C   UNL     1     -45.680 -52.828  13.733  1.00  0.00     0.121 A 
HETATM    9  C   UNL     1     -46.329 -52.506  12.509  1.00  0.00     0.105 C 
HETATM   10  N   UNL     1     -46.898 -52.197  11.545  1.00  0.00    -0.191 NA
HETATM   11  C   UNL     1     -45.994 -52.215  14.888  1.00  0.00    -0.012 A 
HETATM   12  C   UNL     1     -47.028 -51.140  15.057  1.00  0.00     0.052 C 
ENDROOT
BRANCH   5  13
HETATM   13  C   UNL     1     -43.001 -55.237  14.934  1.00  0.00     0.179 C 
BRANCH  13  14
HETATM   14  C   UNL     1     -41.599 -54.642  15.024  1.00  0.00     0.197 C 
BRANCH  14  15
HETATM   15  O   UNL     1     -41.051 -54.553  13.702  1.00  0.00    -0.349 OA
BRANCH  15  16
HETATM   16  C   UNL     1     -40.457 -53.360  13.392  1.00  0.00     0.068 A 
HETATM   17  C   UNL     1     -41.075 -52.626  12.376  1.00  0.00     0.038 A 
HETATM   18  C   UNL     1     -40.549 -51.399  11.967  1.00  0.00     0.027 A 
HETATM   19  C   UNL     1     -39.413 -50.895  12.605  1.00  0.00     0.074 A 
HETATM   20  C   UNL     1     -38.801 -51.610  13.637  1.00  0.00     0.027 A 
HETATM   21  C   UNL     1     -39.331 -52.839  14.036  1.00  0.00     0.038 A 
BRANCH  19  22
HETATM   22  S   UNL     1     -38.725 -49.354  12.086  1.00  0.00     0.239 S 
HETATM   23  O   UNL     1     -39.784 -48.488  11.629  1.00  0.00    -0.206 OA
HETATM   24  O   UNL     1     -37.732 -48.927  13.045  1.00  0.00    -0.206 OA
BRANCH  22  25
HETATM   25  N   UNL     1     -37.877 -49.814  10.711  1.00  0.00    -0.225 NA
HETATM   26  H   UNL     1     -36.974 -49.342  10.683  1.00  0.00     0.136 HD
HETATM   27  H   UNL     1     -37.825 -50.830  10.656  1.00  0.00     0.136 HD
ENDBRANCH  22  25
ENDBRANCH  19  22
ENDBRANCH  15  16
ENDBRANCH  14  15
ENDBRANCH  13  14
ENDBRANCH   5  13
TORSDOF 6
ENDMDL
MODEL 7
REMARK VINA RESULT:      -6.3      3.610      7.879
REMARK  6 active torsions:
REMARK  status: ('A' for Active; 'I' for Inactive)
REMARK    1  A    between atoms: N_5  and  C_6 
REMARK    2  A    between atoms: C_6  and  C_7 
REMARK    3  A    between atoms: C_7  and  O_8 
REMARK    4  A    between atoms: O_8  and  C_9 
REMARK    5  A    between atoms: C_12  and  S_15 
REMARK    6  A    between atoms: S_15  and  N_18 
ROOT
HETATM    1  C   UNL     1     -42.697 -49.338  15.091  1.00  0.00     0.070 C 
HETATM    2  C   UNL     1     -41.512 -49.248  14.153  1.00  0.00     0.029 A 
HETATM    3  N   UNL     1     -40.630 -50.193  14.236  1.00  0.00    -0.300 N 
ATOM      4  HN  UNL     1     -40.736 -50.947  14.914  1.00  0.00     0.187 HD
HETATM    5  N   UNL     1     -39.553 -50.153  13.393  1.00  0.00    -0.254 N 
HETATM    6  C   UNL     1     -39.315 -49.130  12.487  1.00  0.00     0.283 A 
HETATM    7  O   UNL     1     -38.310 -49.075  11.783  1.00  0.00    -0.265 OA
HETATM    8  C   UNL     1     -40.356 -48.073  12.405  1.00  0.00     0.121 A 
HETATM    9  C   UNL     1     -40.151 -47.039  11.451  1.00  0.00     0.105 C 
HETATM   10  N   UNL     1     -40.045 -46.167  10.691  1.00  0.00    -0.191 NA
HETATM   11  C   UNL     1     -41.437 -48.100  13.205  1.00  0.00    -0.012 A 
HETATM   12  C   UNL     1     -42.544 -47.087  13.217  1.00  0.00     0.052 C 
ENDROOT
BRANCH   5  13
HETATM   13  C   UNL     1     -38.584 -51.238  13.531  1.00  0.00     0.179 C 
BRANCH  13  14
HETATM   14  C   UNL     1     -39.253 -52.580  13.817  1.00  0.00     0.197 C 
BRANCH  14  15
HETATM   15  O   UNL     1     -40.084 -52.926  12.701  1.00  0.00    -0.349 OA
BRANCH  15  16
HETATM   16  C   UNL     1     -41.371 -53.270  13.014  1.00  0.00     0.068 A 
HETATM   17  C   UNL     1     -41.515 -54.147  14.092  1.00  0.00     0.038 A 
HETATM   18  C   UNL     1     -42.781 -54.577  14.494  1.00  0.00     0.027 A 
HETATM   19  C   UNL     1     -43.910 -54.097  13.824  1.00  0.00     0.074 A 
HETATM   20  C   UNL     1     -43.779 -53.202  12.759  1.00  0.00     0.027 A 
HETATM   21  C   UNL     1     -42.507 -52.782  12.362  1.00  0.00     0.038 A 
BRANCH  19  22
HETATM   22  S   UNL     1     -45.517 -54.646  14.306  1.00  0.00     0.239 S 
HETATM   23  O   UNL     1     -45.823 -55.882  13.627  1.00  0.00    -0.206 OA
HETATM   24  O   UNL     1     -45.667 -54.489  15.735  1.00  0.00    -0.206 OA
BRANCH  22  25
HETATM   25  N   UNL     1     -46.494 -53.477  13.603  1.00  0.00    -0.225 NA
HETATM   26  H   UNL     1     -45.952 -52.919  12.944  1.00  0.00     0.136 HD
HETATM   27  H   UNL     1     -47.327 -53.909  13.206  1.00  0.00     0.136 HD
ENDBRANCH  22  25
ENDBRANCH  19  22
ENDBRANCH  15  16
ENDBRANCH  14  15
ENDBRANCH  13  14
ENDBRANCH   5  13
TORSDOF 6
ENDMDL
MODEL 8
REMARK VINA RESULT:      -6.3      3.728      8.353
REMARK  6 active torsions:
REMARK  status: ('A' for Active; 'I' for Inactive)
REMARK    1  A    between atoms: N_5  and  C_6 
REMARK    2  A    between atoms: C_6  and  C_7 
REMARK    3  A    between atoms: C_7  and  O_8 
REMARK    4  A    between atoms: O_8  and  C_9 
REMARK    5  A    between atoms: C_12  and  S_15 
REMARK    6  A    between atoms: S_15  and  N_18 
ROOT
HETATM    1  C   UNL     1     -37.463 -47.556  15.822  1.00  0.00     0.070 C 
HETATM    2  C   UNL     1     -38.063 -48.147  14.564  1.00  0.00     0.029 A 
HETATM    3  N   UNL     1     -37.869 -49.412  14.364  1.00  0.00    -0.300 N 
ATOM      4  HN  UNL     1     -37.326 -49.967  15.025  1.00  0.00     0.187 HD
HETATM    5  N   UNL     1     -38.410 -49.984  13.246  1.00  0.00    -0.254 N 
HETATM    6  C   UNL     1     -39.110 -49.282  12.276  1.00  0.00     0.283 A 
HETATM    7  O   UNL     1     -39.532 -49.797  11.245  1.00  0.00    -0.265 OA
HETATM    8  C   UNL     1     -39.330 -47.837  12.546  1.00  0.00     0.121 A 
HETATM    9  C   UNL     1     -40.084 -47.109  11.586  1.00  0.00     0.105 C 
HETATM   10  N   UNL     1     -40.693 -46.458  10.841  1.00  0.00    -0.191 NA
HETATM   11  C   UNL     1     -38.831 -47.254  13.650  1.00  0.00    -0.012 A 
HETATM   12  C   UNL     1     -38.981 -45.807  14.022  1.00  0.00     0.052 C 
ENDROOT
BRANCH   5  13
HETATM   13  C   UNL     1     -38.157 -51.413  13.063  1.00  0.00     0.179 C 
BRANCH  13  14
HETATM   14  C   UNL     1     -38.943 -52.271  14.050  1.00  0.00     0.197 C 
BRANCH  14  15
HETATM   15  O   UNL     1     -39.495 -53.392  13.346  1.00  0.00    -0.349 OA
BRANCH  15  16
HETATM   16  C   UNL     1     -40.855 -53.524  13.429  1.00  0.00     0.068 A 
HETATM   17  C   UNL     1     -41.315 -54.392  14.423  1.00  0.00     0.038 A 
HETATM   18  C   UNL     1     -42.683 -54.615  14.593  1.00  0.00     0.027 A 
HETATM   19  C   UNL     1     -43.592 -53.937  13.776  1.00  0.00     0.074 A 
HETATM   20  C   UNL     1     -43.144 -53.050  12.795  1.00  0.00     0.027 A 
HETATM   21  C   UNL     1     -41.773 -52.838  12.630  1.00  0.00     0.038 A 
BRANCH  19  22
HETATM   22  S   UNL     1     -45.324 -54.224  13.965  1.00  0.00     0.239 S 
HETATM   23  O   UNL     1     -45.586 -55.641  13.883  1.00  0.00    -0.206 OA
HETATM   24  O   UNL     1     -45.830 -53.403  15.041  1.00  0.00    -0.206 OA
BRANCH  22  25
HETATM   25  N   UNL     1     -45.928 -53.559  12.547  1.00  0.00    -0.225 NA
HETATM   26  H   UNL     1     -45.411 -53.917  11.745  1.00  0.00     0.136 HD
HETATM   27  H   UNL     1     -46.936 -53.700  12.496  1.00  0.00     0.136 HD
ENDBRANCH  22  25
ENDBRANCH  19  22
ENDBRANCH  15  16
ENDBRANCH  14  15
ENDBRANCH  13  14
ENDBRANCH   5  13
TORSDOF 6
ENDMDL
MODEL 9
REMARK VINA RESULT:      -6.3      4.818      7.378
REMARK  6 active torsions:
REMARK  status: ('A' for Active; 'I' for Inactive)
REMARK    1  A    between atoms: N_5  and  C_6 
REMARK    2  A    between atoms: C_6  and  C_7 
REMARK    3  A    between atoms: C_7  and  O_8 
REMARK    4  A    between atoms: O_8  and  C_9 
REMARK    5  A    between atoms: C_12  and  S_15 
REMARK    6  A    between atoms: S_15  and  N_18 
ROOT
HETATM    1  C   UNL     1     -43.278 -50.178  15.357  1.00  0.00     0.070 C 
HETATM    2  C   UNL     1     -44.649 -50.577  15.861  1.00  0.00     0.029 A 
HETATM    3  N   UNL     1     -45.241 -51.544  15.236  1.00  0.00    -0.300 N 
ATOM      4  HN  UNL     1     -44.798 -51.998  14.437  1.00  0.00     0.187 HD
HETATM    5  N   UNL     1     -46.474 -51.943  15.673  1.00  0.00    -0.254 N 
HETATM    6  C   UNL     1     -47.161 -51.336  16.715  1.00  0.00     0.283 A 
HETATM    7  O   UNL     1     -48.296 -51.662  17.053  1.00  0.00    -0.265 OA
HETATM    8  C   UNL     1     -46.445 -50.243  17.421  1.00  0.00     0.121 A 
HETATM    9  C   UNL     1     -47.115 -49.638  18.520  1.00  0.00     0.105 C 
HETATM   10  N   UNL     1     -47.606 -49.104  19.428  1.00  0.00    -0.191 NA
HETATM   11  C   UNL     1     -45.221 -49.847  17.029  1.00  0.00    -0.012 A 
HETATM   12  C   UNL     1     -44.409 -48.753  17.658  1.00  0.00     0.052 C 
ENDROOT
BRANCH   5  13
HETATM   13  C   UNL     1     -47.103 -53.034  14.930  1.00  0.00     0.179 C 
BRANCH  13  14
HETATM   14  C   UNL     1     -46.630 -54.405  15.405  1.00  0.00     0.197 C 
BRANCH  14  15
HETATM   15  O   UNL     1     -45.958 -55.060  14.321  1.00  0.00    -0.349 OA
BRANCH  15  16
HETATM   16  C   UNL     1     -44.658 -54.680  14.122  1.00  0.00     0.068 A 
HETATM   17  C   UNL     1     -44.397 -54.045  12.906  1.00  0.00     0.038 A 
HETATM   18  C   UNL     1     -43.104 -53.625  12.588  1.00  0.00     0.027 A 
HETATM   19  C   UNL     1     -42.075 -53.820  13.513  1.00  0.00     0.074 A 
HETATM   20  C   UNL     1     -42.330 -54.433  14.742  1.00  0.00     0.027 A 
HETATM   21  C   UNL     1     -43.626 -54.855  15.048  1.00  0.00     0.038 A 
BRANCH  19  22
HETATM   22  S   UNL     1     -40.431 -53.312  13.118  1.00  0.00     0.239 S 
HETATM   23  O   UNL     1     -40.234 -51.950  13.552  1.00  0.00    -0.206 OA
HETATM   24  O   UNL     1     -39.509 -54.374  13.454  1.00  0.00    -0.206 OA
BRANCH  22  25
HETATM   25  N   UNL     1     -40.492 -53.260  11.442  1.00  0.00    -0.225 NA
HETATM   26  H   UNL     1     -40.251 -54.172  11.055  1.00  0.00     0.136 HD
HETATM   27  H   UNL     1     -41.392 -52.896  11.135  1.00  0.00     0.136 HD
ENDBRANCH  22  25
ENDBRANCH  19  22
ENDBRANCH  15  16
ENDBRANCH  14  15
ENDBRANCH  13  14
ENDBRANCH   5  13
TORSDOF 6
ENDMDL
