MODEL 1
REMARK VINA RESULT:      -6.6      0.000      0.000
REMARK  9 active torsions:
REMARK  status: ('A' for Active; 'I' for Inactive)
REMARK    1  A    between atoms: N_1  and  C_9 
REMARK    2  A    between atoms: C_6  and  N_8 
REMARK    3  A    between atoms: C_14  and  C_25 
REMARK    4  A    between atoms: C_14  and  C_26 
REMARK    5  A    between atoms: C_19  and  C_23 
REMARK       I    between atoms: C_19  and  N_21 
REMARK    6  A    between atoms: C_23  and  C_27 
REMARK    7  A    between atoms: C_24  and  C_27 
REMARK    8  A    between atoms: C_25  and  O_28 
REMARK    9  A    between atoms: C_26  and  O_29 
ROOT
HETATM    1  N   UNL     1     -41.034 -47.467  12.300  1.00  0.00    -0.322 N 
HETATM    2  C   UNL     1     -41.020 -49.594  12.790  1.00  0.00     0.117 A 
HETATM    3  C   UNL     1     -40.291 -48.607  12.125  1.00  0.00     0.140 A 
HETATM    4  N   UNL     1     -42.158 -49.066  13.370  1.00  0.00    -0.346 N 
ATOM      5  HN  UNL     1     -42.857 -49.554  13.930  1.00  0.00     0.167 HD
HETATM    6  C   UNL     1     -40.534 -50.926  12.758  1.00  0.00     0.114 A 
HETATM    7  C   UNL     1     -42.140 -47.799  13.040  1.00  0.00     0.185 A 
HETATM    8  N   UNL     1     -39.134 -48.785  11.463  1.00  0.00    -0.336 N 
ATOM      9  HN  UNL     1     -38.613 -48.042  10.997  1.00  0.00     0.168 HD
HETATM   10  N   UNL     1     -39.374 -51.139  12.080  1.00  0.00    -0.341 N 
ATOM     11  HN  UNL     1     -38.978 -52.077  12.009  1.00  0.00     0.167 HD
HETATM   12  C   UNL     1     -38.755 -50.085  11.501  1.00  0.00     0.183 A 
ENDROOT
BRANCH   6  13
HETATM   13  N   UNL     1     -41.239 -51.978  13.368  1.00  0.00    -0.267 NA
HETATM   14  C   UNL     1     -42.368 -52.527  12.611  1.00  0.00     0.101 C 
HETATM   15  C   UNL     1     -43.226 -53.390  13.572  1.00  0.00    -0.001 C 
HETATM   16  C   UNL     1     -42.354 -54.476  14.231  1.00  0.00     0.007 C 
HETATM   17  C   UNL     1     -41.114 -53.877  14.889  1.00  0.00     0.015 C 
HETATM   18  C   UNL     1     -40.334 -52.992  13.920  1.00  0.00     0.097 C 
BRANCH  15  19
HETATM   19  C   UNL     1     -44.445 -53.992  12.844  1.00  0.00     0.015 C 
BRANCH  19  20
HETATM   20  C   UNL     1     -45.199 -55.027  13.688  1.00  0.00     0.103 C 
BRANCH  20  21
HETATM   21  C   UNL     1     -46.098 -54.396  14.727  1.00  0.00     0.215 C 
HETATM   22  O   UNL     1     -46.041 -54.619  15.930  1.00  0.00    -0.274 OA
HETATM   23  N   UNL     1     -47.010 -53.521  14.217  1.00  0.00    -0.370 N 
HETATM   24  H   UNL     1     -47.074 -53.300  13.232  1.00  0.00     0.159 HD
HETATM   25  H   UNL     1     -47.628 -53.048  14.864  1.00  0.00     0.159 HD
ENDBRANCH  20  21
ENDBRANCH  19  20
ENDBRANCH  15  19
ENDBRANCH   6  13
BRANCH   1  26
HETATM   26  C   UNL     1     -40.865 -46.115  11.841  1.00  0.00     0.094 C 
HETATM   27  C   UNL     1     -41.370 -44.995  12.798  1.00  0.00     0.039 C 
HETATM   28  C   UNL     1     -41.637 -44.139  11.505  1.00  0.00     0.006 C 
HETATM   29  C   UNL     1     -41.901 -45.546  10.836  1.00  0.00     0.039 C 
BRANCH  28  30
HETATM   30  C   UNL     1     -42.844 -43.207  11.611  1.00  0.00     0.175 C 
BRANCH  30  31
HETATM   31  O   UNL     1     -43.155 -42.658  10.334  1.00  0.00    -0.400 OA
HETATM   32  H   UNL     1     -42.424 -42.051  10.098  1.00  0.00     0.209 HD
ENDBRANCH  30  31
ENDBRANCH  28  30
BRANCH  28  33
HETATM   33  C   UNL     1     -40.394 -43.357  11.033  1.00  0.00     0.175 C 
BRANCH  33  34
HETATM   34  O   UNL     1     -40.575 -41.965  11.278  1.00  0.00    -0.400 OA
HETATM   35  H   UNL     1     -39.715 -41.605  11.562  1.00  0.00     0.209 HD
ENDBRANCH  33  34
ENDBRANCH  28  33
ENDBRANCH   1  26
TORSDOF 9
ENDMDL
MODEL 2
REMARK VINA RESULT:      -6.5      1.862      2.449
REMARK  9 active torsions:
REMARK  status: ('A' for Active; 'I' for Inactive)
REMARK    1  A    between atoms: N_1  and  C_9 
REMARK    2  A    between atoms: C_6  and  N_8 
REMARK    3  A    between atoms: C_14  and  C_25 
REMARK    4  A    between atoms: C_14  and  C_26 
REMARK    5  A    between atoms: C_19  and  C_23 
REMARK       I    between atoms: C_19  and  N_21 
REMARK    6  A    between atoms: C_23  and  C_27 
REMARK    7  A    between atoms: C_24  and  C_27 
REMARK    8  A    between atoms: C_25  and  O_28 
REMARK    9  A    between atoms: C_26  and  O_29 
ROOT
HETATM    1  N   UNL     1     -41.796 -48.708  12.541  1.00  0.00    -0.322 N 
HETATM    2  C   UNL     1     -41.002 -50.507  13.489  1.00  0.00     0.117 A 
HETATM    3  C   UNL     1     -40.659 -49.473  12.616  1.00  0.00     0.140 A 
HETATM    4  N   UNL     1     -42.299 -50.362  13.947  1.00  0.00    -0.346 N 
ATOM      5  HN  UNL     1     -42.797 -50.959  14.606  1.00  0.00     0.167 HD
HETATM    6  C   UNL     1     -40.039 -51.515  13.749  1.00  0.00     0.114 A 
HETATM    7  C   UNL     1     -42.744 -49.289  13.345  1.00  0.00     0.185 A 
HETATM    8  N   UNL     1     -39.474 -49.313  12.001  1.00  0.00    -0.336 N 
ATOM      9  HN  UNL     1     -39.245 -48.539  11.378  1.00  0.00     0.168 HD
HETATM   10  N   UNL     1     -38.836 -51.390  13.125  1.00  0.00    -0.341 N 
ATOM     11  HN  UNL     1     -38.105 -52.089  13.260  1.00  0.00     0.167 HD
HETATM   12  C   UNL     1     -38.628 -50.321  12.323  1.00  0.00     0.183 A 
ENDROOT
BRANCH   6  13
HETATM   13  N   UNL     1     -40.330 -52.610  14.581  1.00  0.00    -0.267 NA
HETATM   14  C   UNL     1     -41.489 -53.422  14.203  1.00  0.00     0.101 C 
HETATM   15  C   UNL     1     -41.868 -54.324  15.406  1.00  0.00    -0.001 C 
HETATM   16  C   UNL     1     -40.653 -55.167  15.840  1.00  0.00     0.007 C 
HETATM   17  C   UNL     1     -39.425 -54.295  16.090  1.00  0.00     0.015 C 
HETATM   18  C   UNL     1     -39.128 -53.386  14.900  1.00  0.00     0.097 C 
BRANCH  15  19
HETATM   19  C   UNL     1     -43.093 -55.202  15.083  1.00  0.00     0.015 C 
BRANCH  19  20
HETATM   20  C   UNL     1     -44.411 -54.417  15.074  1.00  0.00     0.103 C 
BRANCH  20  21
HETATM   21  C   UNL     1     -45.254 -54.697  13.850  1.00  0.00     0.215 C 
HETATM   22  O   UNL     1     -44.878 -54.550  12.693  1.00  0.00    -0.274 OA
HETATM   23  N   UNL     1     -46.508 -55.150  14.129  1.00  0.00    -0.370 N 
HETATM   24  H   UNL     1     -46.845 -55.300  15.071  1.00  0.00     0.159 HD
HETATM   25  H   UNL     1     -47.115 -55.377  13.352  1.00  0.00     0.159 HD
ENDBRANCH  20  21
ENDBRANCH  19  20
ENDBRANCH  15  19
ENDBRANCH   6  13
BRANCH   1  26
HETATM   26  C   UNL     1     -42.124 -47.525  11.793  1.00  0.00     0.094 C 
HETATM   27  C   UNL     1     -43.542 -47.492  11.147  1.00  0.00     0.039 C 
HETATM   28  C   UNL     1     -42.910 -46.580  10.031  1.00  0.00     0.006 C 
HETATM   29  C   UNL     1     -41.600 -47.408  10.336  1.00  0.00     0.039 C 
BRANCH  28  30
HETATM   30  C   UNL     1     -43.522 -46.778   8.643  1.00  0.00     0.175 C 
BRANCH  30  31
HETATM   31  O   UNL     1     -42.743 -46.099   7.662  1.00  0.00    -0.400 OA
HETATM   32  H   UNL     1     -43.364 -45.775   6.977  1.00  0.00     0.209 HD
ENDBRANCH  30  31
ENDBRANCH  28  30
BRANCH  28  33
HETATM   33  C   UNL     1     -42.901 -45.084  10.407  1.00  0.00     0.175 C 
BRANCH  33  34
HETATM   34  O   UNL     1     -43.804 -44.368   9.569  1.00  0.00    -0.400 OA
HETATM   35  H   UNL     1     -44.252 -45.020   8.998  1.00  0.00     0.209 HD
ENDBRANCH  33  34
ENDBRANCH  28  33
ENDBRANCH   1  26
TORSDOF 9
ENDMDL
MODEL 3
REMARK VINA RESULT:      -6.5      0.774      1.255
REMARK  9 active torsions:
REMARK  status: ('A' for Active; 'I' for Inactive)
REMARK    1  A    between atoms: N_1  and  C_9 
REMARK    2  A    between atoms: C_6  and  N_8 
REMARK    3  A    between atoms: C_14  and  C_25 
REMARK    4  A    between atoms: C_14  and  C_26 
REMARK    5  A    between atoms: C_19  and  C_23 
REMARK       I    between atoms: C_19  and  N_21 
REMARK    6  A    between atoms: C_23  and  C_27 
REMARK    7  A    between atoms: C_24  and  C_27 
REMARK    8  A    between atoms: C_25  and  O_28 
REMARK    9  A    between atoms: C_26  and  O_29 
ROOT
HETATM    1  N   UNL     1     -41.038 -47.440  12.424  1.00  0.00    -0.322 N 
HETATM    2  C   UNL     1     -41.037 -49.580  12.852  1.00  0.00     0.117 A 
HETATM    3  C   UNL     1     -40.317 -48.584  12.190  1.00  0.00     0.140 A 
HETATM    4  N   UNL     1     -42.147 -49.055  13.486  1.00  0.00    -0.346 N 
ATOM      5  HN  UNL     1     -42.833 -49.550  14.055  1.00  0.00     0.167 HD
HETATM    6  C   UNL     1     -40.570 -50.917  12.765  1.00  0.00     0.114 A 
HETATM    7  C   UNL     1     -42.123 -47.780  13.192  1.00  0.00     0.185 A 
HETATM    8  N   UNL     1     -39.186 -48.757  11.485  1.00  0.00    -0.336 N 
ATOM      9  HN  UNL     1     -38.671 -48.007  11.022  1.00  0.00     0.168 HD
HETATM   10  N   UNL     1     -39.437 -51.125  12.041  1.00  0.00    -0.341 N 
ATOM     11  HN  UNL     1     -39.057 -52.066  11.930  1.00  0.00     0.167 HD
HETATM   12  C   UNL     1     -38.824 -50.062  11.472  1.00  0.00     0.183 A 
ENDROOT
BRANCH   6  13
HETATM   13  N   UNL     1     -41.269 -51.977  13.368  1.00  0.00    -0.267 NA
HETATM   14  C   UNL     1     -42.401 -52.520  12.613  1.00  0.00     0.101 C 
HETATM   15  C   UNL     1     -43.251 -53.397  13.570  1.00  0.00    -0.001 C 
HETATM   16  C   UNL     1     -42.372 -54.488  14.212  1.00  0.00     0.007 C 
HETATM   17  C   UNL     1     -41.128 -53.893  14.868  1.00  0.00     0.015 C 
HETATM   18  C   UNL     1     -40.358 -52.995  13.903  1.00  0.00     0.097 C 
BRANCH  15  19
HETATM   19  C   UNL     1     -44.473 -53.993  12.844  1.00  0.00     0.015 C 
BRANCH  19  20
HETATM   20  C   UNL     1     -45.224 -55.034  13.685  1.00  0.00     0.103 C 
BRANCH  20  21
HETATM   21  C   UNL     1     -46.078 -54.411  14.766  1.00  0.00     0.215 C 
HETATM   22  O   UNL     1     -45.906 -54.565  15.969  1.00  0.00    -0.274 OA
HETATM   23  N   UNL     1     -47.090 -53.629  14.295  1.00  0.00    -0.370 N 
HETATM   24  H   UNL     1     -47.250 -53.466  13.310  1.00  0.00     0.159 HD
HETATM   25  H   UNL     1     -47.685 -53.165  14.969  1.00  0.00     0.159 HD
ENDBRANCH  20  21
ENDBRANCH  19  20
ENDBRANCH  15  19
ENDBRANCH   6  13
BRANCH   1  26
HETATM   26  C   UNL     1     -40.866 -46.078  11.998  1.00  0.00     0.094 C 
HETATM   27  C   UNL     1     -39.662 -45.310  12.621  1.00  0.00     0.039 C 
HETATM   28  C   UNL     1     -40.522 -44.005  12.443  1.00  0.00     0.006 C 
HETATM   29  C   UNL     1     -41.742 -44.983  12.665  1.00  0.00     0.039 C 
BRANCH  28  30
HETATM   30  C   UNL     1     -40.296 -42.955  13.531  1.00  0.00     0.175 C 
BRANCH  30  31
HETATM   31  O   UNL     1     -39.149 -42.167  13.224  1.00  0.00    -0.400 OA
HETATM   32  H   UNL     1     -38.363 -42.717  13.423  1.00  0.00     0.209 HD
ENDBRANCH  30  31
ENDBRANCH  28  30
BRANCH  28  33
HETATM   33  C   UNL     1     -40.373 -43.371  11.044  1.00  0.00     0.175 C 
BRANCH  33  34
HETATM   34  O   UNL     1     -40.926 -42.057  11.047  1.00  0.00    -0.400 OA
HETATM   35  H   UNL     1     -41.468 -41.970  11.852  1.00  0.00     0.209 HD
ENDBRANCH  33  34
ENDBRANCH  28  33
ENDBRANCH   1  26
TORSDOF 9
ENDMDL
MODEL 4
REMARK VINA RESULT:      -6.5      2.633      8.150
REMARK  9 active torsions:
REMARK  status: ('A' for Active; 'I' for Inactive)
REMARK    1  A    between atoms: N_1  and  C_9 
REMARK    2  A    between atoms: C_6  and  N_8 
REMARK    3  A    between atoms: C_14  and  C_25 
REMARK    4  A    between atoms: C_14  and  C_26 
REMARK    5  A    between atoms: C_19  and  C_23 
REMARK       I    between atoms: C_19  and  N_21 
REMARK    6  A    between atoms: C_23  and  C_27 
REMARK    7  A    between atoms: C_24  and  C_27 
REMARK    8  A    between atoms: C_25  and  O_28 
REMARK    9  A    between atoms: C_26  and  O_29 
ROOT
HETATM    1  N   UNL     1     -42.066 -51.468  13.264  1.00  0.00    -0.322 N 
HETATM    2  C   UNL     1     -41.637 -49.707  12.048  1.00  0.00     0.117 A 
HETATM    3  C   UNL     1     -41.056 -50.873  12.550  1.00  0.00     0.140 A 
HETATM    4  N   UNL     1     -42.963 -49.609  12.427  1.00  0.00    -0.346 N 
ATOM      5  HN  UNL     1     -43.628 -48.874  12.185  1.00  0.00     0.167 HD
HETATM    6  C   UNL     1     -40.827 -48.826  11.287  1.00  0.00     0.114 A 
HETATM    7  C   UNL     1     -43.176 -50.668  13.166  1.00  0.00     0.185 A 
HETATM    8  N   UNL     1     -39.787 -51.273  12.361  1.00  0.00    -0.336 N 
ATOM      9  HN  UNL     1     -39.391 -52.138  12.728  1.00  0.00     0.168 HD
HETATM   10  N   UNL     1     -39.532 -49.196  11.095  1.00  0.00    -0.341 N 
ATOM     11  HN  UNL     1     -38.894 -48.599  10.566  1.00  0.00     0.167 HD
HETATM   12  C   UNL     1     -39.105 -50.368  11.617  1.00  0.00     0.183 A 
ENDROOT
BRANCH   6  13
HETATM   13  N   UNL     1     -41.332 -47.613  10.788  1.00  0.00    -0.267 NA
HETATM   14  C   UNL     1     -42.687 -47.654  10.232  1.00  0.00     0.101 C 
HETATM   15  C   UNL     1     -42.920 -46.356   9.417  1.00  0.00    -0.001 C 
HETATM   16  C   UNL     1     -42.667 -45.120  10.302  1.00  0.00     0.007 C 
HETATM   17  C   UNL     1     -41.298 -45.183  10.975  1.00  0.00     0.015 C 
HETATM   18  C   UNL     1     -41.095 -46.502  11.717  1.00  0.00     0.097 C 
BRANCH  15  19
HETATM   19  C   UNL     1     -44.328 -46.336   8.788  1.00  0.00     0.015 C 
BRANCH  19  20
HETATM   20  C   UNL     1     -44.867 -47.737   8.474  1.00  0.00     0.103 C 
BRANCH  20  21
HETATM   21  C   UNL     1     -46.324 -47.902   8.843  1.00  0.00     0.215 C 
HETATM   22  O   UNL     1     -47.134 -46.987   8.920  1.00  0.00    -0.274 OA
HETATM   23  N   UNL     1     -46.694 -49.191   9.086  1.00  0.00    -0.370 N 
HETATM   24  H   UNL     1     -46.057 -49.973   9.013  1.00  0.00     0.159 HD
HETATM   25  H   UNL     1     -47.663 -49.372   9.317  1.00  0.00     0.159 HD
ENDBRANCH  20  21
ENDBRANCH  19  20
ENDBRANCH  15  19
ENDBRANCH   6  13
BRANCH   1  26
HETATM   26  C   UNL     1     -42.122 -52.668  14.053  1.00  0.00     0.094 C 
HETATM   27  C   UNL     1     -43.289 -53.649  13.732  1.00  0.00     0.039 C 
HETATM   28  C   UNL     1     -43.220 -54.080  15.243  1.00  0.00     0.006 C 
HETATM   29  C   UNL     1     -42.751 -52.588  15.470  1.00  0.00     0.039 C 
BRANCH  28  30
HETATM   30  C   UNL     1     -44.573 -54.458  15.847  1.00  0.00     0.175 C 
BRANCH  30  31
HETATM   31  O   UNL     1     -44.444 -54.665  17.250  1.00  0.00    -0.400 OA
HETATM   32  H   UNL     1     -43.513 -54.469  17.485  1.00  0.00     0.209 HD
ENDBRANCH  30  31
ENDBRANCH  28  30
BRANCH  28  33
HETATM   33  C   UNL     1     -42.183 -55.191  15.507  1.00  0.00     0.175 C 
BRANCH  33  34
HETATM   34  O   UNL     1     -42.846 -56.386  15.911  1.00  0.00    -0.400 OA
HETATM   35  H   UNL     1     -42.409 -57.130  15.457  1.00  0.00     0.209 HD
ENDBRANCH  33  34
ENDBRANCH  28  33
ENDBRANCH   1  26
TORSDOF 9
ENDMDL
MODEL 5
REMARK VINA RESULT:      -6.4      2.245      3.339
REMARK  9 active torsions:
REMARK  status: ('A' for Active; 'I' for Inactive)
REMARK    1  A    between atoms: N_1  and  C_9 
REMARK    2  A    between atoms: C_6  and  N_8 
REMARK    3  A    between atoms: C_14  and  C_25 
REMARK    4  A    between atoms: C_14  and  C_26 
REMARK    5  A    between atoms: C_19  and  C_23 
REMARK       I    between atoms: C_19  and  N_21 
REMARK    6  A    between atoms: C_23  and  C_27 
REMARK    7  A    between atoms: C_24  and  C_27 
REMARK    8  A    between atoms: C_25  and  O_28 
REMARK    9  A    between atoms: C_26  and  O_29 
ROOT
HETATM    1  N   UNL     1     -42.246 -49.537  12.277  1.00  0.00    -0.322 N 
HETATM    2  C   UNL     1     -42.870 -51.488  13.033  1.00  0.00     0.117 A 
HETATM    3  C   UNL     1     -41.883 -50.861  12.271  1.00  0.00     0.140 A 
HETATM    4  N   UNL     1     -43.790 -50.572  13.506  1.00  0.00    -0.346 N 
ATOM      5  HN  UNL     1     -44.599 -50.751  14.102  1.00  0.00     0.167 HD
HETATM    6  C   UNL     1     -42.808 -52.897  13.186  1.00  0.00     0.114 A 
HETATM    7  C   UNL     1     -43.395 -49.424  13.019  1.00  0.00     0.185 A 
HETATM    8  N   UNL     1     -40.839 -51.462  11.674  1.00  0.00    -0.336 N 
ATOM      9  HN  UNL     1     -40.123 -50.977  11.133  1.00  0.00     0.168 HD
HETATM   10  N   UNL     1     -41.772 -53.535  12.576  1.00  0.00    -0.341 N 
ATOM     11  HN  UNL     1     -41.678 -54.549  12.637  1.00  0.00     0.167 HD
HETATM   12  C   UNL     1     -40.870 -52.800  11.888  1.00  0.00     0.183 A 
ENDROOT
BRANCH   6  13
HETATM   13  N   UNL     1     -43.792 -53.600  13.902  1.00  0.00    -0.267 NA
HETATM   14  C   UNL     1     -44.302 -52.951  15.112  1.00  0.00     0.101 C 
HETATM   15  C   UNL     1     -45.076 -54.006  15.944  1.00  0.00    -0.001 C 
HETATM   16  C   UNL     1     -46.185 -54.647  15.088  1.00  0.00     0.007 C 
HETATM   17  C   UNL     1     -45.635 -55.189  13.771  1.00  0.00     0.015 C 
HETATM   18  C   UNL     1     -44.835 -54.130  13.016  1.00  0.00     0.097 C 
BRANCH  15  19
HETATM   19  C   UNL     1     -45.633 -53.394  17.244  1.00  0.00     0.015 C 
BRANCH  19  20
HETATM   20  C   UNL     1     -45.883 -51.884  17.140  1.00  0.00     0.103 C 
BRANCH  20  21
HETATM   21  C   UNL     1     -47.265 -51.552  16.623  1.00  0.00     0.215 C 
HETATM   22  O   UNL     1     -48.284 -51.550  17.302  1.00  0.00    -0.274 OA
HETATM   23  N   UNL     1     -47.303 -51.234  15.298  1.00  0.00    -0.370 N 
HETATM   24  H   UNL     1     -46.479 -51.208  14.712  1.00  0.00     0.159 HD
HETATM   25  H   UNL     1     -48.196 -50.981  14.895  1.00  0.00     0.159 HD
ENDBRANCH  20  21
ENDBRANCH  19  20
ENDBRANCH  15  19
ENDBRANCH   6  13
BRANCH   1  26
HETATM   26  C   UNL     1     -41.681 -48.371  11.656  1.00  0.00     0.094 C 
HETATM   27  C   UNL     1     -42.419 -47.025  11.921  1.00  0.00     0.039 C 
HETATM   28  C   UNL     1     -41.897 -46.568  10.509  1.00  0.00     0.006 C 
HETATM   29  C   UNL     1     -42.005 -48.106  10.161  1.00  0.00     0.039 C 
BRANCH  28  30
HETATM   30  C   UNL     1     -42.855 -45.641   9.759  1.00  0.00     0.175 C 
BRANCH  30  31
HETATM   31  O   UNL     1     -42.802 -45.907   8.361  1.00  0.00    -0.400 OA
HETATM   32  H   UNL     1     -41.979 -45.498   8.022  1.00  0.00     0.209 HD
ENDBRANCH  30  31
ENDBRANCH  28  30
BRANCH  28  33
HETATM   33  C   UNL     1     -40.483 -45.955  10.557  1.00  0.00     0.175 C 
BRANCH  33  34
HETATM   34  O   UNL     1     -40.286 -45.101   9.433  1.00  0.00    -0.400 OA
HETATM   35  H   UNL     1     -40.123 -45.671   8.659  1.00  0.00     0.209 HD
ENDBRANCH  33  34
ENDBRANCH  28  33
ENDBRANCH   1  26
TORSDOF 9
ENDMDL
MODEL 6
REMARK VINA RESULT:      -6.3      3.399      8.162
REMARK  9 active torsions:
REMARK  status: ('A' for Active; 'I' for Inactive)
REMARK    1  A    between atoms: N_1  and  C_9 
REMARK    2  A    between atoms: C_6  and  N_8 
REMARK    3  A    between atoms: C_14  and  C_25 
REMARK    4  A    between atoms: C_14  and  C_26 
REMARK    5  A    between atoms: C_19  and  C_23 
REMARK       I    between atoms: C_19  and  N_21 
REMARK    6  A    between atoms: C_23  and  C_27 
REMARK    7  A    between atoms: C_24  and  C_27 
REMARK    8  A    between atoms: C_25  and  O_28 
REMARK    9  A    between atoms: C_26  and  O_29 
ROOT
HETATM    1  N   UNL     1     -41.379 -51.778  13.261  1.00  0.00    -0.322 N 
HETATM    2  C   UNL     1     -41.264 -49.946  12.080  1.00  0.00     0.117 A 
HETATM    3  C   UNL     1     -40.473 -50.934  12.668  1.00  0.00     0.140 A 
HETATM    4  N   UNL     1     -42.608 -50.195  12.289  1.00  0.00    -0.346 N 
ATOM      5  HN  UNL     1     -43.402 -49.650  11.954  1.00  0.00     0.167 HD
HETATM    6  C   UNL     1     -40.617 -48.876  11.411  1.00  0.00     0.114 A 
HETATM    7  C   UNL     1     -42.634 -51.285  13.012  1.00  0.00     0.185 A 
HETATM    8  N   UNL     1     -39.131 -50.994  12.645  1.00  0.00    -0.336 N 
ATOM      9  HN  UNL     1     -38.576 -51.737  13.073  1.00  0.00     0.168 HD
HETATM   10  N   UNL     1     -39.257 -48.901  11.388  1.00  0.00    -0.341 N 
ATOM     11  HN  UNL     1     -38.731 -48.153  10.933  1.00  0.00     0.167 HD
HETATM   12  C   UNL     1     -38.614 -49.934  11.978  1.00  0.00     0.183 A 
ENDROOT
BRANCH   6  13
HETATM   13  N   UNL     1     -41.348 -47.823  10.834  1.00  0.00    -0.267 NA
HETATM   14  C   UNL     1     -42.478 -48.208   9.984  1.00  0.00     0.101 C 
HETATM   15  C   UNL     1     -42.915 -46.968   9.161  1.00  0.00    -0.001 C 
HETATM   16  C   UNL     1     -43.240 -45.794  10.104  1.00  0.00     0.007 C 
HETATM   17  C   UNL     1     -42.090 -45.514  11.069  1.00  0.00     0.015 C 
HETATM   18  C   UNL     1     -41.659 -46.776  11.812  1.00  0.00     0.097 C 
BRANCH  15  19
HETATM   19  C   UNL     1     -44.097 -47.304   8.230  1.00  0.00     0.015 C 
BRANCH  19  20
HETATM   20  C   UNL     1     -45.435 -47.413   8.971  1.00  0.00     0.103 C 
BRANCH  20  21
HETATM   21  C   UNL     1     -46.272 -48.583   8.503  1.00  0.00     0.215 C 
HETATM   22  O   UNL     1     -46.454 -48.888   7.331  1.00  0.00    -0.274 OA
HETATM   23  N   UNL     1     -46.829 -49.309   9.513  1.00  0.00    -0.370 N 
HETATM   24  H   UNL     1     -46.686 -49.096  10.491  1.00  0.00     0.159 HD
HETATM   25  H   UNL     1     -47.384 -50.119   9.266  1.00  0.00     0.159 HD
ENDBRANCH  20  21
ENDBRANCH  19  20
ENDBRANCH  15  19
ENDBRANCH   6  13
BRANCH   1  26
HETATM   26  C   UNL     1     -41.225 -52.966  14.056  1.00  0.00     0.094 C 
HETATM   27  C   UNL     1     -40.374 -52.820  15.353  1.00  0.00     0.039 C 
HETATM   28  C   UNL     1     -39.992 -54.334  15.163  1.00  0.00     0.006 C 
HETATM   29  C   UNL     1     -40.154 -54.004  13.626  1.00  0.00     0.039 C 
BRANCH  28  30
HETATM   30  C   UNL     1     -38.579 -54.685  15.629  1.00  0.00     0.175 C 
BRANCH  30  31
HETATM   31  O   UNL     1     -38.204 -55.968  15.138  1.00  0.00    -0.400 OA
HETATM   32  H   UNL     1     -37.490 -55.828  14.484  1.00  0.00     0.209 HD
ENDBRANCH  30  31
ENDBRANCH  28  30
BRANCH  28  33
HETATM   33  C   UNL     1     -41.021 -55.299  15.788  1.00  0.00     0.175 C 
BRANCH  33  34
HETATM   34  O   UNL     1     -40.449 -55.949  16.920  1.00  0.00    -0.400 OA
HETATM   35  H   UNL     1     -40.655 -56.899  16.846  1.00  0.00     0.209 HD
ENDBRANCH  33  34
ENDBRANCH  28  33
ENDBRANCH   1  26
TORSDOF 9
ENDMDL
MODEL 7
REMARK VINA RESULT:      -6.0      2.540      4.046
REMARK  9 active torsions:
REMARK  status: ('A' for Active; 'I' for Inactive)
REMARK    1  A    between atoms: N_1  and  C_9 
REMARK    2  A    between atoms: C_6  and  N_8 
REMARK    3  A    between atoms: C_14  and  C_25 
REMARK    4  A    between atoms: C_14  and  C_26 
REMARK    5  A    between atoms: C_19  and  C_23 
REMARK       I    between atoms: C_19  and  N_21 
REMARK    6  A    between atoms: C_23  and  C_27 
REMARK    7  A    between atoms: C_24  and  C_27 
REMARK    8  A    between atoms: C_25  and  O_28 
REMARK    9  A    between atoms: C_26  and  O_29 
ROOT
HETATM    1  N   UNL     1     -42.622 -47.603  12.613  1.00  0.00    -0.322 N 
HETATM    2  C   UNL     1     -43.242 -49.401  13.685  1.00  0.00     0.117 A 
HETATM    3  C   UNL     1     -42.935 -48.053  13.872  1.00  0.00     0.140 A 
HETATM    4  N   UNL     1     -43.140 -49.755  12.352  1.00  0.00    -0.346 N 
ATOM      5  HN  UNL     1     -43.327 -50.665  11.932  1.00  0.00     0.167 HD
HETATM    6  C   UNL     1     -43.570 -50.181  14.824  1.00  0.00     0.114 A 
HETATM    7  C   UNL     1     -42.751 -48.661  11.748  1.00  0.00     0.185 A 
HETATM    8  N   UNL     1     -42.944 -47.391  15.042  1.00  0.00    -0.336 N 
ATOM      9  HN  UNL     1     -42.730 -46.400  15.149  1.00  0.00     0.168 HD
HETATM   10  N   UNL     1     -43.569 -49.542  16.025  1.00  0.00    -0.341 N 
ATOM     11  HN  UNL     1     -43.785 -50.049  16.883  1.00  0.00     0.167 HD
HETATM   12  C   UNL     1     -43.278 -48.222  16.059  1.00  0.00     0.183 A 
ENDROOT
BRANCH   6  13
HETATM   13  N   UNL     1     -43.846 -51.555  14.716  1.00  0.00    -0.267 NA
HETATM   14  C   UNL     1     -42.759 -52.466  15.085  1.00  0.00     0.101 C 
HETATM   15  C   UNL     1     -43.109 -53.882  14.559  1.00  0.00    -0.001 C 
HETATM   16  C   UNL     1     -44.481 -54.326  15.103  1.00  0.00     0.007 C 
HETATM   17  C   UNL     1     -45.560 -53.284  14.820  1.00  0.00     0.015 C 
HETATM   18  C   UNL     1     -45.145 -51.897  15.305  1.00  0.00     0.097 C 
BRANCH  15  19
HETATM   19  C   UNL     1     -41.998 -54.895  14.901  1.00  0.00     0.015 C 
BRANCH  19  20
HETATM   20  C   UNL     1     -40.617 -54.245  15.054  1.00  0.00     0.103 C 
BRANCH  20  21
HETATM   21  C   UNL     1     -39.849 -54.184  13.753  1.00  0.00     0.215 C 
HETATM   22  O   UNL     1     -40.114 -53.437  12.819  1.00  0.00    -0.274 OA
HETATM   23  N   UNL     1     -38.794 -55.044  13.687  1.00  0.00    -0.370 N 
HETATM   24  H   UNL     1     -38.536 -55.661  14.446  1.00  0.00     0.159 HD
HETATM   25  H   UNL     1     -38.226 -55.037  12.850  1.00  0.00     0.159 HD
ENDBRANCH  20  21
ENDBRANCH  19  20
ENDBRANCH  15  19
ENDBRANCH   6  13
BRANCH   1  26
HETATM   26  C   UNL     1     -42.188 -46.326  12.117  1.00  0.00     0.094 C 
HETATM   27  C   UNL     1     -41.682 -46.297  10.644  1.00  0.00     0.039 C 
HETATM   28  C   UNL     1     -40.753 -45.106  11.084  1.00  0.00     0.006 C 
HETATM   29  C   UNL     1     -40.758 -45.844  12.481  1.00  0.00     0.039 C 
BRANCH  28  30
HETATM   30  C   UNL     1     -39.410 -45.060  10.354  1.00  0.00     0.175 C 
BRANCH  30  31
HETATM   31  O   UNL     1     -39.600 -44.659   9.001  1.00  0.00    -0.400 OA
HETATM   32  H   UNL     1     -40.559 -44.501   8.881  1.00  0.00     0.209 HD
ENDBRANCH  30  31
ENDBRANCH  28  30
BRANCH  28  33
HETATM   33  C   UNL     1     -41.453 -43.734  11.010  1.00  0.00     0.175 C 
BRANCH  33  34
HETATM   34  O   UNL     1     -40.507 -42.725  10.668  1.00  0.00    -0.400 OA
HETATM   35  H   UNL     1     -40.979 -41.872  10.666  1.00  0.00     0.209 HD
ENDBRANCH  33  34
ENDBRANCH  28  33
ENDBRANCH   1  26
TORSDOF 9
ENDMDL
MODEL 8
REMARK VINA RESULT:      -6.0      2.607      3.723
REMARK  9 active torsions:
REMARK  status: ('A' for Active; 'I' for Inactive)
REMARK    1  A    between atoms: N_1  and  C_9 
REMARK    2  A    between atoms: C_6  and  N_8 
REMARK    3  A    between atoms: C_14  and  C_25 
REMARK    4  A    between atoms: C_14  and  C_26 
REMARK    5  A    between atoms: C_19  and  C_23 
REMARK       I    between atoms: C_19  and  N_21 
REMARK    6  A    between atoms: C_23  and  C_27 
REMARK    7  A    between atoms: C_24  and  C_27 
REMARK    8  A    between atoms: C_25  and  O_28 
REMARK    9  A    between atoms: C_26  and  O_29 
ROOT
HETATM    1  N   UNL     1     -40.652 -47.887  12.426  1.00  0.00    -0.322 N 
HETATM    2  C   UNL     1     -40.002 -49.949  12.731  1.00  0.00     0.117 A 
HETATM    3  C   UNL     1     -39.635 -48.754  12.110  1.00  0.00     0.140 A 
HETATM    4  N   UNL     1     -41.191 -49.806  13.421  1.00  0.00    -0.346 N 
ATOM      5  HN  UNL     1     -41.677 -50.509  13.979  1.00  0.00     0.167 HD
HETATM    6  C   UNL     1     -39.166 -51.081  12.557  1.00  0.00     0.114 A 
HETATM    7  C   UNL     1     -41.556 -48.569  13.200  1.00  0.00     0.185 A 
HETATM    8  N   UNL     1     -38.533 -48.550  11.368  1.00  0.00    -0.336 N 
ATOM      9  HN  UNL     1     -38.281 -47.661  10.936  1.00  0.00     0.168 HD
HETATM   10  N   UNL     1     -38.052 -50.910  11.795  1.00  0.00    -0.341 N 
ATOM     11  HN  UNL     1     -37.416 -51.689  11.621  1.00  0.00     0.167 HD
HETATM   12  C   UNL     1     -37.803 -49.687  11.272  1.00  0.00     0.183 A 
ENDROOT
BRANCH   6  13
HETATM   13  N   UNL     1     -39.496 -52.328  13.116  1.00  0.00    -0.267 NA
HETATM   14  C   UNL     1     -39.173 -52.509  14.534  1.00  0.00     0.101 C 
HETATM   15  C   UNL     1     -39.260 -54.022  14.865  1.00  0.00    -0.001 C 
HETATM   16  C   UNL     1     -40.649 -54.570  14.485  1.00  0.00     0.007 C 
HETATM   17  C   UNL     1     -41.006 -54.238  13.038  1.00  0.00     0.015 C 
HETATM   18  C   UNL     1     -40.852 -52.747  12.747  1.00  0.00     0.097 C 
BRANCH  15  19
HETATM   19  C   UNL     1     -38.918 -54.290  16.344  1.00  0.00     0.015 C 
BRANCH  19  20
HETATM   20  C   UNL     1     -38.042 -55.533  16.544  1.00  0.00     0.103 C 
BRANCH  20  21
HETATM   21  C   UNL     1     -38.786 -56.678  17.195  1.00  0.00     0.215 C 
HETATM   22  O   UNL     1     -39.765 -57.237  16.716  1.00  0.00    -0.274 OA
HETATM   23  N   UNL     1     -38.271 -57.068  18.394  1.00  0.00    -0.370 N 
HETATM   24  H   UNL     1     -37.454 -56.640  18.810  1.00  0.00     0.159 HD
HETATM   25  H   UNL     1     -38.711 -57.844  18.871  1.00  0.00     0.159 HD
ENDBRANCH  20  21
ENDBRANCH  19  20
ENDBRANCH  15  19
ENDBRANCH   6  13
BRANCH   1  26
HETATM   26  C   UNL     1     -40.906 -46.517  12.074  1.00  0.00     0.094 C 
HETATM   27  C   UNL     1     -42.395 -46.060  12.117  1.00  0.00     0.039 C 
HETATM   28  C   UNL     1     -42.017 -45.037  10.984  1.00  0.00     0.006 C 
HETATM   29  C   UNL     1     -40.969 -46.145  10.568  1.00  0.00     0.039 C 
BRANCH  28  30
HETATM   30  C   UNL     1     -43.142 -44.769   9.984  1.00  0.00     0.175 C 
BRANCH  30  31
HETATM   31  O   UNL     1     -43.655 -43.452  10.163  1.00  0.00    -0.400 OA
HETATM   32  H   UNL     1     -43.108 -43.022  10.852  1.00  0.00     0.209 HD
ENDBRANCH  30  31
ENDBRANCH  28  30
BRANCH  28  33
HETATM   33  C   UNL     1     -41.457 -43.709  11.533  1.00  0.00     0.175 C 
BRANCH  33  34
HETATM   34  O   UNL     1     -40.969 -42.908  10.459  1.00  0.00    -0.400 OA
HETATM   35  H   UNL     1     -41.036 -41.976  10.736  1.00  0.00     0.209 HD
ENDBRANCH  33  34
ENDBRANCH  28  33
ENDBRANCH   1  26
TORSDOF 9
ENDMDL
MODEL 9
REMARK VINA RESULT:      -5.9      3.164      4.247
REMARK  9 active torsions:
REMARK  status: ('A' for Active; 'I' for Inactive)
REMARK    1  A    between atoms: N_1  and  C_9 
REMARK    2  A    between atoms: C_6  and  N_8 
REMARK    3  A    between atoms: C_14  and  C_25 
REMARK    4  A    between atoms: C_14  and  C_26 
REMARK    5  A    between atoms: C_19  and  C_23 
REMARK       I    between atoms: C_19  and  N_21 
REMARK    6  A    between atoms: C_23  and  C_27 
REMARK    7  A    between atoms: C_24  and  C_27 
REMARK    8  A    between atoms: C_25  and  O_28 
REMARK    9  A    between atoms: C_26  and  O_29 
ROOT
HETATM    1  N   UNL     1     -41.753 -49.177  12.210  1.00  0.00    -0.322 N 
HETATM    2  C   UNL     1     -40.939 -50.652  13.599  1.00  0.00     0.117 A 
HETATM    3  C   UNL     1     -41.369 -50.493  12.281  1.00  0.00     0.140 A 
HETATM    4  N   UNL     1     -41.036 -49.464  14.300  1.00  0.00    -0.346 N 
ATOM      5  HN  UNL     1     -40.772 -49.289  15.270  1.00  0.00     0.167 HD
HETATM    6  C   UNL     1     -40.512 -51.938  14.017  1.00  0.00     0.114 A 
HETATM    7  C   UNL     1     -41.542 -48.614  13.443  1.00  0.00     0.185 A 
HETATM    8  N   UNL     1     -41.397 -51.447  11.335  1.00  0.00    -0.336 N 
ATOM      9  HN  UNL     1     -41.704 -51.301  10.373  1.00  0.00     0.168 HD
HETATM   10  N   UNL     1     -40.547 -52.928  13.085  1.00  0.00    -0.341 N 
ATOM     11  HN  UNL     1     -40.264 -53.879  13.326  1.00  0.00     0.167 HD
HETATM   12  C   UNL     1     -40.963 -52.630  11.833  1.00  0.00     0.183 A 
ENDROOT
BRANCH   6  13
HETATM   13  N   UNL     1     -40.107 -52.181  15.341  1.00  0.00    -0.267 NA
HETATM   14  C   UNL     1     -40.507 -53.468  15.915  1.00  0.00     0.101 C 
HETATM   15  C   UNL     1     -40.306 -53.401  17.452  1.00  0.00    -0.001 C 
HETATM   16  C   UNL     1     -38.850 -53.019  17.780  1.00  0.00     0.007 C 
HETATM   17  C   UNL     1     -38.427 -51.745  17.051  1.00  0.00     0.015 C 
HETATM   18  C   UNL     1     -38.697 -51.839  15.551  1.00  0.00     0.097 C 
BRANCH  15  19
HETATM   19  C   UNL     1     -40.720 -54.724  18.128  1.00  0.00     0.015 C 
BRANCH  19  20
HETATM   20  C   UNL     1     -40.902 -55.877  17.133  1.00  0.00     0.103 C 
BRANCH  20  21
HETATM   21  C   UNL     1     -39.674 -56.753  17.019  1.00  0.00     0.215 C 
HETATM   22  O   UNL     1     -38.678 -56.478  16.362  1.00  0.00    -0.274 OA
HETATM   23  N   UNL     1     -39.749 -57.913  17.730  1.00  0.00    -0.370 N 
HETATM   24  H   UNL     1     -40.548 -58.163  18.297  1.00  0.00     0.159 HD
HETATM   25  H   UNL     1     -38.950 -58.534  17.712  1.00  0.00     0.159 HD
ENDBRANCH  20  21
ENDBRANCH  19  20
ENDBRANCH  15  19
ENDBRANCH   6  13
BRANCH   1  26
HETATM   26  C   UNL     1     -42.319 -48.385  11.153  1.00  0.00     0.094 C 
HETATM   27  C   UNL     1     -41.434 -47.220  10.616  1.00  0.00     0.039 C 
HETATM   28  C   UNL     1     -42.778 -46.476  10.281  1.00  0.00     0.006 C 
HETATM   29  C   UNL     1     -43.330 -47.269  11.532  1.00  0.00     0.039 C 
BRANCH  28  30
HETATM   30  C   UNL     1     -42.704 -44.956  10.430  1.00  0.00     0.175 C 
BRANCH  30  31
HETATM   31  O   UNL     1     -43.739 -44.337   9.672  1.00  0.00    -0.400 OA
HETATM   32  H   UNL     1     -44.585 -44.540  10.122  1.00  0.00     0.209 HD
ENDBRANCH  30  31
ENDBRANCH  28  30
BRANCH  28  33
HETATM   33  C   UNL     1     -43.350 -46.854   8.899  1.00  0.00     0.175 C 
BRANCH  33  34
HETATM   34  O   UNL     1     -42.699 -46.097   7.882  1.00  0.00    -0.400 OA
HETATM   35  H   UNL     1     -41.740 -46.245   7.976  1.00  0.00     0.209 HD
ENDBRANCH  33  34
ENDBRANCH  28  33
ENDBRANCH   1  26
TORSDOF 9
ENDMDL
