MODEL 1
REMARK VINA RESULT:      -6.3      0.000      0.000
REMARK  4 active torsions:
REMARK  status: ('A' for Active; 'I' for Inactive)
REMARK    1  A    between atoms: N_5  and  C_8 
REMARK    2  A    between atoms: C_8  and  C_11 
REMARK    3  A    between atoms: C_11  and  N_12 
REMARK       I    between atoms: N_12  and  C_13 
REMARK       I    between atoms: C_13  and  N_15 
REMARK    4  A    between atoms: N_15  and  C_16 
ROOT
HETATM    1  N   UNL     1     -40.802 -49.065  10.447  1.00  0.00    -0.340 N 
HETATM    2  C   UNL     1     -41.779 -48.098  10.498  1.00  0.00     0.320 C 
HETATM    3  O   UNL     1     -41.874 -47.308  11.430  1.00  0.00    -0.247 OA
HETATM    4  N   UNL     1     -42.651 -48.186   9.440  1.00  0.00    -0.306 N 
HETATM    5  H   UNL     1     -40.464 -49.371   9.546  1.00  0.00     0.164 HD
HETATM    6  H   UNL     1     -42.614 -49.015   8.871  1.00  0.00     0.171 HD
ENDROOT
BRANCH   1   7
HETATM    7  C   UNL     1     -39.879 -49.215  11.560  1.00  0.00     0.165 C 
BRANCH   7   8
HETATM    8  C   UNL     1     -40.323 -50.271  12.632  1.00  0.00     0.168 C 
HETATM    9  C   UNL     1     -40.565 -49.454  13.919  1.00  0.00     0.050 C 
HETATM   10  C   UNL     1     -39.099 -51.187  12.904  1.00  0.00     0.050 C 
BRANCH   8  11
HETATM   11  N   UNL     1     -41.473 -51.087  12.121  1.00  0.00     0.102 N 
HETATM   12  C   UNL     1     -42.751 -50.975  12.854  1.00  0.00     0.303 C 
HETATM   13  C   UNL     1     -42.893 -51.865  14.112  1.00  0.00     0.302 C 
HETATM   14  N   UNL     1     -42.541 -53.286  13.944  1.00  0.00     0.087 N 
HETATM   15  C   UNL     1     -43.662 -54.056  13.416  1.00  0.00     0.310 C 
HETATM   16  C   UNL     1     -41.333 -53.452  13.115  1.00  0.00     0.302 C 
HETATM   17  C   UNL     1     -41.229 -52.525  11.880  1.00  0.00     0.303 C 
ENDBRANCH   8  11
ENDBRANCH   7   8
ENDBRANCH   1   7
BRANCH   4  18
HETATM   18  C   UNL     1     -43.759 -47.370   9.325  1.00  0.00     0.070 A 
HETATM   19  C   UNL     1     -45.118 -47.598   9.647  1.00  0.00     0.138 A 
HETATM   20  N   UNL     1     -45.895 -46.550   9.348  1.00  0.00    -0.310 N 
HETATM   21  N   UNL     1     -45.036 -45.667   8.821  1.00  0.00    -0.310 N 
ATOM     22  HN  UNL     1     -46.900 -46.447   9.488  1.00  0.00     0.186 HD
HETATM   23  C   UNL     1     -43.737 -46.094   8.818  1.00  0.00     0.138 A 
HETATM   24  H   UNL     1     -45.409 -44.790   8.474  1.00  0.00     0.186 HD
ENDBRANCH   4  18
TORSDOF 4
ENDMDL
MODEL 2
REMARK VINA RESULT:      -6.2      1.467      2.181
REMARK  4 active torsions:
REMARK  status: ('A' for Active; 'I' for Inactive)
REMARK    1  A    between atoms: N_5  and  C_8 
REMARK    2  A    between atoms: C_8  and  C_11 
REMARK    3  A    between atoms: C_11  and  N_12 
REMARK       I    between atoms: N_12  and  C_13 
REMARK       I    between atoms: C_13  and  N_15 
REMARK    4  A    between atoms: N_15  and  C_16 
ROOT
HETATM    1  N   UNL     1     -41.864 -49.665  11.501  1.00  0.00    -0.340 N 
HETATM    2  C   UNL     1     -42.654 -48.553  11.332  1.00  0.00     0.320 C 
HETATM    3  O   UNL     1     -43.156 -47.953  12.275  1.00  0.00    -0.247 OA
HETATM    4  N   UNL     1     -42.863 -48.263  10.005  1.00  0.00    -0.306 N 
HETATM    5  H   UNL     1     -41.135 -49.854  10.828  1.00  0.00     0.164 HD
HETATM    6  H   UNL     1     -42.600 -48.958   9.327  1.00  0.00     0.171 HD
ENDROOT
BRANCH   1   7
HETATM    7  C   UNL     1     -41.656 -50.205  12.835  1.00  0.00     0.165 C 
BRANCH   7   8
HETATM    8  C   UNL     1     -42.059 -51.713  12.994  1.00  0.00     0.168 C 
HETATM    9  C   UNL     1     -41.442 -52.150  14.339  1.00  0.00     0.050 C 
HETATM   10  C   UNL     1     -41.319 -52.502  11.881  1.00  0.00     0.050 C 
BRANCH   8  11
HETATM   11  N   UNL     1     -43.542 -51.879  12.843  1.00  0.00     0.102 N 
HETATM   12  C   UNL     1     -44.388 -51.377  13.947  1.00  0.00     0.303 C 
HETATM   13  C   UNL     1     -44.570 -52.329  15.152  1.00  0.00     0.302 C 
HETATM   14  N   UNL     1     -44.948 -53.717  14.831  1.00  0.00     0.087 N 
HETATM   15  C   UNL     1     -46.391 -53.851  14.657  1.00  0.00     0.310 C 
HETATM   16  C   UNL     1     -44.213 -54.222  13.657  1.00  0.00     0.302 C 
HETATM   17  C   UNL     1     -44.040 -53.224  12.486  1.00  0.00     0.303 C 
ENDBRANCH   8  11
ENDBRANCH   7   8
ENDBRANCH   1   7
BRANCH   4  18
HETATM   18  C   UNL     1     -43.691 -47.237   9.593  1.00  0.00     0.070 A 
HETATM   19  C   UNL     1     -43.464 -45.845   9.489  1.00  0.00     0.138 A 
HETATM   20  N   UNL     1     -44.549 -45.181   9.075  1.00  0.00    -0.310 N 
HETATM   21  N   UNL     1     -45.469 -46.146   8.935  1.00  0.00    -0.310 N 
ATOM     22  HN  UNL     1     -44.652 -44.181   8.907  1.00  0.00     0.186 HD
HETATM   23  C   UNL     1     -44.995 -47.401   9.197  1.00  0.00     0.138 A 
HETATM   24  H   UNL     1     -46.407 -45.872   8.663  1.00  0.00     0.186 HD
ENDBRANCH   4  18
TORSDOF 4
ENDMDL
MODEL 3
REMARK VINA RESULT:      -6.0      2.380      3.941
REMARK  4 active torsions:
REMARK  status: ('A' for Active; 'I' for Inactive)
REMARK    1  A    between atoms: N_5  and  C_8 
REMARK    2  A    between atoms: C_8  and  C_11 
REMARK    3  A    between atoms: C_11  and  N_12 
REMARK       I    between atoms: N_12  and  C_13 
REMARK       I    between atoms: C_13  and  N_15 
REMARK    4  A    between atoms: N_15  and  C_16 
ROOT
HETATM    1  N   UNL     1     -40.652 -49.611  10.648  1.00  0.00    -0.340 N 
HETATM    2  C   UNL     1     -41.698 -48.724  10.749  1.00  0.00     0.320 C 
HETATM    3  O   UNL     1     -42.342 -48.581  11.781  1.00  0.00    -0.247 OA
HETATM    4  N   UNL     1     -41.965 -48.100   9.554  1.00  0.00    -0.306 N 
HETATM    5  H   UNL     1     -39.895 -49.404  10.013  1.00  0.00     0.164 HD
HETATM    6  H   UNL     1     -41.529 -48.469   8.726  1.00  0.00     0.171 HD
ENDROOT
BRANCH   1   7
HETATM    7  C   UNL     1     -40.323 -50.468  11.776  1.00  0.00     0.165 C 
BRANCH   7   8
HETATM    8  C   UNL     1     -39.071 -50.004  12.599  1.00  0.00     0.168 C 
HETATM    9  C   UNL     1     -38.046 -49.545  11.539  1.00  0.00     0.050 C 
HETATM   10  C   UNL     1     -38.479 -51.268  13.279  1.00  0.00     0.050 C 
BRANCH   8  11
HETATM   11  N   UNL     1     -39.469 -48.998  13.637  1.00  0.00     0.102 N 
HETATM   12  C   UNL     1     -38.731 -47.718  13.647  1.00  0.00     0.303 C 
HETATM   13  C   UNL     1     -37.380 -47.717  14.401  1.00  0.00     0.302 C 
HETATM   14  N   UNL     1     -37.394 -48.290  15.758  1.00  0.00     0.087 N 
HETATM   15  C   UNL     1     -37.814 -47.305  16.750  1.00  0.00     0.310 C 
HETATM   16  C   UNL     1     -38.220 -49.509  15.824  1.00  0.00     0.302 C 
HETATM   17  C   UNL     1     -39.552 -49.467  15.037  1.00  0.00     0.303 C 
ENDBRANCH   8  11
ENDBRANCH   7   8
ENDBRANCH   1   7
BRANCH   4  18
HETATM   18  C   UNL     1     -43.024 -47.227   9.395  1.00  0.00     0.070 A 
HETATM   19  C   UNL     1     -44.326 -47.431   8.881  1.00  0.00     0.138 A 
HETATM   20  N   UNL     1     -45.049 -46.306   8.867  1.00  0.00    -0.310 N 
HETATM   21  N   UNL     1     -44.204 -45.386   9.351  1.00  0.00    -0.310 N 
ATOM     22  HN  UNL     1     -46.013 -46.178   8.559  1.00  0.00     0.186 HD
HETATM   23  C   UNL     1     -42.989 -45.894   9.719  1.00  0.00     0.138 A 
HETATM   24  H   UNL     1     -44.523 -44.424   9.397  1.00  0.00     0.186 HD
ENDBRANCH   4  18
TORSDOF 4
ENDMDL
MODEL 4
REMARK VINA RESULT:      -5.9      2.399      3.978
REMARK  4 active torsions:
REMARK  status: ('A' for Active; 'I' for Inactive)
REMARK    1  A    between atoms: N_5  and  C_8 
REMARK    2  A    between atoms: C_8  and  C_11 
REMARK    3  A    between atoms: C_11  and  N_12 
REMARK       I    between atoms: N_12  and  C_13 
REMARK       I    between atoms: C_13  and  N_15 
REMARK    4  A    between atoms: N_15  and  C_16 
ROOT
HETATM    1  N   UNL     1     -40.593 -48.704  10.743  1.00  0.00    -0.340 N 
HETATM    2  C   UNL     1     -41.573 -47.752  10.589  1.00  0.00     0.320 C 
HETATM    3  O   UNL     1     -41.569 -46.697  11.211  1.00  0.00    -0.247 OA
HETATM    4  N   UNL     1     -42.566 -48.165   9.734  1.00  0.00    -0.306 N 
HETATM    5  H   UNL     1     -40.362 -49.299   9.960  1.00  0.00     0.164 HD
HETATM    6  H   UNL     1     -42.583 -49.136   9.471  1.00  0.00     0.171 HD
ENDROOT
BRANCH   1   7
HETATM    7  C   UNL     1     -39.538 -48.500  11.723  1.00  0.00     0.165 C 
BRANCH   7   8
HETATM    8  C   UNL     1     -39.174 -49.776  12.559  1.00  0.00     0.168 C 
HETATM    9  C   UNL     1     -37.794 -50.220  12.028  1.00  0.00     0.050 C 
HETATM   10  C   UNL     1     -40.186 -50.885  12.163  1.00  0.00     0.050 C 
BRANCH   8  11
HETATM   11  N   UNL     1     -39.274 -49.488  14.027  1.00  0.00     0.102 N 
HETATM   12  C   UNL     1     -39.014 -48.098  14.456  1.00  0.00     0.303 C 
HETATM   13  C   UNL     1     -37.528 -47.713  14.650  1.00  0.00     0.302 C 
HETATM   14  N   UNL     1     -36.718 -48.640  15.459  1.00  0.00     0.087 N 
HETATM   15  C   UNL     1     -36.854 -48.364  16.885  1.00  0.00     0.310 C 
HETATM   16  C   UNL     1     -37.030 -50.047  15.149  1.00  0.00     0.302 C 
HETATM   17  C   UNL     1     -38.529 -50.377  14.944  1.00  0.00     0.303 C 
ENDBRANCH   8  11
ENDBRANCH   7   8
ENDBRANCH   1   7
BRANCH   4  18
HETATM   18  C   UNL     1     -43.695 -47.407   9.490  1.00  0.00     0.070 A 
HETATM   19  C   UNL     1     -43.861 -46.185   8.795  1.00  0.00     0.138 A 
HETATM   20  N   UNL     1     -45.128 -45.758   8.814  1.00  0.00    -0.310 N 
HETATM   21  N   UNL     1     -45.762 -46.694   9.533  1.00  0.00    -0.310 N 
ATOM     22  HN  UNL     1     -45.519 -44.920   8.383  1.00  0.00     0.186 HD
HETATM   23  C   UNL     1     -44.956 -47.724   9.930  1.00  0.00     0.138 A 
HETATM   24  H   UNL     1     -46.750 -46.561   9.721  1.00  0.00     0.186 HD
ENDBRANCH   4  18
TORSDOF 4
ENDMDL
MODEL 5
REMARK VINA RESULT:      -5.9      2.166      2.905
REMARK  4 active torsions:
REMARK  status: ('A' for Active; 'I' for Inactive)
REMARK    1  A    between atoms: N_5  and  C_8 
REMARK    2  A    between atoms: C_8  and  C_11 
REMARK    3  A    between atoms: C_11  and  N_12 
REMARK       I    between atoms: N_12  and  C_13 
REMARK       I    between atoms: C_13  and  N_15 
REMARK    4  A    between atoms: N_15  and  C_16 
ROOT
HETATM    1  N   UNL     1     -40.743 -49.308  10.609  1.00  0.00    -0.340 N 
HETATM    2  C   UNL     1     -41.874 -48.530  10.684  1.00  0.00     0.320 C 
HETATM    3  O   UNL     1     -42.557 -48.460  11.698  1.00  0.00    -0.247 OA
HETATM    4  N   UNL     1     -42.167 -47.927   9.486  1.00  0.00    -0.306 N 
HETATM    5  H   UNL     1     -39.992 -49.022   9.998  1.00  0.00     0.164 HD
HETATM    6  H   UNL     1     -41.674 -48.245   8.668  1.00  0.00     0.171 HD
ENDROOT
BRANCH   1   7
HETATM    7  C   UNL     1     -40.362 -50.137  11.742  1.00  0.00     0.165 C 
BRANCH   7   8
HETATM    8  C   UNL     1     -38.946 -49.815  12.334  1.00  0.00     0.168 C 
HETATM    9  C   UNL     1     -39.103 -48.438  13.015  1.00  0.00     0.050 C 
HETATM   10  C   UNL     1     -37.984 -49.616  11.133  1.00  0.00     0.050 C 
BRANCH   8  11
HETATM   11  N   UNL     1     -38.467 -50.946  13.195  1.00  0.00     0.102 N 
HETATM   12  C   UNL     1     -39.502 -51.779  13.843  1.00  0.00     0.303 C 
HETATM   13  C   UNL     1     -40.082 -51.233  15.169  1.00  0.00     0.302 C 
HETATM   14  N   UNL     1     -39.100 -50.794  16.175  1.00  0.00     0.087 N 
HETATM   15  C   UNL     1     -38.622 -51.912  16.981  1.00  0.00     0.310 C 
HETATM   16  C   UNL     1     -37.982 -50.057  15.557  1.00  0.00     0.302 C 
HETATM   17  C   UNL     1     -37.450 -50.632  14.222  1.00  0.00     0.303 C 
ENDBRANCH   8  11
ENDBRANCH   7   8
ENDBRANCH   1   7
BRANCH   4  18
HETATM   18  C   UNL     1     -43.303 -47.162   9.300  1.00  0.00     0.070 A 
HETATM   19  C   UNL     1     -44.616 -47.527   8.917  1.00  0.00     0.138 A 
HETATM   20  N   UNL     1     -45.429 -46.469   8.817  1.00  0.00    -0.310 N 
HETATM   21  N   UNL     1     -44.631 -45.435   9.117  1.00  0.00    -0.310 N 
ATOM     22  HN  UNL     1     -46.418 -46.453   8.571  1.00  0.00     0.186 HD
HETATM   23  C   UNL     1     -43.357 -45.799   9.451  1.00  0.00     0.138 A 
HETATM   24  H   UNL     1     -45.025 -44.501   9.066  1.00  0.00     0.186 HD
ENDBRANCH   4  18
TORSDOF 4
ENDMDL
MODEL 6
REMARK VINA RESULT:      -5.8      3.008      5.285
REMARK  4 active torsions:
REMARK  status: ('A' for Active; 'I' for Inactive)
REMARK    1  A    between atoms: N_5  and  C_8 
REMARK    2  A    between atoms: C_8  and  C_11 
REMARK    3  A    between atoms: C_11  and  N_12 
REMARK       I    between atoms: N_12  and  C_13 
REMARK       I    between atoms: C_13  and  N_15 
REMARK    4  A    between atoms: N_15  and  C_16 
ROOT
HETATM    1  N   UNL     1     -41.965 -53.155  12.365  1.00  0.00    -0.340 N 
HETATM    2  C   UNL     1     -41.372 -51.929  12.556  1.00  0.00     0.320 C 
HETATM    3  O   UNL     1     -41.252 -51.421  13.664  1.00  0.00    -0.247 OA
HETATM    4  N   UNL     1     -41.017 -51.335  11.369  1.00  0.00    -0.306 N 
HETATM    5  H   UNL     1     -41.664 -53.729  11.591  1.00  0.00     0.164 HD
HETATM    6  H   UNL     1     -41.376 -51.736  10.519  1.00  0.00     0.171 HD
ENDROOT
BRANCH   1   7
HETATM    7  C   UNL     1     -42.537 -53.862  13.500  1.00  0.00     0.165 C 
BRANCH   7   8
HETATM    8  C   UNL     1     -44.064 -53.588  13.731  1.00  0.00     0.168 C 
HETATM    9  C   UNL     1     -44.671 -54.969  14.058  1.00  0.00     0.050 C 
HETATM   10  C   UNL     1     -44.660 -53.147  12.367  1.00  0.00     0.050 C 
BRANCH   8  11
HETATM   11  N   UNL     1     -44.255 -52.506  14.751  1.00  0.00     0.102 N 
HETATM   12  C   UNL     1     -44.677 -52.926  16.103  1.00  0.00     0.303 C 
HETATM   13  C   UNL     1     -46.194 -53.154  16.303  1.00  0.00     0.302 C 
HETATM   14  N   UNL     1     -47.080 -52.080  15.821  1.00  0.00     0.087 N 
HETATM   15  C   UNL     1     -47.227 -51.021  16.814  1.00  0.00     0.310 C 
HETATM   16  C   UNL     1     -46.627 -51.545  14.523  1.00  0.00     0.302 C 
HETATM   17  C   UNL     1     -45.099 -51.354  14.367  1.00  0.00     0.303 C 
ENDBRANCH   8  11
ENDBRANCH   7   8
ENDBRANCH   1   7
BRANCH   4  18
HETATM   18  C   UNL     1     -40.478 -50.065  11.308  1.00  0.00     0.070 A 
HETATM   19  C   UNL     1     -39.165 -49.600  11.557  1.00  0.00     0.138 A 
HETATM   20  N   UNL     1     -39.060 -48.273  11.420  1.00  0.00    -0.310 N 
HETATM   21  N   UNL     1     -40.306 -47.894  11.104  1.00  0.00    -0.310 N 
ATOM     22  HN  UNL     1     -38.230 -47.690  11.529  1.00  0.00     0.186 HD
HETATM   23  C   UNL     1     -41.186 -48.933  10.987  1.00  0.00     0.138 A 
HETATM   24  H   UNL     1     -40.486 -46.902  10.989  1.00  0.00     0.186 HD
ENDBRANCH   4  18
TORSDOF 4
ENDMDL
MODEL 7
REMARK VINA RESULT:      -5.8      1.627      2.729
REMARK  4 active torsions:
REMARK  status: ('A' for Active; 'I' for Inactive)
REMARK    1  A    between atoms: N_5  and  C_8 
REMARK    2  A    between atoms: C_8  and  C_11 
REMARK    3  A    between atoms: C_11  and  N_12 
REMARK       I    between atoms: N_12  and  C_13 
REMARK       I    between atoms: C_13  and  N_15 
REMARK    4  A    between atoms: N_15  and  C_16 
ROOT
HETATM    1  N   UNL     1     -41.840 -49.625  11.579  1.00  0.00    -0.340 N 
HETATM    2  C   UNL     1     -42.583 -48.486  11.375  1.00  0.00     0.320 C 
HETATM    3  O   UNL     1     -42.970 -47.780  12.298  1.00  0.00    -0.247 OA
HETATM    4  N   UNL     1     -42.890 -48.299  10.049  1.00  0.00    -0.306 N 
HETATM    5  H   UNL     1     -41.182 -49.914  10.870  1.00  0.00     0.164 HD
HETATM    6  H   UNL     1     -42.722 -49.064   9.417  1.00  0.00     0.171 HD
ENDROOT
BRANCH   1   7
HETATM    7  C   UNL     1     -41.547 -50.061  12.936  1.00  0.00     0.165 C 
BRANCH   7   8
HETATM    8  C   UNL     1     -42.258 -51.395  13.355  1.00  0.00     0.168 C 
HETATM    9  C   UNL     1     -42.241 -52.271  12.084  1.00  0.00     0.050 C 
HETATM   10  C   UNL     1     -43.743 -51.050  13.644  1.00  0.00     0.050 C 
BRANCH   8  11
HETATM   11  N   UNL     1     -41.615 -51.969  14.582  1.00  0.00     0.102 N 
HETATM   12  C   UNL     1     -40.169 -51.720  14.759  1.00  0.00     0.303 C 
HETATM   13  C   UNL     1     -39.216 -52.681  14.011  1.00  0.00     0.302 C 
HETATM   14  N   UNL     1     -39.492 -54.120  14.167  1.00  0.00     0.087 N 
HETATM   15  C   UNL     1     -38.885 -54.653  15.383  1.00  0.00     0.310 C 
HETATM   16  C   UNL     1     -40.938 -54.404  14.116  1.00  0.00     0.302 C 
HETATM   17  C   UNL     1     -41.850 -53.402  14.863  1.00  0.00     0.303 C 
ENDBRANCH   8  11
ENDBRANCH   7   8
ENDBRANCH   1   7
BRANCH   4  18
HETATM   18  C   UNL     1     -43.696 -47.265   9.615  1.00  0.00     0.070 A 
HETATM   19  C   UNL     1     -43.423 -45.888   9.433  1.00  0.00     0.138 A 
HETATM   20  N   UNL     1     -44.499 -45.206   9.024  1.00  0.00    -0.310 N 
HETATM   21  N   UNL     1     -45.457 -46.142   8.965  1.00  0.00    -0.310 N 
ATOM     22  HN  UNL     1     -44.573 -44.212   8.809  1.00  0.00     0.186 HD
HETATM   23  C   UNL     1     -45.019 -47.399   9.273  1.00  0.00     0.138 A 
HETATM   24  H   UNL     1     -46.394 -45.847   8.713  1.00  0.00     0.186 HD
ENDBRANCH   4  18
TORSDOF 4
ENDMDL
MODEL 8
REMARK VINA RESULT:      -5.7      2.630      4.260
REMARK  4 active torsions:
REMARK  status: ('A' for Active; 'I' for Inactive)
REMARK    1  A    between atoms: N_5  and  C_8 
REMARK    2  A    between atoms: C_8  and  C_11 
REMARK    3  A    between atoms: C_11  and  N_12 
REMARK       I    between atoms: N_12  and  C_13 
REMARK       I    between atoms: C_13  and  N_15 
REMARK    4  A    between atoms: N_15  and  C_16 
ROOT
HETATM    1  N   UNL     1     -43.741 -50.383  12.866  1.00  0.00    -0.340 N 
HETATM    2  C   UNL     1     -43.037 -49.219  12.664  1.00  0.00     0.320 C 
HETATM    3  O   UNL     1     -42.933 -48.355  13.525  1.00  0.00    -0.247 OA
HETATM    4  N   UNL     1     -42.552 -49.125  11.382  1.00  0.00    -0.306 N 
HETATM    5  H   UNL     1     -43.455 -51.219  12.378  1.00  0.00     0.164 HD
HETATM    6  H   UNL     1     -42.899 -49.778  10.700  1.00  0.00     0.171 HD
ENDROOT
BRANCH   1   7
HETATM    7  C   UNL     1     -44.450 -50.587  14.119  1.00  0.00     0.165 C 
BRANCH   7   8
HETATM    8  C   UNL     1     -45.277 -51.918  14.187  1.00  0.00     0.168 C 
HETATM    9  C   UNL     1     -45.122 -52.554  12.789  1.00  0.00     0.050 C 
HETATM   10  C   UNL     1     -46.770 -51.520  14.337  1.00  0.00     0.050 C 
BRANCH   8  11
HETATM   11  N   UNL     1     -44.845 -52.746  15.360  1.00  0.00     0.102 N 
HETATM   12  C   UNL     1     -43.459 -52.557  15.838  1.00  0.00     0.303 C 
HETATM   13  C   UNL     1     -42.366 -53.351  15.085  1.00  0.00     0.302 C 
HETATM   14  N   UNL     1     -42.629 -54.787  14.884  1.00  0.00     0.087 N 
HETATM   15  C   UNL     1     -42.231 -55.572  16.049  1.00  0.00     0.310 C 
HETATM   16  C   UNL     1     -44.036 -55.036  14.520  1.00  0.00     0.302 C 
HETATM   17  C   UNL     1     -45.090 -54.202  15.288  1.00  0.00     0.303 C 
ENDBRANCH   8  11
ENDBRANCH   7   8
ENDBRANCH   1   7
BRANCH   4  18
HETATM   18  C   UNL     1     -41.882 -48.006  10.925  1.00  0.00     0.070 A 
HETATM   19  C   UNL     1     -42.330 -46.905  10.157  1.00  0.00     0.138 A 
HETATM   20  N   UNL     1     -41.347 -46.036   9.893  1.00  0.00    -0.310 N 
HETATM   21  N   UNL     1     -40.276 -46.592  10.474  1.00  0.00    -0.310 N 
ATOM     22  HN  UNL     1     -41.401 -45.160   9.373  1.00  0.00     0.186 HD
HETATM   23  C   UNL     1     -40.550 -47.755  11.139  1.00  0.00     0.138 A 
HETATM   24  H   UNL     1     -39.382 -46.123  10.371  1.00  0.00     0.186 HD
ENDBRANCH   4  18
TORSDOF 4
ENDMDL
MODEL 9
REMARK VINA RESULT:      -5.4      3.409      5.724
REMARK  4 active torsions:
REMARK  status: ('A' for Active; 'I' for Inactive)
REMARK    1  A    between atoms: N_5  and  C_8 
REMARK    2  A    between atoms: C_8  and  C_11 
REMARK    3  A    between atoms: C_11  and  N_12 
REMARK       I    between atoms: N_12  and  C_13 
REMARK       I    between atoms: C_13  and  N_15 
REMARK    4  A    between atoms: N_15  and  C_16 
ROOT
HETATM    1  N   UNL     1     -41.096 -51.924  12.054  1.00  0.00    -0.340 N 
HETATM    2  C   UNL     1     -42.224 -52.207  12.788  1.00  0.00     0.320 C 
HETATM    3  O   UNL     1     -42.283 -52.029  13.998  1.00  0.00    -0.247 OA
HETATM    4  N   UNL     1     -43.214 -52.770  12.019  1.00  0.00    -0.306 N 
HETATM    5  H   UNL     1     -41.197 -51.646  11.088  1.00  0.00     0.164 HD
HETATM    6  H   UNL     1     -42.968 -53.084  11.095  1.00  0.00     0.171 HD
ENDROOT
BRANCH   1   7
HETATM    7  C   UNL     1     -39.895 -51.459  12.730  1.00  0.00     0.165 C 
BRANCH   7   8
HETATM    8  C   UNL     1     -39.389 -50.052  12.256  1.00  0.00     0.168 C 
HETATM    9  C   UNL     1     -40.307 -49.676  11.073  1.00  0.00     0.050 C 
HETATM   10  C   UNL     1     -37.964 -50.252  11.673  1.00  0.00     0.050 C 
BRANCH   8  11
HETATM   11  N   UNL     1     -39.344 -49.094  13.409  1.00  0.00     0.102 N 
HETATM   12  C   UNL     1     -40.416 -49.211  14.418  1.00  0.00     0.303 C 
HETATM   13  C   UNL     1     -41.745 -48.490  14.086  1.00  0.00     0.302 C 
HETATM   14  N   UNL     1     -41.630 -47.089  13.645  1.00  0.00     0.087 N 
HETATM   15  C   UNL     1     -41.555 -46.176  14.781  1.00  0.00     0.310 C 
HETATM   16  C   UNL     1     -40.494 -46.900  12.725  1.00  0.00     0.302 C 
HETATM   17  C   UNL     1     -39.194 -47.658  13.091  1.00  0.00     0.303 C 
ENDBRANCH   8  11
ENDBRANCH   7   8
ENDBRANCH   1   7
BRANCH   4  18
HETATM   18  C   UNL     1     -44.407 -53.211  12.556  1.00  0.00     0.070 A 
HETATM   19  C   UNL     1     -45.672 -52.583  12.650  1.00  0.00     0.138 A 
HETATM   20  N   UNL     1     -46.573 -53.344  13.281  1.00  0.00    -0.310 N 
HETATM   21  N   UNL     1     -45.879 -54.443  13.605  1.00  0.00    -0.310 N 
ATOM     22  HN  UNL     1     -47.553 -53.137  13.471  1.00  0.00     0.186 HD
HETATM   23  C   UNL     1     -44.586 -54.430  13.161  1.00  0.00     0.138 A 
HETATM   24  H   UNL     1     -46.352 -55.164  14.140  1.00  0.00     0.186 HD
ENDBRANCH   4  18
TORSDOF 4
ENDMDL
