MODEL 1
REMARK VINA RESULT:      -5.6      0.000      0.000
REMARK  5 active torsions:
REMARK  status: ('A' for Active; 'I' for Inactive)
REMARK    1  A    between atoms: C_2  and  C_3 
REMARK    2  A    between atoms: C_2  and  N_10 
REMARK    3  A    between atoms: C_3  and  N_4 
REMARK       I    between atoms: N_10  and  C_11 
REMARK    4  A    between atoms: C_11  and  C_13 
REMARK    5  A    between atoms: C_13  and  N_14 
ROOT
HETATM    1  N   UNL     1     -42.007 -49.684  11.430  1.00  0.00    -0.353 N 
HETATM    2  C   UNL     1     -42.391 -50.442  12.514  1.00  0.00     0.256 C 
HETATM    3  O   UNL     1     -42.996 -49.961  13.469  1.00  0.00    -0.271 OA
HETATM    4  H   UNL     1     -41.485 -50.184  10.712  1.00  0.00     0.163 HD
ENDROOT
BRANCH   1   5
HETATM    5  C   UNL     1     -42.382 -48.279  11.277  1.00  0.00     0.098 C 
HETATM    6  C   UNL     1     -41.344 -47.395  11.964  1.00  0.00     0.034 C 
BRANCH   5   7
HETATM    7  C   UNL     1     -42.563 -47.910   9.787  1.00  0.00     0.153 C 
BRANCH   7   8
HETATM    8  N   UNL     1     -43.835 -47.291   9.472  1.00  0.00    -0.350 N 
HETATM    9  C   UNL     1     -45.072 -47.853   9.625  1.00  0.00     0.108 A 
HETATM   10  C   UNL     1     -45.956 -46.885   9.209  1.00  0.00     0.106 A 
HETATM   11  N   UNL     1     -45.288 -45.751   8.825  1.00  0.00    -0.361 N 
HETATM   12  C   UNL     1     -44.015 -46.017   9.011  1.00  0.00     0.182 A 
ATOM     13  HN  UNL     1     -45.693 -44.885   8.470  1.00  0.00     0.166 HD
ENDBRANCH   7   8
ENDBRANCH   5   7
ENDBRANCH   1   5
BRANCH   2  14
HETATM   14  C   UNL     1     -42.010 -51.945  12.411  1.00  0.00     0.234 C 
HETATM   15  C   UNL     1     -43.280 -52.819  12.467  1.00  0.00     0.051 C 
HETATM   16  C   UNL     1     -42.949 -54.038  13.328  1.00  0.00     0.003 C 
HETATM   17  C   UNL     1     -41.489 -53.898  13.735  1.00  0.00     0.003 C 
HETATM   18  C   UNL     1     -41.206 -52.404  13.635  1.00  0.00     0.051 C 
BRANCH  14  19
HETATM   19  N   UNL     1     -41.253 -52.209  11.157  1.00  0.00     0.097 N 
HETATM   20  H   UNL     1     -41.450 -51.454  10.497  1.00  0.00     0.314 HD
HETATM   21  H   UNL     1     -41.627 -53.051  10.714  1.00  0.00     0.314 HD
ENDBRANCH  14  19
ENDBRANCH   2  14
TORSDOF 5
ENDMDL
MODEL 2
REMARK VINA RESULT:      -5.5      1.743      2.260
REMARK  5 active torsions:
REMARK  status: ('A' for Active; 'I' for Inactive)
REMARK    1  A    between atoms: C_2  and  C_3 
REMARK    2  A    between atoms: C_2  and  N_10 
REMARK    3  A    between atoms: C_3  and  N_4 
REMARK       I    between atoms: N_10  and  C_11 
REMARK    4  A    between atoms: C_11  and  C_13 
REMARK    5  A    between atoms: C_13  and  N_14 
ROOT
HETATM    1  N   UNL     1     -41.782 -47.746  11.273  1.00  0.00    -0.353 N 
HETATM    2  C   UNL     1     -42.050 -48.963  11.859  1.00  0.00     0.256 C 
HETATM    3  O   UNL     1     -43.109 -49.194  12.437  1.00  0.00    -0.271 OA
HETATM    4  H   UNL     1     -40.860 -47.660  10.849  1.00  0.00     0.163 HD
ENDROOT
BRANCH   1   5
HETATM    5  C   UNL     1     -42.773 -46.673  11.195  1.00  0.00     0.098 C 
HETATM    6  C   UNL     1     -42.316 -45.492  12.048  1.00  0.00     0.034 C 
BRANCH   5   7
HETATM    7  C   UNL     1     -43.033 -46.262   9.728  1.00  0.00     0.153 C 
BRANCH   7   8
HETATM    8  N   UNL     1     -44.003 -47.088   9.036  1.00  0.00    -0.350 N 
HETATM    9  C   UNL     1     -45.312 -47.268   9.385  1.00  0.00     0.108 A 
HETATM   10  C   UNL     1     -45.821 -48.116   8.428  1.00  0.00     0.106 A 
HETATM   11  N   UNL     1     -44.860 -48.439   7.505  1.00  0.00    -0.361 N 
HETATM   12  C   UNL     1     -43.782 -47.792   7.885  1.00  0.00     0.182 A 
ATOM     13  HN  UNL     1     -44.961 -49.051   6.695  1.00  0.00     0.166 HD
ENDBRANCH   7   8
ENDBRANCH   5   7
ENDBRANCH   1   5
BRANCH   2  14
HETATM   14  C   UNL     1     -40.912 -50.010  11.708  1.00  0.00     0.234 C 
HETATM   15  C   UNL     1     -41.428 -51.413  12.090  1.00  0.00     0.051 C 
HETATM   16  C   UNL     1     -40.314 -52.102  12.879  1.00  0.00     0.003 C 
HETATM   17  C   UNL     1     -39.146 -51.128  12.920  1.00  0.00     0.003 C 
HETATM   18  C   UNL     1     -39.782 -49.758  12.716  1.00  0.00     0.051 C 
BRANCH  14  19
HETATM   19  N   UNL     1     -40.383 -50.012  10.316  1.00  0.00     0.097 N 
HETATM   20  H   UNL     1     -40.602 -50.913   9.889  1.00  0.00     0.314 HD
HETATM   21  H   UNL     1     -39.362 -49.975  10.349  1.00  0.00     0.314 HD
ENDBRANCH  14  19
ENDBRANCH   2  14
TORSDOF 5
ENDMDL
MODEL 3
REMARK VINA RESULT:      -5.4      5.315      8.414
REMARK  5 active torsions:
REMARK  status: ('A' for Active; 'I' for Inactive)
REMARK    1  A    between atoms: C_2  and  C_3 
REMARK    2  A    between atoms: C_2  and  N_10 
REMARK    3  A    between atoms: C_3  and  N_4 
REMARK       I    between atoms: N_10  and  C_11 
REMARK    4  A    between atoms: C_11  and  C_13 
REMARK    5  A    between atoms: C_13  and  N_14 
ROOT
HETATM    1  N   UNL     1     -43.270 -53.774  13.827  1.00  0.00    -0.353 N 
HETATM    2  C   UNL     1     -44.390 -54.445  14.265  1.00  0.00     0.256 C 
HETATM    3  O   UNL     1     -44.336 -55.586  14.718  1.00  0.00    -0.271 OA
HETATM    4  H   UNL     1     -43.441 -52.846  13.444  1.00  0.00     0.163 HD
ENDROOT
BRANCH   1   5
HETATM    5  C   UNL     1     -41.920 -54.318  13.966  1.00  0.00     0.098 C 
HETATM    6  C   UNL     1     -41.038 -53.794  12.834  1.00  0.00     0.034 C 
BRANCH   5   7
HETATM    7  C   UNL     1     -41.330 -53.995  15.357  1.00  0.00     0.153 C 
BRANCH   7   8
HETATM    8  N   UNL     1     -40.777 -55.138  16.055  1.00  0.00    -0.350 N 
HETATM    9  C   UNL     1     -41.480 -56.099  16.727  1.00  0.00     0.108 A 
HETATM   10  C   UNL     1     -40.527 -56.970  17.203  1.00  0.00     0.106 A 
HETATM   11  N   UNL     1     -39.272 -56.571  16.823  1.00  0.00    -0.361 N 
HETATM   12  C   UNL     1     -39.453 -55.477  16.118  1.00  0.00     0.182 A 
ATOM     13  HN  UNL     1     -38.385 -57.026  17.040  1.00  0.00     0.166 HD
ENDBRANCH   7   8
ENDBRANCH   5   7
ENDBRANCH   1   5
BRANCH   2  14
HETATM   14  C   UNL     1     -45.709 -53.631  14.153  1.00  0.00     0.234 C 
HETATM   15  C   UNL     1     -45.786 -52.934  12.779  1.00  0.00     0.051 C 
HETATM   16  C   UNL     1     -46.361 -51.537  13.016  1.00  0.00     0.003 C 
HETATM   17  C   UNL     1     -46.657 -51.437  14.506  1.00  0.00     0.003 C 
HETATM   18  C   UNL     1     -45.732 -52.464  15.149  1.00  0.00     0.051 C 
BRANCH  14  19
HETATM   19  N   UNL     1     -46.889 -54.516  14.354  1.00  0.00     0.097 N 
HETATM   20  H   UNL     1     -46.699 -55.414  13.906  1.00  0.00     0.314 HD
HETATM   21  H   UNL     1     -47.685 -54.128  13.843  1.00  0.00     0.314 HD
ENDBRANCH  14  19
ENDBRANCH   2  14
TORSDOF 5
ENDMDL
MODEL 4
REMARK VINA RESULT:      -5.3      2.846      3.502
REMARK  5 active torsions:
REMARK  status: ('A' for Active; 'I' for Inactive)
REMARK    1  A    between atoms: C_2  and  C_3 
REMARK    2  A    between atoms: C_2  and  N_10 
REMARK    3  A    between atoms: C_3  and  N_4 
REMARK       I    between atoms: N_10  and  C_11 
REMARK    4  A    between atoms: C_11  and  C_13 
REMARK    5  A    between atoms: C_13  and  N_14 
ROOT
HETATM    1  N   UNL     1     -39.912 -47.248  11.191  1.00  0.00    -0.353 N 
HETATM    2  C   UNL     1     -39.760 -48.092  12.270  1.00  0.00     0.256 C 
HETATM    3  O   UNL     1     -40.028 -47.743  13.417  1.00  0.00    -0.271 OA
HETATM    4  H   UNL     1     -39.631 -47.637  10.292  1.00  0.00     0.163 HD
ENDROOT
BRANCH   1   5
HETATM    5  C   UNL     1     -40.504 -45.917  11.308  1.00  0.00     0.098 C 
HETATM    6  C   UNL     1     -40.044 -45.049  10.139  1.00  0.00     0.034 C 
BRANCH   5   7
HETATM    7  C   UNL     1     -42.044 -45.998  11.400  1.00  0.00     0.153 C 
BRANCH   7   8
HETATM    8  N   UNL     1     -42.695 -46.454  10.189  1.00  0.00    -0.350 N 
HETATM    9  C   UNL     1     -42.675 -47.724   9.684  1.00  0.00     0.108 A 
HETATM   10  C   UNL     1     -43.439 -47.665   8.541  1.00  0.00     0.106 A 
HETATM   11  N   UNL     1     -43.930 -46.399   8.351  1.00  0.00    -0.361 N 
HETATM   12  C   UNL     1     -43.482 -45.696   9.367  1.00  0.00     0.182 A 
ATOM     13  HN  UNL     1     -44.518 -46.073   7.584  1.00  0.00     0.166 HD
ENDBRANCH   7   8
ENDBRANCH   5   7
ENDBRANCH   1   5
BRANCH   2  14
HETATM   14  C   UNL     1     -39.245 -49.512  11.905  1.00  0.00     0.234 C 
HETATM   15  C   UNL     1     -39.358 -50.447  13.126  1.00  0.00     0.051 C 
HETATM   16  C   UNL     1     -38.098 -51.312  13.148  1.00  0.00     0.003 C 
HETATM   17  C   UNL     1     -37.279 -50.915  11.928  1.00  0.00     0.003 C 
HETATM   18  C   UNL     1     -37.741 -49.500  11.601  1.00  0.00     0.051 C 
BRANCH  14  19
HETATM   19  N   UNL     1     -40.009 -50.066  10.753  1.00  0.00     0.097 N 
HETATM   20  H   UNL     1     -39.794 -51.061  10.673  1.00  0.00     0.314 HD
HETATM   21  H   UNL     1     -39.656 -49.648   9.889  1.00  0.00     0.314 HD
ENDBRANCH  14  19
ENDBRANCH   2  14
TORSDOF 5
ENDMDL
MODEL 5
REMARK VINA RESULT:      -5.2      4.101      5.901
REMARK  5 active torsions:
REMARK  status: ('A' for Active; 'I' for Inactive)
REMARK    1  A    between atoms: C_2  and  C_3 
REMARK    2  A    between atoms: C_2  and  N_10 
REMARK    3  A    between atoms: C_3  and  N_4 
REMARK       I    between atoms: N_10  and  C_11 
REMARK    4  A    between atoms: C_11  and  C_13 
REMARK    5  A    between atoms: C_13  and  N_14 
ROOT
HETATM    1  N   UNL     1     -43.094 -53.214  13.937  1.00  0.00    -0.353 N 
HETATM    2  C   UNL     1     -44.106 -54.054  14.348  1.00  0.00     0.256 C 
HETATM    3  O   UNL     1     -43.882 -55.153  14.849  1.00  0.00    -0.271 OA
HETATM    4  H   UNL     1     -43.400 -52.342  13.509  1.00  0.00     0.163 HD
ENDROOT
BRANCH   1   5
HETATM    5  C   UNL     1     -41.681 -53.511  14.164  1.00  0.00     0.098 C 
HETATM    6  C   UNL     1     -41.121 -54.278  12.968  1.00  0.00     0.034 C 
BRANCH   5   7
HETATM    7  C   UNL     1     -40.880 -52.222  14.453  1.00  0.00     0.153 C 
BRANCH   7   8
HETATM    8  N   UNL     1     -40.518 -51.462  13.273  1.00  0.00    -0.350 N 
HETATM    9  C   UNL     1     -41.366 -50.746  12.476  1.00  0.00     0.108 A 
HETATM   10  C   UNL     1     -40.561 -50.197  11.504  1.00  0.00     0.106 A 
HETATM   11  N   UNL     1     -39.252 -50.549  11.702  1.00  0.00    -0.361 N 
HETATM   12  C   UNL     1     -39.252 -51.295  12.784  1.00  0.00     0.182 A 
ATOM     13  HN  UNL     1     -38.448 -50.288  11.131  1.00  0.00     0.166 HD
ENDBRANCH   7   8
ENDBRANCH   5   7
ENDBRANCH   1   5
BRANCH   2  14
HETATM   14  C   UNL     1     -45.536 -53.484  14.139  1.00  0.00     0.234 C 
HETATM   15  C   UNL     1     -45.654 -52.851  12.737  1.00  0.00     0.051 C 
HETATM   16  C   UNL     1     -46.473 -51.569  12.891  1.00  0.00     0.003 C 
HETATM   17  C   UNL     1     -46.864 -51.478  14.359  1.00  0.00     0.003 C 
HETATM   18  C   UNL     1     -45.814 -52.310  15.086  1.00  0.00     0.051 C 
BRANCH  14  19
HETATM   19  N   UNL     1     -46.557 -54.554  14.314  1.00  0.00     0.097 N 
HETATM   20  H   UNL     1     -46.962 -54.462  15.247  1.00  0.00     0.314 HD
HETATM   21  H   UNL     1     -46.088 -55.462  14.316  1.00  0.00     0.314 HD
ENDBRANCH  14  19
ENDBRANCH   2  14
TORSDOF 5
ENDMDL
MODEL 6
REMARK VINA RESULT:      -5.0      2.872      6.826
REMARK  5 active torsions:
REMARK  status: ('A' for Active; 'I' for Inactive)
REMARK    1  A    between atoms: C_2  and  C_3 
REMARK    2  A    between atoms: C_2  and  N_10 
REMARK    3  A    between atoms: C_3  and  N_4 
REMARK       I    between atoms: N_10  and  C_11 
REMARK    4  A    between atoms: C_11  and  C_13 
REMARK    5  A    between atoms: C_13  and  N_14 
ROOT
HETATM    1  N   UNL     1     -39.323 -48.414  11.454  1.00  0.00    -0.353 N 
HETATM    2  C   UNL     1     -40.551 -47.948  11.037  1.00  0.00     0.256 C 
HETATM    3  O   UNL     1     -41.438 -48.702  10.643  1.00  0.00    -0.271 OA
HETATM    4  H   UNL     1     -38.657 -47.695  11.731  1.00  0.00     0.163 HD
ENDROOT
BRANCH   1   5
HETATM    5  C   UNL     1     -39.016 -49.838  11.566  1.00  0.00     0.098 C 
HETATM    6  C   UNL     1     -37.517 -50.055  11.366  1.00  0.00     0.034 C 
BRANCH   5   7
HETATM    7  C   UNL     1     -39.510 -50.411  12.913  1.00  0.00     0.153 C 
BRANCH   7   8
HETATM    8  N   UNL     1     -40.149 -51.708  12.816  1.00  0.00    -0.350 N 
HETATM    9  C   UNL     1     -39.935 -52.783  13.634  1.00  0.00     0.108 A 
HETATM   10  C   UNL     1     -40.773 -53.765  13.157  1.00  0.00     0.106 A 
HETATM   11  N   UNL     1     -41.495 -53.308  12.085  1.00  0.00    -0.361 N 
HETATM   12  C   UNL     1     -41.113 -52.063  11.914  1.00  0.00     0.182 A 
ATOM     13  HN  UNL     1     -42.183 -53.825  11.538  1.00  0.00     0.166 HD
ENDBRANCH   7   8
ENDBRANCH   5   7
ENDBRANCH   1   5
BRANCH   2  14
HETATM   14  C   UNL     1     -40.716 -46.406  11.128  1.00  0.00     0.234 C 
HETATM   15  C   UNL     1     -40.256 -45.905  12.513  1.00  0.00     0.051 C 
HETATM   16  C   UNL     1     -41.245 -44.824  12.950  1.00  0.00     0.003 C 
HETATM   17  C   UNL     1     -42.246 -44.667  11.815  1.00  0.00     0.003 C 
HETATM   18  C   UNL     1     -42.194 -45.997  11.073  1.00  0.00     0.051 C 
BRANCH  14  19
HETATM   19  N   UNL     1     -39.944 -45.732  10.048  1.00  0.00     0.097 N 
HETATM   20  H   UNL     1     -39.170 -45.222  10.476  1.00  0.00     0.314 HD
HETATM   21  H   UNL     1     -40.531 -45.014   9.620  1.00  0.00     0.314 HD
ENDBRANCH  14  19
ENDBRANCH   2  14
TORSDOF 5
ENDMDL
MODEL 7
REMARK VINA RESULT:      -5.0      3.958      6.337
REMARK  5 active torsions:
REMARK  status: ('A' for Active; 'I' for Inactive)
REMARK    1  A    between atoms: C_2  and  C_3 
REMARK    2  A    between atoms: C_2  and  N_10 
REMARK    3  A    between atoms: C_3  and  N_4 
REMARK       I    between atoms: N_10  and  C_11 
REMARK    4  A    between atoms: C_11  and  C_13 
REMARK    5  A    between atoms: C_13  and  N_14 
ROOT
HETATM    1  N   UNL     1     -41.087 -51.803  13.742  1.00  0.00    -0.353 N 
HETATM    2  C   UNL     1     -40.539 -51.842  12.478  1.00  0.00     0.256 C 
HETATM    3  O   UNL     1     -40.508 -52.871  11.809  1.00  0.00    -0.271 OA
HETATM    4  H   UNL     1     -41.029 -50.902  14.213  1.00  0.00     0.163 HD
ENDROOT
BRANCH   1   5
HETATM    5  C   UNL     1     -41.771 -52.947  14.341  1.00  0.00     0.098 C 
HETATM    6  C   UNL     1     -40.890 -53.558  15.428  1.00  0.00     0.034 C 
BRANCH   5   7
HETATM    7  C   UNL     1     -43.163 -52.545  14.879  1.00  0.00     0.153 C 
BRANCH   7   8
HETATM    8  N   UNL     1     -44.255 -53.360  14.387  1.00  0.00    -0.350 N 
HETATM    9  C   UNL     1     -44.308 -54.727  14.375  1.00  0.00     0.108 A 
HETATM   10  C   UNL     1     -45.536 -55.030  13.833  1.00  0.00     0.106 A 
HETATM   11  N   UNL     1     -46.230 -53.887  13.534  1.00  0.00    -0.361 N 
HETATM   12  C   UNL     1     -45.444 -52.898  13.894  1.00  0.00     0.182 A 
ATOM     13  HN  UNL     1     -47.159 -53.818  13.119  1.00  0.00     0.166 HD
ENDBRANCH   7   8
ENDBRANCH   5   7
ENDBRANCH   1   5
BRANCH   2  14
HETATM   14  C   UNL     1     -39.987 -50.478  11.978  1.00  0.00     0.234 C 
HETATM   15  C   UNL     1     -38.448 -50.461  12.074  1.00  0.00     0.051 C 
HETATM   16  C   UNL     1     -38.044 -49.072  12.569  1.00  0.00     0.003 C 
HETATM   17  C   UNL     1     -39.332 -48.274  12.717  1.00  0.00     0.003 C 
HETATM   18  C   UNL     1     -40.417 -49.329  12.899  1.00  0.00     0.051 C 
BRANCH  14  19
HETATM   19  N   UNL     1     -40.423 -50.220  10.577  1.00  0.00     0.097 N 
HETATM   20  H   UNL     1     -41.203 -49.561  10.599  1.00  0.00     0.314 HD
HETATM   21  H   UNL     1     -40.813 -51.080  10.187  1.00  0.00     0.314 HD
ENDBRANCH  14  19
ENDBRANCH   2  14
TORSDOF 5
ENDMDL
MODEL 8
REMARK VINA RESULT:      -5.0      2.926      4.787
REMARK  5 active torsions:
REMARK  status: ('A' for Active; 'I' for Inactive)
REMARK    1  A    between atoms: C_2  and  C_3 
REMARK    2  A    between atoms: C_2  and  N_10 
REMARK    3  A    between atoms: C_3  and  N_4 
REMARK       I    between atoms: N_10  and  C_11 
REMARK    4  A    between atoms: C_11  and  C_13 
REMARK    5  A    between atoms: C_13  and  N_14 
ROOT
HETATM    1  N   UNL     1     -43.516 -49.766  12.747  1.00  0.00    -0.353 N 
HETATM    2  C   UNL     1     -43.357 -51.118  12.960  1.00  0.00     0.256 C 
HETATM    3  O   UNL     1     -42.469 -51.768  12.413  1.00  0.00    -0.271 OA
HETATM    4  H   UNL     1     -44.305 -49.340  13.230  1.00  0.00     0.163 HD
ENDROOT
BRANCH   1   5
HETATM    5  C   UNL     1     -42.581 -48.979  11.945  1.00  0.00     0.098 C 
HETATM    6  C   UNL     1     -43.318 -47.802  11.310  1.00  0.00     0.034 C 
BRANCH   5   7
HETATM    7  C   UNL     1     -41.373 -48.519  12.792  1.00  0.00     0.153 C 
BRANCH   7   8
HETATM    8  N   UNL     1     -40.091 -49.004  12.323  1.00  0.00    -0.350 N 
HETATM    9  C   UNL     1     -38.883 -48.837  12.942  1.00  0.00     0.108 A 
HETATM   10  C   UNL     1     -37.976 -49.480  12.130  1.00  0.00     0.106 A 
HETATM   11  N   UNL     1     -38.605 -50.040  11.049  1.00  0.00    -0.361 N 
HETATM   12  C   UNL     1     -39.879 -49.755  11.200  1.00  0.00     0.182 A 
ATOM     13  HN  UNL     1     -38.176 -50.568  10.288  1.00  0.00     0.166 HD
ENDBRANCH   7   8
ENDBRANCH   5   7
ENDBRANCH   1   5
BRANCH   2  14
HETATM   14  C   UNL     1     -44.378 -51.734  13.956  1.00  0.00     0.234 C 
HETATM   15  C   UNL     1     -45.783 -51.773  13.319  1.00  0.00     0.051 C 
HETATM   16  C   UNL     1     -46.781 -51.386  14.410  1.00  0.00     0.003 C 
HETATM   17  C   UNL     1     -45.972 -51.167  15.680  1.00  0.00     0.003 C 
HETATM   18  C   UNL     1     -44.568 -50.838  15.187  1.00  0.00     0.051 C 
BRANCH  14  19
HETATM   19  N   UNL     1     -43.954 -53.102  14.363  1.00  0.00     0.097 N 
HETATM   20  H   UNL     1     -44.653 -53.768  14.029  1.00  0.00     0.314 HD
HETATM   21  H   UNL     1     -43.988 -53.170  15.382  1.00  0.00     0.314 HD
ENDBRANCH  14  19
ENDBRANCH   2  14
TORSDOF 5
ENDMDL
MODEL 9
REMARK VINA RESULT:      -5.0      4.105      5.986
REMARK  5 active torsions:
REMARK  status: ('A' for Active; 'I' for Inactive)
REMARK    1  A    between atoms: C_2  and  C_3 
REMARK    2  A    between atoms: C_2  and  N_10 
REMARK    3  A    between atoms: C_3  and  N_4 
REMARK       I    between atoms: N_10  and  C_11 
REMARK    4  A    between atoms: C_11  and  C_13 
REMARK    5  A    between atoms: C_13  and  N_14 
ROOT
HETATM    1  N   UNL     1     -44.642 -52.375  12.586  1.00  0.00    -0.353 N 
HETATM    2  C   UNL     1     -43.562 -51.933  13.318  1.00  0.00     0.256 C 
HETATM    3  O   UNL     1     -43.680 -51.130  14.240  1.00  0.00    -0.271 OA
HETATM    4  H   UNL     1     -44.419 -53.017  11.827  1.00  0.00     0.163 HD
ENDROOT
BRANCH   1   5
HETATM    5  C   UNL     1     -46.020 -52.014  12.915  1.00  0.00     0.098 C 
HETATM    6  C   UNL     1     -46.836 -51.886  11.631  1.00  0.00     0.034 C 
BRANCH   5   7
HETATM    7  C   UNL     1     -46.642 -53.030  13.900  1.00  0.00     0.153 C 
BRANCH   7   8
HETATM    8  N   UNL     1     -46.608 -52.618  15.289  1.00  0.00    -0.350 N 
HETATM    9  C   UNL     1     -45.924 -53.232  16.301  1.00  0.00     0.108 A 
HETATM   10  C   UNL     1     -46.188 -52.473  17.419  1.00  0.00     0.106 A 
HETATM   11  N   UNL     1     -46.998 -51.412  17.105  1.00  0.00    -0.361 N 
HETATM   12  C   UNL     1     -47.220 -51.514  15.814  1.00  0.00     0.182 A 
ATOM     13  HN  UNL     1     -47.353 -50.697  17.739  1.00  0.00     0.166 HD
ENDBRANCH   7   8
ENDBRANCH   5   7
ENDBRANCH   1   5
BRANCH   2  14
HETATM   14  C   UNL     1     -42.202 -52.549  12.888  1.00  0.00     0.234 C 
HETATM   15  C   UNL     1     -42.123 -54.023  13.334  1.00  0.00     0.051 C 
HETATM   16  C   UNL     1     -40.699 -54.265  13.836  1.00  0.00     0.003 C 
HETATM   17  C   UNL     1     -39.944 -52.957  13.645  1.00  0.00     0.003 C 
HETATM   18  C   UNL     1     -41.030 -51.888  13.627  1.00  0.00     0.051 C 
BRANCH  14  19
HETATM   19  N   UNL     1     -42.021 -52.441  11.414  1.00  0.00     0.097 N 
HETATM   20  H   UNL     1     -42.944 -52.388  10.980  1.00  0.00     0.314 HD
HETATM   21  H   UNL     1     -41.613 -53.311  11.066  1.00  0.00     0.314 HD
ENDBRANCH  14  19
ENDBRANCH   2  14
TORSDOF 5
ENDMDL
