MODEL 1
REMARK VINA RESULT:      -5.4      0.000      0.000
REMARK  4 active torsions:
REMARK  status: ('A' for Active; 'I' for Inactive)
REMARK    1  A    between atoms: S_2  and  C_3 
REMARK    2  A    between atoms: C_8  and  C_9 
REMARK    3  A    between atoms: C_9  and  C_10 
REMARK       I    between atoms: C_10  and  N_12 
REMARK    4  A    between atoms: N_12  and  C_13 
ROOT
HETATM    1  C   UNL     1     -41.827 -48.410  13.660  1.00  0.00     0.151 C 
ENDROOT
BRANCH   1   2
HETATM    2  C   UNL     1     -41.923 -48.290  12.170  1.00  0.00     0.016 A 
HETATM    3  C   UNL     1     -41.150 -48.830  11.148  1.00  0.00     0.020 A 
HETATM    4  N   UNL     1     -41.613 -48.561   9.866  1.00  0.00    -0.348 N 
HETATM    5  C   UNL     1     -39.925 -49.670  11.251  1.00  0.00     0.069 C 
HETATM    6  C   UNL     1     -42.704 -47.837   9.913  1.00  0.00     0.112 A 
ATOM      7  HN  UNL     1     -41.166 -48.884   9.008  1.00  0.00     0.167 HD
HETATM    8  S   UNL     1     -43.249 -47.429  11.480  1.00  0.00    -0.067 SA
BRANCH   6   9
HETATM    9  S   UNL     1     -43.536 -47.317   8.465  1.00  0.00    -0.109 SA
HETATM   10  C   UNL     1     -45.257 -47.498   8.986  1.00  0.00     0.097 C 
ENDBRANCH   6   9
ENDBRANCH   1   2
BRANCH   1  11
HETATM   11  C   UNL     1     -42.262 -49.776  14.161  1.00  0.00     0.222 C 
HETATM   12  O   UNL     1     -41.446 -50.688  14.305  1.00  0.00    -0.273 OA
HETATM   13  N   UNL     1     -43.615 -49.945  14.386  1.00  0.00    -0.356 N 
HETATM   14  H   UNL     1     -44.259 -49.191  14.191  1.00  0.00     0.162 HD
BRANCH  13  15
HETATM   15  C   UNL     1     -44.135 -51.274  14.720  1.00  0.00     0.084 C 
HETATM   16  C   UNL     1     -45.093 -51.809  13.642  1.00  0.00     0.025 C 
HETATM   17  C   UNL     1     -46.544 -51.373  13.819  1.00  0.00     0.002 C 
HETATM   18  C   UNL     1     -47.043 -51.694  15.221  1.00  0.00     0.000 C 
HETATM   19  C   UNL     1     -46.194 -50.970  16.257  1.00  0.00     0.002 C 
HETATM   20  C   UNL     1     -44.716 -51.339  16.143  1.00  0.00     0.025 C 
ENDBRANCH  13  15
ENDBRANCH   1  11
TORSDOF 4
ENDMDL
MODEL 2
REMARK VINA RESULT:      -5.3      2.590      3.019
REMARK  4 active torsions:
REMARK  status: ('A' for Active; 'I' for Inactive)
REMARK    1  A    between atoms: S_2  and  C_3 
REMARK    2  A    between atoms: C_8  and  C_9 
REMARK    3  A    between atoms: C_9  and  C_10 
REMARK       I    between atoms: C_10  and  N_12 
REMARK    4  A    between atoms: N_12  and  C_13 
ROOT
HETATM    1  C   UNL     1     -40.106 -51.479  13.508  1.00  0.00     0.151 C 
ENDROOT
BRANCH   1   2
HETATM    2  C   UNL     1     -40.316 -50.353  12.543  1.00  0.00     0.016 A 
HETATM    3  C   UNL     1     -39.430 -49.659  11.726  1.00  0.00     0.020 A 
HETATM    4  N   UNL     1     -40.024 -48.724  10.888  1.00  0.00    -0.348 N 
HETATM    5  C   UNL     1     -37.953 -49.807  11.617  1.00  0.00     0.069 C 
HETATM    6  C   UNL     1     -41.323 -48.708  11.064  1.00  0.00     0.112 A 
ATOM      7  HN  UNL     1     -39.520 -48.133  10.227  1.00  0.00     0.167 HD
HETATM    8  S   UNL     1     -41.920 -49.799  12.234  1.00  0.00    -0.067 SA
BRANCH   6   9
HETATM    9  S   UNL     1     -42.367 -47.631  10.165  1.00  0.00    -0.109 SA
HETATM   10  C   UNL     1     -41.559 -46.044  10.478  1.00  0.00     0.097 C 
ENDBRANCH   6   9
ENDBRANCH   1   2
BRANCH   1  11
HETATM   11  C   UNL     1     -40.873 -52.730  13.116  1.00  0.00     0.222 C 
HETATM   12  O   UNL     1     -40.518 -53.418  12.157  1.00  0.00    -0.273 OA
HETATM   13  N   UNL     1     -42.006 -53.011  13.855  1.00  0.00    -0.356 N 
HETATM   14  H   UNL     1     -42.300 -52.383  14.590  1.00  0.00     0.162 HD
BRANCH  13  15
HETATM   15  C   UNL     1     -42.887 -54.108  13.444  1.00  0.00     0.084 C 
HETATM   16  C   UNL     1     -43.957 -53.648  12.440  1.00  0.00     0.025 C 
HETATM   17  C   UNL     1     -45.222 -53.087  13.082  1.00  0.00     0.002 C 
HETATM   18  C   UNL     1     -45.793 -54.062  14.103  1.00  0.00     0.000 C 
HETATM   19  C   UNL     1     -44.774 -54.327  15.202  1.00  0.00     0.002 C 
HETATM   20  C   UNL     1     -43.464 -54.880  14.643  1.00  0.00     0.025 C 
ENDBRANCH  13  15
ENDBRANCH   1  11
TORSDOF 4
ENDMDL
MODEL 3
REMARK VINA RESULT:      -5.3      2.261      2.483
REMARK  4 active torsions:
REMARK  status: ('A' for Active; 'I' for Inactive)
REMARK    1  A    between atoms: S_2  and  C_3 
REMARK    2  A    between atoms: C_8  and  C_9 
REMARK    3  A    between atoms: C_9  and  C_10 
REMARK       I    between atoms: C_10  and  N_12 
REMARK    4  A    between atoms: N_12  and  C_13 
ROOT
HETATM    1  C   UNL     1     -41.821 -49.596  13.303  1.00  0.00     0.151 C 
ENDROOT
BRANCH   1   2
HETATM    2  C   UNL     1     -41.806 -48.625  12.163  1.00  0.00     0.016 A 
HETATM    3  C   UNL     1     -40.757 -48.011  11.486  1.00  0.00     0.020 A 
HETATM    4  N   UNL     1     -41.143 -47.230  10.404  1.00  0.00    -0.348 N 
HETATM    5  C   UNL     1     -39.296 -48.107  11.751  1.00  0.00     0.069 C 
HETATM    6  C   UNL     1     -42.446 -47.248  10.264  1.00  0.00     0.112 A 
ATOM      7  HN  UNL     1     -40.502 -46.714   9.801  1.00  0.00     0.167 HD
HETATM    8  S   UNL     1     -43.295 -48.192  11.407  1.00  0.00    -0.067 SA
BRANCH   6   9
HETATM    9  S   UNL     1     -43.256 -46.354   8.998  1.00  0.00    -0.109 SA
HETATM   10  C   UNL     1     -43.534 -47.668   7.788  1.00  0.00     0.097 C 
ENDBRANCH   6   9
ENDBRANCH   1   2
BRANCH   1  11
HETATM   11  C   UNL     1     -41.816 -51.040  12.835  1.00  0.00     0.222 C 
HETATM   12  O   UNL     1     -41.096 -51.403  11.903  1.00  0.00    -0.273 OA
HETATM   13  N   UNL     1     -42.694 -51.895  13.474  1.00  0.00    -0.356 N 
HETATM   14  H   UNL     1     -43.315 -51.542  14.188  1.00  0.00     0.162 HD
BRANCH  13  15
HETATM   15  C   UNL     1     -42.862 -53.265  12.979  1.00  0.00     0.084 C 
HETATM   16  C   UNL     1     -44.260 -53.499  12.383  1.00  0.00     0.025 C 
HETATM   17  C   UNL     1     -45.318 -53.909  13.404  1.00  0.00     0.002 C 
HETATM   18  C   UNL     1     -44.850 -55.103  14.223  1.00  0.00     0.000 C 
HETATM   19  C   UNL     1     -43.570 -54.758  14.970  1.00  0.00     0.002 C 
HETATM   20  C   UNL     1     -42.456 -54.321  14.021  1.00  0.00     0.025 C 
ENDBRANCH  13  15
ENDBRANCH   1  11
TORSDOF 4
ENDMDL
MODEL 4
REMARK VINA RESULT:      -5.1      2.875      3.540
REMARK  4 active torsions:
REMARK  status: ('A' for Active; 'I' for Inactive)
REMARK    1  A    between atoms: S_2  and  C_3 
REMARK    2  A    between atoms: C_8  and  C_9 
REMARK    3  A    between atoms: C_9  and  C_10 
REMARK       I    between atoms: C_10  and  N_12 
REMARK    4  A    between atoms: N_12  and  C_13 
ROOT
HETATM    1  C   UNL     1     -40.971 -52.668  12.030  1.00  0.00     0.151 C 
ENDROOT
BRANCH   1   2
HETATM    2  C   UNL     1     -40.449 -51.367  12.556  1.00  0.00     0.016 A 
HETATM    3  C   UNL     1     -39.570 -51.075  13.594  1.00  0.00     0.020 A 
HETATM    4  N   UNL     1     -39.251 -49.730  13.723  1.00  0.00    -0.348 N 
HETATM    5  C   UNL     1     -38.917 -52.010  14.551  1.00  0.00     0.069 C 
HETATM    6  C   UNL     1     -39.870 -49.020  12.812  1.00  0.00     0.112 A 
ATOM      7  HN  UNL     1     -38.621 -49.347  14.429  1.00  0.00     0.167 HD
HETATM    8  S   UNL     1     -40.870 -49.904  11.745  1.00  0.00    -0.067 SA
BRANCH   6   9
HETATM    9  S   UNL     1     -39.689 -47.283  12.707  1.00  0.00    -0.109 SA
HETATM   10  C   UNL     1     -40.518 -46.956  11.135  1.00  0.00     0.097 C 
ENDBRANCH   6   9
ENDBRANCH   1   2
BRANCH   1  11
HETATM   11  C   UNL     1     -42.076 -53.244  12.898  1.00  0.00     0.222 C 
HETATM   12  O   UNL     1     -41.938 -54.330  13.464  1.00  0.00    -0.273 OA
HETATM   13  N   UNL     1     -43.246 -52.512  12.966  1.00  0.00    -0.356 N 
HETATM   14  H   UNL     1     -43.342 -51.660  12.432  1.00  0.00     0.162 HD
BRANCH  13  15
HETATM   15  C   UNL     1     -44.414 -53.072  13.653  1.00  0.00     0.084 C 
HETATM   16  C   UNL     1     -45.688 -52.984  12.798  1.00  0.00     0.025 C 
HETATM   17  C   UNL     1     -46.444 -51.665  12.930  1.00  0.00     0.002 C 
HETATM   18  C   UNL     1     -46.726 -51.343  14.391  1.00  0.00     0.000 C 
HETATM   19  C   UNL     1     -45.419 -51.228  15.164  1.00  0.00     0.002 C 
HETATM   20  C   UNL     1     -44.588 -52.506  15.073  1.00  0.00     0.025 C 
ENDBRANCH  13  15
ENDBRANCH   1  11
TORSDOF 4
ENDMDL
MODEL 5
REMARK VINA RESULT:      -5.0      2.253      2.675
REMARK  4 active torsions:
REMARK  status: ('A' for Active; 'I' for Inactive)
REMARK    1  A    between atoms: S_2  and  C_3 
REMARK    2  A    between atoms: C_8  and  C_9 
REMARK    3  A    between atoms: C_9  and  C_10 
REMARK       I    between atoms: C_10  and  N_12 
REMARK    4  A    between atoms: N_12  and  C_13 
ROOT
HETATM    1  C   UNL     1     -41.057 -50.961  13.485  1.00  0.00     0.151 C 
ENDROOT
BRANCH   1   2
HETATM    2  C   UNL     1     -40.723 -49.761  12.654  1.00  0.00     0.016 A 
HETATM    3  C   UNL     1     -39.562 -49.398  11.979  1.00  0.00     0.020 A 
HETATM    4  N   UNL     1     -39.668 -48.235  11.228  1.00  0.00    -0.348 N 
HETATM    5  C   UNL     1     -38.251 -50.101  11.938  1.00  0.00     0.069 C 
HETATM    6  C   UNL     1     -40.872 -47.728  11.329  1.00  0.00     0.112 A 
ATOM      7  HN  UNL     1     -38.913 -47.830  10.673  1.00  0.00     0.167 HD
HETATM    8  S   UNL     1     -41.955 -48.599  12.323  1.00  0.00    -0.067 SA
BRANCH   6   9
HETATM    9  S   UNL     1     -41.331 -46.253  10.509  1.00  0.00    -0.109 SA
HETATM   10  C   UNL     1     -39.948 -45.178  10.957  1.00  0.00     0.097 C 
ENDBRANCH   6   9
ENDBRANCH   1   2
BRANCH   1  11
HETATM   11  C   UNL     1     -42.204 -51.769  12.905  1.00  0.00     0.222 C 
HETATM   12  O   UNL     1     -42.088 -52.349  11.823  1.00  0.00    -0.273 OA
HETATM   13  N   UNL     1     -43.382 -51.767  13.626  1.00  0.00    -0.356 N 
HETATM   14  H   UNL     1     -43.456 -51.224  14.474  1.00  0.00     0.162 HD
BRANCH  13  15
HETATM   15  C   UNL     1     -44.581 -52.391  13.058  1.00  0.00     0.084 C 
HETATM   16  C   UNL     1     -45.801 -51.456  13.107  1.00  0.00     0.025 C 
HETATM   17  C   UNL     1     -46.585 -51.513  14.414  1.00  0.00     0.002 C 
HETATM   18  C   UNL     1     -46.964 -52.946  14.760  1.00  0.00     0.000 C 
HETATM   19  C   UNL     1     -45.711 -53.797  14.915  1.00  0.00     0.002 C 
HETATM   20  C   UNL     1     -44.854 -53.786  13.649  1.00  0.00     0.025 C 
ENDBRANCH  13  15
ENDBRANCH   1  11
TORSDOF 4
ENDMDL
MODEL 6
REMARK VINA RESULT:      -4.9      3.108      4.406
REMARK  4 active torsions:
REMARK  status: ('A' for Active; 'I' for Inactive)
REMARK    1  A    between atoms: S_2  and  C_3 
REMARK    2  A    between atoms: C_8  and  C_9 
REMARK    3  A    between atoms: C_9  and  C_10 
REMARK       I    between atoms: C_10  and  N_12 
REMARK    4  A    between atoms: N_12  and  C_13 
ROOT
HETATM    1  C   UNL     1     -40.889 -50.581  11.796  1.00  0.00     0.151 C 
ENDROOT
BRANCH   1   2
HETATM    2  C   UNL     1     -39.858 -49.927  12.663  1.00  0.00     0.016 A 
HETATM    3  C   UNL     1     -38.513 -49.647  12.449  1.00  0.00     0.020 A 
HETATM    4  N   UNL     1     -37.899 -48.935  13.472  1.00  0.00    -0.348 N 
HETATM    5  C   UNL     1     -37.669 -49.982  11.270  1.00  0.00     0.069 C 
HETATM    6  C   UNL     1     -38.751 -48.684  14.435  1.00  0.00     0.112 A 
ATOM      7  HN  UNL     1     -36.920 -48.648  13.473  1.00  0.00     0.167 HD
HETATM    8  S   UNL     1     -40.335 -49.276  14.188  1.00  0.00    -0.067 SA
BRANCH   6   9
HETATM    9  S   UNL     1     -38.290 -47.810  15.878  1.00  0.00    -0.109 SA
HETATM   10  C   UNL     1     -36.489 -47.947  15.789  1.00  0.00     0.097 C 
ENDBRANCH   6   9
ENDBRANCH   1   2
BRANCH   1  11
HETATM   11  C   UNL     1     -41.721 -51.602  12.552  1.00  0.00     0.222 C 
HETATM   12  O   UNL     1     -41.210 -52.627  13.006  1.00  0.00    -0.273 OA
HETATM   13  N   UNL     1     -43.074 -51.339  12.649  1.00  0.00    -0.356 N 
HETATM   14  H   UNL     1     -43.464 -50.520  12.204  1.00  0.00     0.162 HD
BRANCH  13  15
HETATM   15  C   UNL     1     -43.970 -52.346  13.225  1.00  0.00     0.084 C 
HETATM   16  C   UNL     1     -45.256 -52.519  12.400  1.00  0.00     0.025 C 
HETATM   17  C   UNL     1     -46.374 -51.548  12.767  1.00  0.00     0.002 C 
HETATM   18  C   UNL     1     -46.658 -51.585  14.262  1.00  0.00     0.000 C 
HETATM   19  C   UNL     1     -45.410 -51.197  15.043  1.00  0.00     0.002 C 
HETATM   20  C   UNL     1     -44.230 -52.114  14.724  1.00  0.00     0.025 C 
ENDBRANCH  13  15
ENDBRANCH   1  11
TORSDOF 4
ENDMDL
MODEL 7
REMARK VINA RESULT:      -4.9      3.026      3.570
REMARK  4 active torsions:
REMARK  status: ('A' for Active; 'I' for Inactive)
REMARK    1  A    between atoms: S_2  and  C_3 
REMARK    2  A    between atoms: C_8  and  C_9 
REMARK    3  A    between atoms: C_9  and  C_10 
REMARK       I    between atoms: C_10  and  N_12 
REMARK    4  A    between atoms: N_12  and  C_13 
ROOT
HETATM    1  C   UNL     1     -40.384 -49.934  13.484  1.00  0.00     0.151 C 
ENDROOT
BRANCH   1   2
HETATM    2  C   UNL     1     -41.437 -49.391  12.568  1.00  0.00     0.016 A 
HETATM    3  C   UNL     1     -42.825 -49.460  12.611  1.00  0.00     0.020 A 
HETATM    4  N   UNL     1     -43.473 -48.742  11.614  1.00  0.00    -0.348 N 
HETATM    5  C   UNL     1     -43.692 -50.170  13.591  1.00  0.00     0.069 C 
HETATM    6  C   UNL     1     -42.603 -48.147  10.835  1.00  0.00     0.112 A 
ATOM      7  HN  UNL     1     -44.486 -48.685  11.504  1.00  0.00     0.167 HD
HETATM    8  S   UNL     1     -40.962 -48.402  11.236  1.00  0.00    -0.067 SA
BRANCH   6   9
HETATM    9  S   UNL     1     -43.096 -47.168   9.472  1.00  0.00    -0.109 SA
HETATM   10  C   UNL     1     -44.887 -47.407   9.519  1.00  0.00     0.097 C 
ENDBRANCH   6   9
ENDBRANCH   1   2
BRANCH   1  11
HETATM   11  C   UNL     1     -40.181 -51.430  13.312  1.00  0.00     0.222 C 
HETATM   12  O   UNL     1     -39.435 -51.872  12.437  1.00  0.00    -0.273 OA
HETATM   13  N   UNL     1     -40.916 -52.248  14.148  1.00  0.00    -0.356 N 
HETATM   14  H   UNL     1     -41.567 -51.846  14.807  1.00  0.00     0.162 HD
BRANCH  13  15
HETATM   15  C   UNL     1     -40.896 -53.700  13.943  1.00  0.00     0.084 C 
HETATM   16  C   UNL     1     -42.239 -54.230  13.416  1.00  0.00     0.025 C 
HETATM   17  C   UNL     1     -43.256 -54.559  14.505  1.00  0.00     0.002 C 
HETATM   18  C   UNL     1     -42.655 -55.492  15.547  1.00  0.00     0.000 C 
HETATM   19  C   UNL     1     -41.446 -54.838  16.201  1.00  0.00     0.002 C 
HETATM   20  C   UNL     1     -40.378 -54.461  15.176  1.00  0.00     0.025 C 
ENDBRANCH  13  15
ENDBRANCH   1  11
TORSDOF 4
ENDMDL
MODEL 8
REMARK VINA RESULT:      -4.9      3.440      6.367
REMARK  4 active torsions:
REMARK  status: ('A' for Active; 'I' for Inactive)
REMARK    1  A    between atoms: S_2  and  C_3 
REMARK    2  A    between atoms: C_8  and  C_9 
REMARK    3  A    between atoms: C_9  and  C_10 
REMARK       I    between atoms: C_10  and  N_12 
REMARK    4  A    between atoms: N_12  and  C_13 
ROOT
HETATM    1  C   UNL     1     -41.357 -52.047  12.034  1.00  0.00     0.151 C 
ENDROOT
BRANCH   1   2
HETATM    2  C   UNL     1     -42.195 -53.047  12.769  1.00  0.00     0.016 A 
HETATM    3  C   UNL     1     -41.879 -53.962  13.768  1.00  0.00     0.020 A 
HETATM    4  N   UNL     1     -42.964 -54.666  14.274  1.00  0.00    -0.348 N 
HETATM    5  C   UNL     1     -40.551 -54.257  14.373  1.00  0.00     0.069 C 
HETATM    6  C   UNL     1     -44.071 -54.299  13.677  1.00  0.00     0.112 A 
ATOM      7  HN  UNL     1     -42.906 -55.371  15.009  1.00  0.00     0.167 HD
HETATM    8  S   UNL     1     -43.895 -53.095  12.477  1.00  0.00    -0.067 SA
BRANCH   6   9
HETATM    9  S   UNL     1     -45.620 -55.005  14.079  1.00  0.00    -0.109 SA
HETATM   10  C   UNL     1     -46.507 -53.547  14.674  1.00  0.00     0.097 C 
ENDBRANCH   6   9
ENDBRANCH   1   2
BRANCH   1  11
HETATM   11  C   UNL     1     -41.595 -50.626  12.513  1.00  0.00     0.222 C 
HETATM   12  O   UNL     1     -41.472 -50.328  13.702  1.00  0.00    -0.273 OA
HETATM   13  N   UNL     1     -42.005 -49.717  11.556  1.00  0.00    -0.356 N 
HETATM   14  H   UNL     1     -42.158 -50.018  10.604  1.00  0.00     0.162 HD
BRANCH  13  15
HETATM   15  C   UNL     1     -42.405 -48.366  11.963  1.00  0.00     0.084 C 
HETATM   16  C   UNL     1     -43.512 -47.793  11.063  1.00  0.00     0.025 C 
HETATM   17  C   UNL     1     -43.002 -47.091   9.809  1.00  0.00     0.002 C 
HETATM   18  C   UNL     1     -41.962 -46.035  10.160  1.00  0.00     0.000 C 
HETATM   19  C   UNL     1     -40.777 -46.680  10.865  1.00  0.00     0.002 C 
HETATM   20  C   UNL     1     -41.202 -47.421  12.132  1.00  0.00     0.025 C 
ENDBRANCH  13  15
ENDBRANCH   1  11
TORSDOF 4
ENDMDL
MODEL 9
REMARK VINA RESULT:      -4.6      4.295      6.543
REMARK  4 active torsions:
REMARK  status: ('A' for Active; 'I' for Inactive)
REMARK    1  A    between atoms: S_2  and  C_3 
REMARK    2  A    between atoms: C_8  and  C_9 
REMARK    3  A    between atoms: C_9  and  C_10 
REMARK       I    between atoms: C_10  and  N_12 
REMARK    4  A    between atoms: N_12  and  C_13 
ROOT
HETATM    1  C   UNL     1     -44.027 -53.307  12.520  1.00  0.00     0.151 C 
ENDROOT
BRANCH   1   2
HETATM    2  C   UNL     1     -45.022 -52.551  13.345  1.00  0.00     0.016 A 
HETATM    3  C   UNL     1     -46.227 -51.942  13.010  1.00  0.00     0.020 A 
HETATM    4  N   UNL     1     -46.926 -51.409  14.085  1.00  0.00    -0.348 N 
HETATM    5  C   UNL     1     -46.866 -51.816  11.672  1.00  0.00     0.069 C 
HETATM    6  C   UNL     1     -46.271 -51.605  15.204  1.00  0.00     0.112 A 
ATOM      7  HN  UNL     1     -47.825 -50.930  14.015  1.00  0.00     0.167 HD
HETATM    8  S   UNL     1     -44.786 -52.434  15.050  1.00  0.00    -0.067 SA
BRANCH   6   9
HETATM    9  S   UNL     1     -46.878 -51.044  16.745  1.00  0.00    -0.109 SA
HETATM   10  C   UNL     1     -45.424 -50.180  17.382  1.00  0.00     0.097 C 
ENDBRANCH   6   9
ENDBRANCH   1   2
BRANCH   1  11
HETATM   11  C   UNL     1     -42.606 -52.812  12.727  1.00  0.00     0.222 C 
HETATM   12  O   UNL     1     -42.196 -51.803  12.150  1.00  0.00    -0.273 OA
HETATM   13  N   UNL     1     -41.801 -53.581  13.545  1.00  0.00    -0.356 N 
HETATM   14  H   UNL     1     -42.157 -54.438  13.945  1.00  0.00     0.162 HD
BRANCH  13  15
HETATM   15  C   UNL     1     -40.377 -53.259  13.671  1.00  0.00     0.084 C 
HETATM   16  C   UNL     1     -39.508 -54.519  13.822  1.00  0.00     0.025 C 
HETATM   17  C   UNL     1     -39.360 -55.013  15.257  1.00  0.00     0.002 C 
HETATM   18  C   UNL     1     -38.885 -53.892  16.172  1.00  0.00     0.000 C 
HETATM   19  C   UNL     1     -39.886 -52.745  16.159  1.00  0.00     0.002 C 
HETATM   20  C   UNL     1     -40.107 -52.197  14.750  1.00  0.00     0.025 C 
ENDBRANCH  13  15
ENDBRANCH   1  11
TORSDOF 4
ENDMDL
