MODEL 1
REMARK VINA RESULT:      -6.3      0.000      0.000
REMARK  4 active torsions:
REMARK  status: ('A' for Active; 'I' for Inactive)
REMARK    1  A    between atoms: C_2  and  C_3 
REMARK    2  A    between atoms: C_2  and  N_16 
REMARK    3  A    between atoms: C_3  and  N_4 
REMARK       I    between atoms: N_4  and  C_5 
REMARK       I    between atoms: C_5  and  N_7 
REMARK    4  A    between atoms: N_7  and  C_8 
ROOT
HETATM    1  N   UNL     1     -42.177 -51.574  12.086  1.00  0.00    -0.341 N 
HETATM    2  C   UNL     1     -40.886 -51.930  11.852  1.00  0.00     0.321 C 
HETATM    3  O   UNL     1     -40.467 -53.081  11.963  1.00  0.00    -0.247 OA
HETATM    4  N   UNL     1     -40.013 -50.918  11.578  1.00  0.00    -0.294 N 
HETATM    5  H   UNL     1     -42.447 -50.656  11.737  1.00  0.00     0.164 HD
HETATM    6  H   UNL     1     -39.050 -51.212  11.604  1.00  0.00     0.172 HD
ENDROOT
BRANCH   1   7
HETATM    7  C   UNL     1     -43.222 -52.516  12.393  1.00  0.00     0.159 C 
BRANCH   7   8
HETATM    8  C   UNL     1     -44.222 -51.982  13.461  1.00  0.00     0.236 C 
HETATM    9  C   UNL     1     -43.871 -50.511  13.708  1.00  0.00     0.044 C 
BRANCH   8  10
HETATM   10  N   UNL     1     -44.395 -52.866  14.642  1.00  0.00     0.098 N 
HETATM   11  C   UNL     1     -44.128 -54.300  14.405  1.00  0.00     0.299 C 
HETATM   12  C   UNL     1     -45.325 -55.114  13.880  1.00  0.00     0.198 C 
HETATM   13  O   UNL     1     -46.497 -54.931  14.683  1.00  0.00    -0.388 OA
HETATM   14  C   UNL     1     -46.822 -53.543  14.834  1.00  0.00     0.198 C 
HETATM   15  C   UNL     1     -45.643 -52.750  15.413  1.00  0.00     0.299 C 
ENDBRANCH   8  10
ENDBRANCH   7   8
ENDBRANCH   1   7
BRANCH   4  16
HETATM   16  C   UNL     1     -40.312 -49.563  11.378  1.00  0.00     0.114 A 
HETATM   17  N   UNL     1     -41.298 -49.266  10.500  1.00  0.00    -0.352 N 
HETATM   18  C   UNL     1     -41.634 -47.976  10.323  1.00  0.00     0.089 A 
ATOM     19  HN  UNL     1     -41.776 -50.004   9.984  1.00  0.00     0.166 HD
HETATM   20  C   UNL     1     -41.036 -46.941  11.006  1.00  0.00     0.018 A 
HETATM   21  C   UNL     1     -40.009 -47.247  11.893  1.00  0.00     0.012 A 
HETATM   22  C   UNL     1     -39.617 -48.579  12.089  1.00  0.00    -0.018 A 
HETATM   23  C   UNL     1     -38.492 -48.877  13.035  1.00  0.00     0.052 C 
ENDBRANCH   4  16
TORSDOF 4
ENDMDL
MODEL 2
REMARK VINA RESULT:      -6.3      1.669      2.194
REMARK  4 active torsions:
REMARK  status: ('A' for Active; 'I' for Inactive)
REMARK    1  A    between atoms: C_2  and  C_3 
REMARK    2  A    between atoms: C_2  and  N_16 
REMARK    3  A    between atoms: C_3  and  N_4 
REMARK       I    between atoms: N_4  and  C_5 
REMARK       I    between atoms: C_5  and  N_7 
REMARK    4  A    between atoms: N_7  and  C_8 
ROOT
HETATM    1  N   UNL     1     -42.045 -51.683  11.921  1.00  0.00    -0.341 N 
HETATM    2  C   UNL     1     -40.764 -51.255  12.083  1.00  0.00     0.321 C 
HETATM    3  O   UNL     1     -39.840 -51.989  12.425  1.00  0.00    -0.247 OA
HETATM    4  N   UNL     1     -40.547 -49.915  11.945  1.00  0.00    -0.294 N 
HETATM    5  H   UNL     1     -42.658 -51.047  11.415  1.00  0.00     0.164 HD
HETATM    6  H   UNL     1     -39.633 -49.631  12.260  1.00  0.00     0.172 HD
ENDROOT
BRANCH   1   7
HETATM    7  C   UNL     1     -42.446 -53.061  12.036  1.00  0.00     0.159 C 
BRANCH   7   8
HETATM    8  C   UNL     1     -43.387 -53.318  13.250  1.00  0.00     0.236 C 
HETATM    9  C   UNL     1     -42.598 -54.162  14.257  1.00  0.00     0.044 C 
BRANCH   8  10
HETATM   10  N   UNL     1     -44.756 -53.765  12.887  1.00  0.00     0.098 N 
HETATM   11  C   UNL     1     -45.722 -52.683  12.602  1.00  0.00     0.299 C 
HETATM   12  C   UNL     1     -46.456 -52.117  13.831  1.00  0.00     0.198 C 
HETATM   13  O   UNL     1     -47.053 -53.148  14.627  1.00  0.00    -0.388 OA
HETATM   14  C   UNL     1     -46.098 -54.151  14.993  1.00  0.00     0.198 C 
HETATM   15  C   UNL     1     -45.414 -54.752  13.758  1.00  0.00     0.299 C 
ENDBRANCH   8  10
ENDBRANCH   7   8
ENDBRANCH   1   7
BRANCH   4  16
HETATM   16  C   UNL     1     -41.463 -48.939  11.527  1.00  0.00     0.114 A 
HETATM   17  N   UNL     1     -41.574 -48.719  10.196  1.00  0.00    -0.352 N 
HETATM   18  C   UNL     1     -42.475 -47.820   9.767  1.00  0.00     0.089 A 
ATOM     19  HN  UNL     1     -40.986 -49.225   9.534  1.00  0.00     0.166 HD
HETATM   20  C   UNL     1     -43.308 -47.123  10.614  1.00  0.00     0.018 A 
HETATM   21  C   UNL     1     -43.178 -47.336  11.983  1.00  0.00     0.012 A 
HETATM   22  C   UNL     1     -42.234 -48.251  12.469  1.00  0.00    -0.018 A 
HETATM   23  C   UNL     1     -42.102 -48.444  13.951  1.00  0.00     0.052 C 
ENDBRANCH   4  16
TORSDOF 4
ENDMDL
MODEL 3
REMARK VINA RESULT:      -6.2      1.855      2.759
REMARK  4 active torsions:
REMARK  status: ('A' for Active; 'I' for Inactive)
REMARK    1  A    between atoms: C_2  and  C_3 
REMARK    2  A    between atoms: C_2  and  N_16 
REMARK    3  A    between atoms: C_3  and  N_4 
REMARK       I    between atoms: N_4  and  C_5 
REMARK       I    between atoms: C_5  and  N_7 
REMARK    4  A    between atoms: N_7  and  C_8 
ROOT
HETATM    1  N   UNL     1     -41.564 -50.737  11.463  1.00  0.00    -0.341 N 
HETATM    2  C   UNL     1     -40.498 -49.899  11.357  1.00  0.00     0.321 C 
HETATM    3  O   UNL     1     -39.369 -50.181  11.752  1.00  0.00    -0.247 OA
HETATM    4  N   UNL     1     -40.750 -48.649  10.872  1.00  0.00    -0.294 N 
HETATM    5  H   UNL     1     -42.373 -50.489  10.897  1.00  0.00     0.164 HD
HETATM    6  H   UNL     1     -39.976 -48.016  10.993  1.00  0.00     0.172 HD
ENDROOT
BRANCH   1   7
HETATM    7  C   UNL     1     -41.473 -52.086  11.958  1.00  0.00     0.159 C 
BRANCH   7   8
HETATM    8  C   UNL     1     -42.580 -52.423  13.000  1.00  0.00     0.236 C 
HETATM    9  C   UNL     1     -42.259 -51.626  14.269  1.00  0.00     0.044 C 
BRANCH   8  10
HETATM   10  N   UNL     1     -42.873 -53.872  13.142  1.00  0.00     0.098 N 
HETATM   11  C   UNL     1     -44.246 -54.280  12.783  1.00  0.00     0.299 C 
HETATM   12  C   UNL     1     -45.283 -54.171  13.915  1.00  0.00     0.198 C 
HETATM   13  O   UNL     1     -44.846 -54.824  15.113  1.00  0.00    -0.388 OA
HETATM   14  C   UNL     1     -43.555 -54.359  15.526  1.00  0.00     0.198 C 
HETATM   15  C   UNL     1     -42.515 -54.527  14.411  1.00  0.00     0.299 C 
ENDBRANCH   8  10
ENDBRANCH   7   8
ENDBRANCH   1   7
BRANCH   4  16
HETATM   16  C   UNL     1     -41.956 -48.164  10.345  1.00  0.00     0.114 A 
HETATM   17  N   UNL     1     -42.104 -48.196   8.999  1.00  0.00    -0.352 N 
HETATM   18  C   UNL     1     -43.267 -47.777   8.472  1.00  0.00     0.089 A 
ATOM     19  HN  UNL     1     -41.350 -48.531   8.400  1.00  0.00     0.166 HD
HETATM   20  C   UNL     1     -44.326 -47.334   9.234  1.00  0.00     0.018 A 
HETATM   21  C   UNL     1     -44.162 -47.283  10.614  1.00  0.00     0.012 A 
HETATM   22  C   UNL     1     -42.956 -47.692  11.200  1.00  0.00    -0.018 A 
HETATM   23  C   UNL     1     -42.802 -47.604  12.690  1.00  0.00     0.052 C 
ENDBRANCH   4  16
TORSDOF 4
ENDMDL
MODEL 4
REMARK VINA RESULT:      -6.2      2.898      6.861
REMARK  4 active torsions:
REMARK  status: ('A' for Active; 'I' for Inactive)
REMARK    1  A    between atoms: C_2  and  C_3 
REMARK    2  A    between atoms: C_2  and  N_16 
REMARK    3  A    between atoms: C_3  and  N_4 
REMARK       I    between atoms: N_4  and  C_5 
REMARK       I    between atoms: C_5  and  N_7 
REMARK    4  A    between atoms: N_7  and  C_8 
ROOT
HETATM    1  N   UNL     1     -41.014 -49.961  12.827  1.00  0.00    -0.341 N 
HETATM    2  C   UNL     1     -40.387 -50.600  11.803  1.00  0.00     0.321 C 
HETATM    3  O   UNL     1     -39.522 -50.077  11.104  1.00  0.00    -0.247 OA
HETATM    4  N   UNL     1     -40.834 -51.852  11.500  1.00  0.00    -0.294 N 
HETATM    5  H   UNL     1     -41.527 -50.563  13.468  1.00  0.00     0.164 HD
HETATM    6  H   UNL     1     -40.472 -52.198  10.625  1.00  0.00     0.172 HD
ENDROOT
BRANCH   1   7
HETATM    7  C   UNL     1     -40.669 -48.636  13.273  1.00  0.00     0.159 C 
BRANCH   7   8
HETATM    8  C   UNL     1     -41.609 -47.539  12.693  1.00  0.00     0.236 C 
HETATM    9  C   UNL     1     -43.044 -47.949  13.043  1.00  0.00     0.044 C 
BRANCH   8  10
HETATM   10  N   UNL     1     -41.317 -47.154  11.288  1.00  0.00     0.098 N 
HETATM   11  C   UNL     1     -40.039 -46.443  11.079  1.00  0.00     0.299 C 
HETATM   12  C   UNL     1     -40.097 -44.916  11.267  1.00  0.00     0.198 C 
HETATM   13  O   UNL     1     -41.154 -44.317  10.507  1.00  0.00    -0.388 OA
HETATM   14  C   UNL     1     -42.417 -44.936  10.781  1.00  0.00     0.198 C 
HETATM   15  C   UNL     1     -42.366 -46.450  10.534  1.00  0.00     0.299 C 
ENDBRANCH   8  10
ENDBRANCH   7   8
ENDBRANCH   1   7
BRANCH   4  16
HETATM   16  C   UNL     1     -41.777 -52.617  12.202  1.00  0.00     0.114 A 
HETATM   17  N   UNL     1     -43.070 -52.520  11.813  1.00  0.00    -0.352 N 
HETATM   18  C   UNL     1     -43.988 -53.275  12.440  1.00  0.00     0.089 A 
ATOM     19  HN  UNL     1     -43.342 -51.887  11.060  1.00  0.00     0.166 HD
HETATM   20  C   UNL     1     -43.676 -54.159  13.449  1.00  0.00     0.018 A 
HETATM   21  C   UNL     1     -42.349 -54.242  13.860  1.00  0.00     0.012 A 
HETATM   22  C   UNL     1     -41.367 -53.454  13.243  1.00  0.00    -0.018 A 
HETATM   23  C   UNL     1     -39.948 -53.549  13.723  1.00  0.00     0.052 C 
ENDBRANCH   4  16
TORSDOF 4
ENDMDL
MODEL 5
REMARK VINA RESULT:      -6.1      1.398      2.068
REMARK  4 active torsions:
REMARK  status: ('A' for Active; 'I' for Inactive)
REMARK    1  A    between atoms: C_2  and  C_3 
REMARK    2  A    between atoms: C_2  and  N_16 
REMARK    3  A    between atoms: C_3  and  N_4 
REMARK       I    between atoms: N_4  and  C_5 
REMARK       I    between atoms: C_5  and  N_7 
REMARK    4  A    between atoms: N_7  and  C_8 
ROOT
HETATM    1  N   UNL     1     -41.221 -51.626  13.437  1.00  0.00    -0.341 N 
HETATM    2  C   UNL     1     -40.781 -52.116  12.247  1.00  0.00     0.321 C 
HETATM    3  O   UNL     1     -40.586 -53.310  12.035  1.00  0.00    -0.247 OA
HETATM    4  N   UNL     1     -40.455 -51.198  11.292  1.00  0.00    -0.294 N 
HETATM    5  H   UNL     1     -41.565 -50.667  13.414  1.00  0.00     0.164 HD
HETATM    6  H   UNL     1     -39.961 -51.601  10.512  1.00  0.00     0.172 HD
ENDROOT
BRANCH   1   7
HETATM    7  C   UNL     1     -41.603 -52.455  14.550  1.00  0.00     0.159 C 
BRANCH   7   8
HETATM    8  C   UNL     1     -43.114 -52.830  14.535  1.00  0.00     0.236 C 
HETATM    9  C   UNL     1     -43.206 -54.304  14.126  1.00  0.00     0.044 C 
BRANCH   8  10
HETATM   10  N   UNL     1     -43.985 -51.854  13.831  1.00  0.00     0.098 N 
HETATM   11  C   UNL     1     -44.535 -50.772  14.672  1.00  0.00     0.299 C 
HETATM   12  C   UNL     1     -45.850 -51.107  15.400  1.00  0.00     0.198 C 
HETATM   13  O   UNL     1     -46.844 -51.625  14.509  1.00  0.00    -0.388 OA
HETATM   14  C   UNL     1     -46.350 -52.743  13.760  1.00  0.00     0.198 C 
HETATM   15  C   UNL     1     -45.072 -52.382  12.991  1.00  0.00     0.299 C 
ENDBRANCH   8  10
ENDBRANCH   7   8
ENDBRANCH   1   7
BRANCH   4  16
HETATM   16  C   UNL     1     -40.643 -49.809  11.341  1.00  0.00     0.114 A 
HETATM   17  N   UNL     1     -41.884 -49.339  11.075  1.00  0.00    -0.352 N 
HETATM   18  C   UNL     1     -42.101 -48.015  11.158  1.00  0.00     0.089 A 
ATOM     19  HN  UNL     1     -42.638 -49.975  10.817  1.00  0.00     0.166 HD
HETATM   20  C   UNL     1     -41.126 -47.112  11.521  1.00  0.00     0.018 A 
HETATM   21  C   UNL     1     -39.846 -47.597  11.774  1.00  0.00     0.012 A 
HETATM   22  C   UNL     1     -39.577 -48.969  11.677  1.00  0.00    -0.018 A 
HETATM   23  C   UNL     1     -38.182 -49.459  11.935  1.00  0.00     0.052 C 
ENDBRANCH   4  16
TORSDOF 4
ENDMDL
MODEL 6
REMARK VINA RESULT:      -6.0      2.239      6.381
REMARK  4 active torsions:
REMARK  status: ('A' for Active; 'I' for Inactive)
REMARK    1  A    between atoms: C_2  and  C_3 
REMARK    2  A    between atoms: C_2  and  N_16 
REMARK    3  A    between atoms: C_3  and  N_4 
REMARK       I    between atoms: N_4  and  C_5 
REMARK       I    between atoms: C_5  and  N_7 
REMARK    4  A    between atoms: N_7  and  C_8 
ROOT
HETATM    1  N   UNL     1     -41.917 -50.918  11.901  1.00  0.00    -0.341 N 
HETATM    2  C   UNL     1     -41.709 -52.222  12.224  1.00  0.00     0.321 C 
HETATM    3  O   UNL     1     -40.653 -52.815  12.011  1.00  0.00    -0.247 OA
HETATM    4  N   UNL     1     -42.780 -52.908  12.717  1.00  0.00    -0.294 N 
HETATM    5  H   UNL     1     -42.731 -50.485  12.335  1.00  0.00     0.164 HD
HETATM    6  H   UNL     1     -42.626 -53.903  12.756  1.00  0.00     0.172 HD
ENDROOT
BRANCH   1   7
HETATM    7  C   UNL     1     -40.897 -50.054  11.367  1.00  0.00     0.159 C 
BRANCH   7   8
HETATM    8  C   UNL     1     -40.324 -49.066  12.426  1.00  0.00     0.236 C 
HETATM    9  C   UNL     1     -41.172 -47.792  12.353  1.00  0.00     0.044 C 
BRANCH   8  10
HETATM   10  N   UNL     1     -38.846 -48.923  12.402  1.00  0.00     0.098 N 
HETATM   11  C   UNL     1     -38.098 -50.135  12.008  1.00  0.00     0.299 C 
HETATM   12  C   UNL     1     -37.778 -51.113  13.153  1.00  0.00     0.198 C 
HETATM   13  O   UNL     1     -37.154 -50.458  14.264  1.00  0.00    -0.388 OA
HETATM   14  C   UNL     1     -37.927 -49.340  14.719  1.00  0.00     0.198 C 
HETATM   15  C   UNL     1     -38.191 -48.341  13.584  1.00  0.00     0.299 C 
ENDBRANCH   8  10
ENDBRANCH   7   8
ENDBRANCH   1   7
BRANCH   4  16
HETATM   16  C   UNL     1     -44.041 -52.395  13.056  1.00  0.00     0.114 A 
HETATM   17  N   UNL     1     -45.035 -52.537  12.148  1.00  0.00    -0.352 N 
HETATM   18  C   UNL     1     -46.263 -52.093  12.466  1.00  0.00     0.089 A 
ATOM     19  HN  UNL     1     -44.855 -52.970  11.242  1.00  0.00     0.166 HD
HETATM   20  C   UNL     1     -46.566 -51.518  13.680  1.00  0.00     0.018 A 
HETATM   21  C   UNL     1     -45.538 -51.356  14.604  1.00  0.00     0.012 A 
HETATM   22  C   UNL     1     -44.240 -51.787  14.299  1.00  0.00    -0.018 A 
HETATM   23  C   UNL     1     -43.147 -51.579  15.306  1.00  0.00     0.052 C 
ENDBRANCH   4  16
TORSDOF 4
ENDMDL
MODEL 7
REMARK VINA RESULT:      -6.0      2.470      6.620
REMARK  4 active torsions:
REMARK  status: ('A' for Active; 'I' for Inactive)
REMARK    1  A    between atoms: C_2  and  C_3 
REMARK    2  A    between atoms: C_2  and  N_16 
REMARK    3  A    between atoms: C_3  and  N_4 
REMARK       I    between atoms: N_4  and  C_5 
REMARK       I    between atoms: C_5  and  N_7 
REMARK    4  A    between atoms: N_7  and  C_8 
ROOT
HETATM    1  N   UNL     1     -42.099 -50.953  12.010  1.00  0.00    -0.341 N 
HETATM    2  C   UNL     1     -41.940 -52.286  12.225  1.00  0.00     0.321 C 
HETATM    3  O   UNL     1     -40.906 -52.898  11.964  1.00  0.00    -0.247 OA
HETATM    4  N   UNL     1     -43.036 -52.970  12.663  1.00  0.00    -0.294 N 
HETATM    5  H   UNL     1     -42.897 -50.527  12.478  1.00  0.00     0.164 HD
HETATM    6  H   UNL     1     -42.919 -53.970  12.622  1.00  0.00     0.172 HD
ENDROOT
BRANCH   1   7
HETATM    7  C   UNL     1     -41.047 -50.088  11.545  1.00  0.00     0.159 C 
BRANCH   7   8
HETATM    8  C   UNL     1     -41.370 -48.578  11.752  1.00  0.00     0.236 C 
HETATM    9  C   UNL     1     -42.639 -48.505  12.608  1.00  0.00     0.044 C 
BRANCH   8  10
HETATM   10  N   UNL     1     -41.315 -47.760  10.514  1.00  0.00     0.098 N 
HETATM   11  C   UNL     1     -40.899 -46.355  10.701  1.00  0.00     0.299 C 
HETATM   12  C   UNL     1     -42.032 -45.374  11.052  1.00  0.00     0.198 C 
HETATM   13  O   UNL     1     -43.133 -45.471  10.141  1.00  0.00    -0.388 OA
HETATM   14  C   UNL     1     -43.609 -46.818  10.031  1.00  0.00     0.198 C 
HETATM   15  C   UNL     1     -42.485 -47.779   9.622  1.00  0.00     0.299 C 
ENDBRANCH   8  10
ENDBRANCH   7   8
ENDBRANCH   1   7
BRANCH   4  16
HETATM   16  C   UNL     1     -44.277 -52.440  13.045  1.00  0.00     0.114 A 
HETATM   17  N   UNL     1     -45.274 -52.469  12.129  1.00  0.00    -0.352 N 
HETATM   18  C   UNL     1     -46.486 -52.007  12.485  1.00  0.00     0.089 A 
ATOM     19  HN  UNL     1     -45.110 -52.832  11.191  1.00  0.00     0.166 HD
HETATM   20  C   UNL     1     -46.770 -51.524  13.742  1.00  0.00     0.018 A 
HETATM   21  C   UNL     1     -45.738 -51.477  14.674  1.00  0.00     0.012 A 
HETATM   22  C   UNL     1     -44.456 -51.930  14.334  1.00  0.00    -0.018 A 
HETATM   23  C   UNL     1     -43.358 -51.846  15.354  1.00  0.00     0.052 C 
ENDBRANCH   4  16
TORSDOF 4
ENDMDL
MODEL 8
REMARK VINA RESULT:      -5.6      1.760      2.278
REMARK  4 active torsions:
REMARK  status: ('A' for Active; 'I' for Inactive)
REMARK    1  A    between atoms: C_2  and  C_3 
REMARK    2  A    between atoms: C_2  and  N_16 
REMARK    3  A    between atoms: C_3  and  N_4 
REMARK       I    between atoms: N_4  and  C_5 
REMARK       I    between atoms: C_5  and  N_7 
REMARK    4  A    between atoms: N_7  and  C_8 
ROOT
HETATM    1  N   UNL     1     -40.194 -50.814  12.912  1.00  0.00    -0.341 N 
HETATM    2  C   UNL     1     -39.113 -50.491  12.153  1.00  0.00     0.321 C 
HETATM    3  O   UNL     1     -38.070 -51.142  12.144  1.00  0.00    -0.247 OA
HETATM    4  N   UNL     1     -39.186 -49.324  11.452  1.00  0.00    -0.294 N 
HETATM    5  H   UNL     1     -41.063 -50.346  12.658  1.00  0.00     0.164 HD
HETATM    6  H   UNL     1     -38.300 -49.040  11.067  1.00  0.00     0.172 HD
ENDROOT
BRANCH   1   7
HETATM    7  C   UNL     1     -40.280 -52.007  13.714  1.00  0.00     0.159 C 
BRANCH   7   8
HETATM    8  C   UNL     1     -41.584 -52.817  13.456  1.00  0.00     0.236 C 
HETATM    9  C   UNL     1     -42.159 -52.327  12.123  1.00  0.00     0.044 C 
BRANCH   8  10
HETATM   10  N   UNL     1     -42.500 -52.902  14.622  1.00  0.00     0.098 N 
HETATM   11  C   UNL     1     -42.077 -53.824  15.695  1.00  0.00     0.299 C 
HETATM   12  C   UNL     1     -42.509 -55.290  15.512  1.00  0.00     0.198 C 
HETATM   13  O   UNL     1     -43.913 -55.411  15.249  1.00  0.00    -0.388 OA
HETATM   14  C   UNL     1     -44.313 -54.595  14.141  1.00  0.00     0.198 C 
HETATM   15  C   UNL     1     -43.931 -53.125  14.360  1.00  0.00     0.299 C 
ENDBRANCH   8  10
ENDBRANCH   7   8
ENDBRANCH   1   7
BRANCH   4  16
HETATM   16  C   UNL     1     -40.296 -48.477  11.314  1.00  0.00     0.114 A 
HETATM   17  N   UNL     1     -41.213 -48.801  10.373  1.00  0.00    -0.352 N 
HETATM   18  C   UNL     1     -42.307 -48.031  10.250  1.00  0.00     0.089 A 
ATOM     19  HN  UNL     1     -41.076 -49.612   9.770  1.00  0.00     0.166 HD
HETATM   20  C   UNL     1     -42.553 -46.936  11.049  1.00  0.00     0.018 A 
HETATM   21  C   UNL     1     -41.599 -46.594  12.003  1.00  0.00     0.012 A 
HETATM   22  C   UNL     1     -40.435 -47.361  12.146  1.00  0.00    -0.018 A 
HETATM   23  C   UNL     1     -39.414 -46.955  13.168  1.00  0.00     0.052 C 
ENDBRANCH   4  16
TORSDOF 4
ENDMDL
MODEL 9
REMARK VINA RESULT:      -5.4      2.199      3.863
REMARK  4 active torsions:
REMARK  status: ('A' for Active; 'I' for Inactive)
REMARK    1  A    between atoms: C_2  and  C_3 
REMARK    2  A    between atoms: C_2  and  N_16 
REMARK    3  A    between atoms: C_3  and  N_4 
REMARK       I    between atoms: N_4  and  C_5 
REMARK       I    between atoms: C_5  and  N_7 
REMARK    4  A    between atoms: N_7  and  C_8 
ROOT
HETATM    1  N   UNL     1     -40.419 -48.665  13.199  1.00  0.00    -0.341 N 
HETATM    2  C   UNL     1     -39.369 -48.507  12.351  1.00  0.00     0.321 C 
HETATM    3  O   UNL     1     -38.227 -48.885  12.604  1.00  0.00    -0.247 OA
HETATM    4  N   UNL     1     -39.608 -47.801  11.208  1.00  0.00    -0.294 N 
HETATM    5  H   UNL     1     -41.340 -48.529  12.786  1.00  0.00     0.164 HD
HETATM    6  H   UNL     1     -38.765 -47.553  10.716  1.00  0.00     0.172 HD
ENDROOT
BRANCH   1   7
HETATM    7  C   UNL     1     -40.337 -49.378  14.447  1.00  0.00     0.159 C 
BRANCH   7   8
HETATM    8  C   UNL     1     -40.548 -50.912  14.282  1.00  0.00     0.236 C 
HETATM    9  C   UNL     1     -39.196 -51.581  14.554  1.00  0.00     0.044 C 
BRANCH   8  10
HETATM   10  N   UNL     1     -41.286 -51.305  13.055  1.00  0.00     0.098 N 
HETATM   11  C   UNL     1     -42.756 -51.363  13.190  1.00  0.00     0.299 C 
HETATM   12  C   UNL     1     -43.317 -52.701  13.707  1.00  0.00     0.198 C 
HETATM   13  O   UNL     1     -42.822 -53.819  12.961  1.00  0.00    -0.388 OA
HETATM   14  C   UNL     1     -41.390 -53.826  12.911  1.00  0.00     0.198 C 
HETATM   15  C   UNL     1     -40.841 -52.512  12.339  1.00  0.00     0.299 C 
ENDBRANCH   8  10
ENDBRANCH   7   8
ENDBRANCH   1   7
BRANCH   4  16
HETATM   16  C   UNL     1     -40.841 -47.328  10.738  1.00  0.00     0.114 A 
HETATM   17  N   UNL     1     -41.616 -48.194  10.042  1.00  0.00    -0.352 N 
HETATM   18  C   UNL     1     -42.822 -47.779   9.618  1.00  0.00     0.089 A 
ATOM     19  HN  UNL     1     -41.291 -49.141   9.845  1.00  0.00     0.166 HD
HETATM   20  C   UNL     1     -43.319 -46.520   9.872  1.00  0.00     0.018 A 
HETATM   21  C   UNL     1     -42.512 -45.626  10.569  1.00  0.00     0.012 A 
HETATM   22  C   UNL     1     -41.240 -46.016  11.010  1.00  0.00    -0.018 A 
HETATM   23  C   UNL     1     -40.384 -45.023  11.740  1.00  0.00     0.052 C 
ENDBRANCH   4  16
TORSDOF 4
ENDMDL
