MODEL 1
REMARK VINA RESULT:      -6.2      0.000      0.000
REMARK  11 active torsions:
REMARK  status: ('A' for Active; 'I' for Inactive)
REMARK    1  A    between atoms: N_2  and  C_9 
REMARK    2  A    between atoms: C_6  and  N_19 
REMARK    3  A    between atoms: C_8  and  C_9 
REMARK    4  A    between atoms: C_8  and  O_23 
REMARK    5  A    between atoms: N_14  and  C_17 
REMARK    6  A    between atoms: C_17  and  C_24 
REMARK    7  A    between atoms: N_19  and  C_26 
REMARK    8  A    between atoms: N_19  and  C_28 
REMARK    9  A    between atoms: C_24  and  C_26 
REMARK   10  A    between atoms: O_27  and  C_30 
REMARK   11  A    between atoms: C_28  and  C_30 
ROOT
HETATM    1  C   UNL     1     -42.205 -48.847  12.456  1.00  0.00     0.122 A 
HETATM    2  N   UNL     1     -42.734 -50.649  13.596  1.00  0.00    -0.324 N 
HETATM    3  C   UNL     1     -41.973 -50.214  12.543  1.00  0.00     0.140 A 
HETATM    4  N   UNL     1     -43.078 -48.454  13.454  1.00  0.00    -0.346 N 
ATOM      5  HN  UNL     1     -43.427 -47.513  13.635  1.00  0.00     0.167 HD
HETATM    6  C   UNL     1     -41.584 -48.146  11.387  1.00  0.00     0.135 A 
HETATM    7  C   UNL     1     -43.361 -49.551  14.123  1.00  0.00     0.185 A 
HETATM    8  N   UNL     1     -41.199 -50.963  11.740  1.00  0.00    -0.336 N 
ATOM      9  HN  UNL     1     -41.069 -51.971  11.834  1.00  0.00     0.168 HD
HETATM   10  N   UNL     1     -40.778 -48.879  10.565  1.00  0.00    -0.337 N 
ATOM     11  HN  UNL     1     -40.300 -48.432   9.782  1.00  0.00     0.168 HD
HETATM   12  C   UNL     1     -40.617 -50.201  10.794  1.00  0.00     0.183 A 
ENDROOT
BRANCH   6  13
HETATM   13  N   UNL     1     -41.819 -46.797  11.090  1.00  0.00    -0.362 N 
BRANCH  13  14
HETATM   14  C   UNL     1     -42.549 -46.496   9.842  1.00  0.00     0.137 C 
BRANCH  14  15
HETATM   15  C   UNL     1     -43.780 -47.391   9.734  1.00  0.00     0.123 C 
BRANCH  15  16
HETATM   16  C   UNL     1     -45.015 -46.711   9.166  1.00  0.00    -0.076 C 
BRANCH  16  17
HETATM   17  N   UNL     1     -46.040 -46.148   8.695  1.00  0.00    -0.370 N 
ATOM     18  HN2 UNL     1     -45.228 -46.592   9.123  1.00  0.00     0.165 HD
ATOM     19  HN1 UNL     1     -46.869 -45.692   8.313  1.00  0.00     0.165 HD
ENDBRANCH  16  17
ENDBRANCH  15  16
ENDBRANCH  14  15
ENDBRANCH  13  14
BRANCH  13  20
HETATM   20  C   UNL     1     -40.762 -45.862  11.508  1.00  0.00     0.150 C 
BRANCH  20  21
HETATM   21  C   UNL     1     -39.923 -45.325  10.337  1.00  0.00     0.186 C 
BRANCH  21  22
HETATM   22  O   UNL     1     -40.186 -43.930  10.159  1.00  0.00    -0.394 OA
HETATM   23  C   UNL     1     -40.538 -43.304  11.386  1.00  0.00     0.201 C 
ENDBRANCH  21  22
ENDBRANCH  20  21
ENDBRANCH  13  20
ENDBRANCH   6  13
BRANCH   2  24
HETATM   24  C   UNL     1     -42.820 -52.001  14.117  1.00  0.00     0.172 C 
BRANCH  24  25
HETATM   25  C   UNL     1     -43.888 -52.906  13.468  1.00  0.00     0.102 C 
HETATM   26  C   UNL     1     -45.354 -52.586  13.829  1.00  0.00     0.153 C 
HETATM   27  O   UNL     1     -46.086 -53.834  13.779  1.00  0.00    -0.383 OA
HETATM   28  C   UNL     1     -46.072 -51.598  12.925  1.00  0.00     0.042 C 
HETATM   29  C   UNL     1     -45.146 -54.900  13.596  1.00  0.00     0.171 C 
HETATM   30  C   UNL     1     -43.798 -54.337  13.993  1.00  0.00     0.068 C 
BRANCH  25  31
HETATM   31  O   UNL     1     -43.678 -52.998  12.052  1.00  0.00    -0.385 OA
HETATM   32  H   UNL     1     -43.459 -52.114  11.700  1.00  0.00     0.210 HD
ENDBRANCH  25  31
ENDBRANCH  24  25
ENDBRANCH   2  24
TORSDOF 11
ENDMDL
MODEL 2
REMARK VINA RESULT:      -6.1      2.625      4.099
REMARK  11 active torsions:
REMARK  status: ('A' for Active; 'I' for Inactive)
REMARK    1  A    between atoms: N_2  and  C_9 
REMARK    2  A    between atoms: C_6  and  N_19 
REMARK    3  A    between atoms: C_8  and  C_9 
REMARK    4  A    between atoms: C_8  and  O_23 
REMARK    5  A    between atoms: N_14  and  C_17 
REMARK    6  A    between atoms: C_17  and  C_24 
REMARK    7  A    between atoms: N_19  and  C_26 
REMARK    8  A    between atoms: N_19  and  C_28 
REMARK    9  A    between atoms: C_24  and  C_26 
REMARK   10  A    between atoms: O_27  and  C_30 
REMARK   11  A    between atoms: C_28  and  C_30 
ROOT
HETATM    1  C   UNL     1     -40.627 -50.997  12.690  1.00  0.00     0.122 A 
HETATM    2  N   UNL     1     -41.700 -52.878  13.066  1.00  0.00    -0.324 N 
HETATM    3  C   UNL     1     -41.203 -51.766  13.694  1.00  0.00     0.140 A 
HETATM    4  N   UNL     1     -40.790 -51.624  11.468  1.00  0.00    -0.346 N 
ATOM      5  HN  UNL     1     -40.469 -51.295  10.557  1.00  0.00     0.167 HD
HETATM    6  C   UNL     1     -39.965 -49.802  13.081  1.00  0.00     0.135 A 
HETATM    7  C   UNL     1     -41.445 -52.734  11.728  1.00  0.00     0.185 A 
HETATM    8  N   UNL     1     -41.234 -51.499  15.011  1.00  0.00    -0.336 N 
ATOM      9  HN  UNL     1     -41.658 -52.102  15.715  1.00  0.00     0.168 HD
HETATM   10  N   UNL     1     -39.994 -49.497  14.411  1.00  0.00    -0.337 N 
ATOM     11  HN  UNL     1     -39.541 -48.650  14.753  1.00  0.00     0.168 HD
HETATM   12  C   UNL     1     -40.627 -50.324  15.272  1.00  0.00     0.183 A 
ENDROOT
BRANCH   6  13
HETATM   13  N   UNL     1     -39.229 -48.990  12.208  1.00  0.00    -0.362 N 
BRANCH  13  14
HETATM   14  C   UNL     1     -37.759 -49.120  12.240  1.00  0.00     0.137 C 
BRANCH  14  15
HETATM   15  C   UNL     1     -37.340 -50.422  11.564  1.00  0.00     0.123 C 
BRANCH  15  16
HETATM   16  C   UNL     1     -36.919 -50.279  10.110  1.00  0.00    -0.076 C 
BRANCH  16  17
HETATM   17  N   UNL     1     -36.572 -50.160   8.905  1.00  0.00    -0.370 N 
ATOM     18  HN2 UNL     1     -36.807 -50.276   9.890  1.00  0.00     0.165 HD
ATOM     19  HN1 UNL     1     -36.291 -50.063   7.928  1.00  0.00     0.165 HD
ENDBRANCH  16  17
ENDBRANCH  15  16
ENDBRANCH  14  15
ENDBRANCH  13  14
BRANCH  13  20
HETATM   20  C   UNL     1     -39.795 -47.653  11.958  1.00  0.00     0.150 C 
BRANCH  20  21
HETATM   21  C   UNL     1     -41.014 -47.673  11.023  1.00  0.00     0.186 C 
BRANCH  21  22
HETATM   22  O   UNL     1     -41.220 -46.367  10.476  1.00  0.00    -0.394 OA
HETATM   23  C   UNL     1     -40.036 -45.580  10.544  1.00  0.00     0.201 C 
ENDBRANCH  21  22
ENDBRANCH  20  21
ENDBRANCH  13  20
ENDBRANCH   6  13
BRANCH   2  24
HETATM   24  C   UNL     1     -42.425 -53.978  13.674  1.00  0.00     0.172 C 
BRANCH  24  25
HETATM   25  C   UNL     1     -43.960 -53.940  13.522  1.00  0.00     0.102 C 
HETATM   26  C   UNL     1     -44.674 -52.739  14.178  1.00  0.00     0.153 C 
HETATM   27  O   UNL     1     -45.991 -53.193  14.573  1.00  0.00    -0.383 OA
HETATM   28  C   UNL     1     -44.857 -51.505  13.312  1.00  0.00     0.042 C 
HETATM   29  C   UNL     1     -46.058 -54.610  14.372  1.00  0.00     0.171 C 
HETATM   30  C   UNL     1     -44.623 -55.085  14.283  1.00  0.00     0.068 C 
BRANCH  25  31
HETATM   31  O   UNL     1     -44.335 -54.118  12.149  1.00  0.00    -0.385 OA
HETATM   32  H   UNL     1     -45.308 -54.158  12.082  1.00  0.00     0.210 HD
ENDBRANCH  25  31
ENDBRANCH  24  25
ENDBRANCH   2  24
TORSDOF 11
ENDMDL
MODEL 3
REMARK VINA RESULT:      -6.1      1.532      2.813
REMARK  11 active torsions:
REMARK  status: ('A' for Active; 'I' for Inactive)
REMARK    1  A    between atoms: N_2  and  C_9 
REMARK    2  A    between atoms: C_6  and  N_19 
REMARK    3  A    between atoms: C_8  and  C_9 
REMARK    4  A    between atoms: C_8  and  O_23 
REMARK    5  A    between atoms: N_14  and  C_17 
REMARK    6  A    between atoms: C_17  and  C_24 
REMARK    7  A    between atoms: N_19  and  C_26 
REMARK    8  A    between atoms: N_19  and  C_28 
REMARK    9  A    between atoms: C_24  and  C_26 
REMARK   10  A    between atoms: O_27  and  C_30 
REMARK   11  A    between atoms: C_28  and  C_30 
ROOT
HETATM    1  C   UNL     1     -42.167 -48.926  12.607  1.00  0.00     0.122 A 
HETATM    2  N   UNL     1     -42.788 -50.706  13.737  1.00  0.00    -0.324 N 
HETATM    3  C   UNL     1     -42.020 -50.306  12.674  1.00  0.00     0.140 A 
HETATM    4  N   UNL     1     -42.995 -48.492  13.626  1.00  0.00    -0.346 N 
ATOM      5  HN  UNL     1     -43.281 -47.533  13.824  1.00  0.00     0.167 HD
HETATM    6  C   UNL     1     -41.522 -48.253  11.535  1.00  0.00     0.135 A 
HETATM    7  C   UNL     1     -43.335 -49.577  14.288  1.00  0.00     0.185 A 
HETATM    8  N   UNL     1     -41.309 -51.093  11.849  1.00  0.00    -0.336 N 
ATOM      9  HN  UNL     1     -41.242 -52.108  11.930  1.00  0.00     0.168 HD
HETATM   10  N   UNL     1     -40.779 -49.026  10.689  1.00  0.00    -0.337 N 
ATOM     11  HN  UNL     1     -40.288 -48.600   9.903  1.00  0.00     0.168 HD
HETATM   12  C   UNL     1     -40.698 -50.358  10.900  1.00  0.00     0.183 A 
ENDROOT
BRANCH   6  13
HETATM   13  N   UNL     1     -41.677 -46.889  11.257  1.00  0.00    -0.362 N 
BRANCH  13  14
HETATM   14  C   UNL     1     -40.960 -45.934  12.125  1.00  0.00     0.137 C 
BRANCH  14  15
HETATM   15  C   UNL     1     -40.593 -44.686  11.328  1.00  0.00     0.123 C 
BRANCH  15  16
HETATM   16  C   UNL     1     -39.652 -44.929  10.160  1.00  0.00    -0.076 C 
BRANCH  16  17
HETATM   17  N   UNL     1     -38.871 -45.132   9.191  1.00  0.00    -0.370 N 
ATOM     18  HN2 UNL     1     -39.508 -45.019   9.979  1.00  0.00     0.165 HD
ATOM     19  HN1 UNL     1     -38.238 -45.295   8.407  1.00  0.00     0.165 HD
ENDBRANCH  16  17
ENDBRANCH  15  16
ENDBRANCH  14  15
ENDBRANCH  13  14
BRANCH  13  20
HETATM   20  C   UNL     1     -43.002 -46.492  10.749  1.00  0.00     0.150 C 
BRANCH  20  21
HETATM   21  C   UNL     1     -43.090 -46.489   9.215  1.00  0.00     0.186 C 
BRANCH  21  22
HETATM   22  O   UNL     1     -42.918 -47.821   8.721  1.00  0.00    -0.394 OA
HETATM   23  C   UNL     1     -43.687 -48.046   7.546  1.00  0.00     0.201 C 
ENDBRANCH  21  22
ENDBRANCH  20  21
ENDBRANCH  13  20
ENDBRANCH   6  13
BRANCH   2  24
HETATM   24  C   UNL     1     -42.950 -52.056  14.244  1.00  0.00     0.172 C 
BRANCH  24  25
HETATM   25  C   UNL     1     -44.104 -52.873  13.628  1.00  0.00     0.102 C 
HETATM   26  C   UNL     1     -45.503 -52.628  14.232  1.00  0.00     0.153 C 
HETATM   27  O   UNL     1     -46.244 -53.866  14.106  1.00  0.00    -0.383 OA
HETATM   28  C   UNL     1     -46.334 -51.531  13.589  1.00  0.00     0.042 C 
HETATM   29  C   UNL     1     -45.346 -54.882  13.642  1.00  0.00     0.171 C 
HETATM   30  C   UNL     1     -43.951 -54.363  13.924  1.00  0.00     0.068 C 
BRANCH  25  31
HETATM   31  O   UNL     1     -44.096 -52.758  12.198  1.00  0.00    -0.385 OA
HETATM   32  H   UNL     1     -44.122 -53.651  11.802  1.00  0.00     0.210 HD
ENDBRANCH  25  31
ENDBRANCH  24  25
ENDBRANCH   2  24
TORSDOF 11
ENDMDL
MODEL 4
REMARK VINA RESULT:      -6.0      2.061      3.787
REMARK  11 active torsions:
REMARK  status: ('A' for Active; 'I' for Inactive)
REMARK    1  A    between atoms: N_2  and  C_9 
REMARK    2  A    between atoms: C_6  and  N_19 
REMARK    3  A    between atoms: C_8  and  C_9 
REMARK    4  A    between atoms: C_8  and  O_23 
REMARK    5  A    between atoms: N_14  and  C_17 
REMARK    6  A    between atoms: C_17  and  C_24 
REMARK    7  A    between atoms: N_19  and  C_26 
REMARK    8  A    between atoms: N_19  and  C_28 
REMARK    9  A    between atoms: C_24  and  C_26 
REMARK   10  A    between atoms: O_27  and  C_30 
REMARK   11  A    between atoms: C_28  and  C_30 
ROOT
HETATM    1  C   UNL     1     -41.744 -50.134  12.252  1.00  0.00     0.122 A 
HETATM    2  N   UNL     1     -42.249 -52.105  13.084  1.00  0.00    -0.324 N 
HETATM    3  C   UNL     1     -42.364 -50.760  13.327  1.00  0.00     0.140 A 
HETATM    4  N   UNL     1     -41.278 -51.083  11.361  1.00  0.00    -0.346 N 
ATOM      5  HN  UNL     1     -40.783 -50.917  10.485  1.00  0.00     0.167 HD
HETATM    6  C   UNL     1     -41.657 -48.717  12.285  1.00  0.00     0.135 A 
HETATM    7  C   UNL     1     -41.609 -52.245  11.881  1.00  0.00     0.185 A 
HETATM    8  N   UNL     1     -42.924 -50.177  14.400  1.00  0.00    -0.336 N 
ATOM      9  HN  UNL     1     -43.356 -50.681  15.175  1.00  0.00     0.168 HD
HETATM   10  N   UNL     1     -42.232 -48.095  13.357  1.00  0.00    -0.337 N 
ATOM     11  HN  UNL     1     -42.206 -47.079  13.435  1.00  0.00     0.168 HD
HETATM   12  C   UNL     1     -42.834 -48.836  14.313  1.00  0.00     0.183 A 
ENDROOT
BRANCH   6  13
HETATM   13  N   UNL     1     -40.955 -47.950  11.346  1.00  0.00    -0.362 N 
BRANCH  13  14
HETATM   14  C   UNL     1     -39.599 -47.500  11.718  1.00  0.00     0.137 C 
BRANCH  14  15
HETATM   15  C   UNL     1     -38.827 -48.652  12.353  1.00  0.00     0.123 C 
BRANCH  15  16
HETATM   16  C   UNL     1     -38.025 -49.498  11.377  1.00  0.00    -0.076 C 
BRANCH  16  17
HETATM   17  N   UNL     1     -37.359 -50.198  10.568  1.00  0.00    -0.370 N 
ATOM     18  HN2 UNL     1     -37.854 -49.617  11.244  1.00  0.00     0.165 HD
ATOM     19  HN1 UNL     1     -36.821 -50.766   9.912  1.00  0.00     0.165 HD
ENDBRANCH  16  17
ENDBRANCH  15  16
ENDBRANCH  14  15
ENDBRANCH  13  14
BRANCH  13  20
HETATM   20  C   UNL     1     -41.776 -47.046  10.523  1.00  0.00     0.150 C 
BRANCH  20  21
HETATM   21  C   UNL     1     -42.775 -47.785   9.619  1.00  0.00     0.186 C 
BRANCH  21  22
HETATM   22  O   UNL     1     -44.109 -47.528  10.068  1.00  0.00    -0.394 OA
HETATM   23  C   UNL     1     -44.913 -46.977   9.031  1.00  0.00     0.201 C 
ENDBRANCH  21  22
ENDBRANCH  20  21
ENDBRANCH  13  20
ENDBRANCH   6  13
BRANCH   2  24
HETATM   24  C   UNL     1     -42.763 -53.190  13.899  1.00  0.00     0.172 C 
BRANCH  24  25
HETATM   25  C   UNL     1     -44.170 -53.703  13.528  1.00  0.00     0.102 C 
HETATM   26  C   UNL     1     -45.352 -52.819  13.980  1.00  0.00     0.153 C 
HETATM   27  O   UNL     1     -46.475 -53.701  14.219  1.00  0.00    -0.383 OA
HETATM   28  C   UNL     1     -45.810 -51.751  13.002  1.00  0.00     0.042 C 
HETATM   29  C   UNL     1     -46.013 -55.054  14.122  1.00  0.00     0.171 C 
HETATM   30  C   UNL     1     -44.508 -54.990  14.276  1.00  0.00     0.068 C 
BRANCH  25  31
HETATM   31  O   UNL     1     -44.234 -54.035  12.134  1.00  0.00    -0.385 OA
HETATM   32  H   UNL     1     -44.813 -53.397  11.676  1.00  0.00     0.210 HD
ENDBRANCH  25  31
ENDBRANCH  24  25
ENDBRANCH   2  24
TORSDOF 11
ENDMDL
MODEL 5
REMARK VINA RESULT:      -6.0      3.375      4.953
REMARK  11 active torsions:
REMARK  status: ('A' for Active; 'I' for Inactive)
REMARK    1  A    between atoms: N_2  and  C_9 
REMARK    2  A    between atoms: C_6  and  N_19 
REMARK    3  A    between atoms: C_8  and  C_9 
REMARK    4  A    between atoms: C_8  and  O_23 
REMARK    5  A    between atoms: N_14  and  C_17 
REMARK    6  A    between atoms: C_17  and  C_24 
REMARK    7  A    between atoms: N_19  and  C_26 
REMARK    8  A    between atoms: N_19  and  C_28 
REMARK    9  A    between atoms: C_24  and  C_26 
REMARK   10  A    between atoms: O_27  and  C_30 
REMARK   11  A    between atoms: C_28  and  C_30 
ROOT
HETATM    1  C   UNL     1     -40.694 -51.823  12.825  1.00  0.00     0.122 A 
HETATM    2  N   UNL     1     -42.540 -53.000  12.623  1.00  0.00    -0.324 N 
HETATM    3  C   UNL     1     -42.043 -51.728  12.503  1.00  0.00     0.140 A 
HETATM    4  N   UNL     1     -40.373 -53.136  13.118  1.00  0.00    -0.346 N 
ATOM      5  HN  UNL     1     -39.461 -53.504  13.388  1.00  0.00     0.167 HD
HETATM    6  C   UNL     1     -39.942 -50.618  12.849  1.00  0.00     0.135 A 
HETATM    7  C   UNL     1     -41.493 -53.811  12.974  1.00  0.00     0.185 A 
HETATM    8  N   UNL     1     -42.728 -50.619  12.179  1.00  0.00    -0.336 N 
ATOM      9  HN  UNL     1     -43.725 -50.595  11.963  1.00  0.00     0.168 HD
HETATM   10  N   UNL     1     -40.610 -49.476  12.509  1.00  0.00    -0.337 N 
ATOM     11  HN  UNL     1     -40.123 -48.580  12.502  1.00  0.00     0.168 HD
HETATM   12  C   UNL     1     -41.919 -49.542  12.180  1.00  0.00     0.183 A 
ENDROOT
BRANCH   6  13
HETATM   13  N   UNL     1     -38.611 -50.531  13.277  1.00  0.00    -0.362 N 
BRANCH  13  14
HETATM   14  C   UNL     1     -37.560 -50.872  12.298  1.00  0.00     0.137 C 
BRANCH  14  15
HETATM   15  C   UNL     1     -37.342 -49.701  11.345  1.00  0.00     0.123 C 
BRANCH  15  16
HETATM   16  C   UNL     1     -36.864 -50.091   9.955  1.00  0.00    -0.076 C 
BRANCH  16  17
HETATM   17  N   UNL     1     -36.469 -50.414   8.803  1.00  0.00    -0.370 N 
ATOM     18  HN2 UNL     1     -36.739 -50.146   9.749  1.00  0.00     0.165 HD
ATOM     19  HN1 UNL     1     -36.150 -50.676   7.869  1.00  0.00     0.165 HD
ENDBRANCH  16  17
ENDBRANCH  15  16
ENDBRANCH  14  15
ENDBRANCH  13  14
BRANCH  13  20
HETATM   20  C   UNL     1     -38.375 -50.882  14.688  1.00  0.00     0.150 C 
BRANCH  20  21
HETATM   21  C   UNL     1     -37.288 -50.025  15.356  1.00  0.00     0.186 C 
BRANCH  21  22
HETATM   22  O   UNL     1     -37.786 -48.701  15.570  1.00  0.00    -0.394 OA
HETATM   23  C   UNL     1     -37.083 -47.745  14.785  1.00  0.00     0.201 C 
ENDBRANCH  21  22
ENDBRANCH  20  21
ENDBRANCH  13  20
ENDBRANCH   6  13
BRANCH   2  24
HETATM   24  C   UNL     1     -43.899 -53.438  12.365  1.00  0.00     0.172 C 
BRANCH  24  25
HETATM   25  C   UNL     1     -44.810 -53.573  13.603  1.00  0.00     0.102 C 
HETATM   26  C   UNL     1     -45.116 -52.264  14.362  1.00  0.00     0.153 C 
HETATM   27  O   UNL     1     -45.306 -52.614  15.753  1.00  0.00    -0.383 OA
HETATM   28  C   UNL     1     -46.346 -51.494  13.912  1.00  0.00     0.042 C 
HETATM   29  C   UNL     1     -44.961 -53.994  15.921  1.00  0.00     0.171 C 
HETATM   30  C   UNL     1     -44.124 -54.362  14.715  1.00  0.00     0.068 C 
BRANCH  25  31
HETATM   31  O   UNL     1     -45.997 -54.310  13.278  1.00  0.00    -0.385 OA
HETATM   32  H   UNL     1     -46.660 -53.703  12.898  1.00  0.00     0.210 HD
ENDBRANCH  25  31
ENDBRANCH  24  25
ENDBRANCH   2  24
TORSDOF 11
ENDMDL
MODEL 6
REMARK VINA RESULT:      -6.0      2.363      7.316
REMARK  11 active torsions:
REMARK  status: ('A' for Active; 'I' for Inactive)
REMARK    1  A    between atoms: N_2  and  C_9 
REMARK    2  A    between atoms: C_6  and  N_19 
REMARK    3  A    between atoms: C_8  and  C_9 
REMARK    4  A    between atoms: C_8  and  O_23 
REMARK    5  A    between atoms: N_14  and  C_17 
REMARK    6  A    between atoms: C_17  and  C_24 
REMARK    7  A    between atoms: N_19  and  C_26 
REMARK    8  A    between atoms: N_19  and  C_28 
REMARK    9  A    between atoms: C_24  and  C_26 
REMARK   10  A    between atoms: O_27  and  C_30 
REMARK   11  A    between atoms: C_28  and  C_30 
ROOT
HETATM    1  C   UNL     1     -41.816 -48.908  11.507  1.00  0.00     0.122 A 
HETATM    2  N   UNL     1     -41.656 -46.884  10.667  1.00  0.00    -0.324 N 
HETATM    3  C   UNL     1     -40.904 -47.926  11.143  1.00  0.00     0.140 A 
HETATM    4  N   UNL     1     -43.103 -48.477  11.237  1.00  0.00    -0.346 N 
ATOM      5  HN  UNL     1     -43.971 -48.986  11.401  1.00  0.00     0.167 HD
HETATM    6  C   UNL     1     -41.300 -50.089  12.107  1.00  0.00     0.135 A 
HETATM    7  C   UNL     1     -42.968 -47.274  10.725  1.00  0.00     0.185 A 
HETATM    8  N   UNL     1     -39.566 -47.967  11.268  1.00  0.00    -0.336 N 
ATOM      9  HN  UNL     1     -38.935 -47.213  10.998  1.00  0.00     0.168 HD
HETATM   10  N   UNL     1     -39.943 -50.166  12.231  1.00  0.00    -0.337 N 
ATOM     11  HN  UNL     1     -39.512 -50.990  12.649  1.00  0.00     0.168 HD
HETATM   12  C   UNL     1     -39.174 -49.143  11.797  1.00  0.00     0.183 A 
ENDROOT
BRANCH   6  13
HETATM   13  N   UNL     1     -42.095 -51.110  12.642  1.00  0.00    -0.362 N 
BRANCH  13  14
HETATM   14  C   UNL     1     -42.406 -51.042  14.084  1.00  0.00     0.137 C 
BRANCH  14  15
HETATM   15  C   UNL     1     -43.796 -50.447  14.286  1.00  0.00     0.123 C 
BRANCH  15  16
HETATM   16  C   UNL     1     -44.860 -50.978  13.339  1.00  0.00    -0.076 C 
BRANCH  16  17
HETATM   17  N   UNL     1     -45.742 -51.418  12.553  1.00  0.00    -0.370 N 
ATOM     18  HN2 UNL     1     -44.993 -51.075  13.154  1.00  0.00     0.165 HD
ATOM     19  HN1 UNL     1     -46.456 -51.774  11.917  1.00  0.00     0.165 HD
ENDBRANCH  16  17
ENDBRANCH  15  16
ENDBRANCH  14  15
ENDBRANCH  13  14
BRANCH  13  20
HETATM   20  C   UNL     1     -41.903 -52.443  12.044  1.00  0.00     0.150 C 
BRANCH  20  21
HETATM   21  C   UNL     1     -41.199 -53.436  12.982  1.00  0.00     0.186 C 
BRANCH  21  22
HETATM   22  O   UNL     1     -39.789 -53.194  12.965  1.00  0.00    -0.394 OA
HETATM   23  C   UNL     1     -39.180 -53.565  14.196  1.00  0.00     0.201 C 
ENDBRANCH  21  22
ENDBRANCH  20  21
ENDBRANCH  13  20
ENDBRANCH   6  13
BRANCH   2  24
HETATM   24  C   UNL     1     -41.171 -45.625  10.132  1.00  0.00     0.172 C 
BRANCH  24  25
HETATM   25  C   UNL     1     -41.186 -44.429  11.108  1.00  0.00     0.102 C 
HETATM   26  C   UNL     1     -40.805 -44.745  12.570  1.00  0.00     0.153 C 
HETATM   27  O   UNL     1     -41.527 -43.812  13.408  1.00  0.00    -0.383 OA
HETATM   28  C   UNL     1     -39.332 -44.632  12.924  1.00  0.00     0.042 C 
HETATM   29  C   UNL     1     -42.446 -43.084  12.584  1.00  0.00     0.171 C 
HETATM   30  C   UNL     1     -42.602 -43.900  11.317  1.00  0.00     0.068 C 
BRANCH  25  31
HETATM   31  O   UNL     1     -40.436 -43.331  10.570  1.00  0.00    -0.385 OA
HETATM   32  H   UNL     1     -39.482 -43.509  10.676  1.00  0.00     0.210 HD
ENDBRANCH  25  31
ENDBRANCH  24  25
ENDBRANCH   2  24
TORSDOF 11
ENDMDL
MODEL 7
REMARK VINA RESULT:      -5.9      2.924      7.190
REMARK  11 active torsions:
REMARK  status: ('A' for Active; 'I' for Inactive)
REMARK    1  A    between atoms: N_2  and  C_9 
REMARK    2  A    between atoms: C_6  and  N_19 
REMARK    3  A    between atoms: C_8  and  C_9 
REMARK    4  A    between atoms: C_8  and  O_23 
REMARK    5  A    between atoms: N_14  and  C_17 
REMARK    6  A    between atoms: C_17  and  C_24 
REMARK    7  A    between atoms: N_19  and  C_26 
REMARK    8  A    between atoms: N_19  and  C_28 
REMARK    9  A    between atoms: C_24  and  C_26 
REMARK   10  A    between atoms: O_27  and  C_30 
REMARK   11  A    between atoms: C_28  and  C_30 
ROOT
HETATM    1  C   UNL     1     -40.943 -50.032  13.593  1.00  0.00     0.122 A 
HETATM    2  N   UNL     1     -42.298 -48.536  12.724  1.00  0.00    -0.324 N 
HETATM    3  C   UNL     1     -42.029 -49.880  12.740  1.00  0.00     0.140 A 
HETATM    4  N   UNL     1     -40.570 -48.801  14.102  1.00  0.00    -0.346 N 
ATOM      5  HN  UNL     1     -39.807 -48.606  14.750  1.00  0.00     0.167 HD
HETATM    6  C   UNL     1     -40.406 -51.339  13.739  1.00  0.00     0.135 A 
HETATM    7  C   UNL     1     -41.407 -47.935  13.575  1.00  0.00     0.185 A 
HETATM    8  N   UNL     1     -42.662 -50.840  12.045  1.00  0.00    -0.336 N 
ATOM      9  HN  UNL     1     -43.450 -50.678  11.417  1.00  0.00     0.168 HD
HETATM   10  N   UNL     1     -41.038 -52.338  13.056  1.00  0.00    -0.337 N 
ATOM     11  HN  UNL     1     -40.702 -53.298  13.124  1.00  0.00     0.168 HD
HETATM   12  C   UNL     1     -42.112 -52.045  12.289  1.00  0.00     0.183 A 
ENDROOT
BRANCH   6  13
HETATM   13  N   UNL     1     -39.239 -51.634  14.457  1.00  0.00    -0.362 N 
BRANCH  13  14
HETATM   14  C   UNL     1     -38.007 -51.872  13.679  1.00  0.00     0.137 C 
BRANCH  14  15
HETATM   15  C   UNL     1     -37.420 -50.540  13.220  1.00  0.00     0.123 C 
BRANCH  15  16
HETATM   16  C   UNL     1     -37.437 -50.321  11.716  1.00  0.00    -0.076 C 
BRANCH  16  17
HETATM   17  N   UNL     1     -37.451 -50.138  10.469  1.00  0.00    -0.370 N 
ATOM     18  HN2 UNL     1     -37.417 -50.331  11.470  1.00  0.00     0.165 HD
ATOM     19  HN1 UNL     1     -37.464 -49.990   9.459  1.00  0.00     0.165 HD
ENDBRANCH  16  17
ENDBRANCH  15  16
ENDBRANCH  14  15
ENDBRANCH  13  14
BRANCH  13  20
HETATM   20  C   UNL     1     -39.434 -52.416  15.689  1.00  0.00     0.150 C 
BRANCH  20  21
HETATM   21  C   UNL     1     -39.027 -53.891  15.546  1.00  0.00     0.186 C 
BRANCH  21  22
HETATM   22  O   UNL     1     -40.069 -54.614  14.883  1.00  0.00    -0.394 OA
HETATM   23  C   UNL     1     -41.149 -54.899  15.764  1.00  0.00     0.201 C 
ENDBRANCH  21  22
ENDBRANCH  20  21
ENDBRANCH  13  20
ENDBRANCH   6  13
BRANCH   2  24
HETATM   24  C   UNL     1     -43.364 -47.863  12.004  1.00  0.00     0.172 C 
BRANCH  24  25
HETATM   25  C   UNL     1     -43.037 -47.442  10.556  1.00  0.00     0.102 C 
HETATM   26  C   UNL     1     -42.466 -46.019  10.379  1.00  0.00     0.153 C 
HETATM   27  O   UNL     1     -42.891 -45.550   9.077  1.00  0.00    -0.383 OA
HETATM   28  C   UNL     1     -40.954 -45.885  10.442  1.00  0.00     0.042 C 
HETATM   29  C   UNL     1     -43.818 -46.500   8.537  1.00  0.00     0.171 C 
HETATM   30  C   UNL     1     -44.304 -47.320   9.713  1.00  0.00     0.068 C 
BRANCH  25  31
HETATM   31  O   UNL     1     -42.235 -48.440   9.910  1.00  0.00    -0.385 OA
HETATM   32  H   UNL     1     -42.762 -48.876   9.213  1.00  0.00     0.210 HD
ENDBRANCH  25  31
ENDBRANCH  24  25
ENDBRANCH   2  24
TORSDOF 11
ENDMDL
MODEL 8
REMARK VINA RESULT:      -5.9      3.995      5.164
REMARK  11 active torsions:
REMARK  status: ('A' for Active; 'I' for Inactive)
REMARK    1  A    between atoms: N_2  and  C_9 
REMARK    2  A    between atoms: C_6  and  N_19 
REMARK    3  A    between atoms: C_8  and  C_9 
REMARK    4  A    between atoms: C_8  and  O_23 
REMARK    5  A    between atoms: N_14  and  C_17 
REMARK    6  A    between atoms: C_17  and  C_24 
REMARK    7  A    between atoms: N_19  and  C_26 
REMARK    8  A    between atoms: N_19  and  C_28 
REMARK    9  A    between atoms: C_24  and  C_26 
REMARK   10  A    between atoms: O_27  and  C_30 
REMARK   11  A    between atoms: C_28  and  C_30 
ROOT
HETATM    1  C   UNL     1     -40.640 -51.892  13.240  1.00  0.00     0.122 A 
HETATM    2  N   UNL     1     -42.628 -52.641  12.677  1.00  0.00    -0.324 N 
HETATM    3  C   UNL     1     -41.406 -53.048  13.146  1.00  0.00     0.140 A 
HETATM    4  N   UNL     1     -41.392 -50.798  12.854  1.00  0.00    -0.346 N 
ATOM      5  HN  UNL     1     -41.093 -49.823  12.821  1.00  0.00     0.167 HD
HETATM    6  C   UNL     1     -39.285 -52.039  13.641  1.00  0.00     0.135 A 
HETATM    7  C   UNL     1     -42.575 -51.279  12.539  1.00  0.00     0.185 A 
HETATM    8  N   UNL     1     -41.022 -54.307  13.417  1.00  0.00    -0.336 N 
ATOM      9  HN  UNL     1     -41.618 -55.129  13.319  1.00  0.00     0.168 HD
HETATM   10  N   UNL     1     -38.871 -53.306  13.938  1.00  0.00    -0.337 N 
ATOM     11  HN  UNL     1     -37.910 -53.475  14.236  1.00  0.00     0.168 HD
HETATM   12  C   UNL     1     -39.742 -54.333  13.835  1.00  0.00     0.183 A 
ENDROOT
BRANCH   6  13
HETATM   13  N   UNL     1     -38.354 -50.993  13.660  1.00  0.00    -0.362 N 
BRANCH  13  14
HETATM   14  C   UNL     1     -37.310 -50.995  12.616  1.00  0.00     0.137 C 
BRANCH  14  15
HETATM   15  C   UNL     1     -37.552 -49.848  11.639  1.00  0.00     0.123 C 
BRANCH  15  16
HETATM   16  C   UNL     1     -37.023 -50.084  10.234  1.00  0.00    -0.076 C 
BRANCH  16  17
HETATM   17  N   UNL     1     -36.586 -50.281   9.068  1.00  0.00    -0.370 N 
ATOM     18  HN2 UNL     1     -36.987 -50.120   9.992  1.00  0.00     0.165 HD
ATOM     19  HN1 UNL     1     -36.230 -50.440   8.125  1.00  0.00     0.165 HD
ENDBRANCH  16  17
ENDBRANCH  15  16
ENDBRANCH  14  15
ENDBRANCH  13  14
BRANCH  13  20
HETATM   20  C   UNL     1     -37.985 -50.496  14.997  1.00  0.00     0.150 C 
BRANCH  20  21
HETATM   21  C   UNL     1     -38.695 -49.188  15.378  1.00  0.00     0.186 C 
BRANCH  21  22
HETATM   22  O   UNL     1     -39.845 -49.481  16.177  1.00  0.00    -0.394 OA
HETATM   23  C   UNL     1     -40.968 -48.703  15.782  1.00  0.00     0.201 C 
ENDBRANCH  21  22
ENDBRANCH  20  21
ENDBRANCH  13  20
ENDBRANCH   6  13
BRANCH   2  24
HETATM   24  C   UNL     1     -43.795 -53.470  12.434  1.00  0.00     0.172 C 
BRANCH  24  25
HETATM   25  C   UNL     1     -44.806 -53.567  13.595  1.00  0.00     0.102 C 
HETATM   26  C   UNL     1     -45.122 -52.246  14.328  1.00  0.00     0.153 C 
HETATM   27  O   UNL     1     -45.436 -52.586  15.700  1.00  0.00    -0.383 OA
HETATM   28  C   UNL     1     -46.281 -51.430  13.783  1.00  0.00     0.042 C 
HETATM   29  C   UNL     1     -45.159 -53.979  15.893  1.00  0.00     0.171 C 
HETATM   30  C   UNL     1     -44.242 -54.381  14.756  1.00  0.00     0.068 C 
BRANCH  25  31
HETATM   31  O   UNL     1     -45.991 -54.258  13.175  1.00  0.00    -0.385 OA
HETATM   32  H   UNL     1     -46.708 -53.611  13.029  1.00  0.00     0.210 HD
ENDBRANCH  25  31
ENDBRANCH  24  25
ENDBRANCH   2  24
TORSDOF 11
ENDMDL
MODEL 9
REMARK VINA RESULT:      -5.8      1.987      7.705
REMARK  11 active torsions:
REMARK  status: ('A' for Active; 'I' for Inactive)
REMARK    1  A    between atoms: N_2  and  C_9 
REMARK    2  A    between atoms: C_6  and  N_19 
REMARK    3  A    between atoms: C_8  and  C_9 
REMARK    4  A    between atoms: C_8  and  O_23 
REMARK    5  A    between atoms: N_14  and  C_17 
REMARK    6  A    between atoms: C_17  and  C_24 
REMARK    7  A    between atoms: N_19  and  C_26 
REMARK    8  A    between atoms: N_19  and  C_28 
REMARK    9  A    between atoms: C_24  and  C_26 
REMARK   10  A    between atoms: O_27  and  C_30 
REMARK   11  A    between atoms: C_28  and  C_30 
ROOT
HETATM    1  C   UNL     1     -42.028 -49.748  12.030  1.00  0.00     0.122 A 
HETATM    2  N   UNL     1     -41.915 -47.730  11.168  1.00  0.00    -0.324 N 
HETATM    3  C   UNL     1     -41.149 -48.822  11.483  1.00  0.00     0.140 A 
HETATM    4  N   UNL     1     -43.312 -49.234  12.030  1.00  0.00    -0.346 N 
ATOM      5  HN  UNL     1     -44.159 -49.688  12.371  1.00  0.00     0.167 HD
HETATM    6  C   UNL     1     -41.476 -50.965  12.514  1.00  0.00     0.135 A 
HETATM    7  C   UNL     1     -43.209 -48.036  11.496  1.00  0.00     0.185 A 
HETATM    8  N   UNL     1     -39.820 -48.950  11.328  1.00  0.00    -0.336 N 
ATOM      9  HN  UNL     1     -39.211 -48.234  10.932  1.00  0.00     0.168 HD
HETATM   10  N   UNL     1     -40.130 -51.129  12.357  1.00  0.00    -0.337 N 
ATOM     11  HN  UNL     1     -39.676 -51.983  12.680  1.00  0.00     0.168 HD
HETATM   12  C   UNL     1     -39.403 -50.153  11.770  1.00  0.00     0.183 A 
ENDROOT
BRANCH   6  13
HETATM   13  N   UNL     1     -42.208 -51.939  13.206  1.00  0.00    -0.362 N 
BRANCH  13  14
HETATM   14  C   UNL     1     -41.596 -52.509  14.423  1.00  0.00     0.137 C 
BRANCH  14  15
HETATM   15  C   UNL     1     -41.415 -54.015  14.253  1.00  0.00     0.123 C 
BRANCH  15  16
HETATM   16  C   UNL     1     -39.993 -54.455  13.944  1.00  0.00    -0.076 C 
BRANCH  16  17
HETATM   17  N   UNL     1     -38.814 -54.820  13.689  1.00  0.00    -0.370 N 
ATOM     18  HN2 UNL     1     -39.762 -54.486  13.863  1.00  0.00     0.165 HD
ATOM     19  HN1 UNL     1     -37.859 -55.116  13.483  1.00  0.00     0.165 HD
ENDBRANCH  16  17
ENDBRANCH  15  16
ENDBRANCH  14  15
ENDBRANCH  13  14
BRANCH  13  20
HETATM   20  C   UNL     1     -43.026 -52.832  12.367  1.00  0.00     0.150 C 
BRANCH  20  21
HETATM   21  C   UNL     1     -44.521 -52.801  12.722  1.00  0.00     0.186 C 
BRANCH  21  22
HETATM   22  O   UNL     1     -44.858 -51.521  13.268  1.00  0.00    -0.394 OA
HETATM   23  C   UNL     1     -46.196 -51.495  13.751  1.00  0.00     0.201 C 
ENDBRANCH  21  22
ENDBRANCH  20  21
ENDBRANCH  13  20
ENDBRANCH   6  13
BRANCH   2  24
HETATM   24  C   UNL     1     -41.471 -46.499  10.541  1.00  0.00     0.172 C 
BRANCH  24  25
HETATM   25  C   UNL     1     -40.999 -45.386  11.500  1.00  0.00     0.102 C 
HETATM   26  C   UNL     1     -42.112 -44.527  12.138  1.00  0.00     0.153 C 
HETATM   27  O   UNL     1     -41.555 -43.210  12.362  1.00  0.00    -0.383 OA
HETATM   28  C   UNL     1     -42.670 -45.019  13.462  1.00  0.00     0.042 C 
HETATM   29  C   UNL     1     -40.262 -43.157  11.747  1.00  0.00     0.171 C 
HETATM   30  C   UNL     1     -40.227 -44.300  10.755  1.00  0.00     0.068 C 
BRANCH  25  31
HETATM   31  O   UNL     1     -40.086 -45.913  12.473  1.00  0.00    -0.385 OA
HETATM   32  H   UNL     1     -39.200 -45.998  12.072  1.00  0.00     0.210 HD
ENDBRANCH  25  31
ENDBRANCH  24  25
ENDBRANCH   2  24
TORSDOF 11
ENDMDL
