MODEL 1
REMARK VINA RESULT:      -6.5      0.000      0.000
REMARK  4 active torsions:
REMARK  status: ('A' for Active; 'I' for Inactive)
REMARK    1  A    between atoms: O_1  and  C_2 
REMARK    2  A    between atoms: C_5  and  N_8 
REMARK       I    between atoms: N_8  and  C_9 
REMARK       I    between atoms: C_9  and  N_11 
REMARK    3  A    between atoms: N_11  and  C_12 
REMARK    4  A    between atoms: C_18  and  N_19 
ROOT
HETATM    1  N   UNL     1     -42.592 -48.815  11.073  1.00  0.00    -0.338 N 
HETATM    2  C   UNL     1     -42.522 -49.787  12.047  1.00  0.00     0.321 C 
HETATM    3  O   UNL     1     -43.144 -49.682  13.096  1.00  0.00    -0.247 OA
HETATM    4  N   UNL     1     -41.675 -50.821  11.707  1.00  0.00    -0.305 N 
HETATM    5  H   UNL     1     -42.348 -49.079  10.127  1.00  0.00     0.164 HD
HETATM    6  H   UNL     1     -41.479 -50.933  10.732  1.00  0.00     0.171 HD
ENDROOT
BRANCH   4   7
HETATM    7  C   UNL     1     -41.302 -51.893  12.558  1.00  0.00     0.080 A 
HETATM    8  C   UNL     1     -42.139 -53.026  12.634  1.00  0.00     0.035 A 
HETATM    9  C   UNL     1     -41.798 -54.125  13.404  1.00  0.00     0.019 A 
HETATM   10  C   UNL     1     -40.625 -54.054  14.109  1.00  0.00     0.090 A 
HETATM   11  N   UNL     1     -39.803 -52.983  14.087  1.00  0.00    -0.351 N 
HETATM   12  C   UNL     1     -40.108 -51.892  13.326  1.00  0.00     0.130 A 
ATOM     13  HN  UNL     1     -38.947 -52.990  14.642  1.00  0.00     0.166 HD
BRANCH  12  14
HETATM   14  N   UNL     1     -39.136 -50.900  13.288  1.00  0.00    -0.365 N 
HETATM   15  C   UNL     1     -38.266 -50.634  12.150  1.00  0.00     0.124 C 
HETATM   16  C   UNL     1     -37.865 -49.162  12.270  1.00  0.00     0.021 C 
HETATM   17  C   UNL     1     -38.988 -48.533  13.065  1.00  0.00     0.021 C 
HETATM   18  C   UNL     1     -39.414 -49.646  14.013  1.00  0.00     0.124 C 
ENDBRANCH  12  14
ENDBRANCH   4   7
BRANCH   1  19
HETATM   19  C   UNL     1     -43.454 -47.650  11.268  1.00  0.00     0.086 C 
HETATM   20  C   UNL     1     -44.532 -47.560  10.181  1.00  0.00     0.028 C 
HETATM   21  C   UNL     1     -43.962 -47.130   8.828  1.00  0.00     0.034 C 
HETATM   22  C   UNL     1     -43.158 -45.834   8.930  1.00  0.00     0.118 C 
HETATM   23  C   UNL     1     -42.073 -45.924  10.002  1.00  0.00     0.034 C 
HETATM   24  C   UNL     1     -42.634 -46.361  11.356  1.00  0.00     0.028 C 
BRANCH  22  25
HETATM   25  O   UNL     1     -44.030 -44.755   9.261  1.00  0.00    -0.396 OA
HETATM   26  H   UNL     1     -44.202 -44.252   8.446  1.00  0.00     0.210 HD
ENDBRANCH  22  25
ENDBRANCH   1  19
TORSDOF 4
ENDMDL
MODEL 2
REMARK VINA RESULT:      -6.4      2.629      5.918
REMARK  4 active torsions:
REMARK  status: ('A' for Active; 'I' for Inactive)
REMARK    1  A    between atoms: O_1  and  C_2 
REMARK    2  A    between atoms: C_5  and  N_8 
REMARK       I    between atoms: N_8  and  C_9 
REMARK       I    between atoms: C_9  and  N_11 
REMARK    3  A    between atoms: N_11  and  C_12 
REMARK    4  A    between atoms: C_18  and  N_19 
ROOT
HETATM    1  N   UNL     1     -43.911 -50.763  12.868  1.00  0.00    -0.338 N 
HETATM    2  C   UNL     1     -43.143 -49.619  12.833  1.00  0.00     0.321 C 
HETATM    3  O   UNL     1     -43.026 -48.903  13.819  1.00  0.00    -0.247 OA
HETATM    4  N   UNL     1     -42.582 -49.392  11.595  1.00  0.00    -0.305 N 
HETATM    5  H   UNL     1     -43.724 -51.476  12.175  1.00  0.00     0.164 HD
HETATM    6  H   UNL     1     -42.506 -50.184  10.988  1.00  0.00     0.171 HD
ENDROOT
BRANCH   4   7
HETATM    7  C   UNL     1     -41.854 -48.233  11.221  1.00  0.00     0.080 A 
HETATM    8  C   UNL     1     -42.546 -47.154  10.631  1.00  0.00     0.035 A 
HETATM    9  C   UNL     1     -41.897 -45.977  10.297  1.00  0.00     0.019 A 
HETATM   10  C   UNL     1     -40.551 -45.915  10.538  1.00  0.00     0.090 A 
HETATM   11  N   UNL     1     -39.840 -46.929  11.079  1.00  0.00    -0.351 N 
HETATM   12  C   UNL     1     -40.456 -48.095  11.430  1.00  0.00     0.130 A 
ATOM     13  HN  UNL     1     -38.837 -46.823  11.226  1.00  0.00     0.166 HD
BRANCH  12  14
HETATM   14  N   UNL     1     -39.653 -49.021  12.082  1.00  0.00    -0.365 N 
HETATM   15  C   UNL     1     -38.573 -49.771  11.454  1.00  0.00     0.124 C 
HETATM   16  C   UNL     1     -37.603 -50.127  12.583  1.00  0.00     0.021 C 
HETATM   17  C   UNL     1     -37.841 -49.059  13.629  1.00  0.00     0.021 C 
HETATM   18  C   UNL     1     -39.330 -48.765  13.499  1.00  0.00     0.124 C 
ENDBRANCH  12  14
ENDBRANCH   4   7
BRANCH   1  19
HETATM   19  C   UNL     1     -44.572 -51.159  14.111  1.00  0.00     0.086 C 
HETATM   20  C   UNL     1     -43.914 -52.400  14.726  1.00  0.00     0.028 C 
HETATM   21  C   UNL     1     -44.232 -53.677  13.944  1.00  0.00     0.034 C 
HETATM   22  C   UNL     1     -45.736 -53.874  13.756  1.00  0.00     0.118 C 
HETATM   23  C   UNL     1     -46.394 -52.645  13.130  1.00  0.00     0.034 C 
HETATM   24  C   UNL     1     -46.074 -51.363  13.900  1.00  0.00     0.028 C 
BRANCH  22  25
HETATM   25  O   UNL     1     -46.349 -54.117  15.020  1.00  0.00    -0.396 OA
HETATM   26  H   UNL     1     -45.703 -53.889  15.711  1.00  0.00     0.210 HD
ENDBRANCH  22  25
ENDBRANCH   1  19
TORSDOF 4
ENDMDL
MODEL 3
REMARK VINA RESULT:      -6.3      1.464      3.413
REMARK  4 active torsions:
REMARK  status: ('A' for Active; 'I' for Inactive)
REMARK    1  A    between atoms: O_1  and  C_2 
REMARK    2  A    between atoms: C_5  and  N_8 
REMARK       I    between atoms: N_8  and  C_9 
REMARK       I    between atoms: C_9  and  N_11 
REMARK    3  A    between atoms: N_11  and  C_12 
REMARK    4  A    between atoms: C_18  and  N_19 
ROOT
HETATM    1  N   UNL     1     -42.706 -48.868  11.034  1.00  0.00    -0.338 N 
HETATM    2  C   UNL     1     -42.366 -49.643  12.122  1.00  0.00     0.321 C 
HETATM    3  O   UNL     1     -42.724 -49.341  13.253  1.00  0.00    -0.247 OA
HETATM    4  N   UNL     1     -41.584 -50.726  11.781  1.00  0.00    -0.305 N 
HETATM    5  H   UNL     1     -42.683 -49.304  10.121  1.00  0.00     0.164 HD
HETATM    6  H   UNL     1     -41.621 -51.017  10.824  1.00  0.00     0.171 HD
ENDROOT
BRANCH   4   7
HETATM    7  C   UNL     1     -40.975 -51.623  12.696  1.00  0.00     0.080 A 
HETATM    8  C   UNL     1     -39.591 -51.508  12.943  1.00  0.00     0.035 A 
HETATM    9  C   UNL     1     -38.954 -52.319  13.868  1.00  0.00     0.019 A 
HETATM   10  C   UNL     1     -39.720 -53.255  14.511  1.00  0.00     0.090 A 
HETATM   11  N   UNL     1     -41.043 -53.418  14.292  1.00  0.00    -0.351 N 
HETATM   12  C   UNL     1     -41.699 -52.624  13.397  1.00  0.00     0.130 A 
ATOM     13  HN  UNL     1     -41.555 -54.140  14.799  1.00  0.00     0.166 HD
BRANCH  12  14
HETATM   14  N   UNL     1     -43.075 -52.802  13.338  1.00  0.00    -0.365 N 
HETATM   15  C   UNL     1     -43.748 -53.800  12.517  1.00  0.00     0.124 C 
HETATM   16  C   UNL     1     -45.083 -54.077  13.212  1.00  0.00     0.021 C 
HETATM   17  C   UNL     1     -44.829 -53.722  14.661  1.00  0.00     0.021 C 
HETATM   18  C   UNL     1     -43.846 -52.562  14.572  1.00  0.00     0.124 C 
ENDBRANCH  12  14
ENDBRANCH   4   7
BRANCH   1  19
HETATM   19  C   UNL     1     -43.542 -47.683  11.216  1.00  0.00     0.086 C 
HETATM   20  C   UNL     1     -44.648 -47.607  10.156  1.00  0.00     0.028 C 
HETATM   21  C   UNL     1     -44.108 -47.228   8.776  1.00  0.00     0.034 C 
HETATM   22  C   UNL     1     -43.280 -45.943   8.817  1.00  0.00     0.118 C 
HETATM   23  C   UNL     1     -42.168 -46.020   9.862  1.00  0.00     0.034 C 
HETATM   24  C   UNL     1     -42.699 -46.406  11.243  1.00  0.00     0.028 C 
BRANCH  22  25
HETATM   25  O   UNL     1     -44.125 -44.840   9.138  1.00  0.00    -0.396 OA
HETATM   26  H   UNL     1     -44.820 -44.791   8.458  1.00  0.00     0.210 HD
ENDBRANCH  22  25
ENDBRANCH   1  19
TORSDOF 4
ENDMDL
MODEL 4
REMARK VINA RESULT:      -6.2      2.775      5.886
REMARK  4 active torsions:
REMARK  status: ('A' for Active; 'I' for Inactive)
REMARK    1  A    between atoms: O_1  and  C_2 
REMARK    2  A    between atoms: C_5  and  N_8 
REMARK       I    between atoms: N_8  and  C_9 
REMARK       I    between atoms: C_9  and  N_11 
REMARK    3  A    between atoms: N_11  and  C_12 
REMARK    4  A    between atoms: C_18  and  N_19 
ROOT
HETATM    1  N   UNL     1     -43.408 -51.864  13.187  1.00  0.00    -0.338 N 
HETATM    2  C   UNL     1     -42.225 -51.662  12.509  1.00  0.00     0.321 C 
HETATM    3  O   UNL     1     -41.868 -52.418  11.616  1.00  0.00    -0.247 OA
HETATM    4  N   UNL     1     -41.526 -50.568  12.973  1.00  0.00    -0.305 N 
HETATM    5  H   UNL     1     -43.818 -51.071  13.664  1.00  0.00     0.164 HD
HETATM    6  H   UNL     1     -42.054 -49.883  13.476  1.00  0.00     0.171 HD
ENDROOT
BRANCH   4   7
HETATM    7  C   UNL     1     -40.222 -50.189  12.562  1.00  0.00     0.080 A 
HETATM    8  C   UNL     1     -39.141 -51.051  12.845  1.00  0.00     0.035 A 
HETATM    9  C   UNL     1     -37.856 -50.761  12.419  1.00  0.00     0.019 A 
HETATM   10  C   UNL     1     -37.674 -49.588  11.735  1.00  0.00     0.090 A 
HETATM   11  N   UNL     1     -38.672 -48.720  11.461  1.00  0.00    -0.351 N 
HETATM   12  C   UNL     1     -39.950 -48.987  11.857  1.00  0.00     0.130 A 
ATOM     13  HN  UNL     1     -38.469 -47.858  10.954  1.00  0.00     0.166 HD
BRANCH  12  14
HETATM   14  N   UNL     1     -40.911 -48.085  11.420  1.00  0.00    -0.365 N 
HETATM   15  C   UNL     1     -41.875 -48.347  10.359  1.00  0.00     0.124 C 
HETATM   16  C   UNL     1     -43.069 -47.435  10.648  1.00  0.00     0.021 C 
HETATM   17  C   UNL     1     -42.999 -47.191  12.140  1.00  0.00     0.021 C 
HETATM   18  C   UNL     1     -41.503 -47.181  12.425  1.00  0.00     0.124 C 
ENDBRANCH  12  14
ENDBRANCH   4   7
BRANCH   1  19
HETATM   19  C   UNL     1     -44.280 -52.978  12.815  1.00  0.00     0.086 C 
HETATM   20  C   UNL     1     -45.718 -52.506  12.567  1.00  0.00     0.028 C 
HETATM   21  C   UNL     1     -46.444 -52.142  13.864  1.00  0.00     0.034 C 
HETATM   22  C   UNL     1     -46.393 -53.277  14.887  1.00  0.00     0.118 C 
HETATM   23  C   UNL     1     -44.961 -53.740  15.148  1.00  0.00     0.034 C 
HETATM   24  C   UNL     1     -44.225 -54.097  13.856  1.00  0.00     0.028 C 
BRANCH  22  25
HETATM   25  O   UNL     1     -47.146 -54.388  14.407  1.00  0.00    -0.396 OA
HETATM   26  H   UNL     1     -47.540 -54.834  15.176  1.00  0.00     0.210 HD
ENDBRANCH  22  25
ENDBRANCH   1  19
TORSDOF 4
ENDMDL
MODEL 5
REMARK VINA RESULT:      -6.0      3.628      6.031
REMARK  4 active torsions:
REMARK  status: ('A' for Active; 'I' for Inactive)
REMARK    1  A    between atoms: O_1  and  C_2 
REMARK    2  A    between atoms: C_5  and  N_8 
REMARK       I    between atoms: N_8  and  C_9 
REMARK       I    between atoms: C_9  and  N_11 
REMARK    3  A    between atoms: N_11  and  C_12 
REMARK    4  A    between atoms: C_18  and  N_19 
ROOT
HETATM    1  N   UNL     1     -43.458 -52.097  13.105  1.00  0.00    -0.338 N 
HETATM    2  C   UNL     1     -42.224 -52.026  12.496  1.00  0.00     0.321 C 
HETATM    3  O   UNL     1     -41.915 -52.796  11.595  1.00  0.00    -0.247 OA
HETATM    4  N   UNL     1     -41.421 -51.044  13.034  1.00  0.00    -0.305 N 
HETATM    5  H   UNL     1     -43.792 -51.273  13.588  1.00  0.00     0.164 HD
HETATM    6  H   UNL     1     -41.886 -50.312  13.533  1.00  0.00     0.171 HD
ENDROOT
BRANCH   4   7
HETATM    7  C   UNL     1     -40.059 -50.821  12.703  1.00  0.00     0.080 A 
HETATM    8  C   UNL     1     -39.745 -49.853  11.726  1.00  0.00     0.035 A 
HETATM    9  C   UNL     1     -38.432 -49.554  11.403  1.00  0.00     0.019 A 
HETATM   10  C   UNL     1     -37.452 -50.257  12.053  1.00  0.00     0.090 A 
HETATM   11  N   UNL     1     -37.703 -51.208  12.978  1.00  0.00    -0.351 N 
HETATM   12  C   UNL     1     -38.987 -51.514  13.325  1.00  0.00     0.130 A 
ATOM     13  HN  UNL     1     -36.928 -51.702  13.420  1.00  0.00     0.166 HD
BRANCH  12  14
HETATM   14  N   UNL     1     -39.123 -52.422  14.367  1.00  0.00    -0.365 N 
HETATM   15  C   UNL     1     -39.665 -52.102  15.682  1.00  0.00     0.124 C 
HETATM   16  C   UNL     1     -40.219 -53.417  16.234  1.00  0.00     0.021 C 
HETATM   17  C   UNL     1     -40.531 -54.236  15.001  1.00  0.00     0.021 C 
HETATM   18  C   UNL     1     -39.447 -53.818  14.017  1.00  0.00     0.124 C 
ENDBRANCH  12  14
ENDBRANCH   4   7
BRANCH   1  19
HETATM   19  C   UNL     1     -44.440 -53.081  12.650  1.00  0.00     0.086 C 
HETATM   20  C   UNL     1     -45.875 -52.574  12.845  1.00  0.00     0.028 C 
HETATM   21  C   UNL     1     -46.297 -52.574  14.316  1.00  0.00     0.034 C 
HETATM   22  C   UNL     1     -46.089 -53.938  14.972  1.00  0.00     0.118 C 
HETATM   23  C   UNL     1     -44.657 -54.441  14.792  1.00  0.00     0.034 C 
HETATM   24  C   UNL     1     -44.224 -54.436  13.326  1.00  0.00     0.028 C 
BRANCH  22  25
HETATM   25  O   UNL     1     -46.977 -54.890  14.390  1.00  0.00    -0.396 OA
HETATM   26  H   UNL     1     -47.319 -54.509  13.562  1.00  0.00     0.210 HD
ENDBRANCH  22  25
ENDBRANCH   1  19
TORSDOF 4
ENDMDL
MODEL 6
REMARK VINA RESULT:      -6.0      2.586      4.095
REMARK  4 active torsions:
REMARK  status: ('A' for Active; 'I' for Inactive)
REMARK    1  A    between atoms: O_1  and  C_2 
REMARK    2  A    between atoms: C_5  and  N_8 
REMARK       I    between atoms: N_8  and  C_9 
REMARK       I    between atoms: C_9  and  N_11 
REMARK    3  A    between atoms: N_11  and  C_12 
REMARK    4  A    between atoms: C_18  and  N_19 
ROOT
HETATM    1  N   UNL     1     -41.695 -48.144  11.936  1.00  0.00    -0.338 N 
HETATM    2  C   UNL     1     -41.769 -49.293  12.693  1.00  0.00     0.321 C 
HETATM    3  O   UNL     1     -41.516 -49.282  13.890  1.00  0.00    -0.247 OA
HETATM    4  N   UNL     1     -42.118 -50.399  11.948  1.00  0.00    -0.305 N 
HETATM    5  H   UNL     1     -42.211 -48.120  11.066  1.00  0.00     0.164 HD
HETATM    6  H   UNL     1     -42.581 -50.222  11.079  1.00  0.00     0.171 HD
ENDROOT
BRANCH   4   7
HETATM    7  C   UNL     1     -42.146 -51.736  12.423  1.00  0.00     0.080 A 
HETATM    8  C   UNL     1     -40.985 -52.528  12.297  1.00  0.00     0.035 A 
HETATM    9  C   UNL     1     -40.936 -53.820  12.792  1.00  0.00     0.019 A 
HETATM   10  C   UNL     1     -42.071 -54.306  13.385  1.00  0.00     0.090 A 
HETATM   11  N   UNL     1     -43.213 -53.595  13.508  1.00  0.00    -0.351 N 
HETATM   12  C   UNL     1     -43.285 -52.315  13.041  1.00  0.00     0.130 A 
ATOM     13  HN  UNL     1     -44.028 -54.018  13.953  1.00  0.00     0.166 HD
BRANCH  12  14
HETATM   14  N   UNL     1     -44.466 -51.642  13.326  1.00  0.00    -0.365 N 
HETATM   15  C   UNL     1     -45.789 -52.062  12.881  1.00  0.00     0.124 C 
HETATM   16  C   UNL     1     -46.773 -51.477  13.896  1.00  0.00     0.021 C 
HETATM   17  C   UNL     1     -45.953 -51.311  15.157  1.00  0.00     0.021 C 
HETATM   18  C   UNL     1     -44.566 -50.964  14.632  1.00  0.00     0.124 C 
ENDBRANCH  12  14
ENDBRANCH   4   7
BRANCH   1  19
HETATM   19  C   UNL     1     -41.346 -46.874  12.572  1.00  0.00     0.086 C 
HETATM   20  C   UNL     1     -42.384 -45.788  12.263  1.00  0.00     0.028 C 
HETATM   21  C   UNL     1     -42.295 -45.290  10.819  1.00  0.00     0.034 C 
HETATM   22  C   UNL     1     -40.881 -44.836  10.455  1.00  0.00     0.118 C 
HETATM   23  C   UNL     1     -39.846 -45.920  10.747  1.00  0.00     0.034 C 
HETATM   24  C   UNL     1     -39.933 -46.430  12.186  1.00  0.00     0.028 C 
BRANCH  22  25
HETATM   25  O   UNL     1     -40.543 -43.674  11.210  1.00  0.00    -0.396 OA
HETATM   26  H   UNL     1     -41.319 -43.431  11.744  1.00  0.00     0.210 HD
ENDBRANCH  22  25
ENDBRANCH   1  19
TORSDOF 4
ENDMDL
MODEL 7
REMARK VINA RESULT:      -5.4      5.464      8.340
REMARK  4 active torsions:
REMARK  status: ('A' for Active; 'I' for Inactive)
REMARK    1  A    between atoms: O_1  and  C_2 
REMARK    2  A    between atoms: C_5  and  N_8 
REMARK       I    between atoms: N_8  and  C_9 
REMARK       I    between atoms: C_9  and  N_11 
REMARK    3  A    between atoms: N_11  and  C_12 
REMARK    4  A    between atoms: C_18  and  N_19 
ROOT
HETATM    1  N   UNL     1     -42.553 -53.332  15.494  1.00  0.00    -0.338 N 
HETATM    2  C   UNL     1     -43.684 -53.496  16.263  1.00  0.00     0.321 C 
HETATM    3  O   UNL     1     -44.185 -54.601  16.427  1.00  0.00    -0.247 OA
HETATM    4  N   UNL     1     -44.163 -52.306  16.767  1.00  0.00    -0.305 N 
HETATM    5  H   UNL     1     -41.997 -52.500  15.647  1.00  0.00     0.164 HD
HETATM    6  H   UNL     1     -43.511 -51.548  16.813  1.00  0.00     0.171 HD
ENDROOT
BRANCH   4   7
HETATM    7  C   UNL     1     -45.378 -52.143  17.482  1.00  0.00     0.080 A 
HETATM    8  C   UNL     1     -45.332 -52.037  18.888  1.00  0.00     0.035 A 
HETATM    9  C   UNL     1     -46.479 -51.821  19.632  1.00  0.00     0.019 A 
HETATM   10  C   UNL     1     -47.663 -51.743  18.948  1.00  0.00     0.090 A 
HETATM   11  N   UNL     1     -47.761 -51.862  17.606  1.00  0.00    -0.351 N 
HETATM   12  C   UNL     1     -46.645 -52.062  16.847  1.00  0.00     0.130 A 
ATOM     13  HN  UNL     1     -48.674 -51.803  17.157  1.00  0.00     0.166 HD
BRANCH  12  14
HETATM   14  N   UNL     1     -46.849 -52.052  15.473  1.00  0.00    -0.365 N 
HETATM   15  C   UNL     1     -46.256 -51.091  14.552  1.00  0.00     0.124 C 
HETATM   16  C   UNL     1     -46.197 -51.797  13.196  1.00  0.00     0.021 C 
HETATM   17  C   UNL     1     -46.162 -53.269  13.543  1.00  0.00     0.021 C 
HETATM   18  C   UNL     1     -47.017 -53.354  14.801  1.00  0.00     0.124 C 
ENDBRANCH  12  14
ENDBRANCH   4   7
BRANCH   1  19
HETATM   19  C   UNL     1     -41.907 -54.496  14.889  1.00  0.00     0.086 C 
HETATM   20  C   UNL     1     -40.657 -54.916  15.672  1.00  0.00     0.028 C 
HETATM   21  C   UNL     1     -39.491 -53.946  15.471  1.00  0.00     0.034 C 
HETATM   22  C   UNL     1     -39.178 -53.724  13.991  1.00  0.00     0.118 C 
HETATM   23  C   UNL     1     -40.418 -53.292  13.210  1.00  0.00     0.034 C 
HETATM   24  C   UNL     1     -41.591 -54.251  13.412  1.00  0.00     0.028 C 
BRANCH  22  25
HETATM   25  O   UNL     1     -38.684 -54.934  13.420  1.00  0.00    -0.396 OA
HETATM   26  H   UNL     1     -38.115 -55.364  14.082  1.00  0.00     0.210 HD
ENDBRANCH  22  25
ENDBRANCH   1  19
TORSDOF 4
ENDMDL
MODEL 8
REMARK VINA RESULT:      -5.4      3.462      5.506
REMARK  4 active torsions:
REMARK  status: ('A' for Active; 'I' for Inactive)
REMARK    1  A    between atoms: O_1  and  C_2 
REMARK    2  A    between atoms: C_5  and  N_8 
REMARK       I    between atoms: N_8  and  C_9 
REMARK       I    between atoms: C_9  and  N_11 
REMARK    3  A    between atoms: N_11  and  C_12 
REMARK    4  A    between atoms: C_18  and  N_19 
ROOT
HETATM    1  N   UNL     1     -40.399 -49.598  14.058  1.00  0.00    -0.338 N 
HETATM    2  C   UNL     1     -41.336 -50.329  13.361  1.00  0.00     0.321 C 
HETATM    3  O   UNL     1     -41.340 -50.354  12.137  1.00  0.00    -0.247 OA
HETATM    4  N   UNL     1     -42.237 -50.966  14.187  1.00  0.00    -0.305 N 
HETATM    5  H   UNL     1     -40.223 -49.856  15.021  1.00  0.00     0.164 HD
HETATM    6  H   UNL     1     -41.947 -51.109  15.134  1.00  0.00     0.171 HD
ENDROOT
BRANCH   4   7
HETATM    7  C   UNL     1     -43.386 -51.680  13.758  1.00  0.00     0.080 A 
HETATM    8  C   UNL     1     -44.574 -50.966  13.498  1.00  0.00     0.035 A 
HETATM    9  C   UNL     1     -45.709 -51.602  13.024  1.00  0.00     0.019 A 
HETATM   10  C   UNL     1     -45.636 -52.958  12.845  1.00  0.00     0.090 A 
HETATM   11  N   UNL     1     -44.530 -53.689  13.103  1.00  0.00    -0.351 N 
HETATM   12  C   UNL     1     -43.393 -53.085  13.558  1.00  0.00     0.130 A 
ATOM     13  HN  UNL     1     -44.543 -54.698  12.956  1.00  0.00     0.166 HD
BRANCH  12  14
HETATM   14  N   UNL     1     -42.285 -53.914  13.677  1.00  0.00    -0.365 N 
HETATM   15  C   UNL     1     -41.109 -53.856  12.818  1.00  0.00     0.124 C 
HETATM   16  C   UNL     1     -39.958 -54.423  13.652  1.00  0.00     0.021 C 
HETATM   17  C   UNL     1     -40.382 -54.182  15.084  1.00  0.00     0.021 C 
HETATM   18  C   UNL     1     -41.896 -54.340  15.035  1.00  0.00     0.124 C 
ENDBRANCH  12  14
ENDBRANCH   4   7
BRANCH   1  19
HETATM   19  C   UNL     1     -39.360 -48.866  13.334  1.00  0.00     0.086 C 
HETATM   20  C   UNL     1     -38.010 -49.589  13.406  1.00  0.00     0.028 C 
HETATM   21  C   UNL     1     -37.365 -49.485  14.789  1.00  0.00     0.034 C 
HETATM   22  C   UNL     1     -37.251 -48.036  15.261  1.00  0.00     0.118 C 
HETATM   23  C   UNL     1     -38.597 -47.315  15.205  1.00  0.00     0.034 C 
HETATM   24  C   UNL     1     -39.253 -47.421  13.828  1.00  0.00     0.028 C 
BRANCH  22  25
HETATM   25  O   UNL     1     -36.329 -47.333  14.430  1.00  0.00    -0.396 OA
HETATM   26  H   UNL     1     -36.801 -46.581  14.033  1.00  0.00     0.210 HD
ENDBRANCH  22  25
ENDBRANCH   1  19
TORSDOF 4
ENDMDL
MODEL 9
REMARK VINA RESULT:      -5.4      2.522      3.670
REMARK  4 active torsions:
REMARK  status: ('A' for Active; 'I' for Inactive)
REMARK    1  A    between atoms: O_1  and  C_2 
REMARK    2  A    between atoms: C_5  and  N_8 
REMARK       I    between atoms: N_8  and  C_9 
REMARK       I    between atoms: C_9  and  N_11 
REMARK    3  A    between atoms: N_11  and  C_12 
REMARK    4  A    between atoms: C_18  and  N_19 
ROOT
HETATM    1  N   UNL     1     -42.471 -48.190  12.401  1.00  0.00    -0.338 N 
HETATM    2  C   UNL     1     -43.094 -49.039  13.289  1.00  0.00     0.321 C 
HETATM    3  O   UNL     1     -43.096 -48.811  14.491  1.00  0.00    -0.247 OA
HETATM    4  N   UNL     1     -43.656 -50.136  12.672  1.00  0.00    -0.305 N 
HETATM    5  H   UNL     1     -42.762 -48.226  11.432  1.00  0.00     0.164 HD
HETATM    6  H   UNL     1     -43.844 -50.048  11.693  1.00  0.00     0.171 HD
ENDROOT
BRANCH   4   7
HETATM    7  C   UNL     1     -44.247 -51.242  13.336  1.00  0.00     0.080 A 
HETATM    8  C   UNL     1     -45.647 -51.261  13.512  1.00  0.00     0.035 A 
HETATM    9  C   UNL     1     -46.284 -52.340  14.103  1.00  0.00     0.019 A 
HETATM   10  C   UNL     1     -45.496 -53.374  14.532  1.00  0.00     0.090 A 
HETATM   11  N   UNL     1     -44.151 -53.391  14.407  1.00  0.00    -0.351 N 
HETATM   12  C   UNL     1     -43.498 -52.348  13.817  1.00  0.00     0.130 A 
ATOM     13  HN  UNL     1     -43.620 -54.188  14.756  1.00  0.00     0.166 HD
BRANCH  12  14
HETATM   14  N   UNL     1     -42.132 -52.524  13.637  1.00  0.00    -0.365 N 
HETATM   15  C   UNL     1     -41.103 -52.005  14.529  1.00  0.00     0.124 C 
HETATM   16  C   UNL     1     -39.895 -52.927  14.351  1.00  0.00     0.021 C 
HETATM   17  C   UNL     1     -40.491 -54.234  13.877  1.00  0.00     0.021 C 
HETATM   18  C   UNL     1     -41.683 -53.794  13.036  1.00  0.00     0.124 C 
ENDBRANCH  12  14
ENDBRANCH   4   7
BRANCH   1  19
HETATM   19  C   UNL     1     -41.829 -46.969  12.888  1.00  0.00     0.086 C 
HETATM   20  C   UNL     1     -42.499 -45.715  12.312  1.00  0.00     0.028 C 
HETATM   21  C   UNL     1     -42.170 -45.506  10.832  1.00  0.00     0.034 C 
HETATM   22  C   UNL     1     -40.664 -45.508  10.573  1.00  0.00     0.118 C 
HETATM   23  C   UNL     1     -39.994 -46.762  11.133  1.00  0.00     0.034 C 
HETATM   24  C   UNL     1     -40.325 -46.983  12.610  1.00  0.00     0.028 C 
BRANCH  22  25
HETATM   25  O   UNL     1     -40.071 -44.368  11.192  1.00  0.00    -0.396 OA
HETATM   26  H   UNL     1     -40.062 -44.522  12.152  1.00  0.00     0.210 HD
ENDBRANCH  22  25
ENDBRANCH   1  19
TORSDOF 4
ENDMDL
