MODEL 1
REMARK VINA RESULT:      -7.0      0.000      0.000
REMARK  6 active torsions:
REMARK  status: ('A' for Active; 'I' for Inactive)
REMARK    1  A    between atoms: S_2  and  C_4 
REMARK    2  A    between atoms: N_8  and  C_9 
REMARK    3  A    between atoms: C_9  and  C_10 
REMARK    4  A    between atoms: C_10  and  O_11 
REMARK    5  A    between atoms: C_10  and  C_12 
REMARK    6  A    between atoms: C_12  and  N_13 
ROOT
HETATM    1  C   UNL     1     -41.908 -51.133  12.137  1.00  0.00     0.156 C 
ENDROOT
BRANCH   1   2
HETATM    2  C   UNL     1     -41.542 -49.724  12.612  1.00  0.00     0.183 C 
BRANCH   2   3
HETATM    3  N   UNL     1     -41.659 -48.693  11.598  1.00  0.00    -0.283 N 
HETATM    4  C   UNL     1     -40.757 -47.755  11.210  1.00  0.00     0.202 A 
HETATM    5  N   UNL     1     -41.229 -47.092  10.180  1.00  0.00    -0.329 N 
HETATM    6  C   UNL     1     -42.468 -47.657   9.978  1.00  0.00     0.190 A 
ATOM      7  HN  UNL     1     -40.784 -46.338   9.655  1.00  0.00     0.168 HD
HETATM    8  N   UNL     1     -42.762 -48.647  10.833  1.00  0.00    -0.275 N 
ATOM      9  HN  UNL     1     -43.606 -49.218  10.888  1.00  0.00     0.189 HD
BRANCH   6  10
HETATM   10  S   UNL     1     -43.509 -47.126   8.684  1.00  0.00     0.081 S 
HETATM   11  C   UNL     1     -45.061 -47.457   9.546  1.00  0.00     0.136 C 
HETATM   12  O   UNL     1     -43.360 -45.640   8.521  1.00  0.00    -0.250 OA
ENDBRANCH   6  10
ENDBRANCH   2   3
ENDBRANCH   1   2
BRANCH   1  13
HETATM   13  O   UNL     1     -40.860 -51.643  11.304  1.00  0.00    -0.392 OA
HETATM   14  H   UNL     1     -40.358 -50.909  10.907  1.00  0.00     0.210 HD
ENDBRANCH   1  13
BRANCH   1  15
HETATM   15  C   UNL     1     -42.148 -52.066  13.331  1.00  0.00     0.163 C 
BRANCH  15  16
HETATM   16  N   UNL     1     -43.552 -52.410  13.474  1.00  0.00    -0.339 N 
HETATM   17  C   UNL     1     -44.231 -53.252  12.637  1.00  0.00     0.184 A 
HETATM   18  N   UNL     1     -45.496 -53.350  12.971  1.00  0.00    -0.350 N 
HETATM   19  C   UNL     1     -45.641 -52.534  14.064  1.00  0.00     0.060 A 
ATOM     20  HN  UNL     1     -46.217 -53.912  12.517  1.00  0.00     0.166 HD
HETATM   21  C   UNL     1     -46.793 -52.250  14.811  1.00  0.00     0.039 A 
HETATM   22  C   UNL     1     -44.433 -51.942  14.417  1.00  0.00     0.062 A 
HETATM   23  C   UNL     1     -46.716 -51.379  15.916  1.00  0.00    -0.054 A 
HETATM   24  C   UNL     1     -47.979 -51.103  16.688  1.00  0.00     0.049 C 
HETATM   25  C   UNL     1     -45.478 -50.800  16.268  1.00  0.00    -0.054 A 
HETATM   26  C   UNL     1     -45.323 -49.873  17.447  1.00  0.00     0.049 C 
HETATM   27  C   UNL     1     -44.316 -51.075  15.510  1.00  0.00     0.039 A 
ENDBRANCH  15  16
ENDBRANCH   1  15
TORSDOF 6
ENDMDL
MODEL 2
REMARK VINA RESULT:      -6.9      1.864      2.454
REMARK  6 active torsions:
REMARK  status: ('A' for Active; 'I' for Inactive)
REMARK    1  A    between atoms: S_2  and  C_4 
REMARK    2  A    between atoms: N_8  and  C_9 
REMARK    3  A    between atoms: C_9  and  C_10 
REMARK    4  A    between atoms: C_10  and  O_11 
REMARK    5  A    between atoms: C_10  and  C_12 
REMARK    6  A    between atoms: C_12  and  N_13 
ROOT
HETATM    1  C   UNL     1     -41.223 -50.407  12.044  1.00  0.00     0.156 C 
ENDROOT
BRANCH   1   2
HETATM    2  C   UNL     1     -40.415 -49.151  11.707  1.00  0.00     0.183 C 
BRANCH   2   3
HETATM    3  N   UNL     1     -41.162 -48.119  11.012  1.00  0.00    -0.283 N 
HETATM    4  C   UNL     1     -40.839 -46.819  10.791  1.00  0.00     0.202 A 
HETATM    5  N   UNL     1     -41.749 -46.266  10.023  1.00  0.00    -0.329 N 
HETATM    6  C   UNL     1     -42.648 -47.286   9.809  1.00  0.00     0.190 A 
ATOM      7  HN  UNL     1     -41.781 -45.309   9.669  1.00  0.00     0.168 HD
HETATM    8  N   UNL     1     -42.315 -48.441  10.403  1.00  0.00    -0.275 N 
ATOM      9  HN  UNL     1     -42.809 -49.333  10.394  1.00  0.00     0.189 HD
BRANCH   6  10
HETATM   10  S   UNL     1     -44.060 -47.059   8.811  1.00  0.00     0.081 S 
HETATM   11  C   UNL     1     -43.499 -48.109   7.453  1.00  0.00     0.136 C 
HETATM   12  O   UNL     1     -45.234 -47.722   9.474  1.00  0.00    -0.250 OA
ENDBRANCH   6  10
ENDBRANCH   2   3
ENDBRANCH   1   2
BRANCH   1  13
HETATM   13  O   UNL     1     -40.998 -51.403  11.041  1.00  0.00    -0.392 OA
HETATM   14  H   UNL     1     -40.445 -52.122  11.396  1.00  0.00     0.210 HD
ENDBRANCH   1  13
BRANCH   1  15
HETATM   15  C   UNL     1     -40.842 -50.945  13.430  1.00  0.00     0.163 C 
BRANCH  15  16
HETATM   16  N   UNL     1     -41.441 -52.243  13.690  1.00  0.00    -0.339 N 
HETATM   17  C   UNL     1     -40.755 -53.425  13.688  1.00  0.00     0.184 A 
HETATM   18  N   UNL     1     -41.550 -54.447  13.908  1.00  0.00    -0.350 N 
HETATM   19  C   UNL     1     -42.800 -53.901  14.051  1.00  0.00     0.060 A 
ATOM     20  HN  UNL     1     -41.293 -55.433  13.961  1.00  0.00     0.166 HD
HETATM   21  C   UNL     1     -44.025 -54.543  14.282  1.00  0.00     0.039 A 
HETATM   22  C   UNL     1     -42.764 -52.516  13.938  1.00  0.00     0.062 A 
HETATM   23  C   UNL     1     -45.204 -53.781  14.408  1.00  0.00    -0.054 A 
HETATM   24  C   UNL     1     -46.496 -54.513  14.654  1.00  0.00     0.049 C 
HETATM   25  C   UNL     1     -45.144 -52.375  14.305  1.00  0.00    -0.054 A 
HETATM   26  C   UNL     1     -46.364 -51.500  14.445  1.00  0.00     0.049 C 
HETATM   27  C   UNL     1     -43.912 -51.725  14.061  1.00  0.00     0.039 A 
ENDBRANCH  15  16
ENDBRANCH   1  15
TORSDOF 6
ENDMDL
MODEL 3
REMARK VINA RESULT:      -6.7      3.235      3.721
REMARK  6 active torsions:
REMARK  status: ('A' for Active; 'I' for Inactive)
REMARK    1  A    between atoms: S_2  and  C_4 
REMARK    2  A    between atoms: N_8  and  C_9 
REMARK    3  A    between atoms: C_9  and  C_10 
REMARK    4  A    between atoms: C_10  and  O_11 
REMARK    5  A    between atoms: C_10  and  C_12 
REMARK    6  A    between atoms: C_12  and  N_13 
ROOT
HETATM    1  C   UNL     1     -40.792 -50.081  11.525  1.00  0.00     0.156 C 
ENDROOT
BRANCH   1   2
HETATM    2  C   UNL     1     -40.589 -48.683  12.118  1.00  0.00     0.183 C 
BRANCH   2   3
HETATM    3  N   UNL     1     -41.050 -47.596  11.276  1.00  0.00    -0.283 N 
HETATM    4  C   UNL     1     -40.430 -46.433  10.948  1.00  0.00     0.202 A 
HETATM    5  N   UNL     1     -41.157 -45.781  10.070  1.00  0.00    -0.329 N 
HETATM    6  C   UNL     1     -42.255 -46.593   9.901  1.00  0.00     0.190 A 
ATOM      7  HN  UNL     1     -40.955 -44.887   9.622  1.00  0.00     0.168 HD
HETATM    8  N   UNL     1     -42.220 -47.719  10.627  1.00  0.00    -0.275 N 
ATOM      9  HN  UNL     1     -42.905 -48.474  10.675  1.00  0.00     0.189 HD
BRANCH   6  10
HETATM   10  S   UNL     1     -43.535 -46.170   8.794  1.00  0.00     0.081 S 
HETATM   11  C   UNL     1     -44.770 -47.279   9.505  1.00  0.00     0.136 C 
HETATM   12  O   UNL     1     -43.956 -44.753   9.059  1.00  0.00    -0.250 OA
ENDBRANCH   6  10
ENDBRANCH   2   3
ENDBRANCH   1   2
BRANCH   1  13
HETATM   13  O   UNL     1     -40.231 -50.128  10.209  1.00  0.00    -0.392 OA
HETATM   14  H   UNL     1     -39.294 -50.392  10.251  1.00  0.00     0.210 HD
ENDBRANCH   1  13
BRANCH   1  15
HETATM   15  C   UNL     1     -40.154 -51.152  12.420  1.00  0.00     0.163 C 
BRANCH  15  16
HETATM   16  N   UNL     1     -41.097 -52.203  12.762  1.00  0.00    -0.339 N 
HETATM   17  C   UNL     1     -42.258 -52.450  12.083  1.00  0.00     0.184 A 
HETATM   18  N   UNL     1     -42.941 -53.427  12.633  1.00  0.00    -0.350 N 
HETATM   19  C   UNL     1     -42.194 -53.821  13.713  1.00  0.00     0.060 A 
ATOM     20  HN  UNL     1     -43.835 -53.810  12.323  1.00  0.00     0.166 HD
HETATM   21  C   UNL     1     -42.467 -54.815  14.663  1.00  0.00     0.039 A 
HETATM   22  C   UNL     1     -41.019 -53.083  13.812  1.00  0.00     0.062 A 
HETATM   23  C   UNL     1     -41.547 -55.066  15.701  1.00  0.00    -0.054 A 
HETATM   24  C   UNL     1     -41.882 -56.142  16.699  1.00  0.00     0.049 C 
HETATM   25  C   UNL     1     -40.352 -54.317  15.776  1.00  0.00    -0.054 A 
HETATM   26  C   UNL     1     -39.319 -54.545  16.850  1.00  0.00     0.049 C 
HETATM   27  C   UNL     1     -40.080 -53.306  14.826  1.00  0.00     0.039 A 
ENDBRANCH  15  16
ENDBRANCH   1  15
TORSDOF 6
ENDMDL
MODEL 4
REMARK VINA RESULT:      -6.6      1.525      1.974
REMARK  6 active torsions:
REMARK  status: ('A' for Active; 'I' for Inactive)
REMARK    1  A    between atoms: S_2  and  C_4 
REMARK    2  A    between atoms: N_8  and  C_9 
REMARK    3  A    between atoms: C_9  and  C_10 
REMARK    4  A    between atoms: C_10  and  O_11 
REMARK    5  A    between atoms: C_10  and  C_12 
REMARK    6  A    between atoms: C_12  and  N_13 
ROOT
HETATM    1  C   UNL     1     -39.659 -50.238  11.928  1.00  0.00     0.156 C 
ENDROOT
BRANCH   1   2
HETATM    2  C   UNL     1     -39.417 -48.732  12.063  1.00  0.00     0.183 C 
BRANCH   2   3
HETATM    3  N   UNL     1     -40.350 -47.900  11.327  1.00  0.00    -0.283 N 
HETATM    4  C   UNL     1     -40.239 -46.599  10.954  1.00  0.00     0.202 A 
HETATM    5  N   UNL     1     -41.265 -46.269  10.204  1.00  0.00    -0.329 N 
HETATM    6  C   UNL     1     -42.012 -47.425  10.161  1.00  0.00     0.190 A 
ATOM      7  HN  UNL     1     -41.462 -45.372   9.760  1.00  0.00     0.168 HD
HETATM    8  N   UNL     1     -41.475 -48.448  10.840  1.00  0.00    -0.275 N 
ATOM      9  HN  UNL     1     -41.830 -49.397  10.958  1.00  0.00     0.189 HD
BRANCH   6  10
HETATM   10  S   UNL     1     -43.498 -47.512   9.253  1.00  0.00     0.081 S 
HETATM   11  C   UNL     1     -43.773 -45.730   9.171  1.00  0.00     0.136 C 
HETATM   12  O   UNL     1     -43.193 -48.013   7.870  1.00  0.00    -0.250 OA
ENDBRANCH   6  10
ENDBRANCH   2   3
ENDBRANCH   1   2
BRANCH   1  13
HETATM   13  O   UNL     1     -38.421 -50.896  11.638  1.00  0.00    -0.392 OA
HETATM   14  H   UNL     1     -38.357 -51.730  12.137  1.00  0.00     0.210 HD
ENDBRANCH   1  13
BRANCH   1  15
HETATM   15  C   UNL     1     -40.284 -50.808  13.208  1.00  0.00     0.163 C 
BRANCH  15  16
HETATM   16  N   UNL     1     -41.570 -51.433  12.950  1.00  0.00    -0.339 N 
HETATM   17  C   UNL     1     -41.828 -52.262  11.894  1.00  0.00     0.184 A 
HETATM   18  N   UNL     1     -43.083 -52.648  11.878  1.00  0.00    -0.350 N 
HETATM   19  C   UNL     1     -43.658 -52.038  12.963  1.00  0.00     0.060 A 
ATOM     20  HN  UNL     1     -43.533 -53.268  11.204  1.00  0.00     0.166 HD
HETATM   21  C   UNL     1     -44.987 -52.089  13.407  1.00  0.00     0.039 A 
HETATM   22  C   UNL     1     -42.729 -51.281  13.669  1.00  0.00     0.062 A 
HETATM   23  C   UNL     1     -45.368 -51.385  14.566  1.00  0.00    -0.054 A 
HETATM   24  C   UNL     1     -46.805 -51.468  15.005  1.00  0.00     0.049 C 
HETATM   25  C   UNL     1     -44.407 -50.634  15.278  1.00  0.00    -0.054 A 
HETATM   26  C   UNL     1     -44.744 -49.871  16.534  1.00  0.00     0.049 C 
HETATM   27  C   UNL     1     -43.069 -50.571  14.827  1.00  0.00     0.039 A 
ENDBRANCH  15  16
ENDBRANCH   1  15
TORSDOF 6
ENDMDL
MODEL 5
REMARK VINA RESULT:      -6.6      3.350      4.060
REMARK  6 active torsions:
REMARK  status: ('A' for Active; 'I' for Inactive)
REMARK    1  A    between atoms: S_2  and  C_4 
REMARK    2  A    between atoms: N_8  and  C_9 
REMARK    3  A    between atoms: C_9  and  C_10 
REMARK    4  A    between atoms: C_10  and  O_11 
REMARK    5  A    between atoms: C_10  and  C_12 
REMARK    6  A    between atoms: C_12  and  N_13 
ROOT
HETATM    1  C   UNL     1     -40.332 -49.932  11.571  1.00  0.00     0.156 C 
ENDROOT
BRANCH   1   2
HETATM    2  C   UNL     1     -40.295 -48.462  12.000  1.00  0.00     0.183 C 
BRANCH   2   3
HETATM    3  N   UNL     1     -41.068 -47.567  11.160  1.00  0.00    -0.283 N 
HETATM    4  C   UNL     1     -40.738 -46.347  10.663  1.00  0.00     0.202 A 
HETATM    5  N   UNL     1     -41.687 -45.930   9.857  1.00  0.00    -0.329 N 
HETATM    6  C   UNL     1     -42.616 -46.944   9.908  1.00  0.00     0.190 A 
ATOM      7  HN  UNL     1     -41.726 -45.063   9.321  1.00  0.00     0.168 HD
HETATM    8  N   UNL     1     -42.265 -47.967  10.700  1.00  0.00    -0.275 N 
ATOM      9  HN  UNL     1     -42.775 -48.828  10.901  1.00  0.00     0.189 HD
BRANCH   6  10
HETATM   10  S   UNL     1     -44.087 -46.877   8.974  1.00  0.00     0.081 S 
HETATM   11  C   UNL     1     -43.502 -47.929   7.628  1.00  0.00     0.136 C 
HETATM   12  O   UNL     1     -45.167 -47.610   9.718  1.00  0.00    -0.250 OA
ENDBRANCH   6  10
ENDBRANCH   2   3
ENDBRANCH   1   2
BRANCH   1  13
HETATM   13  O   UNL     1     -40.425 -50.010  10.145  1.00  0.00    -0.392 OA
HETATM   14  H   UNL     1     -40.435 -49.116   9.757  1.00  0.00     0.210 HD
ENDBRANCH   1  13
BRANCH   1  15
HETATM   15  C   UNL     1     -39.088 -50.678  12.071  1.00  0.00     0.163 C 
BRANCH  15  16
HETATM   16  N   UNL     1     -39.396 -51.557  13.185  1.00  0.00    -0.339 N 
HETATM   17  C   UNL     1     -38.556 -51.795  14.237  1.00  0.00     0.184 A 
HETATM   18  N   UNL     1     -39.066 -52.664  15.078  1.00  0.00    -0.350 N 
HETATM   19  C   UNL     1     -40.282 -53.005  14.543  1.00  0.00     0.060 A 
ATOM     20  HN  UNL     1     -38.649 -53.011  15.942  1.00  0.00     0.166 HD
HETATM   21  C   UNL     1     -41.237 -53.914  15.022  1.00  0.00     0.039 A 
HETATM   22  C   UNL     1     -40.528 -52.314  13.362  1.00  0.00     0.062 A 
HETATM   23  C   UNL     1     -42.438 -54.109  14.312  1.00  0.00    -0.054 A 
HETATM   24  C   UNL     1     -43.434 -55.095  14.863  1.00  0.00     0.049 C 
HETATM   25  C   UNL     1     -42.676 -53.386  13.123  1.00  0.00    -0.054 A 
HETATM   26  C   UNL     1     -43.946 -53.536  12.324  1.00  0.00     0.049 C 
HETATM   27  C   UNL     1     -41.710 -52.478  12.631  1.00  0.00     0.039 A 
ENDBRANCH  15  16
ENDBRANCH   1  15
TORSDOF 6
ENDMDL
MODEL 6
REMARK VINA RESULT:      -6.3      3.386      4.098
REMARK  6 active torsions:
REMARK  status: ('A' for Active; 'I' for Inactive)
REMARK    1  A    between atoms: S_2  and  C_4 
REMARK    2  A    between atoms: N_8  and  C_9 
REMARK    3  A    between atoms: C_9  and  C_10 
REMARK    4  A    between atoms: C_10  and  O_11 
REMARK    5  A    between atoms: C_10  and  C_12 
REMARK    6  A    between atoms: C_12  and  N_13 
ROOT
HETATM    1  C   UNL     1     -38.150 -50.971  12.861  1.00  0.00     0.156 C 
ENDROOT
BRANCH   1   2
HETATM    2  C   UNL     1     -37.822 -49.745  13.718  1.00  0.00     0.183 C 
BRANCH   2   3
HETATM    3  N   UNL     1     -38.599 -48.561  13.403  1.00  0.00    -0.283 N 
HETATM    4  C   UNL     1     -38.823 -47.449  14.151  1.00  0.00     0.202 A 
HETATM    5  N   UNL     1     -39.492 -46.571  13.441  1.00  0.00    -0.329 N 
HETATM    6  C   UNL     1     -39.682 -47.212  12.237  1.00  0.00     0.190 A 
ATOM      7  HN  UNL     1     -39.797 -45.636  13.715  1.00  0.00     0.168 HD
HETATM    8  N   UNL     1     -39.143 -48.438  12.181  1.00  0.00    -0.275 N 
ATOM      9  HN  UNL     1     -39.146 -49.105  11.409  1.00  0.00     0.189 HD
BRANCH   6  10
HETATM   10  S   UNL     1     -40.520 -46.439  10.918  1.00  0.00     0.081 S 
HETATM   11  C   UNL     1     -41.684 -47.787  10.621  1.00  0.00     0.136 C 
HETATM   12  O   UNL     1     -41.281 -45.259  11.453  1.00  0.00    -0.250 OA
ENDBRANCH   6  10
ENDBRANCH   2   3
ENDBRANCH   1   2
BRANCH   1  13
HETATM   13  O   UNL     1     -36.934 -51.583  12.419  1.00  0.00    -0.392 OA
HETATM   14  H   UNL     1     -36.523 -52.082  13.147  1.00  0.00     0.210 HD
ENDBRANCH   1  13
BRANCH   1  15
HETATM   15  C   UNL     1     -39.002 -51.975  13.649  1.00  0.00     0.163 C 
BRANCH  15  16
HETATM   16  N   UNL     1     -40.315 -52.155  13.054  1.00  0.00    -0.339 N 
HETATM   17  C   UNL     1     -40.774 -51.460  11.970  1.00  0.00     0.184 A 
HETATM   18  N   UNL     1     -42.008 -51.790  11.671  1.00  0.00    -0.350 N 
HETATM   19  C   UNL     1     -42.362 -52.732  12.603  1.00  0.00     0.060 A 
ATOM     20  HN  UNL     1     -42.581 -51.424  10.909  1.00  0.00     0.166 HD
HETATM   21  C   UNL     1     -43.580 -53.407  12.761  1.00  0.00     0.039 A 
HETATM   22  C   UNL     1     -41.313 -52.998  13.476  1.00  0.00     0.062 A 
HETATM   23  C   UNL     1     -43.728 -54.355  13.793  1.00  0.00    -0.054 A 
HETATM   24  C   UNL     1     -45.054 -55.055  13.925  1.00  0.00     0.049 C 
HETATM   25  C   UNL     1     -42.647 -54.623  14.660  1.00  0.00    -0.054 A 
HETATM   26  C   UNL     1     -42.733 -55.636  15.774  1.00  0.00     0.049 C 
HETATM   27  C   UNL     1     -41.421 -53.935  14.510  1.00  0.00     0.039 A 
ENDBRANCH  15  16
ENDBRANCH   1  15
TORSDOF 6
ENDMDL
MODEL 7
REMARK VINA RESULT:      -6.2      2.353      3.107
REMARK  6 active torsions:
REMARK  status: ('A' for Active; 'I' for Inactive)
REMARK    1  A    between atoms: S_2  and  C_4 
REMARK    2  A    between atoms: N_8  and  C_9 
REMARK    3  A    between atoms: C_9  and  C_10 
REMARK    4  A    between atoms: C_10  and  O_11 
REMARK    5  A    between atoms: C_10  and  C_12 
REMARK    6  A    between atoms: C_12  and  N_13 
ROOT
HETATM    1  C   UNL     1     -41.120 -50.845  11.923  1.00  0.00     0.156 C 
ENDROOT
BRANCH   1   2
HETATM    2  C   UNL     1     -40.154 -49.790  11.376  1.00  0.00     0.183 C 
BRANCH   2   3
HETATM    3  N   UNL     1     -40.762 -48.506  11.085  1.00  0.00    -0.283 N 
HETATM    4  C   UNL     1     -42.071 -48.189  10.910  1.00  0.00     0.202 A 
HETATM    5  N   UNL     1     -42.193 -46.889  10.774  1.00  0.00    -0.329 N 
HETATM    6  C   UNL     1     -40.895 -46.437  10.852  1.00  0.00     0.190 A 
ATOM      7  HN  UNL     1     -43.046 -46.344  10.643  1.00  0.00     0.168 HD
HETATM    8  N   UNL     1     -39.990 -47.407  11.045  1.00  0.00    -0.275 N 
ATOM      9  HN  UNL     1     -38.977 -47.331  11.137  1.00  0.00     0.189 HD
BRANCH   6  10
HETATM   10  S   UNL     1     -40.515 -44.739  10.746  1.00  0.00     0.081 S 
HETATM   11  C   UNL     1     -39.510 -44.677  12.245  1.00  0.00     0.136 C 
HETATM   12  O   UNL     1     -39.620 -44.515   9.560  1.00  0.00    -0.250 OA
ENDBRANCH   6  10
ENDBRANCH   2   3
ENDBRANCH   1   2
BRANCH   1  13
HETATM   13  O   UNL     1     -40.972 -52.059  11.179  1.00  0.00    -0.392 OA
HETATM   14  H   UNL     1     -40.036 -52.203  10.950  1.00  0.00     0.210 HD
ENDBRANCH   1  13
BRANCH   1  15
HETATM   15  C   UNL     1     -40.867 -51.096  13.416  1.00  0.00     0.163 C 
BRANCH  15  16
HETATM   16  N   UNL     1     -41.486 -52.329  13.869  1.00  0.00    -0.339 N 
HETATM   17  C   UNL     1     -40.800 -53.474  14.167  1.00  0.00     0.184 A 
HETATM   18  N   UNL     1     -41.610 -54.448  14.509  1.00  0.00    -0.350 N 
HETATM   19  C   UNL     1     -42.869 -53.912  14.423  1.00  0.00     0.060 A 
ATOM     20  HN  UNL     1     -41.358 -55.399  14.781  1.00  0.00     0.166 HD
HETATM   21  C   UNL     1     -44.110 -54.522  14.659  1.00  0.00     0.039 A 
HETATM   22  C   UNL     1     -42.826 -52.576  14.041  1.00  0.00     0.062 A 
HETATM   23  C   UNL     1     -45.297 -53.775  14.519  1.00  0.00    -0.054 A 
HETATM   24  C   UNL     1     -46.605 -54.472  14.782  1.00  0.00     0.049 C 
HETATM   25  C   UNL     1     -45.231 -52.416  14.145  1.00  0.00    -0.054 A 
HETATM   26  C   UNL     1     -46.460 -51.556  13.993  1.00  0.00     0.049 C 
HETATM   27  C   UNL     1     -43.982 -51.801  13.895  1.00  0.00     0.039 A 
ENDBRANCH  15  16
ENDBRANCH   1  15
TORSDOF 6
ENDMDL
MODEL 8
REMARK VINA RESULT:      -6.1      4.357      5.771
REMARK  6 active torsions:
REMARK  status: ('A' for Active; 'I' for Inactive)
REMARK    1  A    between atoms: S_2  and  C_4 
REMARK    2  A    between atoms: N_8  and  C_9 
REMARK    3  A    between atoms: C_9  and  C_10 
REMARK    4  A    between atoms: C_10  and  O_11 
REMARK    5  A    between atoms: C_10  and  C_12 
REMARK    6  A    between atoms: C_12  and  N_13 
ROOT
HETATM    1  C   UNL     1     -40.417 -50.279  11.528  1.00  0.00     0.156 C 
ENDROOT
BRANCH   1   2
HETATM    2  C   UNL     1     -41.326 -49.220  12.160  1.00  0.00     0.183 C 
BRANCH   2   3
HETATM    3  N   UNL     1     -41.657 -48.109  11.288  1.00  0.00    -0.283 N 
HETATM    4  C   UNL     1     -40.994 -46.941  11.086  1.00  0.00     0.202 A 
HETATM    5  N   UNL     1     -41.582 -46.263  10.128  1.00  0.00    -0.329 N 
HETATM    6  C   UNL     1     -42.644 -47.065   9.776  1.00  0.00     0.190 A 
ATOM      7  HN  UNL     1     -41.315 -45.359   9.738  1.00  0.00     0.168 HD
HETATM    8  N   UNL     1     -42.717 -48.209  10.470  1.00  0.00    -0.275 N 
ATOM      9  HN  UNL     1     -43.402 -48.962  10.396  1.00  0.00     0.189 HD
BRANCH   6  10
HETATM   10  S   UNL     1     -43.745 -46.608   8.504  1.00  0.00     0.081 S 
HETATM   11  C   UNL     1     -43.464 -48.068   7.479  1.00  0.00     0.136 C 
HETATM   12  O   UNL     1     -45.149 -46.660   9.036  1.00  0.00    -0.250 OA
ENDBRANCH   6  10
ENDBRANCH   2   3
ENDBRANCH   1   2
BRANCH   1  13
HETATM   13  O   UNL     1     -40.406 -50.112  10.107  1.00  0.00    -0.392 OA
HETATM   14  H   UNL     1     -39.820 -50.772   9.694  1.00  0.00     0.210 HD
ENDBRANCH   1  13
BRANCH   1  15
HETATM   15  C   UNL     1     -38.993 -50.182  12.091  1.00  0.00     0.163 C 
BRANCH  15  16
HETATM   16  N   UNL     1     -38.868 -50.866  13.367  1.00  0.00    -0.339 N 
HETATM   17  C   UNL     1     -39.486 -52.046  13.675  1.00  0.00     0.184 A 
HETATM   18  N   UNL     1     -39.237 -52.415  14.910  1.00  0.00    -0.350 N 
HETATM   19  C   UNL     1     -38.430 -51.431  15.420  1.00  0.00     0.060 A 
ATOM     20  HN  UNL     1     -39.571 -53.254  15.386  1.00  0.00     0.166 HD
HETATM   21  C   UNL     1     -37.884 -51.312  16.706  1.00  0.00     0.039 A 
HETATM   22  C   UNL     1     -38.164 -50.451  14.470  1.00  0.00     0.062 A 
HETATM   23  C   UNL     1     -37.063 -50.211  17.021  1.00  0.00    -0.054 A 
HETATM   24  C   UNL     1     -36.499 -50.124  18.414  1.00  0.00     0.049 C 
HETATM   25  C   UNL     1     -36.792 -49.234  16.038  1.00  0.00    -0.054 A 
HETATM   26  C   UNL     1     -35.911 -48.040  16.304  1.00  0.00     0.049 C 
HETATM   27  C   UNL     1     -37.351 -49.345  14.744  1.00  0.00     0.039 A 
ENDBRANCH  15  16
ENDBRANCH   1  15
TORSDOF 6
ENDMDL
MODEL 9
REMARK VINA RESULT:      -6.1      3.119      4.509
REMARK  6 active torsions:
REMARK  status: ('A' for Active; 'I' for Inactive)
REMARK    1  A    between atoms: S_2  and  C_4 
REMARK    2  A    between atoms: N_8  and  C_9 
REMARK    3  A    between atoms: C_9  and  C_10 
REMARK    4  A    between atoms: C_10  and  O_11 
REMARK    5  A    between atoms: C_10  and  C_12 
REMARK    6  A    between atoms: C_12  and  N_13 
ROOT
HETATM    1  C   UNL     1     -41.521 -49.555  13.598  1.00  0.00     0.156 C 
ENDROOT
BRANCH   1   2
HETATM    2  C   UNL     1     -40.734 -49.355  12.300  1.00  0.00     0.183 C 
BRANCH   2   3
HETATM    3  N   UNL     1     -41.316 -48.398  11.379  1.00  0.00    -0.283 N 
HETATM    4  C   UNL     1     -40.843 -47.192  10.971  1.00  0.00     0.202 A 
HETATM    5  N   UNL     1     -41.633 -46.701  10.044  1.00  0.00    -0.329 N 
HETATM    6  C   UNL     1     -42.618 -47.656   9.927  1.00  0.00     0.190 A 
ATOM      7  HN  UNL     1     -41.539 -45.823   9.533  1.00  0.00     0.168 HD
HETATM    8  N   UNL     1     -42.451 -48.714  10.734  1.00  0.00    -0.275 N 
ATOM      9  HN  UNL     1     -43.036 -49.544  10.832  1.00  0.00     0.189 HD
BRANCH   6  10
HETATM   10  S   UNL     1     -43.924 -47.479   8.786  1.00  0.00     0.081 S 
HETATM   11  C   UNL     1     -44.011 -45.678   8.879  1.00  0.00     0.136 C 
HETATM   12  O   UNL     1     -43.430 -47.864   7.420  1.00  0.00    -0.250 OA
ENDBRANCH   6  10
ENDBRANCH   2   3
ENDBRANCH   1   2
BRANCH   1  13
HETATM   13  O   UNL     1     -42.327 -48.399  13.849  1.00  0.00    -0.392 OA
HETATM   14  H   UNL     1     -43.112 -48.402  13.272  1.00  0.00     0.210 HD
ENDBRANCH   1  13
BRANCH   1  15
HETATM   15  C   UNL     1     -42.396 -50.813  13.518  1.00  0.00     0.163 C 
BRANCH  15  16
HETATM   16  N   UNL     1     -41.605 -52.006  13.271  1.00  0.00    -0.339 N 
HETATM   17  C   UNL     1     -41.582 -52.686  12.085  1.00  0.00     0.184 A 
HETATM   18  N   UNL     1     -40.818 -53.752  12.153  1.00  0.00    -0.350 N 
HETATM   19  C   UNL     1     -40.335 -53.762  13.436  1.00  0.00     0.060 A 
ATOM     20  HN  UNL     1     -40.626 -54.426  11.411  1.00  0.00     0.166 HD
HETATM   21  C   UNL     1     -39.487 -54.692  14.055  1.00  0.00     0.039 A 
HETATM   22  C   UNL     1     -40.796 -52.669  14.160  1.00  0.00     0.062 A 
HETATM   23  C   UNL     1     -39.101 -54.505  15.398  1.00  0.00    -0.054 A 
HETATM   24  C   UNL     1     -38.191 -55.529  16.021  1.00  0.00     0.049 C 
HETATM   25  C   UNL     1     -39.568 -53.380  16.112  1.00  0.00    -0.054 A 
HETATM   26  C   UNL     1     -39.181 -53.112  17.544  1.00  0.00     0.049 C 
HETATM   27  C   UNL     1     -40.432 -52.447  15.494  1.00  0.00     0.039 A 
ENDBRANCH  15  16
ENDBRANCH   1  15
TORSDOF 6
ENDMDL
