MODEL 1
REMARK VINA RESULT:      -6.4      0.000      0.000
REMARK  2 active torsions:
REMARK  status: ('A' for Active; 'I' for Inactive)
REMARK       I    between atoms: C_2  and  N_3 
REMARK       I    between atoms: C_2  and  N_11 
REMARK    1  A    between atoms: N_3  and  C_4 
REMARK    2  A    between atoms: N_11  and  C_12 
ROOT
HETATM    1  O   UNL     1     -39.958 -48.838  11.795  1.00  0.00    -0.247 OA
HETATM    2  C   UNL     1     -41.080 -48.884  11.294  1.00  0.00     0.322 C 
HETATM    3  N   UNL     1     -42.026 -49.794  11.646  1.00  0.00    -0.338 N 
HETATM    4  N   UNL     1     -41.411 -48.020  10.292  1.00  0.00    -0.295 N 
HETATM    5  H   UNL     1     -42.884 -49.750  11.102  1.00  0.00     0.164 HD
HETATM    6  H   UNL     1     -40.641 -47.436  10.006  1.00  0.00     0.172 HD
ENDROOT
BRANCH   3   7
HETATM    7  C   UNL     1     -41.814 -50.908  12.557  1.00  0.00     0.086 C 
HETATM    8  C   UNL     1     -41.288 -52.126  11.779  1.00  0.00     0.025 C 
HETATM    9  C   UNL     1     -40.707 -53.201  12.692  1.00  0.00     0.002 C 
HETATM   10  C   UNL     1     -41.711 -54.209  13.243  1.00  0.00     0.000 C 
HETATM   11  C   UNL     1     -43.088 -53.684  13.632  1.00  0.00     0.000 C 
HETATM   12  C   UNL     1     -43.090 -52.316  14.308  1.00  0.00     0.002 C 
HETATM   13  C   UNL     1     -43.125 -51.165  13.306  1.00  0.00     0.025 C 
ENDBRANCH   3   7
BRANCH   4  14
HETATM   14  C   UNL     1     -42.641 -47.870   9.640  1.00  0.00     0.108 A 
HETATM   15  C   UNL     1     -43.740 -47.490  10.399  1.00  0.00     0.049 A 
HETATM   16  C   UNL     1     -44.973 -47.336   9.767  1.00  0.00     0.005 A 
HETATM   17  C   UNL     1     -45.081 -47.595   8.407  1.00  0.00     0.017 A 
HETATM   18  C   UNL     1     -43.941 -47.980   7.729  1.00  0.00     0.089 A 
HETATM   19  N   UNL     1     -42.728 -48.099   8.310  1.00  0.00    -0.352 N 
ATOM     20  HN  UNL     1     -41.904 -48.352   7.764  1.00  0.00     0.166 HD
ENDBRANCH   4  14
TORSDOF 2
ENDMDL
MODEL 2
REMARK VINA RESULT:      -6.2      2.309      3.925
REMARK  2 active torsions:
REMARK  status: ('A' for Active; 'I' for Inactive)
REMARK       I    between atoms: C_2  and  N_3 
REMARK       I    between atoms: C_2  and  N_11 
REMARK    1  A    between atoms: N_3  and  C_4 
REMARK    2  A    between atoms: N_11  and  C_12 
ROOT
HETATM    1  O   UNL     1     -41.613 -52.808  12.176  1.00  0.00    -0.247 OA
HETATM    2  C   UNL     1     -41.760 -51.589  12.115  1.00  0.00     0.322 C 
HETATM    3  N   UNL     1     -42.747 -50.915  12.762  1.00  0.00    -0.338 N 
HETATM    4  N   UNL     1     -40.936 -50.845  11.322  1.00  0.00    -0.295 N 
HETATM    5  H   UNL     1     -42.782 -49.918  12.567  1.00  0.00     0.164 HD
HETATM    6  H   UNL     1     -40.290 -51.408  10.791  1.00  0.00     0.172 HD
ENDROOT
BRANCH   3   7
HETATM    7  C   UNL     1     -43.832 -51.536  13.506  1.00  0.00     0.086 C 
HETATM    8  C   UNL     1     -45.181 -50.970  13.033  1.00  0.00     0.025 C 
HETATM    9  C   UNL     1     -46.367 -51.810  13.496  1.00  0.00     0.002 C 
HETATM   10  C   UNL     1     -46.911 -51.472  14.880  1.00  0.00     0.000 C 
HETATM   11  C   UNL     1     -45.901 -51.103  15.960  1.00  0.00     0.000 C 
HETATM   12  C   UNL     1     -44.609 -51.917  15.941  1.00  0.00     0.002 C 
HETATM   13  C   UNL     1     -43.560 -51.332  15.000  1.00  0.00     0.025 C 
ENDBRANCH   3   7
BRANCH   4  14
HETATM   14  C   UNL     1     -40.899 -49.455  11.163  1.00  0.00     0.108 A 
HETATM   15  C   UNL     1     -39.869 -48.755  11.778  1.00  0.00     0.049 A 
HETATM   16  C   UNL     1     -39.816 -47.370  11.630  1.00  0.00     0.005 A 
HETATM   17  C   UNL     1     -40.806 -46.721  10.903  1.00  0.00     0.017 A 
HETATM   18  C   UNL     1     -41.802 -47.492  10.334  1.00  0.00     0.089 A 
HETATM   19  N   UNL     1     -41.853 -48.838  10.429  1.00  0.00    -0.352 N 
ATOM     20  HN  UNL     1     -42.587 -49.371   9.964  1.00  0.00     0.166 HD
ENDBRANCH   4  14
TORSDOF 2
ENDMDL
MODEL 3
REMARK VINA RESULT:      -6.0      3.593      6.944
REMARK  2 active torsions:
REMARK  status: ('A' for Active; 'I' for Inactive)
REMARK       I    between atoms: C_2  and  N_3 
REMARK       I    between atoms: C_2  and  N_11 
REMARK    1  A    between atoms: N_3  and  C_4 
REMARK    2  A    between atoms: N_11  and  C_12 
ROOT
HETATM    1  O   UNL     1     -42.466 -48.093   9.947  1.00  0.00    -0.247 OA
HETATM    2  C   UNL     1     -41.449 -48.297  10.607  1.00  0.00     0.322 C 
HETATM    3  N   UNL     1     -40.835 -47.346  11.359  1.00  0.00    -0.338 N 
HETATM    4  N   UNL     1     -40.849 -49.521  10.567  1.00  0.00    -0.295 N 
HETATM    5  H   UNL     1     -39.969 -47.644  11.800  1.00  0.00     0.164 HD
HETATM    6  H   UNL     1     -41.290 -50.154   9.919  1.00  0.00     0.172 HD
ENDROOT
BRANCH   3   7
HETATM    7  C   UNL     1     -41.207 -45.940  11.393  1.00  0.00     0.086 C 
HETATM    8  C   UNL     1     -39.947 -45.064  11.291  1.00  0.00     0.025 C 
HETATM    9  C   UNL     1     -40.267 -43.610  10.961  1.00  0.00     0.002 C 
HETATM   10  C   UNL     1     -40.577 -42.716  12.158  1.00  0.00     0.000 C 
HETATM   11  C   UNL     1     -41.382 -43.328  13.299  1.00  0.00     0.000 C 
HETATM   12  C   UNL     1     -42.509 -44.263  12.865  1.00  0.00     0.002 C 
HETATM   13  C   UNL     1     -42.034 -45.699  12.659  1.00  0.00     0.025 C 
ENDBRANCH   3   7
BRANCH   4  14
HETATM   14  C   UNL     1     -39.733 -49.969  11.284  1.00  0.00     0.108 A 
HETATM   15  C   UNL     1     -39.950 -50.594  12.506  1.00  0.00     0.049 A 
HETATM   16  C   UNL     1     -38.852 -51.048  13.234  1.00  0.00     0.005 A 
HETATM   17  C   UNL     1     -37.570 -50.837  12.740  1.00  0.00     0.017 A 
HETATM   18  C   UNL     1     -37.442 -50.197  11.522  1.00  0.00     0.089 A 
HETATM   19  N   UNL     1     -38.492 -49.784  10.780  1.00  0.00    -0.352 N 
ATOM     20  HN  UNL     1     -38.354 -49.347   9.869  1.00  0.00     0.166 HD
ENDBRANCH   4  14
TORSDOF 2
ENDMDL
MODEL 4
REMARK VINA RESULT:      -5.9      1.625      2.553
REMARK  2 active torsions:
REMARK  status: ('A' for Active; 'I' for Inactive)
REMARK       I    between atoms: C_2  and  N_3 
REMARK       I    between atoms: C_2  and  N_11 
REMARK    1  A    between atoms: N_3  and  C_4 
REMARK    2  A    between atoms: N_11  and  C_12 
ROOT
HETATM    1  O   UNL     1     -39.890 -51.890  12.111  1.00  0.00    -0.247 OA
HETATM    2  C   UNL     1     -40.847 -51.155  11.879  1.00  0.00     0.322 C 
HETATM    3  N   UNL     1     -42.139 -51.501  12.118  1.00  0.00    -0.338 N 
HETATM    4  N   UNL     1     -40.642 -49.936  11.303  1.00  0.00    -0.295 N 
HETATM    5  H   UNL     1     -42.828 -50.816  11.817  1.00  0.00     0.164 HD
HETATM    6  H   UNL     1     -39.677 -49.775  11.058  1.00  0.00     0.172 HD
ENDROOT
BRANCH   3   7
HETATM    7  C   UNL     1     -42.584 -52.815  12.556  1.00  0.00     0.086 C 
HETATM    8  C   UNL     1     -44.120 -52.869  12.568  1.00  0.00     0.025 C 
HETATM    9  C   UNL     1     -44.659 -54.293  12.665  1.00  0.00     0.002 C 
HETATM   10  C   UNL     1     -44.804 -54.847  14.079  1.00  0.00     0.000 C 
HETATM   11  C   UNL     1     -43.725 -54.477  15.090  1.00  0.00     0.000 C 
HETATM   12  C   UNL     1     -42.303 -54.452  14.536  1.00  0.00     0.002 C 
HETATM   13  C   UNL     1     -41.939 -53.106  13.914  1.00  0.00     0.025 C 
ENDBRANCH   3   7
BRANCH   4  14
HETATM   14  C   UNL     1     -41.580 -48.937  11.016  1.00  0.00     0.108 A 
HETATM   15  C   UNL     1     -42.207 -48.306  12.082  1.00  0.00     0.049 A 
HETATM   16  C   UNL     1     -43.144 -47.308  11.817  1.00  0.00     0.005 A 
HETATM   17  C   UNL     1     -43.451 -46.992  10.499  1.00  0.00     0.017 A 
HETATM   18  C   UNL     1     -42.789 -47.676   9.498  1.00  0.00     0.089 A 
HETATM   19  N   UNL     1     -41.850 -48.618   9.729  1.00  0.00    -0.352 N 
ATOM     20  HN  UNL     1     -41.360 -49.074   8.960  1.00  0.00     0.166 HD
ENDBRANCH   4  14
TORSDOF 2
ENDMDL
MODEL 5
REMARK VINA RESULT:      -5.7      2.545      5.583
REMARK  2 active torsions:
REMARK  status: ('A' for Active; 'I' for Inactive)
REMARK       I    between atoms: C_2  and  N_3 
REMARK       I    between atoms: C_2  and  N_11 
REMARK    1  A    between atoms: N_3  and  C_4 
REMARK    2  A    between atoms: N_11  and  C_12 
ROOT
HETATM    1  O   UNL     1     -40.908 -52.202  11.906  1.00  0.00    -0.247 OA
HETATM    2  C   UNL     1     -42.003 -51.731  12.205  1.00  0.00     0.322 C 
HETATM    3  N   UNL     1     -42.324 -50.418  12.062  1.00  0.00    -0.338 N 
HETATM    4  N   UNL     1     -42.957 -52.532  12.760  1.00  0.00    -0.295 N 
HETATM    5  H   UNL     1     -43.245 -50.163  12.410  1.00  0.00     0.164 HD
HETATM    6  H   UNL     1     -42.631 -53.469  12.934  1.00  0.00     0.172 HD
ENDROOT
BRANCH   3   7
HETATM    7  C   UNL     1     -41.396 -49.371  11.662  1.00  0.00     0.086 C 
HETATM    8  C   UNL     1     -40.598 -48.887  12.884  1.00  0.00     0.025 C 
HETATM    9  C   UNL     1     -39.374 -48.062  12.498  1.00  0.00     0.002 C 
HETATM   10  C   UNL     1     -39.623 -46.572  12.290  1.00  0.00     0.000 C 
HETATM   11  C   UNL     1     -40.931 -46.167  11.621  1.00  0.00     0.000 C 
HETATM   12  C   UNL     1     -41.380 -47.074  10.479  1.00  0.00     0.002 C 
HETATM   13  C   UNL     1     -42.197 -48.269  10.963  1.00  0.00     0.025 C 
ENDBRANCH   3   7
BRANCH   4  14
HETATM   14  C   UNL     1     -44.273 -52.207  13.111  1.00  0.00     0.108 A 
HETATM   15  C   UNL     1     -44.508 -51.730  14.393  1.00  0.00     0.049 A 
HETATM   16  C   UNL     1     -45.812 -51.401  14.761  1.00  0.00     0.005 A 
HETATM   17  C   UNL     1     -46.845 -51.587  13.852  1.00  0.00     0.017 A 
HETATM   18  C   UNL     1     -46.527 -52.078  12.600  1.00  0.00     0.089 A 
HETATM   19  N   UNL     1     -45.268 -52.366  12.208  1.00  0.00    -0.352 N 
ATOM     20  HN  UNL     1     -45.073 -52.694  11.262  1.00  0.00     0.166 HD
ENDBRANCH   4  14
TORSDOF 2
ENDMDL
MODEL 6
REMARK VINA RESULT:      -5.7      4.388      6.627
REMARK  2 active torsions:
REMARK  status: ('A' for Active; 'I' for Inactive)
REMARK       I    between atoms: C_2  and  N_3 
REMARK       I    between atoms: C_2  and  N_11 
REMARK    1  A    between atoms: N_3  and  C_4 
REMARK    2  A    between atoms: N_11  and  C_12 
ROOT
HETATM    1  O   UNL     1     -46.708 -51.683  12.696  1.00  0.00    -0.247 OA
HETATM    2  C   UNL     1     -45.574 -51.962  13.077  1.00  0.00     0.322 C 
HETATM    3  N   UNL     1     -45.120 -51.718  14.335  1.00  0.00    -0.338 N 
HETATM    4  N   UNL     1     -44.677 -52.501  12.202  1.00  0.00    -0.295 N 
HETATM    5  H   UNL     1     -44.140 -51.945  14.487  1.00  0.00     0.164 HD
HETATM    6  H   UNL     1     -45.036 -52.567  11.263  1.00  0.00     0.172 HD
ENDROOT
BRANCH   3   7
HETATM    7  C   UNL     1     -45.852 -50.990  15.359  1.00  0.00     0.086 C 
HETATM    8  C   UNL     1     -44.916 -50.662  16.535  1.00  0.00     0.025 C 
HETATM    9  C   UNL     1     -45.496 -49.607  17.472  1.00  0.00     0.002 C 
HETATM   10  C   UNL     1     -46.408 -50.136  18.574  1.00  0.00     0.000 C 
HETATM   11  C   UNL     1     -47.340 -51.289  18.220  1.00  0.00     0.000 C 
HETATM   12  C   UNL     1     -47.965 -51.210  16.830  1.00  0.00     0.002 C 
HETATM   13  C   UNL     1     -47.077 -51.822  15.750  1.00  0.00     0.025 C 
ENDBRANCH   3   7
BRANCH   4  14
HETATM   14  C   UNL     1     -43.371 -52.940  12.451  1.00  0.00     0.108 A 
HETATM   15  C   UNL     1     -43.190 -53.953  13.383  1.00  0.00     0.049 A 
HETATM   16  C   UNL     1     -41.897 -54.404  13.644  1.00  0.00     0.005 A 
HETATM   17  C   UNL     1     -40.822 -53.812  12.992  1.00  0.00     0.017 A 
HETATM   18  C   UNL     1     -41.090 -52.802  12.088  1.00  0.00     0.089 A 
HETATM   19  N   UNL     1     -42.335 -52.375  11.790  1.00  0.00    -0.352 N 
ATOM     20  HN  UNL     1     -42.490 -51.650  11.089  1.00  0.00     0.166 HD
ENDBRANCH   4  14
TORSDOF 2
ENDMDL
MODEL 7
REMARK VINA RESULT:      -5.5      1.888      2.340
REMARK  2 active torsions:
REMARK  status: ('A' for Active; 'I' for Inactive)
REMARK       I    between atoms: C_2  and  N_3 
REMARK       I    between atoms: C_2  and  N_11 
REMARK    1  A    between atoms: N_3  and  C_4 
REMARK    2  A    between atoms: N_11  and  C_12 
ROOT
HETATM    1  O   UNL     1     -42.423 -48.821  14.049  1.00  0.00    -0.247 OA
HETATM    2  C   UNL     1     -42.969 -48.903  12.951  1.00  0.00     0.322 C 
HETATM    3  N   UNL     1     -43.725 -49.963  12.562  1.00  0.00    -0.338 N 
HETATM    4  N   UNL     1     -42.788 -47.915  12.028  1.00  0.00    -0.295 N 
HETATM    5  H   UNL     1     -44.061 -49.920  11.603  1.00  0.00     0.164 HD
HETATM    6  H   UNL     1     -42.141 -47.206  12.334  1.00  0.00     0.172 HD
ENDROOT
BRANCH   3   7
HETATM    7  C   UNL     1     -43.892 -51.193  13.322  1.00  0.00     0.086 C 
HETATM    8  C   UNL     1     -43.323 -52.379  12.526  1.00  0.00     0.025 C 
HETATM    9  C   UNL     1     -43.133 -53.626  13.385  1.00  0.00     0.002 C 
HETATM   10  C   UNL     1     -44.356 -54.528  13.516  1.00  0.00     0.000 C 
HETATM   11  C   UNL     1     -45.717 -53.850  13.626  1.00  0.00     0.000 C 
HETATM   12  C   UNL     1     -45.740 -52.582  14.475  1.00  0.00     0.002 C 
HETATM   13  C   UNL     1     -45.375 -51.333  13.677  1.00  0.00     0.025 C 
ENDBRANCH   3   7
BRANCH   4  14
HETATM   14  C   UNL     1     -43.364 -47.792  10.758  1.00  0.00     0.108 A 
HETATM   15  C   UNL     1     -42.524 -47.834   9.654  1.00  0.00     0.049 A 
HETATM   16  C   UNL     1     -43.079 -47.713   8.381  1.00  0.00     0.005 A 
HETATM   17  C   UNL     1     -44.449 -47.521   8.248  1.00  0.00     0.017 A 
HETATM   18  C   UNL     1     -45.212 -47.480   9.399  1.00  0.00     0.089 A 
HETATM   19  N   UNL     1     -44.703 -47.634  10.640  1.00  0.00    -0.352 N 
ATOM     20  HN  UNL     1     -45.307 -47.632  11.462  1.00  0.00     0.166 HD
ENDBRANCH   4  14
TORSDOF 2
ENDMDL
MODEL 8
REMARK VINA RESULT:      -5.5      3.954      5.683
REMARK  2 active torsions:
REMARK  status: ('A' for Active; 'I' for Inactive)
REMARK       I    between atoms: C_2  and  N_3 
REMARK       I    between atoms: C_2  and  N_11 
REMARK    1  A    between atoms: N_3  and  C_4 
REMARK    2  A    between atoms: N_11  and  C_12 
ROOT
HETATM    1  O   UNL     1     -41.066 -54.425  12.872  1.00  0.00    -0.247 OA
HETATM    2  C   UNL     1     -41.918 -53.555  13.038  1.00  0.00     0.322 C 
HETATM    3  N   UNL     1     -41.677 -52.226  12.890  1.00  0.00    -0.338 N 
HETATM    4  N   UNL     1     -43.173 -53.904  13.442  1.00  0.00    -0.295 N 
HETATM    5  H   UNL     1     -42.462 -51.622  13.121  1.00  0.00     0.164 HD
HETATM    6  H   UNL     1     -43.265 -54.889  13.631  1.00  0.00     0.172 HD
ENDROOT
BRANCH   3   7
HETATM    7  C   UNL     1     -40.370 -51.637  12.643  1.00  0.00     0.086 C 
HETATM    8  C   UNL     1     -39.589 -51.529  13.963  1.00  0.00     0.025 C 
HETATM    9  C   UNL     1     -38.102 -51.263  13.747  1.00  0.00     0.002 C 
HETATM   10  C   UNL     1     -37.711 -49.797  13.599  1.00  0.00     0.000 C 
HETATM   11  C   UNL     1     -38.663 -48.891  12.827  1.00  0.00     0.000 C 
HETATM   12  C   UNL     1     -39.304 -49.529  11.597  1.00  0.00     0.002 C 
HETATM   13  C   UNL     1     -40.580 -50.298  11.931  1.00  0.00     0.025 C 
ENDBRANCH   3   7
BRANCH   4  14
HETATM   14  C   UNL     1     -44.290 -53.081  13.626  1.00  0.00     0.108 A 
HETATM   15  C   UNL     1     -45.192 -52.960  12.577  1.00  0.00     0.049 A 
HETATM   16  C   UNL     1     -46.311 -52.145  12.742  1.00  0.00     0.005 A 
HETATM   17  C   UNL     1     -46.482 -51.451  13.933  1.00  0.00     0.017 A 
HETATM   18  C   UNL     1     -45.531 -51.618  14.922  1.00  0.00     0.089 A 
HETATM   19  N   UNL     1     -44.461 -52.432  14.801  1.00  0.00    -0.352 N 
ATOM     20  HN  UNL     1     -43.801 -52.553  15.570  1.00  0.00     0.166 HD
ENDBRANCH   4  14
TORSDOF 2
ENDMDL
MODEL 9
REMARK VINA RESULT:      -5.5      3.725      5.339
REMARK  2 active torsions:
REMARK  status: ('A' for Active; 'I' for Inactive)
REMARK       I    between atoms: C_2  and  N_3 
REMARK       I    between atoms: C_2  and  N_11 
REMARK    1  A    between atoms: N_3  and  C_4 
REMARK    2  A    between atoms: N_11  and  C_12 
ROOT
HETATM    1  O   UNL     1     -40.884 -53.396  12.007  1.00  0.00    -0.247 OA
HETATM    2  C   UNL     1     -41.822 -52.727  12.434  1.00  0.00     0.322 C 
HETATM    3  N   UNL     1     -41.706 -51.434  12.835  1.00  0.00    -0.338 N 
HETATM    4  N   UNL     1     -43.053 -53.298  12.575  1.00  0.00    -0.295 N 
HETATM    5  H   UNL     1     -42.554 -51.029  13.223  1.00  0.00     0.164 HD
HETATM    6  H   UNL     1     -43.057 -54.282  12.357  1.00  0.00     0.172 HD
ENDROOT
BRANCH   3   7
HETATM    7  C   UNL     1     -40.453 -50.701  12.936  1.00  0.00     0.086 C 
HETATM    8  C   UNL     1     -40.029 -50.198  11.546  1.00  0.00     0.025 C 
HETATM    9  C   UNL     1     -38.939 -49.133  11.613  1.00  0.00     0.002 C 
HETATM   10  C   UNL     1     -37.508 -49.659  11.664  1.00  0.00     0.000 C 
HETATM   11  C   UNL     1     -37.254 -50.919  12.484  1.00  0.00     0.000 C 
HETATM   12  C   UNL     1     -38.035 -51.006  13.793  1.00  0.00     0.002 C 
HETATM   13  C   UNL     1     -39.423 -51.613  13.610  1.00  0.00     0.025 C 
ENDBRANCH   3   7
BRANCH   4  14
HETATM   14  C   UNL     1     -44.251 -52.699  12.981  1.00  0.00     0.108 A 
HETATM   15  C   UNL     1     -44.401 -52.385  14.325  1.00  0.00     0.049 A 
HETATM   16  C   UNL     1     -45.587 -51.787  14.749  1.00  0.00     0.005 A 
HETATM   17  C   UNL     1     -46.599 -51.550  13.827  1.00  0.00     0.017 A 
HETATM   18  C   UNL     1     -46.374 -51.903  12.511  1.00  0.00     0.089 A 
HETATM   19  N   UNL     1     -45.219 -52.447  12.070  1.00  0.00    -0.352 N 
ATOM     20  HN  UNL     1     -45.081 -52.660  11.082  1.00  0.00     0.166 HD
ENDBRANCH   4  14
TORSDOF 2
ENDMDL
