MODEL 1
REMARK VINA RESULT:      -6.5      0.000      0.000
REMARK  5 active torsions:
REMARK  status: ('A' for Active; 'I' for Inactive)
REMARK       I    between atoms: C_2  and  N_3 
REMARK       I    between atoms: C_2  and  N_13 
REMARK    1  A    between atoms: N_3  and  C_4 
REMARK    2  A    between atoms: C_4  and  C_5 
REMARK    3  A    between atoms: C_5  and  C_6 
REMARK    4  A    between atoms: N_13  and  C_14 
REMARK    5  A    between atoms: C_14  and  C_15 
ROOT
HETATM    1  O   UNL     1     -41.388 -51.066  13.384  1.00  0.00    -0.247 OA
HETATM    2  C   UNL     1     -41.499 -51.366  12.205  1.00  0.00     0.316 C 
HETATM    3  N   UNL     1     -42.191 -52.458  11.746  1.00  0.00    -0.343 N 
HETATM    4  N   UNL     1     -40.890 -50.687  11.181  1.00  0.00    -0.343 N 
HETATM    5  H   UNL     1     -42.581 -52.360  10.821  1.00  0.00     0.164 HD
HETATM    6  H   UNL     1     -41.069 -50.987  10.235  1.00  0.00     0.164 HD
ENDROOT
BRANCH   3   7
HETATM    7  C   UNL     1     -42.928 -53.307  12.677  1.00  0.00     0.130 C 
BRANCH   7   8
HETATM    8  C   UNL     1     -44.378 -53.471  12.235  1.00  0.00     0.076 C 
BRANCH   8   9
HETATM    9  C   UNL     1     -45.382 -52.993  13.249  1.00  0.00     0.010 A 
HETATM   10  C   UNL     1     -45.481 -51.641  13.568  1.00  0.00     0.025 A 
HETATM   11  C   UNL     1     -46.351 -51.249  14.582  1.00  0.00     0.003 A 
HETATM   12  C   UNL     1     -47.106 -52.211  15.241  1.00  0.00     0.017 A 
HETATM   13  C   UNL     1     -46.967 -53.530  14.846  1.00  0.00     0.088 A 
HETATM   14  N   UNL     1     -46.127 -53.940  13.871  1.00  0.00    -0.369 N 
ATOM     15  HN  UNL     1     -46.056 -54.924  13.612  1.00  0.00     0.165 HD
ENDBRANCH   8   9
ENDBRANCH   7   8
ENDBRANCH   3   7
BRANCH   4  16
HETATM   16  C   UNL     1     -40.084 -49.498  11.391  1.00  0.00     0.130 C 
BRANCH  16  17
HETATM   17  C   UNL     1     -40.888 -48.193  11.448  1.00  0.00     0.018 C 
HETATM   18  C   UNL     1     -42.067 -48.143  10.452  1.00  0.00     0.022 C 
HETATM   19  C   UNL     1     -42.333 -46.701  10.013  1.00  0.00     0.141 C 
HETATM   20  S   UNL     1     -41.219 -45.657  10.918  1.00  0.00     0.144 S 
HETATM   21  O   UNL     1     -40.651 -44.677  10.018  1.00  0.00    -0.228 OA
HETATM   22  O   UNL     1     -41.862 -45.281  12.163  1.00  0.00    -0.228 OA
HETATM   23  C   UNL     1     -40.040 -46.937  11.252  1.00  0.00     0.146 C 
ENDBRANCH  16  17
ENDBRANCH   4  16
TORSDOF 5
ENDMDL
MODEL 2
REMARK VINA RESULT:      -6.4      3.559      7.185
REMARK  5 active torsions:
REMARK  status: ('A' for Active; 'I' for Inactive)
REMARK       I    between atoms: C_2  and  N_3 
REMARK       I    between atoms: C_2  and  N_13 
REMARK    1  A    between atoms: N_3  and  C_4 
REMARK    2  A    between atoms: C_4  and  C_5 
REMARK    3  A    between atoms: C_5  and  C_6 
REMARK    4  A    between atoms: N_13  and  C_14 
REMARK    5  A    between atoms: C_14  and  C_15 
ROOT
HETATM    1  O   UNL     1     -40.917 -51.008  13.311  1.00  0.00    -0.247 OA
HETATM    2  C   UNL     1     -41.054 -51.480  12.192  1.00  0.00     0.316 C 
HETATM    3  N   UNL     1     -40.891 -50.772  11.029  1.00  0.00    -0.343 N 
HETATM    4  N   UNL     1     -41.455 -52.768  11.948  1.00  0.00    -0.343 N 
HETATM    5  H   UNL     1     -40.592 -51.317  10.234  1.00  0.00     0.164 HD
HETATM    6  H   UNL     1     -41.504 -53.080  10.990  1.00  0.00     0.164 HD
ENDROOT
BRANCH   3   7
HETATM    7  C   UNL     1     -40.448 -49.381  11.068  1.00  0.00     0.130 C 
BRANCH   7   8
HETATM    8  C   UNL     1     -41.555 -48.471  11.589  1.00  0.00     0.076 C 
BRANCH   8   9
HETATM    9  C   UNL     1     -42.542 -48.048  10.535  1.00  0.00     0.010 A 
HETATM   10  C   UNL     1     -43.835 -47.665  10.883  1.00  0.00     0.025 A 
HETATM   11  C   UNL     1     -44.749 -47.376   9.872  1.00  0.00     0.003 A 
HETATM   12  C   UNL     1     -44.347 -47.465   8.545  1.00  0.00     0.017 A 
HETATM   13  C   UNL     1     -43.037 -47.828   8.286  1.00  0.00     0.088 A 
HETATM   14  N   UNL     1     -42.131 -48.120   9.244  1.00  0.00    -0.369 N 
ATOM     15  HN  UNL     1     -41.174 -48.384   9.007  1.00  0.00     0.165 HD
ENDBRANCH   8   9
ENDBRANCH   7   8
ENDBRANCH   3   7
BRANCH   4  16
HETATM   16  C   UNL     1     -41.710 -53.730  13.005  1.00  0.00     0.130 C 
BRANCH  16  17
HETATM   17  C   UNL     1     -43.175 -54.175  13.112  1.00  0.00     0.018 C 
HETATM   18  C   UNL     1     -44.165 -53.242  12.382  1.00  0.00     0.022 C 
HETATM   19  C   UNL     1     -45.524 -53.253  13.085  1.00  0.00     0.141 C 
HETATM   20  S   UNL     1     -45.425 -54.426  14.413  1.00  0.00     0.144 S 
HETATM   21  O   UNL     1     -46.038 -53.857  15.594  1.00  0.00    -0.228 OA
HETATM   22  O   UNL     1     -45.804 -55.728  13.898  1.00  0.00    -0.228 OA
HETATM   23  C   UNL     1     -43.659 -54.360  14.549  1.00  0.00     0.146 C 
ENDBRANCH  16  17
ENDBRANCH   4  16
TORSDOF 5
ENDMDL
MODEL 3
REMARK VINA RESULT:      -6.3      3.562      7.873
REMARK  5 active torsions:
REMARK  status: ('A' for Active; 'I' for Inactive)
REMARK       I    between atoms: C_2  and  N_3 
REMARK       I    between atoms: C_2  and  N_13 
REMARK    1  A    between atoms: N_3  and  C_4 
REMARK    2  A    between atoms: C_4  and  C_5 
REMARK    3  A    between atoms: C_5  and  C_6 
REMARK    4  A    between atoms: N_13  and  C_14 
REMARK    5  A    between atoms: C_14  and  C_15 
ROOT
HETATM    1  O   UNL     1     -40.944 -51.040  13.318  1.00  0.00    -0.247 OA
HETATM    2  C   UNL     1     -41.069 -51.513  12.198  1.00  0.00     0.316 C 
HETATM    3  N   UNL     1     -40.902 -50.804  11.036  1.00  0.00    -0.343 N 
HETATM    4  N   UNL     1     -41.459 -52.804  11.950  1.00  0.00    -0.343 N 
HETATM    5  H   UNL     1     -40.594 -51.346  10.243  1.00  0.00     0.164 HD
HETATM    6  H   UNL     1     -41.500 -53.116  10.992  1.00  0.00     0.164 HD
ENDROOT
BRANCH   3   7
HETATM    7  C   UNL     1     -40.469 -49.410  11.079  1.00  0.00     0.130 C 
BRANCH   7   8
HETATM    8  C   UNL     1     -41.649 -48.465  10.873  1.00  0.00     0.076 C 
BRANCH   8   9
HETATM    9  C   UNL     1     -41.281 -47.008  10.944  1.00  0.00     0.010 A 
HETATM   10  C   UNL     1     -42.208 -46.060  11.369  1.00  0.00     0.025 A 
HETATM   11  C   UNL     1     -41.863 -44.712  11.327  1.00  0.00     0.003 A 
HETATM   12  C   UNL     1     -40.601 -44.346  10.875  1.00  0.00     0.017 A 
HETATM   13  C   UNL     1     -39.729 -45.351  10.495  1.00  0.00     0.088 A 
HETATM   14  N   UNL     1     -40.039 -46.666  10.519  1.00  0.00    -0.369 N 
ATOM     15  HN  UNL     1     -39.365 -47.375  10.229  1.00  0.00     0.165 HD
ENDBRANCH   8   9
ENDBRANCH   7   8
ENDBRANCH   3   7
BRANCH   4  16
HETATM   16  C   UNL     1     -41.716 -53.768  13.005  1.00  0.00     0.130 C 
BRANCH  16  17
HETATM   17  C   UNL     1     -43.177 -54.227  13.098  1.00  0.00     0.018 C 
HETATM   18  C   UNL     1     -44.172 -53.292  12.378  1.00  0.00     0.022 C 
HETATM   19  C   UNL     1     -45.535 -53.325  13.073  1.00  0.00     0.141 C 
HETATM   20  S   UNL     1     -45.432 -54.517  14.384  1.00  0.00     0.144 S 
HETATM   21  O   UNL     1     -46.055 -53.972  15.570  1.00  0.00    -0.228 OA
HETATM   22  O   UNL     1     -45.797 -55.814  13.847  1.00  0.00    -0.228 OA
HETATM   23  C   UNL     1     -43.667 -54.438  14.529  1.00  0.00     0.146 C 
ENDBRANCH  16  17
ENDBRANCH   4  16
TORSDOF 5
ENDMDL
MODEL 4
REMARK VINA RESULT:      -6.2      1.848      2.623
REMARK  5 active torsions:
REMARK  status: ('A' for Active; 'I' for Inactive)
REMARK       I    between atoms: C_2  and  N_3 
REMARK       I    between atoms: C_2  and  N_13 
REMARK    1  A    between atoms: N_3  and  C_4 
REMARK    2  A    between atoms: C_4  and  C_5 
REMARK    3  A    between atoms: C_5  and  C_6 
REMARK    4  A    between atoms: N_13  and  C_14 
REMARK    5  A    between atoms: C_14  and  C_15 
ROOT
HETATM    1  O   UNL     1     -42.012 -50.047  12.574  1.00  0.00    -0.247 OA
HETATM    2  C   UNL     1     -41.080 -50.210  11.801  1.00  0.00     0.316 C 
HETATM    3  N   UNL     1     -40.136 -51.198  11.924  1.00  0.00    -0.343 N 
HETATM    4  N   UNL     1     -40.811 -49.384  10.740  1.00  0.00    -0.343 N 
HETATM    5  H   UNL     1     -39.723 -51.506  11.057  1.00  0.00     0.164 HD
HETATM    6  H   UNL     1     -40.040 -49.619  10.134  1.00  0.00     0.164 HD
ENDROOT
BRANCH   3   7
HETATM    7  C   UNL     1     -40.248 -52.196  12.984  1.00  0.00     0.130 C 
BRANCH   7   8
HETATM    8  C   UNL     1     -40.914 -53.467  12.468  1.00  0.00     0.076 C 
BRANCH   8   9
HETATM    9  C   UNL     1     -42.350 -53.618  12.894  1.00  0.00     0.010 A 
HETATM   10  C   UNL     1     -42.687 -54.412  13.988  1.00  0.00     0.025 A 
HETATM   11  C   UNL     1     -44.032 -54.607  14.291  1.00  0.00     0.003 A 
HETATM   12  C   UNL     1     -45.002 -53.996  13.506  1.00  0.00     0.017 A 
HETATM   13  C   UNL     1     -44.582 -53.202  12.453  1.00  0.00     0.088 A 
HETATM   14  N   UNL     1     -43.285 -53.001  12.131  1.00  0.00    -0.369 N 
ATOM     15  HN  UNL     1     -43.020 -52.407  11.345  1.00  0.00     0.165 HD
ENDBRANCH   8   9
ENDBRANCH   7   8
ENDBRANCH   3   7
BRANCH   4  16
HETATM   16  C   UNL     1     -41.647 -48.250  10.391  1.00  0.00     0.130 C 
BRANCH  16  17
HETATM   17  C   UNL     1     -41.360 -46.981  11.205  1.00  0.00     0.018 C 
HETATM   18  C   UNL     1     -42.628 -46.201  11.613  1.00  0.00     0.022 C 
HETATM   19  C   UNL     1     -42.323 -44.705  11.717  1.00  0.00     0.141 C 
HETATM   20  S   UNL     1     -40.587 -44.495  11.414  1.00  0.00     0.144 S 
HETATM   21  O   UNL     1     -40.394 -43.365  10.531  1.00  0.00    -0.228 OA
HETATM   22  O   UNL     1     -39.889 -44.614  12.680  1.00  0.00    -0.228 OA
HETATM   23  C   UNL     1     -40.400 -46.011  10.517  1.00  0.00     0.146 C 
ENDBRANCH  16  17
ENDBRANCH   4  16
TORSDOF 5
ENDMDL
MODEL 5
REMARK VINA RESULT:      -6.0      4.566      5.999
REMARK  5 active torsions:
REMARK  status: ('A' for Active; 'I' for Inactive)
REMARK       I    between atoms: C_2  and  N_3 
REMARK       I    between atoms: C_2  and  N_13 
REMARK    1  A    between atoms: N_3  and  C_4 
REMARK    2  A    between atoms: C_4  and  C_5 
REMARK    3  A    between atoms: C_5  and  C_6 
REMARK    4  A    between atoms: N_13  and  C_14 
REMARK    5  A    between atoms: C_14  and  C_15 
ROOT
HETATM    1  O   UNL     1     -42.449 -49.135  11.792  1.00  0.00    -0.247 OA
HETATM    2  C   UNL     1     -41.561 -48.956  10.972  1.00  0.00     0.316 C 
HETATM    3  N   UNL     1     -41.551 -47.938  10.052  1.00  0.00    -0.343 N 
HETATM    4  N   UNL     1     -40.482 -49.788  10.816  1.00  0.00    -0.343 N 
HETATM    5  H   UNL     1     -40.635 -47.629   9.764  1.00  0.00     0.164 HD
HETATM    6  H   UNL     1     -39.780 -49.538  10.136  1.00  0.00     0.164 HD
ENDROOT
BRANCH   3   7
HETATM    7  C   UNL     1     -42.606 -46.928  10.060  1.00  0.00     0.130 C 
BRANCH   7   8
HETATM    8  C   UNL     1     -43.178 -46.726   8.660  1.00  0.00     0.076 C 
BRANCH   8   9
HETATM    9  C   UNL     1     -44.460 -47.476   8.413  1.00  0.00     0.010 A 
HETATM   10  C   UNL     1     -45.484 -47.463   9.357  1.00  0.00     0.025 A 
HETATM   11  C   UNL     1     -46.613 -48.248   9.137  1.00  0.00     0.003 A 
HETATM   12  C   UNL     1     -46.696 -49.013   7.981  1.00  0.00     0.017 A 
HETATM   13  C   UNL     1     -45.646 -48.948   7.081  1.00  0.00     0.088 A 
HETATM   14  N   UNL     1     -44.536 -48.202   7.271  1.00  0.00    -0.369 N 
ATOM     15  HN  UNL     1     -43.785 -48.184   6.581  1.00  0.00     0.165 HD
ENDBRANCH   8   9
ENDBRANCH   7   8
ENDBRANCH   3   7
BRANCH   4  16
HETATM   16  C   UNL     1     -40.256 -50.952  11.653  1.00  0.00     0.130 C 
BRANCH  16  17
HETATM   17  C   UNL     1     -39.384 -50.682  12.886  1.00  0.00     0.018 C 
HETATM   18  C   UNL     1     -40.186 -50.276  14.141  1.00  0.00     0.022 C 
HETATM   19  C   UNL     1     -39.355 -49.348  15.028  1.00  0.00     0.141 C 
HETATM   20  S   UNL     1     -37.752 -49.195  14.282  1.00  0.00     0.144 S 
HETATM   21  O   UNL     1     -37.344 -47.808  14.314  1.00  0.00    -0.228 OA
HETATM   22  O   UNL     1     -36.910 -50.260  14.795  1.00  0.00    -0.228 OA
HETATM   23  C   UNL     1     -38.295 -49.636  12.653  1.00  0.00     0.146 C 
ENDBRANCH  16  17
ENDBRANCH   4  16
TORSDOF 5
ENDMDL
MODEL 6
REMARK VINA RESULT:      -5.9      3.912      7.926
REMARK  5 active torsions:
REMARK  status: ('A' for Active; 'I' for Inactive)
REMARK       I    between atoms: C_2  and  N_3 
REMARK       I    between atoms: C_2  and  N_13 
REMARK    1  A    between atoms: N_3  and  C_4 
REMARK    2  A    between atoms: C_4  and  C_5 
REMARK    3  A    between atoms: C_5  and  C_6 
REMARK    4  A    between atoms: N_13  and  C_14 
REMARK    5  A    between atoms: C_14  and  C_15 
ROOT
HETATM    1  O   UNL     1     -40.650 -51.370  13.611  1.00  0.00    -0.247 OA
HETATM    2  C   UNL     1     -40.782 -51.786  12.469  1.00  0.00     0.316 C 
HETATM    3  N   UNL     1     -40.528 -51.045  11.343  1.00  0.00    -0.343 N 
HETATM    4  N   UNL     1     -41.266 -53.030  12.157  1.00  0.00    -0.343 N 
HETATM    5  H   UNL     1     -40.241 -51.578  10.536  1.00  0.00     0.164 HD
HETATM    6  H   UNL     1     -41.304 -53.298  11.186  1.00  0.00     0.164 HD
ENDROOT
BRANCH   3   7
HETATM    7  C   UNL     1     -39.987 -49.693  11.457  1.00  0.00     0.130 C 
BRANCH   7   8
HETATM    8  C   UNL     1     -38.470 -49.722  11.603  1.00  0.00     0.076 C 
BRANCH   8   9
HETATM    9  C   UNL     1     -37.988 -49.436  13.000  1.00  0.00     0.010 A 
HETATM   10  C   UNL     1     -37.883 -48.126  13.462  1.00  0.00     0.025 A 
HETATM   11  C   UNL     1     -37.341 -47.897  14.723  1.00  0.00     0.003 A 
HETATM   12  C   UNL     1     -36.929 -48.976  15.494  1.00  0.00     0.017 A 
HETATM   13  C   UNL     1     -37.092 -50.248  14.972  1.00  0.00     0.088 A 
HETATM   14  N   UNL     1     -37.609 -50.500  13.749  1.00  0.00    -0.369 N 
ATOM     15  HN  UNL     1     -37.710 -51.455  13.403  1.00  0.00     0.165 HD
ENDBRANCH   8   9
ENDBRANCH   7   8
ENDBRANCH   3   7
BRANCH   4  16
HETATM   16  C   UNL     1     -41.627 -54.012  13.164  1.00  0.00     0.130 C 
BRANCH  16  17
HETATM   17  C   UNL     1     -43.120 -54.363  13.195  1.00  0.00     0.018 C 
HETATM   18  C   UNL     1     -44.016 -53.348  12.452  1.00  0.00     0.022 C 
HETATM   19  C   UNL     1     -45.402 -53.289  13.096  1.00  0.00     0.141 C 
HETATM   20  S   UNL     1     -45.437 -54.501  14.392  1.00  0.00     0.144 S 
HETATM   21  O   UNL     1     -46.064 -53.925  15.562  1.00  0.00    -0.228 OA
HETATM   22  O   UNL     1     -45.876 -55.761  13.823  1.00  0.00    -0.228 OA
HETATM   23  C   UNL     1     -43.679 -54.554  14.605  1.00  0.00     0.146 C 
ENDBRANCH  16  17
ENDBRANCH   4  16
TORSDOF 5
ENDMDL
MODEL 7
REMARK VINA RESULT:      -5.8      1.514      1.895
REMARK  5 active torsions:
REMARK  status: ('A' for Active; 'I' for Inactive)
REMARK       I    between atoms: C_2  and  N_3 
REMARK       I    between atoms: C_2  and  N_13 
REMARK    1  A    between atoms: N_3  and  C_4 
REMARK    2  A    between atoms: C_4  and  C_5 
REMARK    3  A    between atoms: C_5  and  C_6 
REMARK    4  A    between atoms: N_13  and  C_14 
REMARK    5  A    between atoms: C_14  and  C_15 
ROOT
HETATM    1  O   UNL     1     -42.112 -52.306  13.699  1.00  0.00    -0.247 OA
HETATM    2  C   UNL     1     -42.234 -52.291  12.483  1.00  0.00     0.316 C 
HETATM    3  N   UNL     1     -43.191 -52.992  11.794  1.00  0.00    -0.343 N 
HETATM    4  N   UNL     1     -41.389 -51.622  11.636  1.00  0.00    -0.343 N 
HETATM    5  H   UNL     1     -43.476 -52.580  10.919  1.00  0.00     0.164 HD
HETATM    6  H   UNL     1     -41.592 -51.637  10.648  1.00  0.00     0.164 HD
ENDROOT
BRANCH   3   7
HETATM    7  C   UNL     1     -44.204 -53.760  12.513  1.00  0.00     0.130 C 
BRANCH   7   8
HETATM    8  C   UNL     1     -45.491 -52.956  12.667  1.00  0.00     0.076 C 
BRANCH   8   9
HETATM    9  C   UNL     1     -45.773 -52.525  14.082  1.00  0.00     0.010 A 
HETATM   10  C   UNL     1     -46.828 -51.662  14.366  1.00  0.00     0.025 A 
HETATM   11  C   UNL     1     -46.996 -51.208  15.671  1.00  0.00     0.003 A 
HETATM   12  C   UNL     1     -46.119 -51.637  16.659  1.00  0.00     0.017 A 
HETATM   13  C   UNL     1     -45.113 -52.516  16.299  1.00  0.00     0.088 A 
HETATM   14  N   UNL     1     -44.921 -52.967  15.040  1.00  0.00    -0.369 N 
ATOM     15  HN  UNL     1     -44.165 -53.615  14.819  1.00  0.00     0.165 HD
ENDBRANCH   8   9
ENDBRANCH   7   8
ENDBRANCH   3   7
BRANCH   4  16
HETATM   16  C   UNL     1     -40.280 -50.811  12.104  1.00  0.00     0.130 C 
BRANCH  16  17
HETATM   17  C   UNL     1     -40.487 -49.301  11.934  1.00  0.00     0.018 C 
HETATM   18  C   UNL     1     -41.231 -48.636  13.111  1.00  0.00     0.022 C 
HETATM   19  C   UNL     1     -42.038 -47.431  12.621  1.00  0.00     0.141 C 
HETATM   20  S   UNL     1     -41.702 -47.238  10.889  1.00  0.00     0.144 S 
HETATM   21  O   UNL     1     -42.942 -46.977  10.192  1.00  0.00    -0.228 OA
HETATM   22  O   UNL     1     -40.540 -46.381  10.746  1.00  0.00    -0.228 OA
HETATM   23  C   UNL     1     -41.201 -48.919  10.638  1.00  0.00     0.146 C 
ENDBRANCH  16  17
ENDBRANCH   4  16
TORSDOF 5
ENDMDL
MODEL 8
REMARK VINA RESULT:      -5.7      3.694      8.252
REMARK  5 active torsions:
REMARK  status: ('A' for Active; 'I' for Inactive)
REMARK       I    between atoms: C_2  and  N_3 
REMARK       I    between atoms: C_2  and  N_13 
REMARK    1  A    between atoms: N_3  and  C_4 
REMARK    2  A    between atoms: C_4  and  C_5 
REMARK    3  A    between atoms: C_5  and  C_6 
REMARK    4  A    between atoms: N_13  and  C_14 
REMARK    5  A    between atoms: C_14  and  C_15 
ROOT
HETATM    1  O   UNL     1     -41.783 -48.977  13.295  1.00  0.00    -0.247 OA
HETATM    2  C   UNL     1     -42.580 -49.316  12.434  1.00  0.00     0.316 C 
HETATM    3  N   UNL     1     -42.485 -48.966  11.111  1.00  0.00    -0.343 N 
HETATM    4  N   UNL     1     -43.718 -50.040  12.684  1.00  0.00    -0.343 N 
HETATM    5  H   UNL     1     -42.892 -49.624  10.463  1.00  0.00     0.164 HD
HETATM    6  H   UNL     1     -44.298 -50.304  11.903  1.00  0.00     0.164 HD
ENDROOT
BRANCH   3   7
HETATM    7  C   UNL     1     -41.334 -48.206  10.631  1.00  0.00     0.130 C 
BRANCH   7   8
HETATM    8  C   UNL     1     -41.650 -46.715  10.574  1.00  0.00     0.076 C 
BRANCH   8   9
HETATM    9  C   UNL     1     -40.811 -45.880  11.504  1.00  0.00     0.010 A 
HETATM   10  C   UNL     1     -40.662 -44.512  11.292  1.00  0.00     0.025 A 
HETATM   11  C   UNL     1     -39.800 -43.792  12.114  1.00  0.00     0.003 A 
HETATM   12  C   UNL     1     -39.120 -44.450  13.131  1.00  0.00     0.017 A 
HETATM   13  C   UNL     1     -39.344 -45.807  13.291  1.00  0.00     0.088 A 
HETATM   14  N   UNL     1     -40.169 -46.532  12.505  1.00  0.00    -0.369 N 
ATOM     15  HN  UNL     1     -40.304 -47.532  12.658  1.00  0.00     0.165 HD
ENDBRANCH   8   9
ENDBRANCH   7   8
ENDBRANCH   3   7
BRANCH   4  16
HETATM   16  C   UNL     1     -44.069 -50.527  14.006  1.00  0.00     0.130 C 
BRANCH  16  17
HETATM   17  C   UNL     1     -44.930 -51.797  14.001  1.00  0.00     0.018 C 
HETATM   18  C   UNL     1     -46.430 -51.534  14.254  1.00  0.00     0.022 C 
HETATM   19  C   UNL     1     -47.071 -52.732  14.957  1.00  0.00     0.141 C 
HETATM   20  S   UNL     1     -45.825 -53.987  15.108  1.00  0.00     0.144 S 
HETATM   21  O   UNL     1     -45.885 -54.557  16.437  1.00  0.00    -0.228 OA
HETATM   22  O   UNL     1     -45.861 -54.808  13.913  1.00  0.00    -0.228 OA
HETATM   23  C   UNL     1     -44.458 -52.865  14.986  1.00  0.00     0.146 C 
ENDBRANCH  16  17
ENDBRANCH   4  16
TORSDOF 5
ENDMDL
MODEL 9
REMARK VINA RESULT:      -5.5      2.628      3.447
REMARK  5 active torsions:
REMARK  status: ('A' for Active; 'I' for Inactive)
REMARK       I    between atoms: C_2  and  N_3 
REMARK       I    between atoms: C_2  and  N_13 
REMARK    1  A    between atoms: N_3  and  C_4 
REMARK    2  A    between atoms: C_4  and  C_5 
REMARK    3  A    between atoms: C_5  and  C_6 
REMARK    4  A    between atoms: N_13  and  C_14 
REMARK    5  A    between atoms: C_14  and  C_15 
ROOT
HETATM    1  O   UNL     1     -39.603 -51.645  12.719  1.00  0.00    -0.247 OA
HETATM    2  C   UNL     1     -40.487 -51.609  11.876  1.00  0.00     0.316 C 
HETATM    3  N   UNL     1     -41.308 -52.664  11.571  1.00  0.00    -0.343 N 
HETATM    4  N   UNL     1     -40.735 -50.526  11.071  1.00  0.00    -0.343 N 
HETATM    5  H   UNL     1     -42.223 -52.411  11.230  1.00  0.00     0.164 HD
HETATM    6  H   UNL     1     -41.511 -50.576  10.429  1.00  0.00     0.164 HD
ENDROOT
BRANCH   3   7
HETATM    7  C   UNL     1     -41.217 -53.911  12.326  1.00  0.00     0.130 C 
BRANCH   7   8
HETATM    8  C   UNL     1     -42.218 -53.926  13.477  1.00  0.00     0.076 C 
BRANCH   8   9
HETATM    9  C   UNL     1     -41.706 -54.605  14.719  1.00  0.00     0.010 A 
HETATM   10  C   UNL     1     -40.357 -54.536  15.062  1.00  0.00     0.025 A 
HETATM   11  C   UNL     1     -39.904 -55.258  16.163  1.00  0.00     0.003 A 
HETATM   12  C   UNL     1     -40.806 -56.017  16.898  1.00  0.00     0.017 A 
HETATM   13  C   UNL     1     -42.133 -56.010  16.506  1.00  0.00     0.088 A 
HETATM   14  N   UNL     1     -42.601 -55.325  15.439  1.00  0.00    -0.369 N 
ATOM     15  HN  UNL     1     -43.588 -55.349  15.185  1.00  0.00     0.165 HD
ENDBRANCH   8   9
ENDBRANCH   7   8
ENDBRANCH   3   7
BRANCH   4  16
HETATM   16  C   UNL     1     -39.999 -49.280  11.176  1.00  0.00     0.130 C 
BRANCH  16  17
HETATM   17  C   UNL     1     -40.885 -48.035  11.315  1.00  0.00     0.018 C 
HETATM   18  C   UNL     1     -42.040 -47.973  10.292  1.00  0.00     0.022 C 
HETATM   19  C   UNL     1     -42.384 -46.518   9.964  1.00  0.00     0.141 C 
HETATM   20  S   UNL     1     -41.360 -45.488  10.983  1.00  0.00     0.144 S 
HETATM   21  O   UNL     1     -40.832 -44.404  10.182  1.00  0.00    -0.228 OA
HETATM   22  O   UNL     1     -42.055 -45.255  12.235  1.00  0.00    -0.228 OA
HETATM   23  C   UNL     1     -40.112 -46.718  11.246  1.00  0.00     0.146 C 
ENDBRANCH  16  17
ENDBRANCH   4  16
TORSDOF 5
ENDMDL
