MODEL 1
REMARK VINA RESULT:      -6.4      0.000      0.000
REMARK  4 active torsions:
REMARK  status: ('A' for Active; 'I' for Inactive)
REMARK    1  A    between atoms: O_1  and  C_2 
REMARK    2  A    between atoms: C_2  and  C_3 
REMARK    3  A    between atoms: C_2  and  C_13 
REMARK    4  A    between atoms: C_3  and  N_4 
ROOT
HETATM    1  C   UNL     1     -41.258 -49.340  11.376  1.00  0.00     0.172 C 
ENDROOT
BRANCH   1   2
HETATM    2  O   UNL     1     -40.440 -50.016  10.417  1.00  0.00    -0.389 OA
HETATM    3  H   UNL     1     -40.564 -50.979  10.531  1.00  0.00     0.210 HD
ENDBRANCH   1   2
BRANCH   1   4
HETATM    4  C   UNL     1     -41.438 -50.155  12.685  1.00  0.00     0.169 C 
BRANCH   4   5
HETATM    5  N   UNL     1     -42.511 -51.160  12.615  1.00  0.00    -0.305 N 
HETATM    6  C   UNL     1     -43.764 -50.853  13.115  1.00  0.00     0.125 A 
HETATM    7  C   UNL     1     -44.742 -51.760  13.194  1.00  0.00     0.117 A 
HETATM    8 CL   UNL     1     -46.277 -51.391  13.864  1.00  0.00    -0.077 Cl
HETATM    9  C   UNL     1     -44.470 -53.140  12.719  1.00  0.00     0.272 A 
HETATM   10  O   UNL     1     -45.281 -54.054  12.807  1.00  0.00    -0.266 OA
HETATM   11  N   UNL     1     -43.226 -53.339  12.179  1.00  0.00    -0.274 N 
HETATM   12  C   UNL     1     -42.202 -52.429  12.143  1.00  0.00     0.329 A 
HETATM   13  H   UNL     1     -43.011 -54.275  11.869  1.00  0.00     0.173 HD
HETATM   14  O   UNL     1     -41.086 -52.744  11.733  1.00  0.00    -0.246 OA
ENDBRANCH   4   5
ENDBRANCH   1   4
BRANCH   1  15
HETATM   15  C   UNL     1     -40.690 -47.960  11.634  1.00  0.00     0.011 A 
HETATM   16  C   UNL     1     -39.842 -47.697  12.724  1.00  0.00     0.016 A 
HETATM   17  C   UNL     1     -39.395 -46.399  12.977  1.00  0.00     0.043 A 
HETATM   18  C   UNL     1     -39.782 -45.363  12.132  1.00  0.00     0.119 A 
HETATM   19  F   UNL     1     -39.353 -44.119  12.378  1.00  0.00    -0.206 F 
HETATM   20  C   UNL     1     -40.611 -45.597  11.045  1.00  0.00     0.085 A 
HETATM   21  C   UNL     1     -41.063 -46.891  10.810  1.00  0.00     0.128 A 
HETATM   22  F   UNL     1     -41.896 -47.107   9.783  1.00  0.00    -0.205 F 
ENDBRANCH   1  15
TORSDOF 4
ENDMDL
MODEL 2
REMARK VINA RESULT:      -6.4      3.768      6.329
REMARK  4 active torsions:
REMARK  status: ('A' for Active; 'I' for Inactive)
REMARK    1  A    between atoms: O_1  and  C_2 
REMARK    2  A    between atoms: C_2  and  C_3 
REMARK    3  A    between atoms: C_2  and  C_13 
REMARK    4  A    between atoms: C_3  and  N_4 
ROOT
HETATM    1  C   UNL     1     -40.266 -49.943  11.656  1.00  0.00     0.172 C 
ENDROOT
BRANCH   1   2
HETATM    2  O   UNL     1     -40.527 -49.973  10.250  1.00  0.00    -0.389 OA
HETATM    3  H   UNL     1     -40.733 -50.895   9.995  1.00  0.00     0.210 HD
ENDBRANCH   1   2
BRANCH   1   4
HETATM    4  C   UNL     1     -40.921 -48.722  12.357  1.00  0.00     0.169 C 
BRANCH   4   5
HETATM    5  N   UNL     1     -41.620 -47.814  11.435  1.00  0.00    -0.305 N 
HETATM    6  C   UNL     1     -42.945 -48.056  11.114  1.00  0.00     0.125 A 
HETATM    7  C   UNL     1     -43.597 -47.344  10.191  1.00  0.00     0.117 A 
HETATM    8 CL   UNL     1     -45.221 -47.682   9.758  1.00  0.00    -0.077 Cl
HETATM    9  C   UNL     1     -42.873 -46.250   9.497  1.00  0.00     0.272 A 
HETATM   10  O   UNL     1     -43.366 -45.582   8.595  1.00  0.00    -0.266 OA
HETATM   11  N   UNL     1     -41.587 -46.036   9.923  1.00  0.00    -0.274 N 
HETATM   12  C   UNL     1     -40.896 -46.795  10.830  1.00  0.00     0.329 A 
HETATM   13  H   UNL     1     -41.069 -45.311   9.450  1.00  0.00     0.173 HD
HETATM   14  O   UNL     1     -39.707 -46.583  11.061  1.00  0.00    -0.246 OA
ENDBRANCH   4   5
ENDBRANCH   1   4
BRANCH   1  15
HETATM   15  C   UNL     1     -40.695 -51.258  12.273  1.00  0.00     0.011 A 
HETATM   16  C   UNL     1     -41.999 -51.760  12.120  1.00  0.00     0.016 A 
HETATM   17  C   UNL     1     -42.385 -52.937  12.763  1.00  0.00     0.043 A 
HETATM   18  C   UNL     1     -41.464 -53.623  13.548  1.00  0.00     0.119 A 
HETATM   19  F   UNL     1     -41.838 -54.751  14.166  1.00  0.00    -0.206 F 
HETATM   20  C   UNL     1     -40.169 -53.153  13.710  1.00  0.00     0.085 A 
HETATM   21  C   UNL     1     -39.799 -51.972  13.077  1.00  0.00     0.128 A 
HETATM   22  F   UNL     1     -38.559 -51.499  13.267  1.00  0.00    -0.205 F 
ENDBRANCH   1  15
TORSDOF 4
ENDMDL
MODEL 3
REMARK VINA RESULT:      -6.3      4.136      6.901
REMARK  4 active torsions:
REMARK  status: ('A' for Active; 'I' for Inactive)
REMARK    1  A    between atoms: O_1  and  C_2 
REMARK    2  A    between atoms: C_2  and  C_3 
REMARK    3  A    between atoms: C_2  and  C_13 
REMARK    4  A    between atoms: C_3  and  N_4 
ROOT
HETATM    1  C   UNL     1     -40.743 -53.441  12.848  1.00  0.00     0.172 C 
ENDROOT
BRANCH   1   2
HETATM    2  O   UNL     1     -40.660 -53.270  11.430  1.00  0.00    -0.389 OA
HETATM    3  H   UNL     1     -39.716 -53.207  11.182  1.00  0.00     0.210 HD
ENDBRANCH   1   2
BRANCH   1   4
HETATM    4  C   UNL     1     -40.300 -52.173  13.627  1.00  0.00     0.169 C 
BRANCH   4   5
HETATM    5  N   UNL     1     -40.475 -50.922  12.874  1.00  0.00    -0.305 N 
HETATM    6  C   UNL     1     -41.702 -50.281  12.896  1.00  0.00     0.125 A 
HETATM    7  C   UNL     1     -41.962 -49.213  12.137  1.00  0.00     0.117 A 
HETATM    8 CL   UNL     1     -43.500 -48.454  12.126  1.00  0.00    -0.077 Cl
HETATM    9  C   UNL     1     -40.890 -48.695  11.250  1.00  0.00     0.272 A 
HETATM   10  O   UNL     1     -41.052 -47.760  10.474  1.00  0.00    -0.266 OA
HETATM   11  N   UNL     1     -39.688 -49.348  11.341  1.00  0.00    -0.274 N 
HETATM   12  C   UNL     1     -39.431 -50.475  12.076  1.00  0.00     0.329 A 
HETATM   13  H   UNL     1     -38.952 -49.027  10.730  1.00  0.00     0.173 HD
HETATM   14  O   UNL     1     -38.345 -51.048  12.002  1.00  0.00    -0.246 OA
ENDBRANCH   4   5
ENDBRANCH   1   4
BRANCH   1  15
HETATM   15  C   UNL     1     -42.144 -53.881  13.217  1.00  0.00     0.011 A 
HETATM   16  C   UNL     1     -43.265 -53.508  12.454  1.00  0.00     0.016 A 
HETATM   17  C   UNL     1     -44.551 -53.868  12.863  1.00  0.00     0.043 A 
HETATM   18  C   UNL     1     -44.718 -54.613  14.026  1.00  0.00     0.119 A 
HETATM   19  F   UNL     1     -45.953 -54.954  14.416  1.00  0.00    -0.206 F 
HETATM   20  C   UNL     1     -43.628 -55.000  14.792  1.00  0.00     0.085 A 
HETATM   21  C   UNL     1     -42.353 -54.624  14.385  1.00  0.00     0.128 A 
HETATM   22  F   UNL     1     -41.305 -54.965  15.148  1.00  0.00    -0.205 F 
ENDBRANCH   1  15
TORSDOF 4
ENDMDL
MODEL 4
REMARK VINA RESULT:      -6.2      4.209      7.067
REMARK  4 active torsions:
REMARK  status: ('A' for Active; 'I' for Inactive)
REMARK    1  A    between atoms: O_1  and  C_2 
REMARK    2  A    between atoms: C_2  and  C_3 
REMARK    3  A    between atoms: C_2  and  C_13 
REMARK    4  A    between atoms: C_3  and  N_4 
ROOT
HETATM    1  C   UNL     1     -40.367 -49.995  11.736  1.00  0.00     0.172 C 
ENDROOT
BRANCH   1   2
HETATM    2  O   UNL     1     -40.338 -50.135  10.313  1.00  0.00    -0.389 OA
HETATM    3  H   UNL     1     -41.256 -50.079   9.978  1.00  0.00     0.210 HD
ENDBRANCH   1   2
BRANCH   1   4
HETATM    4  C   UNL     1     -41.295 -48.841  12.201  1.00  0.00     0.169 C 
BRANCH   4   5
HETATM    5  N   UNL     1     -40.935 -47.528  11.643  1.00  0.00    -0.305 N 
HETATM    6  C   UNL     1     -40.096 -46.692  12.359  1.00  0.00     0.125 A 
HETATM    7  C   UNL     1     -39.832 -45.442  11.967  1.00  0.00     0.117 A 
HETATM    8 CL   UNL     1     -38.835 -44.390  12.883  1.00  0.00    -0.077 Cl
HETATM    9  C   UNL     1     -40.456 -44.944  10.715  1.00  0.00     0.272 A 
HETATM   10  O   UNL     1     -40.324 -43.796  10.308  1.00  0.00    -0.266 OA
HETATM   11  N   UNL     1     -41.219 -45.859  10.037  1.00  0.00    -0.274 N 
HETATM   12  C   UNL     1     -41.537 -47.123  10.459  1.00  0.00     0.329 A 
HETATM   13  H   UNL     1     -41.671 -45.536   9.195  1.00  0.00     0.173 HD
HETATM   14  O   UNL     1     -42.321 -47.827   9.825  1.00  0.00    -0.246 OA
ENDBRANCH   4   5
ENDBRANCH   1   4
BRANCH   1  15
HETATM   15  C   UNL     1     -40.744 -51.322  12.361  1.00  0.00     0.011 A 
HETATM   16  C   UNL     1     -42.025 -51.880  12.204  1.00  0.00     0.016 A 
HETATM   17  C   UNL     1     -42.364 -53.068  12.854  1.00  0.00     0.043 A 
HETATM   18  C   UNL     1     -41.420 -53.709  13.649  1.00  0.00     0.119 A 
HETATM   19  F   UNL     1     -41.749 -54.847  14.274  1.00  0.00    -0.206 F 
HETATM   20  C   UNL     1     -40.146 -53.184  13.813  1.00  0.00     0.085 A 
HETATM   21  C   UNL     1     -39.823 -51.992  13.174  1.00  0.00     0.128 A 
HETATM   22  F   UNL     1     -38.605 -51.467  13.366  1.00  0.00    -0.205 F 
ENDBRANCH   1  15
TORSDOF 4
ENDMDL
MODEL 5
REMARK VINA RESULT:      -6.1      4.486      7.480
REMARK  4 active torsions:
REMARK  status: ('A' for Active; 'I' for Inactive)
REMARK    1  A    between atoms: O_1  and  C_2 
REMARK    2  A    between atoms: C_2  and  C_3 
REMARK    3  A    between atoms: C_2  and  C_13 
REMARK    4  A    between atoms: C_3  and  N_4 
ROOT
HETATM    1  C   UNL     1     -41.153 -52.907  12.572  1.00  0.00     0.172 C 
ENDROOT
BRANCH   1   2
HETATM    2  O   UNL     1     -40.578 -53.681  11.515  1.00  0.00    -0.389 OA
HETATM    3  H   UNL     1     -41.137 -54.471  11.373  1.00  0.00     0.210 HD
ENDBRANCH   1   2
BRANCH   1   4
HETATM    4  C   UNL     1     -41.325 -51.413  12.190  1.00  0.00     0.169 C 
BRANCH   4   5
HETATM    5  N   UNL     1     -40.201 -50.560  12.608  1.00  0.00    -0.305 N 
HETATM    6  C   UNL     1     -39.432 -50.933  13.696  1.00  0.00     0.125 A 
HETATM    7  C   UNL     1     -38.479 -50.143  14.200  1.00  0.00     0.117 A 
HETATM    8 CL   UNL     1     -37.564 -50.584  15.581  1.00  0.00    -0.077 Cl
HETATM    9  C   UNL     1     -38.237 -48.826  13.559  1.00  0.00     0.272 A 
HETATM   10  O   UNL     1     -37.430 -48.008  13.985  1.00  0.00    -0.266 OA
HETATM   11  N   UNL     1     -38.998 -48.566  12.448  1.00  0.00    -0.274 N 
HETATM   12  C   UNL     1     -40.012 -49.347  11.959  1.00  0.00     0.329 A 
HETATM   13  H   UNL     1     -38.866 -47.667  12.010  1.00  0.00     0.173 HD
HETATM   14  O   UNL     1     -40.708 -48.969  11.018  1.00  0.00    -0.246 OA
ENDBRANCH   4   5
ENDBRANCH   1   4
BRANCH   1  15
HETATM   15  C   UNL     1     -42.457 -53.543  13.005  1.00  0.00     0.011 A 
HETATM   16  C   UNL     1     -43.680 -53.222  12.391  1.00  0.00     0.016 A 
HETATM   17  C   UNL     1     -44.875 -53.770  12.862  1.00  0.00     0.043 A 
HETATM   18  C   UNL     1     -44.849 -54.650  13.938  1.00  0.00     0.119 A 
HETATM   19  F   UNL     1     -45.997 -55.172  14.390  1.00  0.00    -0.206 F 
HETATM   20  C   UNL     1     -43.655 -54.990  14.557  1.00  0.00     0.085 A 
HETATM   21  C   UNL     1     -42.472 -54.427  14.090  1.00  0.00     0.128 A 
HETATM   22  F   UNL     1     -41.324 -54.726  14.715  1.00  0.00    -0.205 F 
ENDBRANCH   1  15
TORSDOF 4
ENDMDL
MODEL 6
REMARK VINA RESULT:      -5.5      2.779      3.115
REMARK  4 active torsions:
REMARK  status: ('A' for Active; 'I' for Inactive)
REMARK    1  A    between atoms: O_1  and  C_2 
REMARK    2  A    between atoms: C_2  and  C_3 
REMARK    3  A    between atoms: C_2  and  C_13 
REMARK    4  A    between atoms: C_3  and  N_4 
ROOT
HETATM    1  C   UNL     1     -41.536 -50.470  12.347  1.00  0.00     0.172 C 
ENDROOT
BRANCH   1   2
HETATM    2  O   UNL     1     -42.236 -49.675  11.386  1.00  0.00    -0.389 OA
HETATM    3  H   UNL     1     -42.562 -50.266  10.677  1.00  0.00     0.210 HD
ENDBRANCH   1   2
BRANCH   1   4
HETATM    4  C   UNL     1     -41.234 -51.902  11.829  1.00  0.00     0.169 C 
BRANCH   4   5
HETATM    5  N   UNL     1     -41.746 -52.970  12.702  1.00  0.00    -0.305 N 
HETATM    6  C   UNL     1     -43.106 -53.222  12.742  1.00  0.00     0.125 A 
HETATM    7  C   UNL     1     -43.645 -54.091  13.603  1.00  0.00     0.117 A 
HETATM    8 CL   UNL     1     -45.336 -54.361  13.687  1.00  0.00    -0.077 Cl
HETATM    9  C   UNL     1     -42.746 -54.812  14.538  1.00  0.00     0.272 A 
HETATM   10  O   UNL     1     -43.151 -55.580  15.403  1.00  0.00    -0.266 OA
HETATM   11  N   UNL     1     -41.409 -54.551  14.385  1.00  0.00    -0.274 N 
HETATM   12  C   UNL     1     -40.855 -53.625  13.542  1.00  0.00     0.329 A 
HETATM   13  H   UNL     1     -40.781 -55.014  15.025  1.00  0.00     0.173 HD
HETATM   14  O   UNL     1     -39.647 -53.390  13.560  1.00  0.00    -0.246 OA
ENDBRANCH   4   5
ENDBRANCH   1   4
BRANCH   1  15
HETATM   15  C   UNL     1     -40.282 -49.740  12.781  1.00  0.00     0.011 A 
HETATM   16  C   UNL     1     -39.012 -50.086  12.288  1.00  0.00     0.016 A 
HETATM   17  C   UNL     1     -37.868 -49.443  12.764  1.00  0.00     0.043 A 
HETATM   18  C   UNL     1     -37.992 -48.443  13.723  1.00  0.00     0.119 A 
HETATM   19  F   UNL     1     -36.892 -47.831  14.180  1.00  0.00    -0.206 F 
HETATM   20  C   UNL     1     -39.234 -48.077  14.220  1.00  0.00     0.085 A 
HETATM   21  C   UNL     1     -40.366 -48.734  13.751  1.00  0.00     0.128 A 
HETATM   22  F   UNL     1     -41.561 -48.405  14.262  1.00  0.00    -0.205 F 
ENDBRANCH   1  15
TORSDOF 4
ENDMDL
MODEL 7
REMARK VINA RESULT:      -5.4      6.046      8.423
REMARK  4 active torsions:
REMARK  status: ('A' for Active; 'I' for Inactive)
REMARK    1  A    between atoms: O_1  and  C_2 
REMARK    2  A    between atoms: C_2  and  C_3 
REMARK    3  A    between atoms: C_2  and  C_13 
REMARK    4  A    between atoms: C_3  and  N_4 
ROOT
HETATM    1  C   UNL     1     -39.372 -54.445  14.446  1.00  0.00     0.172 C 
ENDROOT
BRANCH   1   2
HETATM    2  O   UNL     1     -38.743 -55.233  13.431  1.00  0.00    -0.389 OA
HETATM    3  H   UNL     1     -39.389 -55.380  12.711  1.00  0.00     0.210 HD
ENDBRANCH   1   2
BRANCH   1   4
HETATM    4  C   UNL     1     -40.608 -53.670  13.917  1.00  0.00     0.169 C 
BRANCH   4   5
HETATM    5  N   UNL     1     -40.267 -52.468  13.141  1.00  0.00    -0.305 N 
HETATM    6  C   UNL     1     -39.187 -51.692  13.525  1.00  0.00     0.125 A 
HETATM    7  C   UNL     1     -38.902 -50.526  12.939  1.00  0.00     0.117 A 
HETATM    8 CL   UNL     1     -37.596 -49.542  13.453  1.00  0.00    -0.077 Cl
HETATM    9  C   UNL     1     -39.773 -50.057  11.832  1.00  0.00     0.272 A 
HETATM   10  O   UNL     1     -39.630 -48.975  11.275  1.00  0.00    -0.266 OA
HETATM   11  N   UNL     1     -40.779 -50.917  11.473  1.00  0.00    -0.274 N 
HETATM   12  C   UNL     1     -41.108 -52.088  12.103  1.00  0.00     0.329 A 
HETATM   13  H   UNL     1     -41.397 -50.609  10.737  1.00  0.00     0.173 HD
HETATM   14  O   UNL     1     -42.101 -52.733  11.768  1.00  0.00    -0.246 OA
ENDBRANCH   4   5
ENDBRANCH   1   4
BRANCH   1  15
HETATM   15  C   UNL     1     -39.710 -55.330  15.627  1.00  0.00     0.011 A 
HETATM   16  C   UNL     1     -41.036 -55.528  16.051  1.00  0.00     0.016 A 
HETATM   17  C   UNL     1     -41.309 -56.289  17.189  1.00  0.00     0.043 A 
HETATM   18  C   UNL     1     -40.260 -56.868  17.896  1.00  0.00     0.119 A 
HETATM   19  F   UNL     1     -40.526 -57.595  18.989  1.00  0.00    -0.206 F 
HETATM   20  C   UNL     1     -38.944 -56.695  17.494  1.00  0.00     0.085 A 
HETATM   21  C   UNL     1     -38.681 -55.922  16.368  1.00  0.00     0.128 A 
HETATM   22  F   UNL     1     -37.406 -55.724  16.005  1.00  0.00    -0.205 F 
ENDBRANCH   1  15
TORSDOF 4
ENDMDL
MODEL 8
REMARK VINA RESULT:      -5.4      3.750      6.717
REMARK  4 active torsions:
REMARK  status: ('A' for Active; 'I' for Inactive)
REMARK    1  A    between atoms: O_1  and  C_2 
REMARK    2  A    between atoms: C_2  and  C_3 
REMARK    3  A    between atoms: C_2  and  C_13 
REMARK    4  A    between atoms: C_3  and  N_4 
ROOT
HETATM    1  C   UNL     1     -41.616 -50.457  13.123  1.00  0.00     0.172 C 
ENDROOT
BRANCH   1   2
HETATM    2  O   UNL     1     -40.707 -51.176  13.962  1.00  0.00    -0.389 OA
HETATM    3  H   UNL     1     -39.920 -50.615  14.116  1.00  0.00     0.210 HD
ENDBRANCH   1   2
BRANCH   1   4
HETATM    4  C   UNL     1     -41.027 -50.173  11.716  1.00  0.00     0.169 C 
BRANCH   4   5
HETATM    5  N   UNL     1     -40.996 -48.745  11.363  1.00  0.00    -0.305 N 
HETATM    6  C   UNL     1     -42.087 -48.177  10.728  1.00  0.00     0.125 A 
HETATM    7  C   UNL     1     -42.073 -46.921  10.271  1.00  0.00     0.117 A 
HETATM    8 CL   UNL     1     -43.407 -46.239   9.437  1.00  0.00    -0.077 Cl
HETATM    9  C   UNL     1     -40.844 -46.111  10.463  1.00  0.00     0.272 A 
HETATM   10  O   UNL     1     -40.713 -44.973  10.026  1.00  0.00    -0.266 OA
HETATM   11  N   UNL     1     -39.837 -46.729  11.159  1.00  0.00    -0.274 N 
HETATM   12  C   UNL     1     -39.825 -48.031  11.583  1.00  0.00     0.329 A 
HETATM   13  H   UNL     1     -38.985 -46.204  11.282  1.00  0.00     0.173 HD
HETATM   14  O   UNL     1     -38.825 -48.521  12.104  1.00  0.00    -0.246 OA
ENDBRANCH   4   5
ENDBRANCH   1   4
BRANCH   1  15
HETATM   15  C   UNL     1     -42.931 -51.205  13.055  1.00  0.00     0.011 A 
HETATM   16  C   UNL     1     -44.134 -50.633  13.505  1.00  0.00     0.016 A 
HETATM   17  C   UNL     1     -45.317 -51.375  13.498  1.00  0.00     0.043 A 
HETATM   18  C   UNL     1     -45.302 -52.684  13.027  1.00  0.00     0.119 A 
HETATM   19  F   UNL     1     -46.438 -53.394  13.025  1.00  0.00    -0.206 F 
HETATM   20  C   UNL     1     -44.130 -53.269  12.571  1.00  0.00     0.085 A 
HETATM   21  C   UNL     1     -42.955 -52.527  12.596  1.00  0.00     0.128 A 
HETATM   22  F   UNL     1     -41.816 -53.107  12.191  1.00  0.00    -0.205 F 
ENDBRANCH   1  15
TORSDOF 4
ENDMDL
MODEL 9
REMARK VINA RESULT:      -5.4      4.609      6.721
REMARK  4 active torsions:
REMARK  status: ('A' for Active; 'I' for Inactive)
REMARK    1  A    between atoms: O_1  and  C_2 
REMARK    2  A    between atoms: C_2  and  C_3 
REMARK    3  A    between atoms: C_2  and  C_13 
REMARK    4  A    between atoms: C_3  and  N_4 
ROOT
HETATM    1  C   UNL     1     -40.778 -52.481  12.489  1.00  0.00     0.172 C 
ENDROOT
BRANCH   1   2
HETATM    2  O   UNL     1     -40.681 -53.387  11.387  1.00  0.00    -0.389 OA
HETATM    3  H   UNL     1     -40.876 -54.289  11.711  1.00  0.00     0.210 HD
ENDBRANCH   1   2
BRANCH   1   4
HETATM    4  C   UNL     1     -40.090 -51.120  12.203  1.00  0.00     0.169 C 
BRANCH   4   5
HETATM    5  N   UNL     1     -39.184 -50.676  13.274  1.00  0.00    -0.305 N 
HETATM    6  C   UNL     1     -39.683 -49.913  14.315  1.00  0.00     0.125 A 
HETATM    7  C   UNL     1     -38.892 -49.377  15.249  1.00  0.00     0.117 A 
HETATM    8 CL   UNL     1     -39.508 -48.388  16.507  1.00  0.00    -0.077 Cl
HETATM    9  C   UNL     1     -37.430 -49.619  15.165  1.00  0.00     0.272 A 
HETATM   10  O   UNL     1     -36.619 -49.119  15.937  1.00  0.00    -0.266 OA
HETATM   11  N   UNL     1     -37.030 -50.438  14.141  1.00  0.00    -0.274 N 
HETATM   12  C   UNL     1     -37.827 -50.948  13.151  1.00  0.00     0.329 A 
HETATM   13  H   UNL     1     -36.038 -50.598  14.051  1.00  0.00     0.173 HD
HETATM   14  O   UNL     1     -37.349 -51.584  12.213  1.00  0.00    -0.246 OA
ENDBRANCH   4   5
ENDBRANCH   1   4
BRANCH   1  15
HETATM   15  C   UNL     1     -42.233 -52.319  12.876  1.00  0.00     0.011 A 
HETATM   16  C   UNL     1     -42.898 -51.085  12.767  1.00  0.00     0.016 A 
HETATM   17  C   UNL     1     -44.218 -50.951  13.202  1.00  0.00     0.043 A 
HETATM   18  C   UNL     1     -44.881 -52.052  13.733  1.00  0.00     0.119 A 
HETATM   19  F   UNL     1     -46.146 -51.919  14.151  1.00  0.00    -0.206 F 
HETATM   20  C   UNL     1     -44.251 -53.283  13.844  1.00  0.00     0.085 A 
HETATM   21  C   UNL     1     -42.931 -53.403  13.422  1.00  0.00     0.128 A 
HETATM   22  F   UNL     1     -42.312 -54.583  13.567  1.00  0.00    -0.205 F 
ENDBRANCH   1  15
TORSDOF 4
ENDMDL
