MODEL 1
REMARK VINA RESULT:      -5.4      0.000      0.000
REMARK  7 active torsions:
REMARK  status: ('A' for Active; 'I' for Inactive)
REMARK    1  A    between atoms: O_2  and  C_3 
REMARK    2  A    between atoms: C_3  and  C_4 
REMARK    3  A    between atoms: C_4  and  N_5 
REMARK    4  A    between atoms: N_5  and  C_6 
REMARK    5  A    between atoms: N_19  and  C_20 
REMARK    6  A    between atoms: C_20  and  C_21 
REMARK    7  A    between atoms: C_21  and  O_22 
ROOT
HETATM    1  C   UNL     1     -42.917 -48.160  11.328  1.00  0.00     0.162 A 
HETATM    2  N   UNL     1     -43.077 -49.384  11.786  1.00  0.00    -0.316 N 
ATOM      3  HN  UNL     1     -43.957 -49.861  11.985  1.00  0.00     0.170 HD
HETATM    4  C   UNL     1     -41.814 -49.874  11.936  1.00  0.00     0.146 A 
HETATM    5  N   UNL     1     -41.468 -51.130  12.382  1.00  0.00    -0.287 N 
HETATM    6  C   UNL     1     -42.457 -52.136  12.707  1.00  0.00     0.163 C 
HETATM    7  C   UNL     1     -40.119 -51.468  12.510  1.00  0.00     0.332 A 
HETATM    8  O   UNL     1     -39.777 -52.594  12.883  1.00  0.00    -0.246 OA
HETATM    9  N   UNL     1     -39.177 -50.473  12.214  1.00  0.00    -0.269 N 
HETATM   10  C   UNL     1     -37.769 -50.786  12.362  1.00  0.00     0.164 C 
HETATM   11  C   UNL     1     -39.482 -49.159  11.849  1.00  0.00     0.282 A 
HETATM   12  O   UNL     1     -38.631 -48.278  11.756  1.00  0.00    -0.265 OA
HETATM   13  C   UNL     1     -40.869 -48.938  11.636  1.00  0.00     0.150 A 
HETATM   14  N   UNL     1     -41.573 -47.861  11.158  1.00  0.00    -0.314 N 
ENDROOT
BRANCH   1  15
HETATM   15  N   UNL     1     -43.865 -47.221  11.083  1.00  0.00    -0.262 NA
HETATM   16  H   UNL     1     -43.529 -46.259  11.174  1.00  0.00     0.130 HD
BRANCH  15  17
HETATM   17  C   UNL     1     -44.640 -47.340   9.845  1.00  0.00     0.121 C 
BRANCH  17  18
HETATM   18  C   UNL     1     -44.292 -46.178   8.898  1.00  0.00     0.181 C 
BRANCH  18  19
HETATM   19  O   UNL     1     -43.279 -46.594   7.975  1.00  0.00    -0.395 OA
HETATM   20  C   UNL     1     -43.458 -47.948   7.573  1.00  0.00     0.201 C 
ENDBRANCH  18  19
ENDBRANCH  17  18
ENDBRANCH  15  17
ENDBRANCH   1  15
BRANCH  14  21
HETATM   21  C   UNL     1     -41.044 -46.570  10.754  1.00  0.00     0.158 C 
BRANCH  21  22
HETATM   22  C   UNL     1     -40.965 -45.497  11.839  1.00  0.00     0.187 C 
BRANCH  22  23
HETATM   23  O   UNL     1     -42.184 -44.759  11.956  1.00  0.00    -0.394 OA
HETATM   24  C   UNL     1     -42.567 -44.653  13.327  1.00  0.00     0.201 C 
ENDBRANCH  22  23
ENDBRANCH  21  22
ENDBRANCH  14  21
TORSDOF 7
ENDMDL
MODEL 2
REMARK VINA RESULT:      -5.3      1.747      5.947
REMARK  7 active torsions:
REMARK  status: ('A' for Active; 'I' for Inactive)
REMARK    1  A    between atoms: O_2  and  C_3 
REMARK    2  A    between atoms: C_3  and  C_4 
REMARK    3  A    between atoms: C_4  and  N_5 
REMARK    4  A    between atoms: N_5  and  C_6 
REMARK    5  A    between atoms: N_19  and  C_20 
REMARK    6  A    between atoms: C_20  and  C_21 
REMARK    7  A    between atoms: C_21  and  O_22 
ROOT
HETATM    1  C   UNL     1     -40.889 -49.854  11.421  1.00  0.00     0.162 A 
HETATM    2  N   UNL     1     -41.642 -49.202  10.560  1.00  0.00    -0.316 N 
ATOM      3  HN  UNL     1     -42.186 -49.593   9.790  1.00  0.00     0.170 HD
HETATM    4  C   UNL     1     -41.540 -47.891  10.921  1.00  0.00     0.146 A 
HETATM    5  N   UNL     1     -42.163 -46.821  10.318  1.00  0.00    -0.287 N 
HETATM    6  C   UNL     1     -43.082 -46.984   9.212  1.00  0.00     0.163 C 
HETATM    7  C   UNL     1     -41.926 -45.530  10.792  1.00  0.00     0.332 A 
HETATM    8  O   UNL     1     -42.489 -44.553  10.289  1.00  0.00    -0.246 OA
HETATM    9  N   UNL     1     -41.014 -45.390  11.848  1.00  0.00    -0.269 N 
HETATM   10  C   UNL     1     -40.728 -44.058  12.345  1.00  0.00     0.164 C 
HETATM   11  C   UNL     1     -40.288 -46.434  12.428  1.00  0.00     0.282 A 
HETATM   12  O   UNL     1     -39.383 -46.249  13.237  1.00  0.00    -0.265 OA
HETATM   13  C   UNL     1     -40.675 -47.719  11.961  1.00  0.00     0.150 A 
HETATM   14  N   UNL     1     -40.321 -48.989  12.345  1.00  0.00    -0.314 N 
ENDROOT
BRANCH   1  15
HETATM   15  N   UNL     1     -40.595 -51.177  11.449  1.00  0.00    -0.262 NA
HETATM   16  H   UNL     1     -39.680 -51.390  11.854  1.00  0.00     0.130 HD
BRANCH  15  17
HETATM   17  C   UNL     1     -41.591 -52.087  12.022  1.00  0.00     0.121 C 
BRANCH  17  18
HETATM   18  C   UNL     1     -41.059 -52.684  13.336  1.00  0.00     0.181 C 
BRANCH  18  19
HETATM   19  O   UNL     1     -39.678 -53.029  13.185  1.00  0.00    -0.395 OA
HETATM   20  C   UNL     1     -39.339 -54.184  13.947  1.00  0.00     0.201 C 
ENDBRANCH  18  19
ENDBRANCH  17  18
ENDBRANCH  15  17
ENDBRANCH   1  15
BRANCH  14  21
HETATM   21  C   UNL     1     -39.369 -49.366  13.374  1.00  0.00     0.158 C 
BRANCH  21  22
HETATM   22  C   UNL     1     -37.898 -49.392  12.965  1.00  0.00     0.187 C 
BRANCH  22  23
HETATM   23  O   UNL     1     -37.593 -50.501  12.118  1.00  0.00    -0.394 OA
HETATM   24  C   UNL     1     -37.187 -50.042  10.829  1.00  0.00     0.201 C 
ENDBRANCH  22  23
ENDBRANCH  21  22
ENDBRANCH  14  21
TORSDOF 7
ENDMDL
MODEL 3
REMARK VINA RESULT:      -5.2      1.976      5.805
REMARK  7 active torsions:
REMARK  status: ('A' for Active; 'I' for Inactive)
REMARK    1  A    between atoms: O_2  and  C_3 
REMARK    2  A    between atoms: C_3  and  C_4 
REMARK    3  A    between atoms: C_4  and  N_5 
REMARK    4  A    between atoms: N_5  and  C_6 
REMARK    5  A    between atoms: N_19  and  C_20 
REMARK    6  A    between atoms: C_20  and  C_21 
REMARK    7  A    between atoms: C_21  and  O_22 
ROOT
HETATM    1  C   UNL     1     -41.065 -49.110  10.929  1.00  0.00     0.162 A 
HETATM    2  N   UNL     1     -42.091 -48.615  10.270  1.00  0.00    -0.316 N 
ATOM      3  HN  UNL     1     -42.789 -49.130   9.732  1.00  0.00     0.170 HD
HETATM    4  C   UNL     1     -42.021 -47.268  10.463  1.00  0.00     0.146 A 
HETATM    5  N   UNL     1     -42.892 -46.321   9.972  1.00  0.00    -0.287 N 
HETATM    6  C   UNL     1     -44.066 -46.673   9.204  1.00  0.00     0.163 C 
HETATM    7  C   UNL     1     -42.659 -44.969  10.236  1.00  0.00     0.332 A 
HETATM    8  O   UNL     1     -43.436 -44.099   9.832  1.00  0.00    -0.246 OA
HETATM    9  N   UNL     1     -41.504 -44.646  10.962  1.00  0.00    -0.269 N 
HETATM   10  C   UNL     1     -41.222 -43.249  11.229  1.00  0.00     0.164 C 
HETATM   11  C   UNL     1     -40.544 -45.563  11.397  1.00  0.00     0.282 A 
HETATM   12  O   UNL     1     -39.470 -45.224  11.887  1.00  0.00    -0.265 OA
HETATM   13  C   UNL     1     -40.918 -46.917  11.184  1.00  0.00     0.150 A 
HETATM   14  N   UNL     1     -40.346 -48.107  11.563  1.00  0.00    -0.314 N 
ENDROOT
BRANCH   1  15
HETATM   15  N   UNL     1     -40.645 -50.398  10.991  1.00  0.00    -0.262 NA
HETATM   16  H   UNL     1     -39.629 -50.501  11.056  1.00  0.00     0.130 HD
BRANCH  15  17
HETATM   17  C   UNL     1     -41.276 -51.275  11.982  1.00  0.00     0.121 C 
BRANCH  17  18
HETATM   18  C   UNL     1     -40.207 -51.842  12.933  1.00  0.00     0.181 C 
BRANCH  18  19
HETATM   19  O   UNL     1     -40.033 -53.241  12.686  1.00  0.00    -0.395 OA
HETATM   20  C   UNL     1     -41.143 -53.999  13.154  1.00  0.00     0.201 C 
ENDBRANCH  18  19
ENDBRANCH  17  18
ENDBRANCH  15  17
ENDBRANCH   1  15
BRANCH  14  21
HETATM   21  C   UNL     1     -39.110 -48.296  12.300  1.00  0.00     0.158 C 
BRANCH  21  22
HETATM   22  C   UNL     1     -39.195 -48.167  13.820  1.00  0.00     0.187 C 
BRANCH  22  23
HETATM   23  O   UNL     1     -38.298 -47.178  14.328  1.00  0.00    -0.394 OA
HETATM   24  C   UNL     1     -37.173 -47.801  14.947  1.00  0.00     0.201 C 
ENDBRANCH  22  23
ENDBRANCH  21  22
ENDBRANCH  14  21
TORSDOF 7
ENDMDL
MODEL 4
REMARK VINA RESULT:      -5.2      2.807      6.430
REMARK  7 active torsions:
REMARK  status: ('A' for Active; 'I' for Inactive)
REMARK    1  A    between atoms: O_2  and  C_3 
REMARK    2  A    between atoms: C_3  and  C_4 
REMARK    3  A    between atoms: C_4  and  N_5 
REMARK    4  A    between atoms: N_5  and  C_6 
REMARK    5  A    between atoms: N_19  and  C_20 
REMARK    6  A    between atoms: C_20  and  C_21 
REMARK    7  A    between atoms: C_21  and  O_22 
ROOT
HETATM    1  C   UNL     1     -42.624 -52.724  12.505  1.00  0.00     0.162 A 
HETATM    2  N   UNL     1     -42.887 -51.495  12.112  1.00  0.00    -0.316 N 
ATOM      3  HN  UNL     1     -43.780 -51.128  11.781  1.00  0.00     0.170 HD
HETATM    4  C   UNL     1     -41.710 -50.821  12.244  1.00  0.00     0.146 A 
HETATM    5  N   UNL     1     -41.488 -49.491  11.962  1.00  0.00    -0.287 N 
HETATM    6  C   UNL     1     -42.546 -48.606  11.524  1.00  0.00     0.163 C 
HETATM    7  C   UNL     1     -40.208 -48.958  12.122  1.00  0.00     0.332 A 
HETATM    8  O   UNL     1     -39.983 -47.764  11.902  1.00  0.00    -0.246 OA
HETATM    9  N   UNL     1     -39.191 -49.837  12.524  1.00  0.00    -0.269 N 
HETATM   10  C   UNL     1     -37.846 -49.317  12.673  1.00  0.00     0.164 C 
HETATM   11  C   UNL     1     -39.349 -51.210  12.729  1.00  0.00     0.282 A 
HETATM   12  O   UNL     1     -38.403 -51.968  12.923  1.00  0.00    -0.265 OA
HETATM   13  C   UNL     1     -40.701 -51.641  12.654  1.00  0.00     0.150 A 
HETATM   14  N   UNL     1     -41.303 -52.848  12.910  1.00  0.00    -0.314 N 
ENDROOT
BRANCH   1  15
HETATM   15  N   UNL     1     -43.443 -53.805  12.495  1.00  0.00    -0.262 NA
HETATM   16  H   UNL     1     -43.015 -54.653  12.874  1.00  0.00     0.130 HD
BRANCH  15  17
HETATM   17  C   UNL     1     -44.783 -53.652  13.067  1.00  0.00     0.121 C 
BRANCH  17  18
HETATM   18  C   UNL     1     -45.266 -54.999  13.632  1.00  0.00     0.181 C 
BRANCH  18  19
HETATM   19  O   UNL     1     -45.747 -54.818  14.969  1.00  0.00    -0.395 OA
HETATM   20  C   UNL     1     -46.343 -53.537  15.144  1.00  0.00     0.201 C 
ENDBRANCH  18  19
ENDBRANCH  17  18
ENDBRANCH  15  17
ENDBRANCH   1  15
BRANCH  14  21
HETATM   21  C   UNL     1     -40.662 -54.086  13.316  1.00  0.00     0.158 C 
BRANCH  21  22
HETATM   22  C   UNL     1     -40.719 -54.426  14.804  1.00  0.00     0.187 C 
BRANCH  22  23
HETATM   23  O   UNL     1     -42.024 -54.846  15.211  1.00  0.00    -0.394 OA
HETATM   24  C   UNL     1     -42.559 -53.934  16.170  1.00  0.00     0.201 C 
ENDBRANCH  22  23
ENDBRANCH  21  22
ENDBRANCH  14  21
TORSDOF 7
ENDMDL
MODEL 5
REMARK VINA RESULT:      -5.0      1.889      3.223
REMARK  7 active torsions:
REMARK  status: ('A' for Active; 'I' for Inactive)
REMARK    1  A    between atoms: O_2  and  C_3 
REMARK    2  A    between atoms: C_3  and  C_4 
REMARK    3  A    between atoms: C_4  and  N_5 
REMARK    4  A    between atoms: N_5  and  C_6 
REMARK    5  A    between atoms: N_19  and  C_20 
REMARK    6  A    between atoms: C_20  and  C_21 
REMARK    7  A    between atoms: C_21  and  O_22 
ROOT
HETATM    1  C   UNL     1     -40.835 -49.828  11.355  1.00  0.00     0.162 A 
HETATM    2  N   UNL     1     -41.868 -50.622  11.544  1.00  0.00    -0.316 N 
ATOM      3  HN  UNL     1     -42.809 -50.517  11.163  1.00  0.00     0.170 HD
HETATM    4  C   UNL     1     -41.409 -51.615  12.358  1.00  0.00     0.146 A 
HETATM    5  N   UNL     1     -42.128 -52.692  12.826  1.00  0.00    -0.287 N 
HETATM    6  C   UNL     1     -43.503 -52.929  12.446  1.00  0.00     0.163 C 
HETATM    7  C   UNL     1     -41.514 -53.609  13.683  1.00  0.00     0.332 A 
HETATM    8  O   UNL     1     -42.124 -54.598  14.099  1.00  0.00    -0.246 OA
HETATM    9  N   UNL     1     -40.189 -53.349  14.059  1.00  0.00    -0.269 N 
HETATM   10  C   UNL     1     -39.534 -54.270  14.968  1.00  0.00     0.164 C 
HETATM   11  C   UNL     1     -39.452 -52.222  13.685  1.00  0.00     0.282 A 
HETATM   12  O   UNL     1     -38.354 -51.953  14.165  1.00  0.00    -0.265 OA
HETATM   13  C   UNL     1     -40.113 -51.406  12.728  1.00  0.00     0.150 A 
HETATM   14  N   UNL     1     -39.711 -50.304  12.014  1.00  0.00    -0.314 N 
ENDROOT
BRANCH   1  15
HETATM   15  N   UNL     1     -40.788 -48.653  10.680  1.00  0.00    -0.262 NA
HETATM   16  H   UNL     1     -40.270 -48.701   9.799  1.00  0.00     0.130 HD
BRANCH  15  17
HETATM   17  C   UNL     1     -42.051 -47.945  10.452  1.00  0.00     0.121 C 
BRANCH  17  18
HETATM   18  C   UNL     1     -41.851 -46.437  10.680  1.00  0.00     0.181 C 
BRANCH  18  19
HETATM   19  O   UNL     1     -42.279 -45.712   9.522  1.00  0.00    -0.395 OA
HETATM   20  C   UNL     1     -43.475 -46.255   8.974  1.00  0.00     0.201 C 
ENDBRANCH  18  19
ENDBRANCH  17  18
ENDBRANCH  15  17
ENDBRANCH   1  15
BRANCH  14  21
HETATM   21  C   UNL     1     -38.430 -49.626  12.087  1.00  0.00     0.158 C 
BRANCH  21  22
HETATM   22  C   UNL     1     -38.262 -48.607  13.213  1.00  0.00     0.187 C 
BRANCH  22  23
HETATM   23  O   UNL     1     -39.072 -47.446  13.015  1.00  0.00    -0.394 OA
HETATM   24  C   UNL     1     -40.029 -47.326  14.067  1.00  0.00     0.201 C 
ENDBRANCH  22  23
ENDBRANCH  21  22
ENDBRANCH  14  21
TORSDOF 7
ENDMDL
MODEL 6
REMARK VINA RESULT:      -5.0      2.627      4.680
REMARK  7 active torsions:
REMARK  status: ('A' for Active; 'I' for Inactive)
REMARK    1  A    between atoms: O_2  and  C_3 
REMARK    2  A    between atoms: C_3  and  C_4 
REMARK    3  A    between atoms: C_4  and  N_5 
REMARK    4  A    between atoms: N_5  and  C_6 
REMARK    5  A    between atoms: N_19  and  C_20 
REMARK    6  A    between atoms: C_20  and  C_21 
REMARK    7  A    between atoms: C_21  and  O_22 
ROOT
HETATM    1  C   UNL     1     -41.365 -51.372  11.962  1.00  0.00     0.162 A 
HETATM    2  N   UNL     1     -42.505 -52.022  12.064  1.00  0.00    -0.316 N 
ATOM      3  HN  UNL     1     -43.355 -51.873  11.520  1.00  0.00     0.170 HD
HETATM    4  C   UNL     1     -42.303 -52.939  13.053  1.00  0.00     0.146 A 
HETATM    5  N   UNL     1     -43.213 -53.863  13.515  1.00  0.00    -0.287 N 
HETATM    6  C   UNL     1     -44.532 -54.007  12.938  1.00  0.00     0.163 C 
HETATM    7  C   UNL     1     -42.858 -54.715  14.563  1.00  0.00     0.332 A 
HETATM    8  O   UNL     1     -43.643 -55.571  14.982  1.00  0.00    -0.246 OA
HETATM    9  N   UNL     1     -41.585 -54.545  15.126  1.00  0.00    -0.269 N 
HETATM   10  C   UNL     1     -41.197 -55.398  16.233  1.00  0.00     0.164 C 
HETATM   11  C   UNL     1     -40.666 -53.560  14.754  1.00  0.00     0.282 A 
HETATM   12  O   UNL     1     -39.631 -53.344  15.378  1.00  0.00    -0.265 OA
HETATM   13  C   UNL     1     -41.065 -52.817  13.611  1.00  0.00     0.150 A 
HETATM   14  N   UNL     1     -40.424 -51.868  12.852  1.00  0.00    -0.314 N 
ENDROOT
BRANCH   1  15
HETATM   15  N   UNL     1     -41.069 -50.309  11.173  1.00  0.00    -0.262 NA
HETATM   16  H   UNL     1     -41.204 -50.483  10.175  1.00  0.00     0.130 HD
BRANCH  15  17
HETATM   17  C   UNL     1     -41.668 -49.016  11.516  1.00  0.00     0.121 C 
BRANCH  17  18
HETATM   18  C   UNL     1     -41.826 -48.162  10.246  1.00  0.00     0.181 C 
BRANCH  18  19
HETATM   19  O   UNL     1     -43.193 -47.765  10.097  1.00  0.00    -0.395 OA
HETATM   20  C   UNL     1     -43.490 -47.397   8.754  1.00  0.00     0.201 C 
ENDBRANCH  18  19
ENDBRANCH  17  18
ENDBRANCH  15  17
ENDBRANCH   1  15
BRANCH  14  21
HETATM   21  C   UNL     1     -39.096 -51.321  13.062  1.00  0.00     0.158 C 
BRANCH  21  22
HETATM   22  C   UNL     1     -38.995 -50.114  13.993  1.00  0.00     0.187 C 
BRANCH  22  23
HETATM   23  O   UNL     1     -38.434 -48.974  13.337  1.00  0.00    -0.394 OA
HETATM   24  C   UNL     1     -37.770 -49.370  12.138  1.00  0.00     0.201 C 
ENDBRANCH  22  23
ENDBRANCH  21  22
ENDBRANCH  14  21
TORSDOF 7
ENDMDL
MODEL 7
REMARK VINA RESULT:      -4.9      2.067      5.806
REMARK  7 active torsions:
REMARK  status: ('A' for Active; 'I' for Inactive)
REMARK    1  A    between atoms: O_2  and  C_3 
REMARK    2  A    between atoms: C_3  and  C_4 
REMARK    3  A    between atoms: C_4  and  N_5 
REMARK    4  A    between atoms: N_5  and  C_6 
REMARK    5  A    between atoms: N_19  and  C_20 
REMARK    6  A    between atoms: C_20  and  C_21 
REMARK    7  A    between atoms: C_21  and  O_22 
ROOT
HETATM    1  C   UNL     1     -41.053 -48.287  11.290  1.00  0.00     0.162 A 
HETATM    2  N   UNL     1     -40.246 -47.821  12.220  1.00  0.00    -0.316 N 
ATOM      3  HN  UNL     1     -39.678 -48.360  12.874  1.00  0.00     0.170 HD
HETATM    4  C   UNL     1     -40.334 -46.464  12.119  1.00  0.00     0.146 A 
HETATM    5  N   UNL     1     -39.659 -45.538  12.882  1.00  0.00    -0.287 N 
HETATM    6  C   UNL     1     -38.694 -45.921  13.890  1.00  0.00     0.163 C 
HETATM    7  C   UNL     1     -39.886 -44.176  12.673  1.00  0.00     0.332 A 
HETATM    8  O   UNL     1     -39.277 -43.322  13.324  1.00  0.00    -0.246 OA
HETATM    9  N   UNL     1     -40.842 -43.825  11.709  1.00  0.00    -0.269 N 
HETATM   10  C   UNL     1     -41.118 -42.419  11.488  1.00  0.00     0.164 C 
HETATM   11  C   UNL     1     -41.618 -44.729  10.979  1.00  0.00     0.282 A 
HETATM   12  O   UNL     1     -42.554 -44.380  10.265  1.00  0.00    -0.265 OA
HETATM   13  C   UNL     1     -41.241 -46.085  11.174  1.00  0.00     0.150 A 
HETATM   14  N   UNL     1     -41.642 -47.254  10.575  1.00  0.00    -0.314 N 
ENDROOT
BRANCH   1  15
HETATM   15  N   UNL     1     -41.380 -49.576  11.026  1.00  0.00    -0.262 NA
HETATM   16  H   UNL     1     -40.769 -50.027  10.341  1.00  0.00     0.130 HD
BRANCH  15  17
HETATM   17  C   UNL     1     -41.567 -50.480  12.165  1.00  0.00     0.121 C 
BRANCH  17  18
HETATM   18  C   UNL     1     -40.341 -51.398  12.309  1.00  0.00     0.181 C 
BRANCH  18  19
HETATM   19  O   UNL     1     -39.337 -50.744  13.092  1.00  0.00    -0.395 OA
HETATM   20  C   UNL     1     -38.076 -50.737  12.431  1.00  0.00     0.201 C 
ENDBRANCH  18  19
ENDBRANCH  17  18
ENDBRANCH  15  17
ENDBRANCH   1  15
BRANCH  14  21
HETATM   21  C   UNL     1     -42.648 -47.415   9.541  1.00  0.00     0.158 C 
BRANCH  21  22
HETATM   22  C   UNL     1     -44.105 -47.411  10.002  1.00  0.00     0.187 C 
BRANCH  22  23
HETATM   23  O   UNL     1     -44.945 -46.655   9.127  1.00  0.00    -0.394 OA
HETATM   24  C   UNL     1     -46.266 -47.195   9.121  1.00  0.00     0.201 C 
ENDBRANCH  22  23
ENDBRANCH  21  22
ENDBRANCH  14  21
TORSDOF 7
ENDMDL
MODEL 8
REMARK VINA RESULT:      -4.3      2.564      4.847
REMARK  7 active torsions:
REMARK  status: ('A' for Active; 'I' for Inactive)
REMARK    1  A    between atoms: O_2  and  C_3 
REMARK    2  A    between atoms: C_3  and  C_4 
REMARK    3  A    between atoms: C_4  and  N_5 
REMARK    4  A    between atoms: N_5  and  C_6 
REMARK    5  A    between atoms: N_19  and  C_20 
REMARK    6  A    between atoms: C_20  and  C_21 
REMARK    7  A    between atoms: C_21  and  O_22 
ROOT
HETATM    1  C   UNL     1     -42.765 -50.140  12.191  1.00  0.00     0.162 A 
HETATM    2  N   UNL     1     -43.888 -50.224  12.873  1.00  0.00    -0.316 N 
ATOM      3  HN  UNL     1     -44.626 -49.523  12.940  1.00  0.00     0.170 HD
HETATM    4  C   UNL     1     -43.850 -51.449  13.469  1.00  0.00     0.146 A 
HETATM    5  N   UNL     1     -44.816 -51.998  14.282  1.00  0.00    -0.287 N 
HETATM    6  C   UNL     1     -46.064 -51.321  14.567  1.00  0.00     0.163 C 
HETATM    7  C   UNL     1     -44.609 -53.260  14.843  1.00  0.00     0.332 A 
HETATM    8  O   UNL     1     -45.468 -53.788  15.556  1.00  0.00    -0.246 OA
HETATM    9  N   UNL     1     -43.385 -53.889  14.575  1.00  0.00    -0.269 N 
HETATM   10  C   UNL     1     -43.131 -55.189  15.165  1.00  0.00     0.164 C 
HETATM   11  C   UNL     1     -42.339 -53.332  13.835  1.00  0.00     0.282 A 
HETATM   12  O   UNL     1     -41.227 -53.846  13.760  1.00  0.00    -0.265 OA
HETATM   13  C   UNL     1     -42.680 -52.101  13.213  1.00  0.00     0.150 A 
HETATM   14  N   UNL     1     -42.014 -51.300  12.317  1.00  0.00    -0.314 N 
ENDROOT
BRANCH   1  15
HETATM   15  N   UNL     1     -42.286 -49.088  11.482  1.00  0.00    -0.262 NA
HETATM   16  H   UNL     1     -42.124 -49.293  10.493  1.00  0.00     0.130 HD
BRANCH  15  17
HETATM   17  C   UNL     1     -42.995 -47.810  11.593  1.00  0.00     0.121 C 
BRANCH  17  18
HETATM   18  C   UNL     1     -44.029 -47.687  10.460  1.00  0.00     0.181 C 
BRANCH  18  19
HETATM   19  O   UNL     1     -43.502 -46.867   9.411  1.00  0.00    -0.395 OA
HETATM   20  C   UNL     1     -43.566 -47.523   8.149  1.00  0.00     0.201 C 
ENDBRANCH  18  19
ENDBRANCH  17  18
ENDBRANCH  15  17
ENDBRANCH   1  15
BRANCH  14  21
HETATM   21  C   UNL     1     -40.686 -51.505  11.768  1.00  0.00     0.158 C 
BRANCH  21  22
HETATM   22  C   UNL     1     -39.525 -50.882  12.541  1.00  0.00     0.187 C 
BRANCH  22  23
HETATM   23  O   UNL     1     -38.696 -51.870  13.157  1.00  0.00    -0.394 OA
HETATM   24  C   UNL     1     -38.629 -51.651  14.566  1.00  0.00     0.201 C 
ENDBRANCH  22  23
ENDBRANCH  21  22
ENDBRANCH  14  21
TORSDOF 7
ENDMDL
MODEL 9
REMARK VINA RESULT:      -4.3      4.139      6.128
REMARK  7 active torsions:
REMARK  status: ('A' for Active; 'I' for Inactive)
REMARK    1  A    between atoms: O_2  and  C_3 
REMARK    2  A    between atoms: C_3  and  C_4 
REMARK    3  A    between atoms: C_4  and  N_5 
REMARK    4  A    between atoms: N_5  and  C_6 
REMARK    5  A    between atoms: N_19  and  C_20 
REMARK    6  A    between atoms: C_20  and  C_21 
REMARK    7  A    between atoms: C_21  and  O_22 
ROOT
HETATM    1  C   UNL     1     -40.810 -52.416  12.539  1.00  0.00     0.162 A 
HETATM    2  N   UNL     1     -42.072 -52.746  12.357  1.00  0.00    -0.316 N 
ATOM      3  HN  UNL     1     -42.650 -52.559  11.537  1.00  0.00     0.170 HD
HETATM    4  C   UNL     1     -42.438 -53.391  13.500  1.00  0.00     0.146 A 
HETATM    5  N   UNL     1     -43.673 -53.935  13.777  1.00  0.00    -0.287 N 
HETATM    6  C   UNL     1     -44.755 -53.927  12.817  1.00  0.00     0.163 C 
HETATM    7  C   UNL     1     -43.897 -54.538  15.017  1.00  0.00     0.332 A 
HETATM    8  O   UNL     1     -44.985 -55.057  15.285  1.00  0.00    -0.246 OA
HETATM    9  N   UNL     1     -42.844 -54.514  15.942  1.00  0.00    -0.269 N 
HETATM   10  C   UNL     1     -43.056 -55.110  17.247  1.00  0.00     0.164 C 
HETATM   11  C   UNL     1     -41.609 -53.893  15.741  1.00  0.00     0.282 A 
HETATM   12  O   UNL     1     -40.777 -53.756  16.633  1.00  0.00    -0.265 OA
HETATM   13  C   UNL     1     -41.430 -53.406  14.418  1.00  0.00     0.150 A 
HETATM   14  N   UNL     1     -40.350 -52.858  13.770  1.00  0.00    -0.314 N 
ENDROOT
BRANCH   1  15
HETATM   15  N   UNL     1     -40.003 -51.692  11.725  1.00  0.00    -0.262 NA
HETATM   16  H   UNL     1     -39.828 -52.130  10.817  1.00  0.00     0.130 HD
BRANCH  15  17
HETATM   17  C   UNL     1     -40.333 -50.279  11.516  1.00  0.00     0.121 C 
BRANCH  17  18
HETATM   18  C   UNL     1     -39.070 -49.418  11.690  1.00  0.00     0.181 C 
BRANCH  18  19
HETATM   19  O   UNL     1     -37.915 -50.260  11.755  1.00  0.00    -0.395 OA
HETATM   20  C   UNL     1     -37.033 -50.028  10.661  1.00  0.00     0.201 C 
ENDBRANCH  18  19
ENDBRANCH  17  18
ENDBRANCH  15  17
ENDBRANCH   1  15
BRANCH  14  21
HETATM   21  C   UNL     1     -39.035 -52.586  14.323  1.00  0.00     0.158 C 
BRANCH  21  22
HETATM   22  C   UNL     1     -38.846 -51.226  14.992  1.00  0.00     0.187 C 
BRANCH  22  23
HETATM   23  O   UNL     1     -40.071 -50.707  15.516  1.00  0.00    -0.394 OA
HETATM   24  C   UNL     1     -40.207 -49.327  15.180  1.00  0.00     0.201 C 
ENDBRANCH  22  23
ENDBRANCH  21  22
ENDBRANCH  14  21
TORSDOF 7
ENDMDL
