MODEL 1
REMARK VINA RESULT:      -7.5      0.000      0.000
REMARK  3 active torsions:
REMARK  status: ('A' for Active; 'I' for Inactive)
REMARK    1  A    between atoms: C_9  and  N_11 
REMARK       I    between atoms: N_11  and  C_12 
REMARK       I    between atoms: C_12  and  N_14 
REMARK    2  A    between atoms: N_14  and  C_15 
REMARK    3  A    between atoms: C_21  and  N_22 
ROOT
HETATM    1  N   UNL     1     -43.291 -50.787  12.561  1.00  0.00    -0.338 N 
HETATM    2  C   UNL     1     -42.827 -49.485  12.573  1.00  0.00     0.321 C 
HETATM    3  O   UNL     1     -43.103 -48.674  13.448  1.00  0.00    -0.247 OA
HETATM    4  N   UNL     1     -42.105 -49.240  11.426  1.00  0.00    -0.306 N 
HETATM    5  H   UNL     1     -42.632 -51.430  12.142  1.00  0.00     0.164 HD
HETATM    6  H   UNL     1     -42.411 -49.761  10.608  1.00  0.00     0.171 HD
ENDROOT
BRANCH   1   7
HETATM    7  C   UNL     1     -44.079 -51.347  13.677  1.00  0.00     0.090 C 
HETATM    8  C   UNL     1     -45.486 -51.660  13.149  1.00  0.00     0.061 C 
HETATM    9  C   UNL     1     -46.147 -52.942  13.667  1.00  0.00     0.225 C 
HETATM   10  N   UNL     1     -45.149 -54.012  13.717  1.00  0.00     0.093 N 
HETATM   11  C   UNL     1     -46.918 -52.755  14.979  1.00  0.00     0.036 C 
HETATM   12  C   UNL     1     -45.740 -55.338  13.869  1.00  0.00     0.310 C 
HETATM   13  C   UNL     1     -44.160 -53.713  14.757  1.00  0.00     0.225 C 
HETATM   14  C   UNL     1     -44.762 -53.553  16.162  1.00  0.00     0.036 C 
HETATM   15  C   UNL     1     -43.316 -52.522  14.301  1.00  0.00     0.061 C 
HETATM   16  C   UNL     1     -46.082 -52.795  16.253  1.00  0.00     0.004 C 
ENDBRANCH   1   7
BRANCH   4  17
HETATM   17  C   UNL     1     -41.613 -47.955  11.097  1.00  0.00     0.075 A 
HETATM   18  C   UNL     1     -40.482 -47.438  11.720  1.00  0.00     0.034 A 
HETATM   19  C   UNL     1     -39.981 -46.220  11.286  1.00  0.00     0.019 A 
HETATM   20  C   UNL     1     -40.637 -45.575  10.249  1.00  0.00     0.089 A 
HETATM   21  N   UNL     1     -41.745 -46.052   9.632  1.00  0.00    -0.355 N 
HETATM   22  C   UNL     1     -42.246 -47.230  10.063  1.00  0.00     0.109 A 
ATOM     23  HN  UNL     1     -42.186 -45.539   8.868  1.00  0.00     0.166 HD
BRANCH  22  24
HETATM   24  N   UNL     1     -43.417 -47.754   9.492  1.00  0.00    -0.267 NA
HETATM   25  C   UNL     1     -43.467 -47.845   8.029  1.00  0.00     0.097 C 
HETATM   26  C   UNL     1     -44.961 -48.093   7.742  1.00  0.00     0.016 C 
HETATM   27  C   UNL     1     -45.671 -47.876   9.078  1.00  0.00     0.016 C 
HETATM   28  C   UNL     1     -44.660 -47.082   9.890  1.00  0.00     0.097 C 
ENDBRANCH  22  24
ENDBRANCH   4  17
TORSDOF 3
ENDMDL
MODEL 2
REMARK VINA RESULT:      -6.9      1.587      3.531
REMARK  3 active torsions:
REMARK  status: ('A' for Active; 'I' for Inactive)
REMARK    1  A    between atoms: C_9  and  N_11 
REMARK       I    between atoms: N_11  and  C_12 
REMARK       I    between atoms: C_12  and  N_14 
REMARK    2  A    between atoms: N_14  and  C_15 
REMARK    3  A    between atoms: C_21  and  N_22 
ROOT
HETATM    1  N   UNL     1     -43.329 -50.797  12.538  1.00  0.00    -0.338 N 
HETATM    2  C   UNL     1     -42.802 -49.519  12.539  1.00  0.00     0.321 C 
HETATM    3  O   UNL     1     -43.042 -48.686  13.405  1.00  0.00    -0.247 OA
HETATM    4  N   UNL     1     -42.063 -49.322  11.394  1.00  0.00    -0.306 N 
HETATM    5  H   UNL     1     -42.700 -51.475  12.129  1.00  0.00     0.164 HD
HETATM    6  H   UNL     1     -42.390 -49.835  10.579  1.00  0.00     0.171 HD
ENDROOT
BRANCH   1   7
HETATM    7  C   UNL     1     -44.149 -51.306  13.654  1.00  0.00     0.090 C 
HETATM    8  C   UNL     1     -45.544 -51.634  13.103  1.00  0.00     0.061 C 
HETATM    9  C   UNL     1     -46.226 -52.890  13.655  1.00  0.00     0.225 C 
HETATM   10  N   UNL     1     -45.236 -53.962  13.776  1.00  0.00     0.093 N 
HETATM   11  C   UNL     1     -47.030 -52.645  14.938  1.00  0.00     0.036 C 
HETATM   12  C   UNL     1     -45.840 -55.277  13.967  1.00  0.00     0.310 C 
HETATM   13  C   UNL     1     -44.273 -53.626  14.828  1.00  0.00     0.225 C 
HETATM   14  C   UNL     1     -44.910 -53.404  16.209  1.00  0.00     0.036 C 
HETATM   15  C   UNL     1     -43.410 -52.458  14.346  1.00  0.00     0.061 C 
HETATM   16  C   UNL     1     -46.228 -52.636  16.234  1.00  0.00     0.004 C 
ENDBRANCH   1   7
BRANCH   4  17
HETATM   17  C   UNL     1     -41.507 -48.066  11.055  1.00  0.00     0.075 A 
HETATM   18  C   UNL     1     -42.247 -47.117  10.357  1.00  0.00     0.034 A 
HETATM   19  C   UNL     1     -41.692 -45.865  10.142  1.00  0.00     0.019 A 
HETATM   20  C   UNL     1     -40.420 -45.620  10.636  1.00  0.00     0.089 A 
HETATM   21  N   UNL     1     -39.674 -46.529  11.311  1.00  0.00    -0.355 N 
HETATM   22  C   UNL     1     -40.205 -47.756  11.506  1.00  0.00     0.109 A 
ATOM     23  HN  UNL     1     -38.745 -46.295  11.659  1.00  0.00     0.166 HD
BRANCH  22  24
HETATM   24  N   UNL     1     -39.463 -48.753  12.161  1.00  0.00    -0.267 NA
HETATM   25  C   UNL     1     -38.850 -48.399  13.444  1.00  0.00     0.097 C 
HETATM   26  C   UNL     1     -37.848 -49.545  13.685  1.00  0.00     0.016 C 
HETATM   27  C   UNL     1     -37.813 -50.333  12.375  1.00  0.00     0.016 C 
HETATM   28  C   UNL     1     -38.391 -49.357  11.361  1.00  0.00     0.097 C 
ENDBRANCH  22  24
ENDBRANCH   4  17
TORSDOF 3
ENDMDL
MODEL 3
REMARK VINA RESULT:      -6.8      2.273      7.355
REMARK  3 active torsions:
REMARK  status: ('A' for Active; 'I' for Inactive)
REMARK    1  A    between atoms: C_9  and  N_11 
REMARK       I    between atoms: N_11  and  C_12 
REMARK       I    between atoms: C_12  and  N_14 
REMARK    2  A    between atoms: N_14  and  C_15 
REMARK    3  A    between atoms: C_21  and  N_22 
ROOT
HETATM    1  N   UNL     1     -41.936 -49.301  11.040  1.00  0.00    -0.338 N 
HETATM    2  C   UNL     1     -41.808 -50.112  12.152  1.00  0.00     0.321 C 
HETATM    3  O   UNL     1     -41.377 -49.722  13.230  1.00  0.00    -0.247 OA
HETATM    4  N   UNL     1     -42.151 -51.405  11.825  1.00  0.00    -0.306 N 
HETATM    5  H   UNL     1     -42.720 -49.565  10.456  1.00  0.00     0.164 HD
HETATM    6  H   UNL     1     -41.953 -51.670  10.863  1.00  0.00     0.171 HD
ENDROOT
BRANCH   1   7
HETATM    7  C   UNL     1     -41.662 -47.852  11.092  1.00  0.00     0.090 C 
HETATM    8  C   UNL     1     -42.738 -47.199  11.971  1.00  0.00     0.061 C 
HETATM    9  C   UNL     1     -42.280 -46.067  12.896  1.00  0.00     0.225 C 
HETATM   10  N   UNL     1     -40.991 -46.424  13.492  1.00  0.00     0.093 N 
HETATM   11  C   UNL     1     -42.292 -44.684  12.234  1.00  0.00     0.036 C 
HETATM   12  C   UNL     1     -40.637 -45.581  14.630  1.00  0.00     0.310 C 
HETATM   13  C   UNL     1     -39.956 -46.435  12.455  1.00  0.00     0.225 C 
HETATM   14  C   UNL     1     -39.791 -45.093  11.724  1.00  0.00     0.036 C 
HETATM   15  C   UNL     1     -40.208 -47.624  11.526  1.00  0.00     0.061 C 
HETATM   16  C   UNL     1     -41.075 -44.343  11.383  1.00  0.00     0.004 C 
ENDBRANCH   1   7
BRANCH   4  17
HETATM   17  C   UNL     1     -41.996 -52.484  12.727  1.00  0.00     0.075 A 
HETATM   18  C   UNL     1     -40.784 -53.159  12.839  1.00  0.00     0.034 A 
HETATM   19  C   UNL     1     -40.655 -54.139  13.812  1.00  0.00     0.019 A 
HETATM   20  C   UNL     1     -41.745 -54.398  14.628  1.00  0.00     0.089 A 
HETATM   21  N   UNL     1     -42.939 -53.762  14.534  1.00  0.00    -0.355 N 
HETATM   22  C   UNL     1     -43.074 -52.819  13.575  1.00  0.00     0.109 A 
ATOM     23  HN  UNL     1     -43.708 -53.987  15.164  1.00  0.00     0.166 HD
BRANCH  22  24
HETATM   24  N   UNL     1     -44.300 -52.157  13.401  1.00  0.00    -0.267 NA
HETATM   25  C   UNL     1     -45.003 -51.718  14.611  1.00  0.00     0.097 C 
HETATM   26  C   UNL     1     -46.418 -51.386  14.096  1.00  0.00     0.016 C 
HETATM   27  C   UNL     1     -46.457 -51.906  12.659  1.00  0.00     0.016 C 
HETATM   28  C   UNL     1     -45.295 -52.886  12.607  1.00  0.00     0.097 C 
ENDBRANCH  22  24
ENDBRANCH   4  17
TORSDOF 3
ENDMDL
MODEL 4
REMARK VINA RESULT:      -6.5      2.426      4.517
REMARK  3 active torsions:
REMARK  status: ('A' for Active; 'I' for Inactive)
REMARK    1  A    between atoms: C_9  and  N_11 
REMARK       I    between atoms: N_11  and  C_12 
REMARK       I    between atoms: C_12  and  N_14 
REMARK    2  A    between atoms: N_14  and  C_15 
REMARK    3  A    between atoms: C_21  and  N_22 
ROOT
HETATM    1  N   UNL     1     -41.929 -52.393  11.601  1.00  0.00    -0.338 N 
HETATM    2  C   UNL     1     -41.742 -51.086  12.013  1.00  0.00     0.321 C 
HETATM    3  O   UNL     1     -42.250 -50.613  13.022  1.00  0.00    -0.247 OA
HETATM    4  N   UNL     1     -40.988 -50.410  11.081  1.00  0.00    -0.306 N 
HETATM    5  H   UNL     1     -41.120 -52.769  11.125  1.00  0.00     0.164 HD
HETATM    6  H   UNL     1     -41.109 -50.724  10.121  1.00  0.00     0.171 HD
ENDROOT
BRANCH   1   7
HETATM    7  C   UNL     1     -42.681 -53.369  12.412  1.00  0.00     0.090 C 
HETATM    8  C   UNL     1     -42.020 -53.441  13.796  1.00  0.00     0.061 C 
HETATM    9  C   UNL     1     -42.955 -53.577  15.002  1.00  0.00     0.225 C 
HETATM   10  N   UNL     1     -44.117 -52.707  14.811  1.00  0.00     0.093 N 
HETATM   11  C   UNL     1     -43.320 -55.027  15.342  1.00  0.00     0.036 C 
HETATM   12  C   UNL     1     -44.888 -52.507  16.034  1.00  0.00     0.310 C 
HETATM   13  C   UNL     1     -44.935 -53.214  13.706  1.00  0.00     0.225 C 
HETATM   14  C   UNL     1     -45.441 -54.651  13.913  1.00  0.00     0.036 C 
HETATM   15  C   UNL     1     -44.171 -53.006  12.397  1.00  0.00     0.061 C 
HETATM   16  C   UNL     1     -44.452 -55.638  14.526  1.00  0.00     0.004 C 
ENDBRANCH   1   7
BRANCH   4  17
HETATM   17  C   UNL     1     -40.739 -49.020  11.168  1.00  0.00     0.075 A 
HETATM   18  C   UNL     1     -41.539 -48.103  10.492  1.00  0.00     0.034 A 
HETATM   19  C   UNL     1     -41.317 -46.750  10.695  1.00  0.00     0.019 A 
HETATM   20  C   UNL     1     -40.305 -46.376  11.565  1.00  0.00     0.089 A 
HETATM   21  N   UNL     1     -39.506 -47.247  12.228  1.00  0.00    -0.355 N 
HETATM   22  C   UNL     1     -39.707 -48.567  12.019  1.00  0.00     0.109 A 
ATOM     23  HN  UNL     1     -38.779 -46.919  12.862  1.00  0.00     0.166 HD
BRANCH  22  24
HETATM   24  N   UNL     1     -38.883 -49.517  12.645  1.00  0.00    -0.267 NA
HETATM   25  C   UNL     1     -38.366 -49.184  13.975  1.00  0.00     0.097 C 
HETATM   26  C   UNL     1     -37.251 -50.225  14.191  1.00  0.00     0.016 C 
HETATM   27  C   UNL     1     -37.074 -50.914  12.838  1.00  0.00     0.016 C 
HETATM   28  C   UNL     1     -37.718 -49.943  11.861  1.00  0.00     0.097 C 
ENDBRANCH  22  24
ENDBRANCH   4  17
TORSDOF 3
ENDMDL
MODEL 5
REMARK VINA RESULT:      -6.5      2.533      3.774
REMARK  3 active torsions:
REMARK  status: ('A' for Active; 'I' for Inactive)
REMARK    1  A    between atoms: C_9  and  N_11 
REMARK       I    between atoms: N_11  and  C_12 
REMARK       I    between atoms: C_12  and  N_14 
REMARK    2  A    between atoms: N_14  and  C_15 
REMARK    3  A    between atoms: C_21  and  N_22 
ROOT
HETATM    1  N   UNL     1     -42.395 -51.148  14.539  1.00  0.00    -0.338 N 
HETATM    2  C   UNL     1     -41.461 -51.214  13.522  1.00  0.00     0.321 C 
HETATM    3  O   UNL     1     -41.493 -52.046  12.624  1.00  0.00    -0.247 OA
HETATM    4  N   UNL     1     -40.476 -50.275  13.737  1.00  0.00    -0.306 N 
HETATM    5  H   UNL     1     -42.554 -50.201  14.859  1.00  0.00     0.164 HD
HETATM    6  H   UNL     1     -40.285 -50.070  14.714  1.00  0.00     0.171 HD
ENDROOT
BRANCH   1   7
HETATM    7  C   UNL     1     -43.585 -52.020  14.566  1.00  0.00     0.090 C 
HETATM    8  C   UNL     1     -43.802 -52.478  16.015  1.00  0.00     0.061 C 
HETATM    9  C   UNL     1     -45.252 -52.565  16.502  1.00  0.00     0.225 C 
HETATM   10  N   UNL     1     -45.999 -51.410  15.999  1.00  0.00     0.093 N 
HETATM   11  C   UNL     1     -45.925 -53.911  16.206  1.00  0.00     0.036 C 
HETATM   12  C   UNL     1     -47.280 -51.221  16.674  1.00  0.00     0.310 C 
HETATM   13  C   UNL     1     -46.138 -51.510  14.544  1.00  0.00     0.225 C 
HETATM   14  C   UNL     1     -46.853 -52.786  14.072  1.00  0.00     0.036 C 
HETATM   15  C   UNL     1     -44.764 -51.294  13.906  1.00  0.00     0.061 C 
HETATM   16  C   UNL     1     -46.495 -54.076  14.803  1.00  0.00     0.004 C 
ENDBRANCH   1   7
BRANCH   4  17
HETATM   17  C   UNL     1     -39.317 -50.192  12.930  1.00  0.00     0.075 A 
HETATM   18  C   UNL     1     -38.234 -51.041  13.138  1.00  0.00     0.034 A 
HETATM   19  C   UNL     1     -37.168 -50.988  12.253  1.00  0.00     0.019 A 
HETATM   20  C   UNL     1     -37.234 -50.088  11.201  1.00  0.00     0.089 A 
HETATM   21  N   UNL     1     -38.272 -49.245  10.981  1.00  0.00    -0.355 N 
HETATM   22  C   UNL     1     -39.306 -49.281  11.851  1.00  0.00     0.109 A 
ATOM     23  HN  UNL     1     -38.274 -48.605  10.187  1.00  0.00     0.166 HD
BRANCH  22  24
HETATM   24  N   UNL     1     -40.390 -48.401  11.700  1.00  0.00    -0.267 NA
HETATM   25  C   UNL     1     -41.386 -48.733  10.676  1.00  0.00     0.097 C 
HETATM   26  C   UNL     1     -42.189 -47.426  10.529  1.00  0.00     0.016 C 
HETATM   27  C   UNL     1     -41.408 -46.379  11.323  1.00  0.00     0.016 C 
HETATM   28  C   UNL     1     -40.026 -46.999  11.460  1.00  0.00     0.097 C 
ENDBRANCH  22  24
ENDBRANCH   4  17
TORSDOF 3
ENDMDL
MODEL 6
REMARK VINA RESULT:      -6.1      2.271      8.098
REMARK  3 active torsions:
REMARK  status: ('A' for Active; 'I' for Inactive)
REMARK    1  A    between atoms: C_9  and  N_11 
REMARK       I    between atoms: N_11  and  C_12 
REMARK       I    between atoms: C_12  and  N_14 
REMARK    2  A    between atoms: N_14  and  C_15 
REMARK    3  A    between atoms: C_21  and  N_22 
ROOT
HETATM    1  N   UNL     1     -42.757 -48.904  12.581  1.00  0.00    -0.338 N 
HETATM    2  C   UNL     1     -43.482 -49.629  13.509  1.00  0.00     0.321 C 
HETATM    3  O   UNL     1     -43.496 -49.378  14.707  1.00  0.00    -0.247 OA
HETATM    4  N   UNL     1     -44.090 -50.698  12.888  1.00  0.00    -0.306 N 
HETATM    5  H   UNL     1     -43.209 -48.870  11.677  1.00  0.00     0.164 HD
HETATM    6  H   UNL     1     -43.582 -51.078  12.094  1.00  0.00     0.171 HD
ENDROOT
BRANCH   1   7
HETATM    7  C   UNL     1     -42.015 -47.683  12.950  1.00  0.00     0.090 C 
HETATM    8  C   UNL     1     -40.523 -47.943  12.695  1.00  0.00     0.061 C 
HETATM    9  C   UNL     1     -39.709 -46.778  12.121  1.00  0.00     0.225 C 
HETATM   10  N   UNL     1     -40.500 -46.096  11.096  1.00  0.00     0.093 N 
HETATM   11  C   UNL     1     -39.138 -45.837  13.189  1.00  0.00     0.036 C 
HETATM   12  C   UNL     1     -39.704 -45.200  10.263  1.00  0.00     0.310 C 
HETATM   13  C   UNL     1     -41.638 -45.418  11.724  1.00  0.00     0.225 C 
HETATM   14  C   UNL     1     -41.239 -44.384  12.789  1.00  0.00     0.036 C 
HETATM   15  C   UNL     1     -42.623 -46.478  12.223  1.00  0.00     0.061 C 
HETATM   16  C   UNL     1     -40.093 -44.774  13.718  1.00  0.00     0.004 C 
ENDBRANCH   1   7
BRANCH   4  17
HETATM   17  C   UNL     1     -44.797 -51.692  13.605  1.00  0.00     0.075 A 
HETATM   18  C   UNL     1     -46.168 -51.588  13.816  1.00  0.00     0.034 A 
HETATM   19  C   UNL     1     -46.829 -52.639  14.433  1.00  0.00     0.019 A 
HETATM   20  C   UNL     1     -46.086 -53.747  14.811  1.00  0.00     0.089 A 
HETATM   21  N   UNL     1     -44.748 -53.869  14.627  1.00  0.00    -0.355 N 
HETATM   22  C   UNL     1     -44.098 -52.839  14.042  1.00  0.00     0.109 A 
ATOM     23  HN  UNL     1     -44.250 -54.709  14.919  1.00  0.00     0.166 HD
BRANCH  22  24
HETATM   24  N   UNL     1     -42.706 -52.890  13.863  1.00  0.00    -0.267 NA
HETATM   25  C   UNL     1     -42.185 -53.900  12.938  1.00  0.00     0.097 C 
HETATM   26  C   UNL     1     -40.677 -53.926  13.256  1.00  0.00     0.016 C 
HETATM   27  C   UNL     1     -40.517 -53.085  14.523  1.00  0.00     0.016 C 
HETATM   28  C   UNL     1     -41.925 -53.040  15.096  1.00  0.00     0.097 C 
ENDBRANCH  22  24
ENDBRANCH   4  17
TORSDOF 3
ENDMDL
MODEL 7
REMARK VINA RESULT:      -5.9      2.070      8.048
REMARK  3 active torsions:
REMARK  status: ('A' for Active; 'I' for Inactive)
REMARK    1  A    between atoms: C_9  and  N_11 
REMARK       I    between atoms: N_11  and  C_12 
REMARK       I    between atoms: C_12  and  N_14 
REMARK    2  A    between atoms: N_14  and  C_15 
REMARK    3  A    between atoms: C_21  and  N_22 
ROOT
HETATM    1  N   UNL     1     -43.560 -49.096  12.528  1.00  0.00    -0.338 N 
HETATM    2  C   UNL     1     -43.460 -50.368  13.061  1.00  0.00     0.321 C 
HETATM    3  O   UNL     1     -42.412 -50.853  13.469  1.00  0.00    -0.247 OA
HETATM    4  N   UNL     1     -44.679 -51.004  12.973  1.00  0.00    -0.306 N 
HETATM    5  H   UNL     1     -44.455 -48.665  12.718  1.00  0.00     0.164 HD
HETATM    6  H   UNL     1     -45.248 -50.730  12.176  1.00  0.00     0.171 HD
ENDROOT
BRANCH   1   7
HETATM    7  C   UNL     1     -42.415 -48.165  12.507  1.00  0.00     0.090 C 
HETATM    8  C   UNL     1     -42.102 -47.836  11.040  1.00  0.00     0.061 C 
HETATM    9  C   UNL     1     -41.698 -46.391  10.729  1.00  0.00     0.225 C 
HETATM   10  N   UNL     1     -42.541 -45.477  11.502  1.00  0.00     0.093 N 
HETATM   11  C   UNL     1     -40.195 -46.122  10.882  1.00  0.00     0.036 C 
HETATM   12  C   UNL     1     -42.468 -44.097  11.032  1.00  0.00     0.310 C 
HETATM   13  C   UNL     1     -42.225 -45.604  12.928  1.00  0.00     0.225 C 
HETATM   14  C   UNL     1     -40.756 -45.306  13.270  1.00  0.00     0.036 C 
HETATM   15  C   UNL     1     -42.714 -46.968  13.417  1.00  0.00     0.061 C 
HETATM   16  C   UNL     1     -39.710 -45.844  12.299  1.00  0.00     0.004 C 
ENDBRANCH   1   7
BRANCH   4  17
HETATM   17  C   UNL     1     -44.854 -52.363  13.322  1.00  0.00     0.075 A 
HETATM   18  C   UNL     1     -44.426 -53.383  12.477  1.00  0.00     0.034 A 
HETATM   19  C   UNL     1     -44.526 -54.695  12.913  1.00  0.00     0.019 A 
HETATM   20  C   UNL     1     -45.050 -54.927  14.176  1.00  0.00     0.089 A 
HETATM   21  N   UNL     1     -45.482 -53.953  15.015  1.00  0.00    -0.355 N 
HETATM   22  C   UNL     1     -45.402 -52.674  14.586  1.00  0.00     0.109 A 
ATOM     23  HN  UNL     1     -45.853 -54.178  15.937  1.00  0.00     0.166 HD
BRANCH  22  24
HETATM   24  N   UNL     1     -45.874 -51.626  15.393  1.00  0.00    -0.267 NA
HETATM   25  C   UNL     1     -44.961 -51.104  16.414  1.00  0.00     0.097 C 
HETATM   26  C   UNL     1     -45.887 -50.267  17.320  1.00  0.00     0.016 C 
HETATM   27  C   UNL     1     -47.307 -50.595  16.858  1.00  0.00     0.016 C 
HETATM   28  C   UNL     1     -47.137 -51.896  16.089  1.00  0.00     0.097 C 
ENDBRANCH  22  24
ENDBRANCH   4  17
TORSDOF 3
ENDMDL
MODEL 8
REMARK VINA RESULT:      -5.8      1.762      7.755
REMARK  3 active torsions:
REMARK  status: ('A' for Active; 'I' for Inactive)
REMARK    1  A    between atoms: C_9  and  N_11 
REMARK       I    between atoms: N_11  and  C_12 
REMARK       I    between atoms: C_12  and  N_14 
REMARK    2  A    between atoms: N_14  and  C_15 
REMARK    3  A    between atoms: C_21  and  N_22 
ROOT
HETATM    1  N   UNL     1     -42.151 -50.293  12.317  1.00  0.00    -0.338 N 
HETATM    2  C   UNL     1     -42.197 -51.043  13.478  1.00  0.00     0.321 C 
HETATM    3  O   UNL     1     -41.807 -50.635  14.565  1.00  0.00    -0.247 OA
HETATM    4  N   UNL     1     -42.654 -52.310  13.193  1.00  0.00    -0.306 N 
HETATM    5  H   UNL     1     -42.913 -50.508  11.687  1.00  0.00     0.164 HD
HETATM    6  H   UNL     1     -42.415 -52.654  12.266  1.00  0.00     0.171 HD
ENDROOT
BRANCH   1   7
HETATM    7  C   UNL     1     -41.723 -48.881  12.314  1.00  0.00     0.090 C 
HETATM    8  C   UNL     1     -41.096 -48.581  10.945  1.00  0.00     0.061 C 
HETATM    9  C   UNL     1     -41.393 -47.207  10.336  1.00  0.00     0.225 C 
HETATM   10  N   UNL     1     -42.800 -46.873  10.565  1.00  0.00     0.093 N 
HETATM   11  C   UNL     1     -40.418 -46.109  10.779  1.00  0.00     0.036 C 
HETATM   12  C   UNL     1     -43.263 -45.759   9.744  1.00  0.00     0.310 C 
HETATM   13  C   UNL     1     -43.026 -46.650  11.996  1.00  0.00     0.225 C 
HETATM   14  C   UNL     1     -42.163 -45.529  12.597  1.00  0.00     0.036 C 
HETATM   15  C   UNL     1     -42.902 -47.990  12.725  1.00  0.00     0.061 C 
HETATM   16  C   UNL     1     -40.714 -45.461  12.127  1.00  0.00     0.004 C 
ENDBRANCH   1   7
BRANCH   4  17
HETATM   17  C   UNL     1     -42.687 -53.341  14.161  1.00  0.00     0.075 A 
HETATM   18  C   UNL     1     -41.619 -54.221  14.311  1.00  0.00     0.034 A 
HETATM   19  C   UNL     1     -41.658 -55.146  15.343  1.00  0.00     0.019 A 
HETATM   20  C   UNL     1     -42.765 -55.148  16.178  1.00  0.00     0.089 A 
HETATM   21  N   UNL     1     -43.822 -54.310  16.048  1.00  0.00    -0.355 N 
HETATM   22  C   UNL     1     -43.796 -53.419  15.032  1.00  0.00     0.109 A 
ATOM     23  HN  UNL     1     -44.610 -54.350  16.694  1.00  0.00     0.166 HD
BRANCH  22  24
HETATM   24  N   UNL     1     -44.881 -52.553  14.821  1.00  0.00    -0.267 NA
HETATM   25  C   UNL     1     -45.457 -51.899  16.000  1.00  0.00     0.097 C 
HETATM   26  C   UNL     1     -46.798 -51.348  15.479  1.00  0.00     0.016 C 
HETATM   27  C   UNL     1     -46.973 -51.959  14.088  1.00  0.00     0.016 C 
HETATM   28  C   UNL     1     -46.016 -53.141  14.100  1.00  0.00     0.097 C 
ENDBRANCH  22  24
ENDBRANCH   4  17
TORSDOF 3
ENDMDL
MODEL 9
REMARK VINA RESULT:      -5.5      2.723      4.151
REMARK  3 active torsions:
REMARK  status: ('A' for Active; 'I' for Inactive)
REMARK    1  A    between atoms: C_9  and  N_11 
REMARK       I    between atoms: N_11  and  C_12 
REMARK       I    between atoms: C_12  and  N_14 
REMARK    2  A    between atoms: N_14  and  C_15 
REMARK    3  A    between atoms: C_21  and  N_22 
ROOT
HETATM    1  N   UNL     1     -43.252 -49.490  14.223  1.00  0.00    -0.338 N 
HETATM    2  C   UNL     1     -42.893 -48.629  13.203  1.00  0.00     0.321 C 
HETATM    3  O   UNL     1     -42.995 -48.905  12.014  1.00  0.00    -0.247 OA
HETATM    4  N   UNL     1     -42.336 -47.488  13.735  1.00  0.00    -0.306 N 
HETATM    5  H   UNL     1     -43.597 -49.002  15.039  1.00  0.00     0.164 HD
HETATM    6  H   UNL     1     -41.836 -47.623  14.610  1.00  0.00     0.171 HD
ENDROOT
BRANCH   1   7
HETATM    7  C   UNL     1     -43.900 -50.790  13.958  1.00  0.00     0.090 C 
HETATM    8  C   UNL     1     -42.822 -51.880  14.042  1.00  0.00     0.061 C 
HETATM    9  C   UNL     1     -43.230 -53.206  14.693  1.00  0.00     0.225 C 
HETATM   10  N   UNL     1     -44.060 -52.930  15.867  1.00  0.00     0.093 N 
HETATM   11  C   UNL     1     -43.857 -54.208  13.716  1.00  0.00     0.036 C 
HETATM   12  C   UNL     1     -44.217 -54.090  16.740  1.00  0.00     0.310 C 
HETATM   13  C   UNL     1     -45.344 -52.368  15.441  1.00  0.00     0.225 C 
HETATM   14  C   UNL     1     -46.141 -53.280  14.494  1.00  0.00     0.036 C 
HETATM   15  C   UNL     1     -45.103 -50.960  14.893  1.00  0.00     0.061 C 
HETATM   16  C   UNL     1     -45.339 -54.013  13.423  1.00  0.00     0.004 C 
ENDBRANCH   1   7
BRANCH   4  17
HETATM   17  C   UNL     1     -41.757 -46.479  12.931  1.00  0.00     0.075 A 
HETATM   18  C   UNL     1     -42.528 -45.445  12.408  1.00  0.00     0.034 A 
HETATM   19  C   UNL     1     -41.894 -44.426  11.715  1.00  0.00     0.019 A 
HETATM   20  C   UNL     1     -40.516 -44.488  11.576  1.00  0.00     0.089 A 
HETATM   21  N   UNL     1     -39.743 -45.487  12.066  1.00  0.00    -0.355 N 
HETATM   22  C   UNL     1     -40.359 -46.491  12.727  1.00  0.00     0.109 A 
ATOM     23  HN  UNL     1     -38.731 -45.481  11.941  1.00  0.00     0.166 HD
BRANCH  22  24
HETATM   24  N   UNL     1     -39.616 -47.576  13.221  1.00  0.00    -0.267 NA
HETATM   25  C   UNL     1     -38.465 -47.267  14.075  1.00  0.00     0.097 C 
HETATM   26  C   UNL     1     -37.694 -48.601  14.123  1.00  0.00     0.016 C 
HETATM   27  C   UNL     1     -38.363 -49.493  13.077  1.00  0.00     0.016 C 
HETATM   28  C   UNL     1     -39.115 -48.504  12.200  1.00  0.00     0.097 C 
ENDBRANCH  22  24
ENDBRANCH   4  17
TORSDOF 3
ENDMDL
