MODEL 1
REMARK VINA RESULT:      -6.3      0.000      0.000
REMARK  6 active torsions:
REMARK  status: ('A' for Active; 'I' for Inactive)
REMARK       I    between atoms: C_2  and  N_3 
REMARK    1  A    between atoms: C_2  and  C_13 
REMARK    2  A    between atoms: N_3  and  C_4 
REMARK    3  A    between atoms: C_4  and  C_5 
REMARK    4  A    between atoms: C_5  and  C_6 
REMARK    5  A    between atoms: N_15  and  C_16 
REMARK    6  A    between atoms: C_16  and  C_17 
ROOT
HETATM    1  O   UNL     1     -39.428 -52.173  13.058  1.00  0.00    -0.273 OA
HETATM    2  C   UNL     1     -40.455 -52.192  12.391  1.00  0.00     0.223 C 
HETATM    3  N   UNL     1     -40.748 -51.230  11.441  1.00  0.00    -0.360 N 
HETATM    4  H   UNL     1     -41.663 -51.227  11.006  1.00  0.00     0.162 HD
ENDROOT
BRANCH   2   5
HETATM    5  C   UNL     1     -41.533 -53.248  12.549  1.00  0.00     0.104 C 
HETATM    6  C   UNL     1     -42.917 -52.646  12.749  1.00  0.00     0.140 C 
HETATM    7  N   UNL     1     -43.606 -53.597  13.589  1.00  0.00    -0.351 N 
HETATM    8  C   UNL     1     -42.718 -54.402  14.281  1.00  0.00     0.220 C 
HETATM    9  O   UNL     1     -42.982 -55.192  15.173  1.00  0.00    -0.273 OA
HETATM   10  C   UNL     1     -41.324 -54.101  13.798  1.00  0.00     0.118 C 
BRANCH   7  11
HETATM   11  C   UNL     1     -44.967 -53.373  14.042  1.00  0.00     0.130 C 
BRANCH  11  12
HETATM   12  C   UNL     1     -45.467 -51.967  13.895  1.00  0.00     0.004 A 
HETATM   13  C   UNL     1     -46.790 -51.549  14.487  1.00  0.00     0.007 A 
HETATM   14  C   UNL     1     -46.599 -51.534  12.995  1.00  0.00     0.007 A 
ENDBRANCH  11  12
ENDBRANCH   7  11
ENDBRANCH   2   5
BRANCH   3  15
HETATM   15  C   UNL     1     -39.849 -50.111  11.192  1.00  0.00     0.128 C 
BRANCH  15  16
HETATM   16  C   UNL     1     -40.345 -48.817  11.833  1.00  0.00     0.076 C 
BRANCH  16  17
HETATM   17  C   UNL     1     -41.610 -48.311  11.190  1.00  0.00     0.010 A 
HETATM   18  C   UNL     1     -42.695 -47.915  11.969  1.00  0.00     0.025 A 
HETATM   19  C   UNL     1     -43.842 -47.442  11.336  1.00  0.00     0.003 A 
HETATM   20  C   UNL     1     -43.877 -47.381   9.948  1.00  0.00     0.017 A 
HETATM   21  C   UNL     1     -42.760 -47.800   9.248  1.00  0.00     0.088 A 
HETATM   22  N   UNL     1     -41.632 -48.263   9.836  1.00  0.00    -0.369 N 
ATOM     23  HN  UNL     1     -40.830 -48.565   9.282  1.00  0.00     0.165 HD
ENDBRANCH  16  17
ENDBRANCH  15  16
ENDBRANCH   3  15
TORSDOF 6
ENDMDL
MODEL 2
REMARK VINA RESULT:      -6.0      2.642      3.571
REMARK  6 active torsions:
REMARK  status: ('A' for Active; 'I' for Inactive)
REMARK       I    between atoms: C_2  and  N_3 
REMARK    1  A    between atoms: C_2  and  C_13 
REMARK    2  A    between atoms: N_3  and  C_4 
REMARK    3  A    between atoms: C_4  and  C_5 
REMARK    4  A    between atoms: C_5  and  C_6 
REMARK    5  A    between atoms: N_15  and  C_16 
REMARK    6  A    between atoms: C_16  and  C_17 
ROOT
HETATM    1  O   UNL     1     -39.663 -53.850  13.431  1.00  0.00    -0.273 OA
HETATM    2  C   UNL     1     -40.769 -53.526  13.846  1.00  0.00     0.223 C 
HETATM    3  N   UNL     1     -40.947 -52.594  14.853  1.00  0.00    -0.360 N 
HETATM    4  H   UNL     1     -41.872 -52.452  15.239  1.00  0.00     0.162 HD
ENDROOT
BRANCH   2   5
HETATM    5  C   UNL     1     -42.063 -54.126  13.330  1.00  0.00     0.104 C 
HETATM    6  C   UNL     1     -43.028 -53.071  12.805  1.00  0.00     0.140 C 
HETATM    7  N   UNL     1     -44.338 -53.614  13.078  1.00  0.00    -0.351 N 
HETATM    8  C   UNL     1     -44.295 -54.571  14.077  1.00  0.00     0.220 C 
HETATM    9  O   UNL     1     -45.245 -55.100  14.632  1.00  0.00    -0.273 OA
HETATM   10  C   UNL     1     -42.854 -54.825  14.433  1.00  0.00     0.118 C 
BRANCH   7  11
HETATM   11  C   UNL     1     -45.551 -52.886  12.752  1.00  0.00     0.130 C 
BRANCH  11  12
HETATM   12  C   UNL     1     -45.744 -51.598  13.495  1.00  0.00     0.004 A 
HETATM   13  C   UNL     1     -45.502 -51.518  14.983  1.00  0.00     0.007 A 
HETATM   14  C   UNL     1     -46.886 -51.297  14.436  1.00  0.00     0.007 A 
ENDBRANCH  11  12
ENDBRANCH   7  11
ENDBRANCH   2   5
BRANCH   3  15
HETATM   15  C   UNL     1     -39.810 -51.952  15.501  1.00  0.00     0.128 C 
BRANCH  15  16
HETATM   16  C   UNL     1     -39.699 -50.472  15.139  1.00  0.00     0.076 C 
BRANCH  16  17
HETATM   17  C   UNL     1     -39.008 -50.260  13.817  1.00  0.00     0.010 A 
HETATM   18  C   UNL     1     -37.807 -50.906  13.530  1.00  0.00     0.025 A 
HETATM   19  C   UNL     1     -37.207 -50.691  12.292  1.00  0.00     0.003 A 
HETATM   20  C   UNL     1     -37.815 -49.839  11.378  1.00  0.00     0.017 A 
HETATM   21  C   UNL     1     -39.003 -49.232  11.744  1.00  0.00     0.088 A 
HETATM   22  N   UNL     1     -39.610 -49.422  12.939  1.00  0.00    -0.369 N 
ATOM     23  HN  UNL     1     -40.486 -48.952  13.170  1.00  0.00     0.165 HD
ENDBRANCH  16  17
ENDBRANCH  15  16
ENDBRANCH   3  15
TORSDOF 6
ENDMDL
MODEL 3
REMARK VINA RESULT:      -5.9      1.665      2.080
REMARK  6 active torsions:
REMARK  status: ('A' for Active; 'I' for Inactive)
REMARK       I    between atoms: C_2  and  N_3 
REMARK    1  A    between atoms: C_2  and  C_13 
REMARK    2  A    between atoms: N_3  and  C_4 
REMARK    3  A    between atoms: C_4  and  C_5 
REMARK    4  A    between atoms: C_5  and  C_6 
REMARK    5  A    between atoms: N_15  and  C_16 
REMARK    6  A    between atoms: C_16  and  C_17 
ROOT
HETATM    1  O   UNL     1     -39.804 -51.533  13.193  1.00  0.00    -0.273 OA
HETATM    2  C   UNL     1     -40.678 -51.793  12.375  1.00  0.00     0.223 C 
HETATM    3  N   UNL     1     -40.978 -50.961  11.311  1.00  0.00    -0.360 N 
HETATM    4  H   UNL     1     -41.787 -51.164  10.736  1.00  0.00     0.162 HD
ENDROOT
BRANCH   2   5
HETATM    5  C   UNL     1     -41.547 -53.034  12.448  1.00  0.00     0.104 C 
HETATM    6  C   UNL     1     -43.033 -52.705  12.501  1.00  0.00     0.140 C 
HETATM    7  N   UNL     1     -43.610 -53.769  13.289  1.00  0.00    -0.351 N 
HETATM    8  C   UNL     1     -42.659 -54.390  14.080  1.00  0.00     0.220 C 
HETATM    9  O   UNL     1     -42.856 -55.215  14.957  1.00  0.00    -0.273 OA
HETATM   10  C   UNL     1     -41.306 -53.831  13.728  1.00  0.00     0.118 C 
BRANCH   7  11
HETATM   11  C   UNL     1     -45.026 -53.806  13.603  1.00  0.00     0.130 C 
BRANCH  11  12
HETATM   12  C   UNL     1     -45.546 -52.621  14.361  1.00  0.00     0.004 A 
HETATM   13  C   UNL     1     -46.969 -52.583  14.859  1.00  0.00     0.007 A 
HETATM   14  C   UNL     1     -46.513 -51.596  13.820  1.00  0.00     0.007 A 
ENDBRANCH  11  12
ENDBRANCH   7  11
ENDBRANCH   2   5
BRANCH   3  15
HETATM   15  C   UNL     1     -40.276 -49.699  11.114  1.00  0.00     0.128 C 
BRANCH  15  16
HETATM   16  C   UNL     1     -41.237 -48.534  10.887  1.00  0.00     0.076 C 
BRANCH  16  17
HETATM   17  C   UNL     1     -40.621 -47.208  11.250  1.00  0.00     0.010 A 
HETATM   18  C   UNL     1     -40.238 -46.937  12.562  1.00  0.00     0.025 A 
HETATM   19  C   UNL     1     -39.661 -45.703  12.854  1.00  0.00     0.003 A 
HETATM   20  C   UNL     1     -39.486 -44.775  11.835  1.00  0.00     0.017 A 
HETATM   21  C   UNL     1     -39.900 -45.120  10.561  1.00  0.00     0.088 A 
HETATM   22  N   UNL     1     -40.462 -46.310  10.247  1.00  0.00    -0.369 N 
ATOM     23  HN  UNL     1     -40.756 -46.524   9.294  1.00  0.00     0.165 HD
ENDBRANCH  16  17
ENDBRANCH  15  16
ENDBRANCH   3  15
TORSDOF 6
ENDMDL
MODEL 4
REMARK VINA RESULT:      -5.9      2.191      3.647
REMARK  6 active torsions:
REMARK  status: ('A' for Active; 'I' for Inactive)
REMARK       I    between atoms: C_2  and  N_3 
REMARK    1  A    between atoms: C_2  and  C_13 
REMARK    2  A    between atoms: N_3  and  C_4 
REMARK    3  A    between atoms: C_4  and  C_5 
REMARK    4  A    between atoms: C_5  and  C_6 
REMARK    5  A    between atoms: N_15  and  C_16 
REMARK    6  A    between atoms: C_16  and  C_17 
ROOT
HETATM    1  O   UNL     1     -39.524 -52.678  13.268  1.00  0.00    -0.273 OA
HETATM    2  C   UNL     1     -40.541 -52.547  12.598  1.00  0.00     0.223 C 
HETATM    3  N   UNL     1     -40.760 -51.455  11.778  1.00  0.00    -0.360 N 
HETATM    4  H   UNL     1     -41.666 -51.338  11.340  1.00  0.00     0.162 HD
ENDROOT
BRANCH   2   5
HETATM    5  C   UNL     1     -41.684 -53.544  12.611  1.00  0.00     0.104 C 
HETATM    6  C   UNL     1     -43.044 -52.877  12.444  1.00  0.00     0.140 C 
HETATM    7  N   UNL     1     -43.950 -53.714  13.196  1.00  0.00    -0.351 N 
HETATM    8  C   UNL     1     -43.278 -54.473  14.138  1.00  0.00     0.220 C 
HETATM    9  O   UNL     1     -43.773 -55.158  15.019  1.00  0.00    -0.273 OA
HETATM   10  C   UNL     1     -41.799 -54.271  13.949  1.00  0.00     0.118 C 
BRANCH   7  11
HETATM   11  C   UNL     1     -45.361 -53.398  13.314  1.00  0.00     0.130 C 
BRANCH  11  12
HETATM   12  C   UNL     1     -45.679 -51.946  13.509  1.00  0.00     0.004 A 
HETATM   13  C   UNL     1     -45.442 -51.272  14.838  1.00  0.00     0.007 A 
HETATM   14  C   UNL     1     -46.843 -51.406  14.305  1.00  0.00     0.007 A 
ENDBRANCH  11  12
ENDBRANCH   7  11
ENDBRANCH   2   5
BRANCH   3  15
HETATM   15  C   UNL     1     -39.789 -50.372  11.680  1.00  0.00     0.128 C 
BRANCH  15  16
HETATM   16  C   UNL     1     -40.076 -49.248  12.673  1.00  0.00     0.076 C 
BRANCH  16  17
HETATM   17  C   UNL     1     -38.927 -49.015  13.618  1.00  0.00     0.010 A 
HETATM   18  C   UNL     1     -38.353 -47.751  13.744  1.00  0.00     0.025 A 
HETATM   19  C   UNL     1     -37.300 -47.575  14.637  1.00  0.00     0.003 A 
HETATM   20  C   UNL     1     -36.845 -48.660  15.376  1.00  0.00     0.017 A 
HETATM   21  C   UNL     1     -37.464 -49.883  15.187  1.00  0.00     0.088 A 
HETATM   22  N   UNL     1     -38.490 -50.083  14.327  1.00  0.00    -0.369 N 
ATOM     23  HN  UNL     1     -38.917 -51.003  14.216  1.00  0.00     0.165 HD
ENDBRANCH  16  17
ENDBRANCH  15  16
ENDBRANCH   3  15
TORSDOF 6
ENDMDL
MODEL 5
REMARK VINA RESULT:      -5.7      2.242      6.236
REMARK  6 active torsions:
REMARK  status: ('A' for Active; 'I' for Inactive)
REMARK       I    between atoms: C_2  and  N_3 
REMARK    1  A    between atoms: C_2  and  C_13 
REMARK    2  A    between atoms: N_3  and  C_4 
REMARK    3  A    between atoms: C_4  and  C_5 
REMARK    4  A    between atoms: C_5  and  C_6 
REMARK    5  A    between atoms: N_15  and  C_16 
REMARK    6  A    between atoms: C_16  and  C_17 
ROOT
HETATM    1  O   UNL     1     -40.958 -50.135  13.664  1.00  0.00    -0.273 OA
HETATM    2  C   UNL     1     -41.840 -49.889  12.850  1.00  0.00     0.223 C 
HETATM    3  N   UNL     1     -42.524 -50.878  12.166  1.00  0.00    -0.360 N 
HETATM    4  H   UNL     1     -43.156 -50.616  11.419  1.00  0.00     0.162 HD
ENDROOT
BRANCH   2   5
HETATM    5  C   UNL     1     -42.261 -48.480  12.477  1.00  0.00     0.104 C 
HETATM    6  C   UNL     1     -43.379 -48.459  11.443  1.00  0.00     0.140 C 
HETATM    7  N   UNL     1     -43.141 -47.256  10.680  1.00  0.00    -0.351 N 
HETATM    8  C   UNL     1     -41.829 -46.831  10.794  1.00  0.00     0.220 C 
HETATM    9  O   UNL     1     -41.285 -45.944  10.157  1.00  0.00    -0.273 OA
HETATM   10  C   UNL     1     -41.132 -47.700  11.806  1.00  0.00     0.118 C 
BRANCH   7  11
HETATM   11  C   UNL     1     -43.985 -46.881   9.560  1.00  0.00     0.130 C 
BRANCH  11  12
HETATM   12  C   UNL     1     -45.411 -47.336   9.652  1.00  0.00     0.004 A 
HETATM   13  C   UNL     1     -46.056 -48.099   8.522  1.00  0.00     0.007 A 
HETATM   14  C   UNL     1     -46.569 -46.734   8.894  1.00  0.00     0.007 A 
ENDBRANCH  11  12
ENDBRANCH   7  11
ENDBRANCH   2   5
BRANCH   3  15
HETATM   15  C   UNL     1     -42.215 -52.289  12.362  1.00  0.00     0.128 C 
BRANCH  15  16
HETATM   16  C   UNL     1     -43.470 -53.130  12.582  1.00  0.00     0.076 C 
BRANCH  16  17
HETATM   17  C   UNL     1     -44.435 -52.474  13.535  1.00  0.00     0.010 A 
HETATM   18  C   UNL     1     -45.686 -52.042  13.097  1.00  0.00     0.025 A 
HETATM   19  C   UNL     1     -46.552 -51.451  14.012  1.00  0.00     0.003 A 
HETATM   20  C   UNL     1     -46.151 -51.304  15.334  1.00  0.00     0.017 A 
HETATM   21  C   UNL     1     -44.891 -51.753  15.686  1.00  0.00     0.088 A 
HETATM   22  N   UNL     1     -44.027 -52.331  14.819  1.00  0.00    -0.369 N 
ATOM     23  HN  UNL     1     -43.105 -52.648  15.120  1.00  0.00     0.165 HD
ENDBRANCH  16  17
ENDBRANCH  15  16
ENDBRANCH   3  15
TORSDOF 6
ENDMDL
MODEL 6
REMARK VINA RESULT:      -5.6      2.446      6.727
REMARK  6 active torsions:
REMARK  status: ('A' for Active; 'I' for Inactive)
REMARK       I    between atoms: C_2  and  N_3 
REMARK    1  A    between atoms: C_2  and  C_13 
REMARK    2  A    between atoms: N_3  and  C_4 
REMARK    3  A    between atoms: C_4  and  C_5 
REMARK    4  A    between atoms: C_5  and  C_6 
REMARK    5  A    between atoms: N_15  and  C_16 
REMARK    6  A    between atoms: C_16  and  C_17 
ROOT
HETATM    1  O   UNL     1     -41.971 -52.247  13.938  1.00  0.00    -0.273 OA
HETATM    2  C   UNL     1     -41.990 -52.126  12.719  1.00  0.00     0.223 C 
HETATM    3  N   UNL     1     -42.944 -52.733  11.922  1.00  0.00    -0.360 N 
HETATM    4  H   UNL     1     -42.842 -52.697  10.914  1.00  0.00     0.162 HD
ENDROOT
BRANCH   2   5
HETATM    5  C   UNL     1     -40.960 -51.325  11.944  1.00  0.00     0.104 C 
HETATM    6  C   UNL     1     -39.648 -51.172  12.702  1.00  0.00     0.140 C 
HETATM    7  N   UNL     1     -39.137 -49.888  12.281  1.00  0.00    -0.351 N 
HETATM    8  C   UNL     1     -40.141 -49.080  11.778  1.00  0.00     0.220 C 
HETATM    9  O   UNL     1     -40.057 -47.899  11.484  1.00  0.00    -0.273 OA
HETATM   10  C   UNL     1     -41.411 -49.886  11.704  1.00  0.00     0.118 C 
BRANCH   7  11
HETATM   11  C   UNL     1     -37.896 -49.349  12.808  1.00  0.00     0.130 C 
BRANCH  11  12
HETATM   12  C   UNL     1     -37.989 -48.756  14.182  1.00  0.00     0.004 A 
HETATM   13  C   UNL     1     -37.074 -47.633  14.604  1.00  0.00     0.007 A 
HETATM   14  C   UNL     1     -36.988 -48.968  15.292  1.00  0.00     0.007 A 
ENDBRANCH  11  12
ENDBRANCH   7  11
ENDBRANCH   2   5
BRANCH   3  15
HETATM   15  C   UNL     1     -43.982 -53.581  12.493  1.00  0.00     0.128 C 
BRANCH  15  16
HETATM   16  C   UNL     1     -45.327 -52.865  12.585  1.00  0.00     0.076 C 
BRANCH  16  17
HETATM   17  C   UNL     1     -45.647 -52.433  13.992  1.00  0.00     0.010 A 
HETATM   18  C   UNL     1     -46.757 -51.632  14.256  1.00  0.00     0.025 A 
HETATM   19  C   UNL     1     -47.023 -51.263  15.572  1.00  0.00     0.003 A 
HETATM   20  C   UNL     1     -46.179 -51.699  16.586  1.00  0.00     0.017 A 
HETATM   21  C   UNL     1     -45.096 -52.485  16.239  1.00  0.00     0.088 A 
HETATM   22  N   UNL     1     -44.811 -52.859  14.969  1.00  0.00    -0.369 N 
ATOM     23  HN  UNL     1     -43.999 -53.439  14.756  1.00  0.00     0.165 HD
ENDBRANCH  16  17
ENDBRANCH  15  16
ENDBRANCH   3  15
TORSDOF 6
ENDMDL
MODEL 7
REMARK VINA RESULT:      -5.5      2.199      2.768
REMARK  6 active torsions:
REMARK  status: ('A' for Active; 'I' for Inactive)
REMARK       I    between atoms: C_2  and  N_3 
REMARK    1  A    between atoms: C_2  and  C_13 
REMARK    2  A    between atoms: N_3  and  C_4 
REMARK    3  A    between atoms: C_4  and  C_5 
REMARK    4  A    between atoms: C_5  and  C_6 
REMARK    5  A    between atoms: N_15  and  C_16 
REMARK    6  A    between atoms: C_16  and  C_17 
ROOT
HETATM    1  O   UNL     1     -41.242 -51.100  14.247  1.00  0.00    -0.273 OA
HETATM    2  C   UNL     1     -41.299 -51.536  13.104  1.00  0.00     0.223 C 
HETATM    3  N   UNL     1     -40.187 -51.641  12.287  1.00  0.00    -0.360 N 
HETATM    4  H   UNL     1     -40.310 -51.896  11.314  1.00  0.00     0.162 HD
ENDROOT
BRANCH   2   5
HETATM    5  C   UNL     1     -42.590 -51.983  12.444  1.00  0.00     0.104 C 
HETATM    6  C   UNL     1     -43.807 -51.236  12.975  1.00  0.00     0.140 C 
HETATM    7  N   UNL     1     -44.885 -52.192  12.883  1.00  0.00    -0.351 N 
HETATM    8  C   UNL     1     -44.411 -53.491  12.830  1.00  0.00     0.220 C 
HETATM    9  O   UNL     1     -45.067 -54.518  12.901  1.00  0.00    -0.273 OA
HETATM   10  C   UNL     1     -42.909 -53.448  12.735  1.00  0.00     0.118 C 
BRANCH   7  11
HETATM   11  C   UNL     1     -46.229 -51.873  13.327  1.00  0.00     0.130 C 
BRANCH  11  12
HETATM   12  C   UNL     1     -46.326 -51.279  14.700  1.00  0.00     0.004 A 
HETATM   13  C   UNL     1     -45.772 -52.007  15.901  1.00  0.00     0.007 A 
HETATM   14  C   UNL     1     -47.252 -51.757  15.794  1.00  0.00     0.007 A 
ENDBRANCH  11  12
ENDBRANCH   7  11
ENDBRANCH   2   5
BRANCH   3  15
HETATM   15  C   UNL     1     -38.870 -51.211  12.739  1.00  0.00     0.128 C 
BRANCH  15  16
HETATM   16  C   UNL     1     -38.286 -50.114  11.852  1.00  0.00     0.076 C 
BRANCH  16  17
HETATM   17  C   UNL     1     -38.885 -48.763  12.146  1.00  0.00     0.010 A 
HETATM   18  C   UNL     1     -38.703 -48.158  13.388  1.00  0.00     0.025 A 
HETATM   19  C   UNL     1     -39.265 -46.905  13.615  1.00  0.00     0.003 A 
HETATM   20  C   UNL     1     -39.993 -46.291  12.603  1.00  0.00     0.017 A 
HETATM   21  C   UNL     1     -40.133 -46.963  11.401  1.00  0.00     0.088 A 
HETATM   22  N   UNL     1     -39.599 -48.181  11.152  1.00  0.00    -0.369 N 
ATOM     23  HN  UNL     1     -39.727 -48.642  10.251  1.00  0.00     0.165 HD
ENDBRANCH  16  17
ENDBRANCH  15  16
ENDBRANCH   3  15
TORSDOF 6
ENDMDL
MODEL 8
REMARK VINA RESULT:      -5.5      2.723      3.776
REMARK  6 active torsions:
REMARK  status: ('A' for Active; 'I' for Inactive)
REMARK       I    between atoms: C_2  and  N_3 
REMARK    1  A    between atoms: C_2  and  C_13 
REMARK    2  A    between atoms: N_3  and  C_4 
REMARK    3  A    between atoms: C_4  and  C_5 
REMARK    4  A    between atoms: C_5  and  C_6 
REMARK    5  A    between atoms: N_15  and  C_16 
REMARK    6  A    between atoms: C_16  and  C_17 
ROOT
HETATM    1  O   UNL     1     -40.726 -53.828  14.077  1.00  0.00    -0.273 OA
HETATM    2  C   UNL     1     -41.833 -53.848  13.553  1.00  0.00     0.223 C 
HETATM    3  N   UNL     1     -42.111 -53.192  12.368  1.00  0.00    -0.360 N 
HETATM    4  H   UNL     1     -43.069 -53.141  12.042  1.00  0.00     0.162 HD
ENDROOT
BRANCH   2   5
HETATM    5  C   UNL     1     -43.028 -54.564  14.154  1.00  0.00     0.104 C 
HETATM    6  C   UNL     1     -44.353 -53.929  13.752  1.00  0.00     0.140 C 
HETATM    7  N   UNL     1     -45.220 -54.158  14.884  1.00  0.00    -0.351 N 
HETATM    8  C   UNL     1     -44.497 -54.400  16.039  1.00  0.00     0.220 C 
HETATM    9  O   UNL     1     -44.931 -54.479  17.176  1.00  0.00    -0.273 OA
HETATM   10  C   UNL     1     -43.037 -54.489  15.679  1.00  0.00     0.118 C 
BRANCH   7  11
HETATM   11  C   UNL     1     -46.587 -53.671  14.910  1.00  0.00     0.130 C 
BRANCH  11  12
HETATM   12  C   UNL     1     -46.740 -52.185  14.789  1.00  0.00     0.004 A 
HETATM   13  C   UNL     1     -45.916 -51.248  15.638  1.00  0.00     0.007 A 
HETATM   14  C   UNL     1     -47.411 -51.291  15.804  1.00  0.00     0.007 A 
ENDBRANCH  11  12
ENDBRANCH   7  11
ENDBRANCH   2   5
BRANCH   3  15
HETATM   15  C   UNL     1     -41.093 -52.410  11.676  1.00  0.00     0.128 C 
BRANCH  15  16
HETATM   16  C   UNL     1     -41.128 -50.936  12.074  1.00  0.00     0.076 C 
BRANCH  16  17
HETATM   17  C   UNL     1     -39.861 -50.501  12.763  1.00  0.00     0.010 A 
HETATM   18  C   UNL     1     -38.934 -49.694  12.105  1.00  0.00     0.025 A 
HETATM   19  C   UNL     1     -37.781 -49.306  12.782  1.00  0.00     0.003 A 
HETATM   20  C   UNL     1     -37.581 -49.733  14.089  1.00  0.00     0.017 A 
HETATM   21  C   UNL     1     -38.546 -50.538  14.666  1.00  0.00     0.088 A 
HETATM   22  N   UNL     1     -39.676 -50.931  14.034  1.00  0.00    -0.369 N 
ATOM     23  HN  UNL     1     -40.363 -51.528  14.497  1.00  0.00     0.165 HD
ENDBRANCH  16  17
ENDBRANCH  15  16
ENDBRANCH   3  15
TORSDOF 6
ENDMDL
MODEL 9
REMARK VINA RESULT:      -5.5      2.079      6.004
REMARK  6 active torsions:
REMARK  status: ('A' for Active; 'I' for Inactive)
REMARK       I    between atoms: C_2  and  N_3 
REMARK    1  A    between atoms: C_2  and  C_13 
REMARK    2  A    between atoms: N_3  and  C_4 
REMARK    3  A    between atoms: C_4  and  C_5 
REMARK    4  A    between atoms: C_5  and  C_6 
REMARK    5  A    between atoms: N_15  and  C_16 
REMARK    6  A    between atoms: C_16  and  C_17 
ROOT
HETATM    1  O   UNL     1     -41.975 -52.316  15.835  1.00  0.00    -0.273 OA
HETATM    2  C   UNL     1     -41.265 -52.377  14.839  1.00  0.00     0.223 C 
HETATM    3  N   UNL     1     -41.487 -53.280  13.815  1.00  0.00    -0.360 N 
HETATM    4  H   UNL     1     -40.802 -53.369  13.075  1.00  0.00     0.162 HD
ENDROOT
BRANCH   2   5
HETATM    5  C   UNL     1     -40.049 -51.495  14.626  1.00  0.00     0.104 C 
HETATM    6  C   UNL     1     -40.346 -50.295  13.737  1.00  0.00     0.140 C 
HETATM    7  N   UNL     1     -39.103 -50.043  13.045  1.00  0.00    -0.351 N 
HETATM    8  C   UNL     1     -38.290 -51.163  13.034  1.00  0.00     0.220 C 
HETATM    9  O   UNL     1     -37.254 -51.315  12.407  1.00  0.00    -0.273 OA
HETATM   10  C   UNL     1     -38.929 -52.226  13.888  1.00  0.00     0.118 C 
BRANCH   7  11
HETATM   11  C   UNL     1     -38.975 -48.981  12.065  1.00  0.00     0.130 C 
BRANCH  11  12
HETATM   12  C   UNL     1     -40.072 -47.958  12.082  1.00  0.00     0.004 A 
HETATM   13  C   UNL     1     -41.082 -47.885  10.964  1.00  0.00     0.007 A 
HETATM   14  C   UNL     1     -40.139 -46.736  11.198  1.00  0.00     0.007 A 
ENDBRANCH  11  12
ENDBRANCH   7  11
ENDBRANCH   2   5
BRANCH   3  15
HETATM   15  C   UNL     1     -42.583 -54.240  13.875  1.00  0.00     0.128 C 
BRANCH  15  16
HETATM   16  C   UNL     1     -43.714 -53.885  12.913  1.00  0.00     0.076 C 
BRANCH  16  17
HETATM   17  C   UNL     1     -44.765 -53.024  13.563  1.00  0.00     0.010 A 
HETATM   18  C   UNL     1     -45.658 -52.284  12.789  1.00  0.00     0.025 A 
HETATM   19  C   UNL     1     -46.621 -51.509  13.429  1.00  0.00     0.003 A 
HETATM   20  C   UNL     1     -46.667 -51.488  14.818  1.00  0.00     0.017 A 
HETATM   21  C   UNL     1     -45.740 -52.245  15.512  1.00  0.00     0.088 A 
HETATM   22  N   UNL     1     -44.793 -53.008  14.918  1.00  0.00    -0.369 N 
ATOM     23  HN  UNL     1     -44.126 -53.550  15.468  1.00  0.00     0.165 HD
ENDBRANCH  16  17
ENDBRANCH  15  16
ENDBRANCH   3  15
TORSDOF 6
ENDMDL
