MODEL 1
REMARK VINA RESULT:      -6.0      0.000      0.000
REMARK  2 active torsions:
REMARK  status: ('A' for Active; 'I' for Inactive)
REMARK    1  A    between atoms: C_7  and  N_8 
REMARK       I    between atoms: N_8  and  C_9 
REMARK       I    between atoms: C_9  and  N_11 
REMARK    2  A    between atoms: N_11  and  C_12 
ROOT
HETATM    1  N   UNL     1     -41.571 -47.653   9.893  1.00  0.00    -0.288 N 
HETATM    2  C   UNL     1     -41.212 -48.515  10.898  1.00  0.00     0.322 C 
HETATM    3  O   UNL     1     -41.895 -49.428  11.344  1.00  0.00    -0.247 OA
HETATM    4  N   UNL     1     -39.955 -48.233  11.402  1.00  0.00    -0.338 N 
HETATM    5  H   UNL     1     -40.917 -46.994   9.509  1.00  0.00     0.172 HD
HETATM    6  H   UNL     1     -39.304 -47.826  10.748  1.00  0.00     0.164 HD
ENDROOT
BRANCH   1   7
HETATM    7  C   UNL     1     -42.825 -47.714   9.342  1.00  0.00     0.169 A 
HETATM    8  N   UNL     1     -43.201 -48.155   8.167  1.00  0.00    -0.279 N 
HETATM    9  N   UNL     1     -44.560 -48.032   7.974  1.00  0.00    -0.296 N 
ATOM     10  HN  UNL     1     -42.561 -48.545   7.474  1.00  0.00     0.189 HD
HETATM   11  C   UNL     1     -45.156 -47.484   9.010  1.00  0.00     0.066 A 
ATOM     12  HN  UNL     1     -45.046 -48.331   7.128  1.00  0.00     0.187 HD
HETATM   13  C   UNL     1     -46.604 -47.166   9.065  1.00  0.00     0.078 C 
HETATM   14  S   UNL     1     -44.098 -47.133  10.325  1.00  0.00    -0.038 SA
ENDBRANCH   1   7
BRANCH   4  15
HETATM   15  C   UNL     1     -39.381 -49.099  12.424  1.00  0.00     0.086 C 
HETATM   16  C   UNL     1     -38.766 -48.348  13.616  1.00  0.00     0.025 C 
HETATM   17  C   UNL     1     -37.518 -49.126  14.029  1.00  0.00     0.002 C 
HETATM   18  C   UNL     1     -37.464 -50.350  13.126  1.00  0.00     0.002 C 
HETATM   19  C   UNL     1     -38.227 -49.936  11.880  1.00  0.00     0.025 C 
ENDBRANCH   4  15
TORSDOF 2
ENDMDL
MODEL 2
REMARK VINA RESULT:      -5.8      3.677      6.460
REMARK  2 active torsions:
REMARK  status: ('A' for Active; 'I' for Inactive)
REMARK    1  A    between atoms: C_7  and  N_8 
REMARK       I    between atoms: N_8  and  C_9 
REMARK       I    between atoms: C_9  and  N_11 
REMARK    2  A    between atoms: N_11  and  C_12 
ROOT
HETATM    1  N   UNL     1     -40.425 -50.910  11.226  1.00  0.00    -0.288 N 
HETATM    2  C   UNL     1     -41.391 -49.955  11.419  1.00  0.00     0.322 C 
HETATM    3  O   UNL     1     -42.320 -50.017  12.214  1.00  0.00    -0.247 OA
HETATM    4  N   UNL     1     -41.226 -48.869  10.576  1.00  0.00    -0.338 N 
HETATM    5  H   UNL     1     -39.635 -50.743  10.630  1.00  0.00     0.172 HD
HETATM    6  H   UNL     1     -40.276 -48.665  10.309  1.00  0.00     0.164 HD
ENDROOT
BRANCH   1   7
HETATM    7  C   UNL     1     -40.485 -52.102  11.901  1.00  0.00     0.169 A 
HETATM    8  N   UNL     1     -40.956 -53.261  11.509  1.00  0.00    -0.279 N 
HETATM    9  N   UNL     1     -40.854 -54.223  12.491  1.00  0.00    -0.296 N 
ATOM     10  HN  UNL     1     -41.351 -53.431  10.584  1.00  0.00     0.189 HD
HETATM   11  C   UNL     1     -40.325 -53.744  13.595  1.00  0.00     0.066 A 
ATOM     12  HN  UNL     1     -41.154 -55.191  12.374  1.00  0.00     0.187 HD
HETATM   13  C   UNL     1     -40.151 -54.529  14.842  1.00  0.00     0.078 C 
HETATM   14  S   UNL     1     -39.856 -52.090  13.490  1.00  0.00    -0.038 SA
ENDBRANCH   1   7
BRANCH   4  15
HETATM   15  C   UNL     1     -42.119 -47.724  10.698  1.00  0.00     0.086 C 
HETATM   16  C   UNL     1     -43.129 -47.586   9.548  1.00  0.00     0.025 C 
HETATM   17  C   UNL     1     -43.279 -46.091   9.272  1.00  0.00     0.002 C 
HETATM   18  C   UNL     1     -42.416 -45.381  10.306  1.00  0.00     0.002 C 
HETATM   19  C   UNL     1     -41.357 -46.403  10.681  1.00  0.00     0.025 C 
ENDBRANCH   4  15
TORSDOF 2
ENDMDL
MODEL 3
REMARK VINA RESULT:      -5.7      3.850      5.709
REMARK  2 active torsions:
REMARK  status: ('A' for Active; 'I' for Inactive)
REMARK    1  A    between atoms: C_7  and  N_8 
REMARK       I    between atoms: N_8  and  C_9 
REMARK       I    between atoms: C_9  and  N_11 
REMARK    2  A    between atoms: N_11  and  C_12 
ROOT
HETATM    1  N   UNL     1     -39.828 -49.448  11.953  1.00  0.00    -0.288 N 
HETATM    2  C   UNL     1     -40.566 -48.459  11.353  1.00  0.00     0.322 C 
HETATM    3  O   UNL     1     -41.670 -48.592  10.839  1.00  0.00    -0.247 OA
HETATM    4  N   UNL     1     -39.910 -47.240  11.361  1.00  0.00    -0.338 N 
HETATM    5  H   UNL     1     -38.977 -49.241  12.444  1.00  0.00     0.172 HD
HETATM    6  H   UNL     1     -39.286 -47.086  12.138  1.00  0.00     0.164 HD
ENDROOT
BRANCH   1   7
HETATM    7  C   UNL     1     -40.272 -50.744  11.948  1.00  0.00     0.169 A 
HETATM    8  N   UNL     1     -40.898 -51.410  11.008  1.00  0.00    -0.279 N 
HETATM    9  N   UNL     1     -41.197 -52.699  11.394  1.00  0.00    -0.296 N 
ATOM     10  HN  UNL     1     -41.135 -51.020  10.096  1.00  0.00     0.189 HD
HETATM   11  C   UNL     1     -40.799 -52.950  12.622  1.00  0.00     0.066 A 
ATOM     12  HN  UNL     1     -41.670 -53.378  10.797  1.00  0.00     0.187 HD
HETATM   13  C   UNL     1     -41.042 -54.231  13.329  1.00  0.00     0.078 C 
HETATM   14  S   UNL     1     -39.973 -51.638  13.375  1.00  0.00    -0.038 SA
ENDBRANCH   1   7
BRANCH   4  15
HETATM   15  C   UNL     1     -40.583 -46.060  10.834  1.00  0.00     0.086 C 
HETATM   16  C   UNL     1     -39.633 -44.921  10.429  1.00  0.00     0.025 C 
HETATM   17  C   UNL     1     -40.330 -43.614  10.806  1.00  0.00     0.002 C 
HETATM   18  C   UNL     1     -41.696 -44.005  11.353  1.00  0.00     0.002 C 
HETATM   19  C   UNL     1     -41.506 -45.422  11.866  1.00  0.00     0.025 C 
ENDBRANCH   4  15
TORSDOF 2
ENDMDL
MODEL 4
REMARK VINA RESULT:      -5.7      5.077      5.329
REMARK  2 active torsions:
REMARK  status: ('A' for Active; 'I' for Inactive)
REMARK    1  A    between atoms: C_7  and  N_8 
REMARK       I    between atoms: N_8  and  C_9 
REMARK       I    between atoms: C_9  and  N_11 
REMARK    2  A    between atoms: N_11  and  C_12 
ROOT
HETATM    1  N   UNL     1     -42.810 -52.674  11.823  1.00  0.00    -0.288 N 
HETATM    2  C   UNL     1     -41.996 -51.753  12.433  1.00  0.00     0.322 C 
HETATM    3  O   UNL     1     -42.211 -51.193  13.500  1.00  0.00    -0.247 OA
HETATM    4  N   UNL     1     -40.863 -51.483  11.686  1.00  0.00    -0.338 N 
HETATM    5  H   UNL     1     -42.517 -53.168  10.999  1.00  0.00     0.172 HD
HETATM    6  H   UNL     1     -40.527 -52.242  11.113  1.00  0.00     0.164 HD
ENDROOT
BRANCH   1   7
HETATM    7  C   UNL     1     -44.028 -52.989  12.367  1.00  0.00     0.169 A 
HETATM    8  N   UNL     1     -45.214 -52.499  12.102  1.00  0.00    -0.279 N 
HETATM    9  N   UNL     1     -46.199 -53.067  12.881  1.00  0.00    -0.296 N 
ATOM     10  HN  UNL     1     -45.388 -51.780  11.400  1.00  0.00     0.189 HD
HETATM   11  C   UNL     1     -45.711 -53.955  13.720  1.00  0.00     0.066 A 
ATOM     12  HN  UNL     1     -47.188 -52.827  12.815  1.00  0.00     0.187 HD
HETATM   13  C   UNL     1     -46.523 -54.681  14.727  1.00  0.00     0.078 C 
HETATM   14  S   UNL     1     -44.013 -54.203  13.572  1.00  0.00    -0.038 SA
ENDBRANCH   1   7
BRANCH   4  15
HETATM   15  C   UNL     1     -39.848 -50.585  12.220  1.00  0.00     0.086 C 
HETATM   16  C   UNL     1     -39.075 -49.797  11.150  1.00  0.00     0.025 C 
HETATM   17  C   UNL     1     -37.629 -49.701  11.634  1.00  0.00     0.002 C 
HETATM   18  C   UNL     1     -37.596 -50.365  13.003  1.00  0.00     0.002 C 
HETATM   19  C   UNL     1     -38.762 -51.339  12.980  1.00  0.00     0.025 C 
ENDBRANCH   4  15
TORSDOF 2
ENDMDL
MODEL 5
REMARK VINA RESULT:      -5.6      2.280      6.797
REMARK  2 active torsions:
REMARK  status: ('A' for Active; 'I' for Inactive)
REMARK    1  A    between atoms: C_7  and  N_8 
REMARK       I    between atoms: N_8  and  C_9 
REMARK       I    between atoms: C_9  and  N_11 
REMARK    2  A    between atoms: N_11  and  C_12 
ROOT
HETATM    1  N   UNL     1     -40.710 -49.363  10.446  1.00  0.00    -0.288 N 
HETATM    2  C   UNL     1     -41.769 -48.569  10.806  1.00  0.00     0.322 C 
HETATM    3  O   UNL     1     -42.102 -48.283  11.949  1.00  0.00    -0.247 OA
HETATM    4  N   UNL     1     -42.477 -48.113   9.707  1.00  0.00    -0.338 N 
HETATM    5  H   UNL     1     -40.436 -49.467   9.485  1.00  0.00     0.172 HD
HETATM    6  H   UNL     1     -41.939 -47.988   8.863  1.00  0.00     0.164 HD
ENDROOT
BRANCH   1   7
HETATM    7  C   UNL     1     -39.956 -49.988  11.404  1.00  0.00     0.169 A 
HETATM    8  N   UNL     1     -40.049 -51.206  11.878  1.00  0.00    -0.279 N 
HETATM    9  N   UNL     1     -39.111 -51.458  12.857  1.00  0.00    -0.296 N 
ATOM     10  HN  UNL     1     -40.735 -51.890  11.559  1.00  0.00     0.189 HD
HETATM   11  C   UNL     1     -38.356 -50.408  13.096  1.00  0.00     0.066 A 
ATOM     12  HN  UNL     1     -39.014 -52.352  13.338  1.00  0.00     0.187 HD
HETATM   13  C   UNL     1     -37.305 -50.360  14.141  1.00  0.00     0.078 C 
HETATM   14  S   UNL     1     -38.702 -49.051  12.092  1.00  0.00    -0.038 SA
ENDBRANCH   1   7
BRANCH   4  15
HETATM   15  C   UNL     1     -43.589 -47.192   9.901  1.00  0.00     0.086 C 
HETATM   16  C   UNL     1     -44.976 -47.833   9.731  1.00  0.00     0.025 C 
HETATM   17  C   UNL     1     -45.860 -46.790   9.050  1.00  0.00     0.002 C 
HETATM   18  C   UNL     1     -45.004 -45.540   8.900  1.00  0.00     0.002 C 
HETATM   19  C   UNL     1     -43.577 -46.061   8.879  1.00  0.00     0.025 C 
ENDBRANCH   4  15
TORSDOF 2
ENDMDL
MODEL 6
REMARK VINA RESULT:      -5.6      4.640      6.658
REMARK  2 active torsions:
REMARK  status: ('A' for Active; 'I' for Inactive)
REMARK    1  A    between atoms: C_7  and  N_8 
REMARK       I    between atoms: N_8  and  C_9 
REMARK       I    between atoms: C_9  and  N_11 
REMARK    2  A    between atoms: N_11  and  C_12 
ROOT
HETATM    1  N   UNL     1     -42.364 -49.735  12.038  1.00  0.00    -0.288 N 
HETATM    2  C   UNL     1     -42.884 -50.654  12.914  1.00  0.00     0.322 C 
HETATM    3  O   UNL     1     -42.255 -51.513  13.518  1.00  0.00    -0.247 OA
HETATM    4  N   UNL     1     -44.256 -50.530  13.046  1.00  0.00    -0.338 N 
HETATM    5  H   UNL     1     -42.927 -48.994  11.661  1.00  0.00     0.172 HD
HETATM    6  H   UNL     1     -44.625 -49.600  12.918  1.00  0.00     0.164 HD
ENDROOT
BRANCH   1   7
HETATM    7  C   UNL     1     -41.035 -49.772  11.704  1.00  0.00     0.169 A 
HETATM    8  N   UNL     1     -40.469 -50.077  10.562  1.00  0.00    -0.279 N 
HETATM    9  N   UNL     1     -39.094 -50.015  10.630  1.00  0.00    -0.296 N 
ATOM     10  HN  UNL     1     -40.986 -50.330   9.720  1.00  0.00     0.189 HD
HETATM   11  C   UNL     1     -38.675 -49.682  11.831  1.00  0.00     0.066 A 
ATOM     12  HN  UNL     1     -38.474 -50.205   9.842  1.00  0.00     0.187 HD
HETATM   13  C   UNL     1     -37.246 -49.600  12.221  1.00  0.00     0.078 C 
HETATM   14  S   UNL     1     -39.943 -49.360  12.953  1.00  0.00    -0.038 SA
ENDBRANCH   1   7
BRANCH   4  15
HETATM   15  C   UNL     1     -44.965 -51.376  13.996  1.00  0.00     0.086 C 
HETATM   16  C   UNL     1     -46.472 -51.511  13.721  1.00  0.00     0.025 C 
HETATM   17  C   UNL     1     -47.166 -51.542  15.082  1.00  0.00     0.002 C 
HETATM   18  C   UNL     1     -46.057 -51.499  16.124  1.00  0.00     0.002 C 
HETATM   19  C   UNL     1     -44.898 -50.821  15.415  1.00  0.00     0.025 C 
ENDBRANCH   4  15
TORSDOF 2
ENDMDL
MODEL 7
REMARK VINA RESULT:      -5.5      4.495      5.413
REMARK  2 active torsions:
REMARK  status: ('A' for Active; 'I' for Inactive)
REMARK    1  A    between atoms: C_7  and  N_8 
REMARK       I    between atoms: N_8  and  C_9 
REMARK       I    between atoms: C_9  and  N_11 
REMARK    2  A    between atoms: N_11  and  C_12 
ROOT
HETATM    1  N   UNL     1     -41.207 -50.575  11.563  1.00  0.00    -0.288 N 
HETATM    2  C   UNL     1     -42.187 -51.003  12.423  1.00  0.00     0.322 C 
HETATM    3  O   UNL     1     -43.121 -50.333  12.845  1.00  0.00    -0.247 OA
HETATM    4  N   UNL     1     -42.003 -52.319  12.808  1.00  0.00    -0.338 N 
HETATM    5  H   UNL     1     -40.532 -51.211  11.179  1.00  0.00     0.172 HD
HETATM    6  H   UNL     1     -41.548 -52.912  12.132  1.00  0.00     0.164 HD
ENDROOT
BRANCH   1   7
HETATM    7  C   UNL     1     -41.167 -49.266  11.155  1.00  0.00     0.169 A 
HETATM    8  N   UNL     1     -41.900 -48.646  10.263  1.00  0.00    -0.279 N 
HETATM    9  N   UNL     1     -41.539 -47.324  10.121  1.00  0.00    -0.296 N 
ATOM     10  HN  UNL     1     -42.651 -49.090   9.736  1.00  0.00     0.189 HD
HETATM   11  C   UNL     1     -40.531 -47.002  10.902  1.00  0.00     0.066 A 
ATOM     12  HN  UNL     1     -41.999 -46.672   9.486  1.00  0.00     0.187 HD
HETATM   13  C   UNL     1     -39.884 -45.667  10.919  1.00  0.00     0.078 C 
HETATM   14  S   UNL     1     -39.990 -48.286  11.916  1.00  0.00    -0.038 SA
ENDBRANCH   1   7
BRANCH   4  15
HETATM   15  C   UNL     1     -42.995 -52.962  13.660  1.00  0.00     0.086 C 
HETATM   16  C   UNL     1     -42.405 -53.943  14.686  1.00  0.00     0.025 C 
HETATM   17  C   UNL     1     -43.385 -55.111  14.791  1.00  0.00     0.002 C 
HETATM   18  C   UNL     1     -44.558 -54.762  13.887  1.00  0.00     0.002 C 
HETATM   19  C   UNL     1     -43.972 -53.813  12.856  1.00  0.00     0.025 C 
ENDBRANCH   4  15
TORSDOF 2
ENDMDL
MODEL 8
REMARK VINA RESULT:      -5.5      3.612      4.494
REMARK  2 active torsions:
REMARK  status: ('A' for Active; 'I' for Inactive)
REMARK    1  A    between atoms: C_7  and  N_8 
REMARK       I    between atoms: N_8  and  C_9 
REMARK       I    between atoms: C_9  and  N_11 
REMARK    2  A    between atoms: N_11  and  C_12 
ROOT
HETATM    1  N   UNL     1     -42.203 -49.003  11.131  1.00  0.00    -0.288 N 
HETATM    2  C   UNL     1     -41.699 -49.880  12.058  1.00  0.00     0.322 C 
HETATM    3  O   UNL     1     -40.768 -49.665  12.824  1.00  0.00    -0.247 OA
HETATM    4  N   UNL     1     -42.354 -51.098  12.034  1.00  0.00    -0.338 N 
HETATM    5  H   UNL     1     -43.035 -49.213  10.610  1.00  0.00     0.172 HD
HETATM    6  H   UNL     1     -43.323 -51.067  11.756  1.00  0.00     0.164 HD
ENDROOT
BRANCH   1   7
HETATM    7  C   UNL     1     -41.612 -47.781  10.940  1.00  0.00     0.169 A 
HETATM    8  N   UNL     1     -40.409 -47.494  10.506  1.00  0.00    -0.279 N 
HETATM    9  N   UNL     1     -40.179 -46.135  10.470  1.00  0.00    -0.296 N 
ATOM     10  HN  UNL     1     -39.722 -48.194  10.227  1.00  0.00     0.189 HD
HETATM   11  C   UNL     1     -41.217 -45.449  10.897  1.00  0.00     0.066 A 
ATOM     12  HN  UNL     1     -39.308 -45.712  10.150  1.00  0.00     0.187 HD
HETATM   13  C   UNL     1     -41.239 -43.972  11.033  1.00  0.00     0.078 C 
HETATM   14  S   UNL     1     -42.576 -46.421  11.319  1.00  0.00    -0.038 SA
ENDBRANCH   1   7
BRANCH   4  15
HETATM   15  C   UNL     1     -41.999 -52.123  13.007  1.00  0.00     0.086 C 
HETATM   16  C   UNL     1     -40.787 -52.980  12.607  1.00  0.00     0.025 C 
HETATM   17  C   UNL     1     -41.081 -54.404  13.077  1.00  0.00     0.002 C 
HETATM   18  C   UNL     1     -42.418 -54.343  13.803  1.00  0.00     0.002 C 
HETATM   19  C   UNL     1     -43.121 -53.139  13.200  1.00  0.00     0.025 C 
ENDBRANCH   4  15
TORSDOF 2
ENDMDL
MODEL 9
REMARK VINA RESULT:      -5.2      4.187      5.517
REMARK  2 active torsions:
REMARK  status: ('A' for Active; 'I' for Inactive)
REMARK    1  A    between atoms: C_7  and  N_8 
REMARK       I    between atoms: N_8  and  C_9 
REMARK       I    between atoms: C_9  and  N_11 
REMARK    2  A    between atoms: N_11  and  C_12 
ROOT
HETATM    1  N   UNL     1     -43.028 -48.565  11.457  1.00  0.00    -0.288 N 
HETATM    2  C   UNL     1     -42.946 -49.487  12.470  1.00  0.00     0.322 C 
HETATM    3  O   UNL     1     -41.993 -49.653  13.220  1.00  0.00    -0.247 OA
HETATM    4  N   UNL     1     -44.086 -50.266  12.559  1.00  0.00    -0.338 N 
HETATM    5  H   UNL     1     -43.882 -48.416  10.951  1.00  0.00     0.172 HD
HETATM    6  H   UNL     1     -44.943 -49.820  12.269  1.00  0.00     0.164 HD
ENDROOT
BRANCH   1   7
HETATM    7  C   UNL     1     -41.951 -47.772  11.153  1.00  0.00     0.169 A 
HETATM    8  N   UNL     1     -40.715 -48.111  10.882  1.00  0.00    -0.279 N 
HETATM    9  N   UNL     1     -39.914 -47.014  10.645  1.00  0.00    -0.296 N 
ATOM     10  HN  UNL     1     -40.383 -49.075  10.850  1.00  0.00     0.189 HD
HETATM   11  C   UNL     1     -40.578 -45.886  10.764  1.00  0.00     0.066 A 
ATOM     12  HN  UNL     1     -38.925 -47.071  10.404  1.00  0.00     0.187 HD
HETATM   13  C   UNL     1     -39.965 -44.542  10.629  1.00  0.00     0.078 C 
HETATM   14  S   UNL     1     -42.252 -46.090  11.118  1.00  0.00    -0.038 SA
ENDBRANCH   1   7
BRANCH   4  15
HETATM   15  C   UNL     1     -44.204 -51.247  13.629  1.00  0.00     0.086 C 
HETATM   16  C   UNL     1     -43.890 -52.690  13.201  1.00  0.00     0.025 C 
HETATM   17  C   UNL     1     -44.861 -53.593  13.959  1.00  0.00     0.002 C 
HETATM   18  C   UNL     1     -45.672 -52.678  14.866  1.00  0.00     0.002 C 
HETATM   19  C   UNL     1     -45.625 -51.325  14.178  1.00  0.00     0.025 C 
ENDBRANCH   4  15
TORSDOF 2
ENDMDL
