MODEL 1
REMARK VINA RESULT:      -6.1      0.000      0.000
REMARK  5 active torsions:
REMARK  status: ('A' for Active; 'I' for Inactive)
REMARK    1  A    between atoms: C_2  and  N_3 
REMARK    2  A    between atoms: N_6  and  C_9 
REMARK    3  A    between atoms: C_9  and  C_11 
REMARK    4  A    between atoms: C_11  and  N_12 
REMARK       I    between atoms: N_12  and  C_13 
REMARK       I    between atoms: C_13  and  N_15 
REMARK    5  A    between atoms: N_15  and  C_16 
ROOT
HETATM    1  N   UNL     1     -40.949 -51.122  11.412  1.00  0.00    -0.341 N 
HETATM    2  C   UNL     1     -41.124 -49.760  11.602  1.00  0.00     0.322 C 
HETATM    3  O   UNL     1     -41.155 -49.268  12.719  1.00  0.00    -0.247 OA
HETATM    4  N   UNL     1     -41.260 -49.111  10.399  1.00  0.00    -0.289 N 
HETATM    5  H   UNL     1     -40.590 -51.357  10.509  1.00  0.00     0.164 HD
HETATM    6  H   UNL     1     -41.418 -49.636   9.556  1.00  0.00     0.172 HD
ENDROOT
BRANCH   1   7
HETATM    7  C   UNL     1     -40.555 -51.941  12.548  1.00  0.00     0.159 C 
BRANCH   7   8
HETATM    8  C   UNL     1     -41.673 -52.836  13.181  1.00  0.00     0.236 C 
HETATM    9  C   UNL     1     -41.202 -54.293  12.994  1.00  0.00     0.044 C 
BRANCH   8  10
HETATM   10  N   UNL     1     -43.032 -52.634  12.588  1.00  0.00     0.097 N 
HETATM   11  C   UNL     1     -43.821 -51.579  13.249  1.00  0.00     0.303 C 
HETATM   12  C   UNL     1     -44.166 -51.943  14.719  1.00  0.00     0.302 C 
HETATM   13  N   UNL     1     -45.060 -53.114  14.819  1.00  0.00     0.091 N 
HETATM   14  C   UNL     1     -44.498 -54.219  13.999  1.00  0.00     0.302 C 
HETATM   15  C   UNL     1     -43.902 -53.841  12.611  1.00  0.00     0.303 C 
BRANCH  13  16
HETATM   16  C   UNL     1     -46.426 -52.694  14.476  1.00  0.00     0.268 C 
HETATM   17  C   UNL     1     -46.979 -51.483  15.210  1.00  0.00     0.037 C 
ENDBRANCH  13  16
ENDBRANCH   8  10
ENDBRANCH   7   8
ENDBRANCH   1   7
BRANCH   4  18
HETATM   18  C   UNL     1     -41.474 -47.766  10.336  1.00  0.00     0.152 A 
HETATM   19  N   UNL     1     -40.637 -46.776  10.522  1.00  0.00    -0.346 N 
HETATM   20  C   UNL     1     -41.315 -45.584  10.469  1.00  0.00     0.097 A 
ATOM     21  HN  UNL     1     -39.634 -46.876  10.681  1.00  0.00     0.167 HD
HETATM   22  C   UNL     1     -42.668 -45.682  10.233  1.00  0.00     0.070 A 
HETATM   23  S   UNL     1     -43.092 -47.330   9.996  1.00  0.00    -0.064 SA
ENDBRANCH   4  18
TORSDOF 5
ENDMDL
MODEL 2
REMARK VINA RESULT:      -5.5      2.475      3.428
REMARK  5 active torsions:
REMARK  status: ('A' for Active; 'I' for Inactive)
REMARK    1  A    between atoms: C_2  and  N_3 
REMARK    2  A    between atoms: N_6  and  C_9 
REMARK    3  A    between atoms: C_9  and  C_11 
REMARK    4  A    between atoms: C_11  and  N_12 
REMARK       I    between atoms: N_12  and  C_13 
REMARK       I    between atoms: C_13  and  N_15 
REMARK    5  A    between atoms: N_15  and  C_16 
ROOT
HETATM    1  N   UNL     1     -43.452 -52.340  12.280  1.00  0.00    -0.341 N 
HETATM    2  C   UNL     1     -42.109 -52.010  12.374  1.00  0.00     0.322 C 
HETATM    3  O   UNL     1     -41.321 -52.704  12.997  1.00  0.00    -0.247 OA
HETATM    4  N   UNL     1     -41.844 -50.842  11.702  1.00  0.00    -0.289 N 
HETATM    5  H   UNL     1     -43.910 -51.933  11.490  1.00  0.00     0.164 HD
HETATM    6  H   UNL     1     -42.598 -50.252  11.395  1.00  0.00     0.172 HD
ENDROOT
BRANCH   1   7
HETATM    7  C   UNL     1     -43.880 -53.657  12.726  1.00  0.00     0.159 C 
BRANCH   7   8
HETATM    8  C   UNL     1     -44.194 -53.807  14.253  1.00  0.00     0.236 C 
HETATM    9  C   UNL     1     -43.458 -55.083  14.712  1.00  0.00     0.044 C 
BRANCH   8  10
HETATM   10  N   UNL     1     -45.654 -53.886  14.575  1.00  0.00     0.097 N 
HETATM   11  C   UNL     1     -46.426 -52.707  14.144  1.00  0.00     0.303 C 
HETATM   12  C   UNL     1     -46.002 -51.422  14.905  1.00  0.00     0.302 C 
HETATM   13  N   UNL     1     -46.309 -51.489  16.348  1.00  0.00     0.091 N 
HETATM   14  C   UNL     1     -45.775 -52.764  16.894  1.00  0.00     0.302 C 
HETATM   15  C   UNL     1     -45.959 -54.041  16.023  1.00  0.00     0.303 C 
BRANCH  13  16
HETATM   16  C   UNL     1     -47.750 -51.267  16.533  1.00  0.00     0.268 C 
HETATM   17  C   UNL     1     -48.230 -51.004  17.952  1.00  0.00     0.037 C 
ENDBRANCH  13  16
ENDBRANCH   8  10
ENDBRANCH   7   8
ENDBRANCH   1   7
BRANCH   4  18
HETATM   18  C   UNL     1     -40.593 -50.301  11.680  1.00  0.00     0.152 A 
HETATM   19  N   UNL     1     -39.426 -50.894  11.620  1.00  0.00    -0.346 N 
HETATM   20  C   UNL     1     -38.428 -49.959  11.735  1.00  0.00     0.097 A 
ATOM     21  HN  UNL     1     -39.281 -51.898  11.506  1.00  0.00     0.167 HD
HETATM   22  C   UNL     1     -38.850 -48.655  11.872  1.00  0.00     0.070 A 
HETATM   23  S   UNL     1     -40.565 -48.594  11.780  1.00  0.00    -0.064 SA
ENDBRANCH   4  18
TORSDOF 5
ENDMDL
MODEL 3
REMARK VINA RESULT:      -5.5      2.144      6.762
REMARK  5 active torsions:
REMARK  status: ('A' for Active; 'I' for Inactive)
REMARK    1  A    between atoms: C_2  and  N_3 
REMARK    2  A    between atoms: N_6  and  C_9 
REMARK    3  A    between atoms: C_9  and  C_11 
REMARK    4  A    between atoms: C_11  and  N_12 
REMARK       I    between atoms: N_12  and  C_13 
REMARK       I    between atoms: C_13  and  N_15 
REMARK    5  A    between atoms: N_15  and  C_16 
ROOT
HETATM    1  N   UNL     1     -41.175 -51.886  11.532  1.00  0.00    -0.341 N 
HETATM    2  C   UNL     1     -42.011 -52.396  12.512  1.00  0.00     0.322 C 
HETATM    3  O   UNL     1     -41.652 -52.491  13.675  1.00  0.00    -0.247 OA
HETATM    4  N   UNL     1     -43.224 -52.761  11.979  1.00  0.00    -0.289 N 
HETATM    5  H   UNL     1     -41.662 -51.530  10.735  1.00  0.00     0.164 HD
HETATM    6  H   UNL     1     -43.340 -52.825  10.983  1.00  0.00     0.172 HD
ENDROOT
BRANCH   1   7
HETATM    7  C   UNL     1     -39.940 -51.233  11.938  1.00  0.00     0.159 C 
BRANCH   7   8
HETATM    8  C   UNL     1     -39.770 -49.736  11.508  1.00  0.00     0.236 C 
HETATM    9  C   UNL     1     -38.271 -49.416  11.682  1.00  0.00     0.044 C 
BRANCH   8  10
HETATM   10  N   UNL     1     -40.616 -48.775  12.283  1.00  0.00     0.097 N 
HETATM   11  C   UNL     1     -41.984 -48.624  11.755  1.00  0.00     0.303 C 
HETATM   12  C   UNL     1     -41.996 -47.988  10.338  1.00  0.00     0.302 C 
HETATM   13  N   UNL     1     -41.501 -46.597  10.336  1.00  0.00     0.091 N 
HETATM   14  C   UNL     1     -40.199 -46.548  11.051  1.00  0.00     0.302 C 
HETATM   15  C   UNL     1     -40.073 -47.391  12.353  1.00  0.00     0.303 C 
BRANCH  13  16
HETATM   16  C   UNL     1     -42.556 -45.722  10.868  1.00  0.00     0.268 C 
HETATM   17  C   UNL     1     -42.120 -44.374  11.420  1.00  0.00     0.037 C 
ENDBRANCH  13  16
ENDBRANCH   8  10
ENDBRANCH   7   8
ENDBRANCH   1   7
BRANCH   4  18
HETATM   18  C   UNL     1     -44.201 -53.317  12.750  1.00  0.00     0.152 A 
HETATM   19  N   UNL     1     -44.267 -54.512  13.284  1.00  0.00    -0.346 N 
HETATM   20  C   UNL     1     -45.488 -54.679  13.888  1.00  0.00     0.097 A 
ATOM     21  HN  UNL     1     -43.524 -55.211  13.256  1.00  0.00     0.167 HD
HETATM   22  C   UNL     1     -46.339 -53.599  13.814  1.00  0.00     0.070 A 
HETATM   23  S   UNL     1     -45.548 -52.298  13.018  1.00  0.00    -0.064 SA
ENDBRANCH   4  18
TORSDOF 5
ENDMDL
MODEL 4
REMARK VINA RESULT:      -5.3      1.328      1.980
REMARK  5 active torsions:
REMARK  status: ('A' for Active; 'I' for Inactive)
REMARK    1  A    between atoms: C_2  and  N_3 
REMARK    2  A    between atoms: N_6  and  C_9 
REMARK    3  A    between atoms: C_9  and  C_11 
REMARK    4  A    between atoms: C_11  and  N_12 
REMARK       I    between atoms: N_12  and  C_13 
REMARK       I    between atoms: C_13  and  N_15 
REMARK    5  A    between atoms: N_15  and  C_16 
ROOT
HETATM    1  N   UNL     1     -42.325 -51.425  12.015  1.00  0.00    -0.341 N 
HETATM    2  C   UNL     1     -41.819 -50.143  12.160  1.00  0.00     0.322 C 
HETATM    3  O   UNL     1     -41.543 -49.684  13.257  1.00  0.00    -0.247 OA
HETATM    4  N   UNL     1     -41.704 -49.521  10.941  1.00  0.00    -0.289 N 
HETATM    5  H   UNL     1     -42.179 -51.813  11.105  1.00  0.00     0.164 HD
HETATM    6  H   UNL     1     -42.145 -49.916  10.128  1.00  0.00     0.172 HD
ENDROOT
BRANCH   1   7
HETATM    7  C   UNL     1     -42.299 -52.321  13.161  1.00  0.00     0.159 C 
BRANCH   7   8
HETATM    8  C   UNL     1     -43.687 -52.830  13.678  1.00  0.00     0.236 C 
HETATM    9  C   UNL     1     -44.162 -53.876  12.648  1.00  0.00     0.044 C 
BRANCH   8  10
HETATM   10  N   UNL     1     -44.710 -51.752  13.857  1.00  0.00     0.097 N 
HETATM   11  C   UNL     1     -44.412 -50.824  14.962  1.00  0.00     0.303 C 
HETATM   12  C   UNL     1     -44.450 -51.530  16.344  1.00  0.00     0.302 C 
HETATM   13  N   UNL     1     -45.799 -52.017  16.697  1.00  0.00     0.091 N 
HETATM   14  C   UNL     1     -46.338 -52.805  15.557  1.00  0.00     0.302 C 
HETATM   15  C   UNL     1     -46.088 -52.247  14.126  1.00  0.00     0.303 C 
BRANCH  13  16
HETATM   16  C   UNL     1     -46.615 -50.872  17.125  1.00  0.00     0.268 C 
HETATM   17  C   UNL     1     -48.125 -51.045  17.075  1.00  0.00     0.037 C 
ENDBRANCH  13  16
ENDBRANCH   8  10
ENDBRANCH   7   8
ENDBRANCH   1   7
BRANCH   4  18
HETATM   18  C   UNL     1     -41.255 -48.238  10.836  1.00  0.00     0.152 A 
HETATM   19  N   UNL     1     -40.094 -47.729  11.162  1.00  0.00    -0.346 N 
HETATM   20  C   UNL     1     -40.122 -46.368  10.986  1.00  0.00     0.097 A 
ATOM     21  HN  UNL     1     -39.290 -48.262  11.496  1.00  0.00     0.167 HD
HETATM   22  C   UNL     1     -41.311 -45.856  10.516  1.00  0.00     0.070 A 
HETATM   23  S   UNL     1     -42.411 -47.141  10.214  1.00  0.00    -0.064 SA
ENDBRANCH   4  18
TORSDOF 5
ENDMDL
MODEL 5
REMARK VINA RESULT:      -5.3      2.648      4.174
REMARK  5 active torsions:
REMARK  status: ('A' for Active; 'I' for Inactive)
REMARK    1  A    between atoms: C_2  and  N_3 
REMARK    2  A    between atoms: N_6  and  C_9 
REMARK    3  A    between atoms: C_9  and  C_11 
REMARK    4  A    between atoms: C_11  and  N_12 
REMARK       I    between atoms: N_12  and  C_13 
REMARK       I    between atoms: C_13  and  N_15 
REMARK    5  A    between atoms: N_15  and  C_16 
ROOT
HETATM    1  N   UNL     1     -41.882 -51.468  11.742  1.00  0.00    -0.341 N 
HETATM    2  C   UNL     1     -41.124 -50.320  11.575  1.00  0.00     0.322 C 
HETATM    3  O   UNL     1     -39.931 -50.297  11.833  1.00  0.00    -0.247 OA
HETATM    4  N   UNL     1     -41.900 -49.285  11.112  1.00  0.00    -0.289 N 
HETATM    5  H   UNL     1     -42.714 -51.484  11.187  1.00  0.00     0.164 HD
HETATM    6  H   UNL     1     -42.902 -49.359  11.124  1.00  0.00     0.172 HD
ENDROOT
BRANCH   1   7
HETATM    7  C   UNL     1     -41.198 -52.726  11.999  1.00  0.00     0.159 C 
BRANCH   7   8
HETATM    8  C   UNL     1     -41.613 -53.492  13.301  1.00  0.00     0.236 C 
HETATM    9  C   UNL     1     -43.147 -53.353  13.399  1.00  0.00     0.044 C 
BRANCH   8  10
HETATM   10  N   UNL     1     -40.950 -52.992  14.546  1.00  0.00     0.097 N 
HETATM   11  C   UNL     1     -39.479 -53.079  14.515  1.00  0.00     0.303 C 
HETATM   12  C   UNL     1     -38.982 -54.549  14.457  1.00  0.00     0.302 C 
HETATM   13  N   UNL     1     -39.317 -55.310  15.678  1.00  0.00     0.091 N 
HETATM   14  C   UNL     1     -40.762 -55.131  15.974  1.00  0.00     0.302 C 
HETATM   15  C   UNL     1     -41.354 -53.703  15.789  1.00  0.00     0.303 C 
BRANCH  13  16
HETATM   16  C   UNL     1     -38.391 -54.912  16.749  1.00  0.00     0.268 C 
HETATM   17  C   UNL     1     -37.327 -55.921  17.150  1.00  0.00     0.037 C 
ENDBRANCH  13  16
ENDBRANCH   8  10
ENDBRANCH   7   8
ENDBRANCH   1   7
BRANCH   4  18
HETATM   18  C   UNL     1     -41.377 -48.044  10.899  1.00  0.00     0.152 A 
HETATM   19  N   UNL     1     -40.152 -47.611  11.070  1.00  0.00    -0.346 N 
HETATM   20  C   UNL     1     -40.105 -46.260  10.837  1.00  0.00     0.097 A 
ATOM     21  HN  UNL     1     -39.356 -48.191  11.336  1.00  0.00     0.167 HD
HETATM   22  C   UNL     1     -41.301 -45.678  10.480  1.00  0.00     0.070 A 
HETATM   23  S   UNL     1     -42.516 -46.887  10.362  1.00  0.00    -0.064 SA
ENDBRANCH   4  18
TORSDOF 5
ENDMDL
MODEL 6
REMARK VINA RESULT:      -5.3      3.751      6.988
REMARK  5 active torsions:
REMARK  status: ('A' for Active; 'I' for Inactive)
REMARK    1  A    between atoms: C_2  and  N_3 
REMARK    2  A    between atoms: N_6  and  C_9 
REMARK    3  A    between atoms: C_9  and  C_11 
REMARK    4  A    between atoms: C_11  and  N_12 
REMARK       I    between atoms: N_12  and  C_13 
REMARK       I    between atoms: C_13  and  N_15 
REMARK    5  A    between atoms: N_15  and  C_16 
ROOT
HETATM    1  N   UNL     1     -40.389 -51.086  11.404  1.00  0.00    -0.341 N 
HETATM    2  C   UNL     1     -41.590 -51.405  12.016  1.00  0.00     0.322 C 
HETATM    3  O   UNL     1     -42.283 -50.554  12.551  1.00  0.00    -0.247 OA
HETATM    4  N   UNL     1     -41.839 -52.754  11.931  1.00  0.00    -0.289 N 
HETATM    5  H   UNL     1     -40.099 -51.753  10.717  1.00  0.00     0.164 HD
HETATM    6  H   UNL     1     -41.112 -53.386  11.646  1.00  0.00     0.172 HD
ENDROOT
BRANCH   1   7
HETATM    7  C   UNL     1     -40.067 -49.684  11.186  1.00  0.00     0.159 C 
BRANCH   7   8
HETATM    8  C   UNL     1     -38.861 -49.110  12.004  1.00  0.00     0.236 C 
HETATM    9  C   UNL     1     -37.605 -49.821  11.459  1.00  0.00     0.044 C 
BRANCH   8  10
HETATM   10  N   UNL     1     -38.980 -49.296  13.485  1.00  0.00     0.097 N 
HETATM   11  C   UNL     1     -39.963 -48.401  14.121  1.00  0.00     0.303 C 
HETATM   12  C   UNL     1     -39.546 -46.909  14.020  1.00  0.00     0.302 C 
HETATM   13  N   UNL     1     -38.313 -46.611  14.777  1.00  0.00     0.091 N 
HETATM   14  C   UNL     1     -37.267 -47.598  14.399  1.00  0.00     0.302 C 
HETATM   15  C   UNL     1     -37.715 -49.081  14.238  1.00  0.00     0.303 C 
BRANCH  13  16
HETATM   16  C   UNL     1     -38.643 -46.546  16.208  1.00  0.00     0.268 C 
HETATM   17  C   UNL     1     -39.372 -45.303  16.691  1.00  0.00     0.037 C 
ENDBRANCH  13  16
ENDBRANCH   8  10
ENDBRANCH   7   8
ENDBRANCH   1   7
BRANCH   4  18
HETATM   18  C   UNL     1     -42.952 -53.308  12.490  1.00  0.00     0.152 A 
HETATM   19  N   UNL     1     -44.205 -53.227  12.117  1.00  0.00    -0.346 N 
HETATM   20  C   UNL     1     -45.002 -53.854  13.042  1.00  0.00     0.097 A 
ATOM     21  HN  UNL     1     -44.537 -52.769  11.268  1.00  0.00     0.167 HD
HETATM   22  C   UNL     1     -44.341 -54.415  14.111  1.00  0.00     0.070 A 
HETATM   23  S   UNL     1     -42.646 -54.212  13.909  1.00  0.00    -0.064 SA
ENDBRANCH   4  18
TORSDOF 5
ENDMDL
MODEL 7
REMARK VINA RESULT:      -5.0      1.708      2.093
REMARK  5 active torsions:
REMARK  status: ('A' for Active; 'I' for Inactive)
REMARK    1  A    between atoms: C_2  and  N_3 
REMARK    2  A    between atoms: N_6  and  C_9 
REMARK    3  A    between atoms: C_9  and  C_11 
REMARK    4  A    between atoms: C_11  and  N_12 
REMARK       I    between atoms: N_12  and  C_13 
REMARK       I    between atoms: C_13  and  N_15 
REMARK    5  A    between atoms: N_15  and  C_16 
ROOT
HETATM    1  N   UNL     1     -40.469 -50.849  11.272  1.00  0.00    -0.341 N 
HETATM    2  C   UNL     1     -40.993 -49.570  11.371  1.00  0.00     0.322 C 
HETATM    3  O   UNL     1     -42.165 -49.379  11.654  1.00  0.00    -0.247 OA
HETATM    4  N   UNL     1     -40.033 -48.625  11.103  1.00  0.00    -0.289 N 
HETATM    5  H   UNL     1     -39.477 -50.886  11.393  1.00  0.00     0.164 HD
HETATM    6  H   UNL     1     -39.158 -48.896  10.689  1.00  0.00     0.172 HD
ENDROOT
BRANCH   1   7
HETATM    7  C   UNL     1     -41.266 -51.970  11.746  1.00  0.00     0.159 C 
BRANCH   7   8
HETATM    8  C   UNL     1     -41.198 -52.273  13.281  1.00  0.00     0.236 C 
HETATM    9  C   UNL     1     -39.705 -52.187  13.661  1.00  0.00     0.044 C 
BRANCH   8  10
HETATM   10  N   UNL     1     -41.773 -53.599  13.672  1.00  0.00     0.097 N 
HETATM   11  C   UNL     1     -43.152 -53.814  13.197  1.00  0.00     0.303 C 
HETATM   12  C   UNL     1     -44.155 -52.826  13.852  1.00  0.00     0.302 C 
HETATM   13  N   UNL     1     -44.287 -53.032  15.309  1.00  0.00     0.091 N 
HETATM   14  C   UNL     1     -42.930 -53.066  15.914  1.00  0.00     0.302 C 
HETATM   15  C   UNL     1     -41.825 -53.841  15.139  1.00  0.00     0.303 C 
BRANCH  13  16
HETATM   16  C   UNL     1     -45.120 -54.221  15.542  1.00  0.00     0.268 C 
HETATM   17  C   UNL     1     -46.318 -54.414  14.626  1.00  0.00     0.037 C 
ENDBRANCH  13  16
ENDBRANCH   8  10
ENDBRANCH   7   8
ENDBRANCH   1   7
BRANCH   4  18
HETATM   18  C   UNL     1     -40.323 -47.293  11.111  1.00  0.00     0.152 A 
HETATM   19  N   UNL     1     -40.984 -46.576  10.236  1.00  0.00    -0.346 N 
HETATM   20  C   UNL     1     -40.936 -45.253  10.597  1.00  0.00     0.097 A 
ATOM     21  HN  UNL     1     -41.461 -46.945   9.413  1.00  0.00     0.167 HD
HETATM   22  C   UNL     1     -40.242 -44.978  11.754  1.00  0.00     0.070 A 
HETATM   23  S   UNL     1     -39.691 -46.446  12.455  1.00  0.00    -0.064 SA
ENDBRANCH   4  18
TORSDOF 5
ENDMDL
MODEL 8
REMARK VINA RESULT:      -5.0      2.940      8.014
REMARK  5 active torsions:
REMARK  status: ('A' for Active; 'I' for Inactive)
REMARK    1  A    between atoms: C_2  and  N_3 
REMARK    2  A    between atoms: N_6  and  C_9 
REMARK    3  A    between atoms: C_9  and  C_11 
REMARK    4  A    between atoms: C_11  and  N_12 
REMARK       I    between atoms: N_12  and  C_13 
REMARK       I    between atoms: C_13  and  N_15 
REMARK    5  A    between atoms: N_15  and  C_16 
ROOT
HETATM    1  N   UNL     1     -41.086 -48.971  10.774  1.00  0.00    -0.341 N 
HETATM    2  C   UNL     1     -40.784 -49.996  11.657  1.00  0.00     0.322 C 
HETATM    3  O   UNL     1     -39.924 -49.870  12.514  1.00  0.00    -0.247 OA
HETATM    4  N   UNL     1     -41.559 -51.102  11.407  1.00  0.00    -0.289 N 
HETATM    5  H   UNL     1     -42.001 -49.040  10.378  1.00  0.00     0.164 HD
HETATM    6  H   UNL     1     -42.091 -51.165  10.556  1.00  0.00     0.172 HD
ENDROOT
BRANCH   1   7
HETATM    7  C   UNL     1     -40.539 -47.647  11.028  1.00  0.00     0.159 C 
BRANCH   7   8
HETATM    8  C   UNL     1     -41.560 -46.545  11.469  1.00  0.00     0.236 C 
HETATM    9  C   UNL     1     -42.959 -47.153  11.245  1.00  0.00     0.044 C 
BRANCH   8  10
HETATM   10  N   UNL     1     -41.417 -45.247  10.737  1.00  0.00     0.097 N 
HETATM   11  C   UNL     1     -40.104 -44.602  10.916  1.00  0.00     0.303 C 
HETATM   12  C   UNL     1     -39.862 -44.167  12.386  1.00  0.00     0.302 C 
HETATM   13  N   UNL     1     -40.794 -43.109  12.826  1.00  0.00     0.091 N 
HETATM   14  C   UNL     1     -42.183 -43.526  12.499  1.00  0.00     0.302 C 
HETATM   15  C   UNL     1     -42.413 -44.210  11.120  1.00  0.00     0.303 C 
BRANCH  13  16
HETATM   16  C   UNL     1     -40.359 -41.829  12.249  1.00  0.00     0.268 C 
HETATM   17  C   UNL     1     -39.572 -40.896  13.156  1.00  0.00     0.037 C 
ENDBRANCH  13  16
ENDBRANCH   8  10
ENDBRANCH   7   8
ENDBRANCH   1   7
BRANCH   4  18
HETATM   18  C   UNL     1     -41.419 -52.248  12.132  1.00  0.00     0.152 A 
HETATM   19  N   UNL     1     -40.398 -53.063  12.219  1.00  0.00    -0.346 N 
HETATM   20  C   UNL     1     -40.742 -54.152  12.981  1.00  0.00     0.097 A 
ATOM     21  HN  UNL     1     -39.486 -52.911  11.788  1.00  0.00     0.167 HD
HETATM   22  C   UNL     1     -42.027 -54.148  13.474  1.00  0.00     0.070 A 
HETATM   23  S   UNL     1     -42.810 -52.686  13.026  1.00  0.00    -0.064 SA
ENDBRANCH   4  18
TORSDOF 5
ENDMDL
MODEL 9
REMARK VINA RESULT:      -4.9      2.572      7.292
REMARK  5 active torsions:
REMARK  status: ('A' for Active; 'I' for Inactive)
REMARK    1  A    between atoms: C_2  and  N_3 
REMARK    2  A    between atoms: N_6  and  C_9 
REMARK    3  A    between atoms: C_9  and  C_11 
REMARK    4  A    between atoms: C_11  and  N_12 
REMARK       I    between atoms: N_12  and  C_13 
REMARK       I    between atoms: C_13  and  N_15 
REMARK    5  A    between atoms: N_15  and  C_16 
ROOT
HETATM    1  N   UNL     1     -41.454 -50.464  11.421  1.00  0.00    -0.341 N 
HETATM    2  C   UNL     1     -41.700 -51.630  12.128  1.00  0.00     0.322 C 
HETATM    3  O   UNL     1     -40.806 -52.418  12.395  1.00  0.00    -0.247 OA
HETATM    4  N   UNL     1     -43.033 -51.741  12.442  1.00  0.00    -0.289 N 
HETATM    5  H   UNL     1     -42.143 -49.754  11.568  1.00  0.00     0.164 HD
HETATM    6  H   UNL     1     -43.708 -51.138  12.004  1.00  0.00     0.172 HD
ENDROOT
BRANCH   1   7
HETATM    7  C   UNL     1     -40.075 -50.056  11.204  1.00  0.00     0.159 C 
BRANCH   7   8
HETATM    8  C   UNL     1     -39.585 -48.802  12.003  1.00  0.00     0.236 C 
HETATM    9  C   UNL     1     -38.794 -49.353  13.208  1.00  0.00     0.044 C 
BRANCH   8  10
HETATM   10  N   UNL     1     -40.685 -47.894  12.456  1.00  0.00     0.097 N 
HETATM   11  C   UNL     1     -41.159 -46.965  11.415  1.00  0.00     0.303 C 
HETATM   12  C   UNL     1     -40.061 -45.950  10.994  1.00  0.00     0.302 C 
HETATM   13  N   UNL     1     -39.687 -45.032  12.089  1.00  0.00     0.091 N 
HETATM   14  C   UNL     1     -39.391 -45.831  13.307  1.00  0.00     0.302 C 
HETATM   15  C   UNL     1     -40.335 -47.030  13.616  1.00  0.00     0.303 C 
BRANCH  13  16
HETATM   16  C   UNL     1     -40.741 -44.016  12.232  1.00  0.00     0.268 C 
HETATM   17  C   UNL     1     -40.618 -42.770  11.371  1.00  0.00     0.037 C 
ENDBRANCH  13  16
ENDBRANCH   8  10
ENDBRANCH   7   8
ENDBRANCH   1   7
BRANCH   4  18
HETATM   18  C   UNL     1     -43.519 -52.824  13.113  1.00  0.00     0.152 A 
HETATM   19  N   UNL     1     -42.908 -53.645  13.931  1.00  0.00    -0.346 N 
HETATM   20  C   UNL     1     -43.761 -54.659  14.285  1.00  0.00     0.097 A 
ATOM     21  HN  UNL     1     -41.946 -53.544  14.255  1.00  0.00     0.167 HD
HETATM   22  C   UNL     1     -45.022 -54.593  13.737  1.00  0.00     0.070 A 
HETATM   23  S   UNL     1     -45.165 -53.162  12.797  1.00  0.00    -0.064 SA
ENDBRANCH   4  18
TORSDOF 5
ENDMDL
