MODEL 1
REMARK VINA RESULT:      -6.5      0.000      0.000
REMARK  8 active torsions:
REMARK  status: ('A' for Active; 'I' for Inactive)
REMARK    1  A    between atoms: N_2  and  C_13 
REMARK    2  A    between atoms: C_6  and  N_8 
REMARK    3  A    between atoms: C_13  and  C_14 
REMARK    4  A    between atoms: C_14  and  C_18 
REMARK    5  A    between atoms: C_14  and  O_25 
REMARK    6  A    between atoms: N_15  and  C_21 
REMARK    7  A    between atoms: C_21  and  C_26 
REMARK    8  A    between atoms: N_22  and  C_26 
ROOT
HETATM    1  C   UNL     1     -41.718 -49.608  12.064  1.00  0.00     0.117 A 
HETATM    2  N   UNL     1     -42.100 -47.722  11.013  1.00  0.00    -0.325 N 
HETATM    3  C   UNL     1     -41.097 -48.593  11.349  1.00  0.00     0.140 A 
HETATM    4  N   UNL     1     -43.073 -49.354  12.177  1.00  0.00    -0.346 N 
ATOM      5  HN  UNL     1     -43.774 -49.926  12.649  1.00  0.00     0.167 HD
HETATM    6  C   UNL     1     -40.907 -50.675  12.525  1.00  0.00     0.114 A 
HETATM    7  C   UNL     1     -43.262 -48.216  11.546  1.00  0.00     0.185 A 
HETATM    8  N   UNL     1     -39.792 -48.504  11.039  1.00  0.00    -0.336 N 
ATOM      9  HN  UNL     1     -39.375 -47.743  10.504  1.00  0.00     0.168 HD
HETATM   10  N   UNL     1     -39.575 -50.608  12.237  1.00  0.00    -0.341 N 
ATOM     11  HN  UNL     1     -38.940 -51.341  12.551  1.00  0.00     0.167 HD
HETATM   12  C   UNL     1     -39.111 -49.556  11.530  1.00  0.00     0.183 A 
ENDROOT
BRANCH   6  13
HETATM   13  N   UNL     1     -41.422 -51.743  13.278  1.00  0.00    -0.266 NA
HETATM   14  C   UNL     1     -41.405 -51.536  14.733  1.00  0.00     0.127 C 
HETATM   15  C   UNL     1     -42.650 -52.206  15.359  1.00  0.00     0.287 C 
HETATM   16  N   UNL     1     -42.589 -53.656  15.666  1.00  0.00     0.091 N 
HETATM   17  C   UNL     1     -41.691 -54.418  14.793  1.00  0.00     0.273 C 
HETATM   18  C   UNL     1     -41.828 -54.190  13.288  1.00  0.00     0.045 C 
HETATM   19  C   UNL     1     -40.950 -53.042  12.791  1.00  0.00     0.099 C 
BRANCH  16  20
HETATM   20  C   UNL     1     -43.975 -54.187  15.716  1.00  0.00     0.302 C 
BRANCH  20  21
HETATM   21  C   UNL     1     -45.071 -53.226  15.191  1.00  0.00     0.301 C 
BRANCH  21  22
HETATM   22  N   UNL     1     -45.826 -53.715  14.014  1.00  0.00     0.081 N 
HETATM   23  C   UNL     1     -45.552 -52.911  12.820  1.00  0.00     0.309 C 
HETATM   24  C   UNL     1     -45.453 -55.111  13.758  1.00  0.00     0.309 C 
ENDBRANCH  21  22
ENDBRANCH  20  21
ENDBRANCH  16  20
ENDBRANCH   6  13
BRANCH   2  25
HETATM   25  C   UNL     1     -42.004 -46.604  10.089  1.00  0.00     0.165 C 
BRANCH  25  26
HETATM   26  C   UNL     1     -43.008 -45.466  10.337  1.00  0.00     0.165 C 
BRANCH  26  27
HETATM   27  C   UNL     1     -42.410 -44.289  11.133  1.00  0.00     0.151 C 
HETATM   28  O   UNL     1     -42.965 -43.041  10.659  1.00  0.00    -0.383 OA
HETATM   29  C   UNL     1     -41.999 -42.003  10.909  1.00  0.00     0.168 C 
HETATM   30  C   UNL     1     -40.788 -42.657  11.539  1.00  0.00     0.029 C 
HETATM   31  C   UNL     1     -40.906 -44.098  11.089  1.00  0.00     0.036 C 
ENDBRANCH  26  27
BRANCH  26  32
HETATM   32  O   UNL     1     -43.455 -44.927   9.078  1.00  0.00    -0.391 OA
HETATM   33  H   UNL     1     -43.440 -45.664   8.434  1.00  0.00     0.210 HD
ENDBRANCH  26  32
ENDBRANCH  25  26
ENDBRANCH   2  25
TORSDOF 8
ENDMDL
MODEL 2
REMARK VINA RESULT:      -6.4      1.723      2.957
REMARK  8 active torsions:
REMARK  status: ('A' for Active; 'I' for Inactive)
REMARK    1  A    between atoms: N_2  and  C_13 
REMARK    2  A    between atoms: C_6  and  N_8 
REMARK    3  A    between atoms: C_13  and  C_14 
REMARK    4  A    between atoms: C_14  and  C_18 
REMARK    5  A    between atoms: C_14  and  O_25 
REMARK    6  A    between atoms: N_15  and  C_21 
REMARK    7  A    between atoms: C_21  and  C_26 
REMARK    8  A    between atoms: N_22  and  C_26 
ROOT
HETATM    1  C   UNL     1     -41.863 -49.359  11.982  1.00  0.00     0.117 A 
HETATM    2  N   UNL     1     -42.464 -47.414  11.170  1.00  0.00    -0.325 N 
HETATM    3  C   UNL     1     -41.366 -48.199  11.403  1.00  0.00     0.140 A 
HETATM    4  N   UNL     1     -43.237 -49.277  12.117  1.00  0.00    -0.346 N 
ATOM      5  HN  UNL     1     -43.865 -49.979  12.509  1.00  0.00     0.167 HD
HETATM    6  C   UNL     1     -40.932 -50.375  12.314  1.00  0.00     0.114 A 
HETATM    7  C   UNL     1     -43.559 -48.098  11.630  1.00  0.00     0.185 A 
HETATM    8  N   UNL     1     -40.082 -47.925  11.115  1.00  0.00    -0.336 N 
ATOM      9  HN  UNL     1     -39.758 -47.061  10.680  1.00  0.00     0.168 HD
HETATM   10  N   UNL     1     -39.618 -50.122  12.045  1.00  0.00    -0.341 N 
ATOM     11  HN  UNL     1     -38.901 -50.812  12.270  1.00  0.00     0.167 HD
HETATM   12  C   UNL     1     -39.282 -48.946  11.477  1.00  0.00     0.183 A 
ENDROOT
BRANCH   6  13
HETATM   13  N   UNL     1     -41.317 -51.580  12.926  1.00  0.00    -0.266 NA
HETATM   14  C   UNL     1     -41.731 -51.453  14.330  1.00  0.00     0.127 C 
HETATM   15  C   UNL     1     -42.868 -52.460  14.620  1.00  0.00     0.287 C 
HETATM   16  N   UNL     1     -42.501 -53.857  14.960  1.00  0.00     0.091 N 
HETATM   17  C   UNL     1     -41.237 -54.307  14.368  1.00  0.00     0.273 C 
HETATM   18  C   UNL     1     -41.039 -54.044  12.875  1.00  0.00     0.045 C 
HETATM   19  C   UNL     1     -40.404 -52.681  12.604  1.00  0.00     0.099 C 
BRANCH  16  20
HETATM   20  C   UNL     1     -43.657 -54.736  14.655  1.00  0.00     0.302 C 
BRANCH  20  21
HETATM   21  C   UNL     1     -44.646 -54.187  13.596  1.00  0.00     0.301 C 
BRANCH  21  22
HETATM   22  N   UNL     1     -46.032 -53.980  14.077  1.00  0.00     0.081 N 
HETATM   23  C   UNL     1     -46.132 -54.136  15.531  1.00  0.00     0.309 C 
HETATM   24  C   UNL     1     -46.466 -52.630  13.701  1.00  0.00     0.309 C 
ENDBRANCH  21  22
ENDBRANCH  20  21
ENDBRANCH  16  20
ENDBRANCH   6  13
BRANCH   2  25
HETATM   25  C   UNL     1     -42.503 -46.186  10.391  1.00  0.00     0.165 C 
BRANCH  25  26
HETATM   26  C   UNL     1     -43.324 -46.264   9.093  1.00  0.00     0.165 C 
BRANCH  26  27
HETATM   27  C   UNL     1     -44.527 -47.222   9.190  1.00  0.00     0.151 C 
HETATM   28  O   UNL     1     -44.533 -48.121   8.059  1.00  0.00    -0.383 OA
HETATM   29  C   UNL     1     -45.895 -48.521   7.818  1.00  0.00     0.168 C 
HETATM   30  C   UNL     1     -46.761 -47.807   8.834  1.00  0.00     0.029 C 
HETATM   31  C   UNL     1     -45.915 -46.612   9.222  1.00  0.00     0.036 C 
ENDBRANCH  26  27
BRANCH  26  32
HETATM   32  O   UNL     1     -43.858 -44.963   8.776  1.00  0.00    -0.391 OA
HETATM   33  H   UNL     1     -44.355 -45.060   7.939  1.00  0.00     0.210 HD
ENDBRANCH  26  32
ENDBRANCH  25  26
ENDBRANCH   2  25
TORSDOF 8
ENDMDL
MODEL 3
REMARK VINA RESULT:      -6.1      3.241      8.798
REMARK  8 active torsions:
REMARK  status: ('A' for Active; 'I' for Inactive)
REMARK    1  A    between atoms: N_2  and  C_13 
REMARK    2  A    between atoms: C_6  and  N_8 
REMARK    3  A    between atoms: C_13  and  C_14 
REMARK    4  A    between atoms: C_14  and  C_18 
REMARK    5  A    between atoms: C_14  and  O_25 
REMARK    6  A    between atoms: N_15  and  C_21 
REMARK    7  A    between atoms: C_21  and  C_26 
REMARK    8  A    between atoms: N_22  and  C_26 
ROOT
HETATM    1  C   UNL     1     -40.226 -49.344  12.870  1.00  0.00     0.117 A 
HETATM    2  N   UNL     1     -40.458 -51.416  13.546  1.00  0.00    -0.325 N 
HETATM    3  C   UNL     1     -39.681 -50.615  12.751  1.00  0.00     0.140 A 
HETATM    4  N   UNL     1     -41.326 -49.371  13.709  1.00  0.00    -0.346 N 
ATOM      5  HN  UNL     1     -41.920 -48.586  13.977  1.00  0.00     0.167 HD
HETATM    6  C   UNL     1     -39.597 -48.293  12.157  1.00  0.00     0.114 A 
HETATM    7  C   UNL     1     -41.439 -50.626  14.085  1.00  0.00     0.185 A 
HETATM    8  N   UNL     1     -38.606 -50.970  12.026  1.00  0.00    -0.336 N 
ATOM      9  HN  UNL     1     -38.232 -51.917  11.971  1.00  0.00     0.168 HD
HETATM   10  N   UNL     1     -38.509 -48.623  11.401  1.00  0.00    -0.341 N 
ATOM     11  HN  UNL     1     -38.021 -47.911  10.859  1.00  0.00     0.167 HD
HETATM   12  C   UNL     1     -38.091 -49.905  11.382  1.00  0.00     0.183 A 
ENDROOT
BRANCH   6  13
HETATM   13  N   UNL     1     -40.074 -46.972  12.184  1.00  0.00    -0.266 NA
HETATM   14  C   UNL     1     -40.284 -46.366  10.861  1.00  0.00     0.127 C 
HETATM   15  C   UNL     1     -41.510 -45.426  10.919  1.00  0.00     0.287 C 
HETATM   16  N   UNL     1     -41.313 -44.041  11.410  1.00  0.00     0.091 N 
HETATM   17  C   UNL     1     -40.215 -43.895  12.371  1.00  0.00     0.273 C 
HETATM   18  C   UNL     1     -40.170 -44.891  13.530  1.00  0.00     0.045 C 
HETATM   19  C   UNL     1     -39.382 -46.153  13.182  1.00  0.00     0.099 C 
BRANCH  16  20
HETATM   20  C   UNL     1     -42.615 -43.523  11.901  1.00  0.00     0.302 C 
BRANCH  20  21
HETATM   21  C   UNL     1     -43.306 -42.488  10.978  1.00  0.00     0.301 C 
BRANCH  21  22
HETATM   22  N   UNL     1     -43.329 -41.100  11.494  1.00  0.00     0.081 N 
HETATM   23  C   UNL     1     -43.580 -41.061  12.938  1.00  0.00     0.309 C 
HETATM   24  C   UNL     1     -42.038 -40.467  11.207  1.00  0.00     0.309 C 
ENDBRANCH  21  22
ENDBRANCH  20  21
ENDBRANCH  16  20
ENDBRANCH   6  13
BRANCH   2  25
HETATM   25  C   UNL     1     -40.180 -52.792  13.926  1.00  0.00     0.165 C 
BRANCH  25  26
HETATM   26  C   UNL     1     -40.699 -53.856  12.944  1.00  0.00     0.165 C 
BRANCH  26  27
HETATM   27  C   UNL     1     -42.172 -54.242  13.187  1.00  0.00     0.151 C 
HETATM   28  O   UNL     1     -43.043 -53.312  12.504  1.00  0.00    -0.383 OA
HETATM   29  C   UNL     1     -44.294 -53.272  13.217  1.00  0.00     0.168 C 
HETATM   30  C   UNL     1     -44.164 -54.200  14.406  1.00  0.00     0.029 C 
HETATM   31  C   UNL     1     -42.666 -54.273  14.619  1.00  0.00     0.036 C 
ENDBRANCH  26  27
BRANCH  26  32
HETATM   32  O   UNL     1     -40.622 -53.354  11.595  1.00  0.00    -0.391 OA
HETATM   33  H   UNL     1     -40.006 -53.940  11.111  1.00  0.00     0.210 HD
ENDBRANCH  26  32
ENDBRANCH  25  26
ENDBRANCH   2  25
TORSDOF 8
ENDMDL
MODEL 4
REMARK VINA RESULT:      -6.0      3.519      8.270
REMARK  8 active torsions:
REMARK  status: ('A' for Active; 'I' for Inactive)
REMARK    1  A    between atoms: N_2  and  C_13 
REMARK    2  A    between atoms: C_6  and  N_8 
REMARK    3  A    between atoms: C_13  and  C_14 
REMARK    4  A    between atoms: C_14  and  C_18 
REMARK    5  A    between atoms: C_14  and  O_25 
REMARK    6  A    between atoms: N_15  and  C_21 
REMARK    7  A    between atoms: C_21  and  C_26 
REMARK    8  A    between atoms: N_22  and  C_26 
ROOT
HETATM    1  C   UNL     1     -42.606 -52.839  13.498  1.00  0.00     0.117 A 
HETATM    2  N   UNL     1     -44.382 -54.119  13.393  1.00  0.00    -0.325 N 
HETATM    3  C   UNL     1     -43.134 -54.040  13.953  1.00  0.00     0.140 A 
HETATM    4  N   UNL     1     -43.507 -52.205  12.663  1.00  0.00    -0.346 N 
ATOM      5  HN  UNL     1     -43.388 -51.311  12.186  1.00  0.00     0.167 HD
HETATM    6  C   UNL     1     -41.308 -52.484  13.945  1.00  0.00     0.114 A 
HETATM    7  C   UNL     1     -44.552 -53.003  12.617  1.00  0.00     0.185 A 
HETATM    8  N   UNL     1     -42.547 -54.920  14.782  1.00  0.00    -0.336 N 
ATOM      9  HN  UNL     1     -42.973 -55.790  15.100  1.00  0.00     0.168 HD
HETATM   10  N   UNL     1     -40.680 -53.363  14.780  1.00  0.00    -0.341 N 
ATOM     11  HN  UNL     1     -39.741 -53.166  15.127  1.00  0.00     0.167 HD
HETATM   12  C   UNL     1     -41.319 -54.495  15.139  1.00  0.00     0.183 A 
ENDROOT
BRANCH   6  13
HETATM   13  N   UNL     1     -40.664 -51.305  13.533  1.00  0.00    -0.266 NA
HETATM   14  C   UNL     1     -40.158 -51.331  12.153  1.00  0.00     0.127 C 
HETATM   15  C   UNL     1     -40.296 -49.922  11.532  1.00  0.00     0.287 C 
HETATM   16  N   UNL     1     -39.228 -48.928  11.799  1.00  0.00     0.091 N 
HETATM   17  C   UNL     1     -38.539 -49.115  13.079  1.00  0.00     0.273 C 
HETATM   18  C   UNL     1     -39.416 -49.311  14.316  1.00  0.00     0.045 C 
HETATM   19  C   UNL     1     -39.760 -50.780  14.558  1.00  0.00     0.099 C 
BRANCH  16  20
HETATM   20  C   UNL     1     -39.791 -47.567  11.611  1.00  0.00     0.302 C 
BRANCH  20  21
HETATM   21  C   UNL     1     -41.226 -47.519  11.027  1.00  0.00     0.301 C 
BRANCH  21  22
HETATM   22  N   UNL     1     -41.762 -46.160  10.786  1.00  0.00     0.081 N 
HETATM   23  C   UNL     1     -40.700 -45.209  10.445  1.00  0.00     0.309 C 
HETATM   24  C   UNL     1     -42.733 -46.221   9.687  1.00  0.00     0.309 C 
ENDBRANCH  21  22
ENDBRANCH  20  21
ENDBRANCH  16  20
ENDBRANCH   6  13
BRANCH   2  25
HETATM   25  C   UNL     1     -45.419 -55.085  13.721  1.00  0.00     0.165 C 
BRANCH  25  26
HETATM   26  C   UNL     1     -46.436 -54.615  14.775  1.00  0.00     0.165 C 
BRANCH  26  27
HETATM   27  C   UNL     1     -45.786 -53.873  15.960  1.00  0.00     0.151 C 
HETATM   28  O   UNL     1     -45.932 -54.653  17.169  1.00  0.00    -0.383 OA
HETATM   29  C   UNL     1     -45.929 -53.744  18.286  1.00  0.00     0.168 C 
HETATM   30  C   UNL     1     -45.805 -52.343  17.726  1.00  0.00     0.029 C 
HETATM   31  C   UNL     1     -46.317 -52.496  16.309  1.00  0.00     0.036 C 
ENDBRANCH  26  27
BRANCH  26  32
HETATM   32  O   UNL     1     -47.370 -53.695  14.176  1.00  0.00    -0.391 OA
HETATM   33  H   UNL     1     -46.953 -53.365  13.354  1.00  0.00     0.210 HD
ENDBRANCH  26  32
ENDBRANCH  25  26
ENDBRANCH   2  25
TORSDOF 8
ENDMDL
MODEL 5
REMARK VINA RESULT:      -5.9      1.533      1.722
REMARK  8 active torsions:
REMARK  status: ('A' for Active; 'I' for Inactive)
REMARK    1  A    between atoms: N_2  and  C_13 
REMARK    2  A    between atoms: C_6  and  N_8 
REMARK    3  A    between atoms: C_13  and  C_14 
REMARK    4  A    between atoms: C_14  and  C_18 
REMARK    5  A    between atoms: C_14  and  O_25 
REMARK    6  A    between atoms: N_15  and  C_21 
REMARK    7  A    between atoms: C_21  and  C_26 
REMARK    8  A    between atoms: N_22  and  C_26 
ROOT
HETATM    1  C   UNL     1     -40.696 -49.462  12.757  1.00  0.00     0.117 A 
HETATM    2  N   UNL     1     -40.386 -47.540  11.749  1.00  0.00    -0.325 N 
HETATM    3  C   UNL     1     -39.833 -48.377  12.683  1.00  0.00     0.140 A 
HETATM    4  N   UNL     1     -41.765 -49.284  11.898  1.00  0.00    -0.346 N 
ATOM      5  HN  UNL     1     -42.549 -49.918  11.745  1.00  0.00     0.167 HD
HETATM    6  C   UNL     1     -40.352 -50.511  13.647  1.00  0.00     0.114 A 
HETATM    7  C   UNL     1     -41.550 -48.122  11.320  1.00  0.00     0.185 A 
HETATM    8  N   UNL     1     -38.690 -48.203  13.369  1.00  0.00    -0.336 N 
ATOM      9  HN  UNL     1     -38.079 -47.392  13.280  1.00  0.00     0.168 HD
HETATM   10  N   UNL     1     -39.203 -50.359  14.367  1.00  0.00    -0.341 N 
ATOM     11  HN  UNL     1     -38.909 -51.077  15.030  1.00  0.00     0.167 HD
HETATM   12  C   UNL     1     -38.462 -49.246  14.189  1.00  0.00     0.183 A 
ENDROOT
BRANCH   6  13
HETATM   13  N   UNL     1     -41.161 -51.646  13.822  1.00  0.00    -0.266 NA
HETATM   14  C   UNL     1     -41.812 -51.742  15.137  1.00  0.00     0.127 C 
HETATM   15  C   UNL     1     -43.208 -52.384  14.970  1.00  0.00     0.287 C 
HETATM   16  N   UNL     1     -43.303 -53.863  14.927  1.00  0.00     0.091 N 
HETATM   17  C   UNL     1     -42.108 -54.527  14.395  1.00  0.00     0.273 C 
HETATM   18  C   UNL     1     -41.540 -53.983  13.084  1.00  0.00     0.045 C 
HETATM   19  C   UNL     1     -40.526 -52.863  13.310  1.00  0.00     0.099 C 
BRANCH  16  20
HETATM   20  C   UNL     1     -44.560 -54.236  14.232  1.00  0.00     0.302 C 
BRANCH  20  21
HETATM   21  C   UNL     1     -45.860 -53.694  14.876  1.00  0.00     0.301 C 
BRANCH  21  22
HETATM   22  N   UNL     1     -46.656 -52.785  14.019  1.00  0.00     0.081 N 
HETATM   23  C   UNL     1     -46.782 -51.450  14.612  1.00  0.00     0.309 C 
HETATM   24  C   UNL     1     -46.005 -52.677  12.709  1.00  0.00     0.309 C 
ENDBRANCH  21  22
ENDBRANCH  20  21
ENDBRANCH  16  20
ENDBRANCH   6  13
BRANCH   2  25
HETATM   25  C   UNL     1     -39.762 -46.366  11.159  1.00  0.00     0.165 C 
BRANCH  25  26
HETATM   26  C   UNL     1     -40.707 -45.468  10.344  1.00  0.00     0.165 C 
BRANCH  26  27
HETATM   27  C   UNL     1     -41.360 -44.352  11.183  1.00  0.00     0.151 C 
HETATM   28  O   UNL     1     -42.637 -43.988  10.610  1.00  0.00    -0.383 OA
HETATM   29  C   UNL     1     -42.905 -42.617  10.960  1.00  0.00     0.168 C 
HETATM   30  C   UNL     1     -41.721 -42.116  11.759  1.00  0.00     0.029 C 
HETATM   31  C   UNL     1     -40.604 -43.046  11.332  1.00  0.00     0.036 C 
ENDBRANCH  26  27
BRANCH  26  32
HETATM   32  O   UNL     1     -39.970 -44.815   9.291  1.00  0.00    -0.391 OA
HETATM   33  H   UNL     1     -39.436 -45.505   8.850  1.00  0.00     0.210 HD
ENDBRANCH  26  32
ENDBRANCH  25  26
ENDBRANCH   2  25
TORSDOF 8
ENDMDL
MODEL 6
REMARK VINA RESULT:      -5.8      3.772      9.308
REMARK  8 active torsions:
REMARK  status: ('A' for Active; 'I' for Inactive)
REMARK    1  A    between atoms: N_2  and  C_13 
REMARK    2  A    between atoms: C_6  and  N_8 
REMARK    3  A    between atoms: C_13  and  C_14 
REMARK    4  A    between atoms: C_14  and  C_18 
REMARK    5  A    between atoms: C_14  and  O_25 
REMARK    6  A    between atoms: N_15  and  C_21 
REMARK    7  A    between atoms: C_21  and  C_26 
REMARK    8  A    between atoms: N_22  and  C_26 
ROOT
HETATM    1  C   UNL     1     -41.219 -46.584  11.433  1.00  0.00     0.117 A 
HETATM    2  N   UNL     1     -40.554 -48.666  11.604  1.00  0.00    -0.325 N 
HETATM    3  C   UNL     1     -41.431 -47.860  10.928  1.00  0.00     0.140 A 
HETATM    4  N   UNL     1     -40.242 -46.613  12.412  1.00  0.00    -0.346 N 
ATOM      5  HN  UNL     1     -39.884 -45.826  12.954  1.00  0.00     0.167 HD
HETATM    6  C   UNL     1     -41.990 -45.527  10.887  1.00  0.00     0.114 A 
HETATM    7  C   UNL     1     -39.876 -47.874  12.494  1.00  0.00     0.185 A 
HETATM    8  N   UNL     1     -42.298 -48.214   9.964  1.00  0.00    -0.336 N 
ATOM      9  HN  UNL     1     -42.419 -49.164   9.614  1.00  0.00     0.168 HD
HETATM   10  N   UNL     1     -42.889 -45.857   9.915  1.00  0.00    -0.341 N 
ATOM     11  HN  UNL     1     -43.479 -45.140   9.491  1.00  0.00     0.167 HD
HETATM   12  C   UNL     1     -42.986 -47.144   9.522  1.00  0.00     0.183 A 
ENDROOT
BRANCH   6  13
HETATM   13  N   UNL     1     -41.877 -44.201  11.337  1.00  0.00    -0.266 NA
HETATM   14  C   UNL     1     -43.024 -43.341  11.012  1.00  0.00     0.127 C 
HETATM   15  C   UNL     1     -43.249 -42.334  12.163  1.00  0.00     0.287 C 
HETATM   16  N   UNL     1     -42.446 -41.086  12.174  1.00  0.00     0.091 N 
HETATM   17  C   UNL     1     -41.130 -41.214  11.539  1.00  0.00     0.273 C 
HETATM   18  C   UNL     1     -40.274 -42.412  11.952  1.00  0.00     0.045 C 
HETATM   19  C   UNL     1     -40.545 -43.645  11.091  1.00  0.00     0.099 C 
BRANCH  16  20
HETATM   20  C   UNL     1     -42.397 -40.568  13.563  1.00  0.00     0.302 C 
BRANCH  20  21
HETATM   21  C   UNL     1     -42.792 -41.584  14.664  1.00  0.00     0.301 C 
BRANCH  21  22
HETATM   22  N   UNL     1     -41.709 -41.943  15.608  1.00  0.00     0.081 N 
HETATM   23  C   UNL     1     -41.244 -43.318  15.405  1.00  0.00     0.309 C 
HETATM   24  C   UNL     1     -40.587 -41.017  15.417  1.00  0.00     0.309 C 
ENDBRANCH  21  22
ENDBRANCH  20  21
ENDBRANCH  16  20
ENDBRANCH   6  13
BRANCH   2  25
HETATM   25  C   UNL     1     -40.239 -50.052  11.299  1.00  0.00     0.165 C 
BRANCH  25  26
HETATM   26  C   UNL     1     -39.386 -50.774  12.356  1.00  0.00     0.165 C 
BRANCH  26  27
HETATM   27  C   UNL     1     -40.130 -51.932  13.052  1.00  0.00     0.151 C 
HETATM   28  O   UNL     1     -39.177 -52.876  13.590  1.00  0.00    -0.383 OA
HETATM   29  C   UNL     1     -39.812 -54.168  13.636  1.00  0.00     0.168 C 
HETATM   30  C   UNL     1     -41.207 -54.005  13.071  1.00  0.00     0.029 C 
HETATM   31  C   UNL     1     -41.084 -52.761  12.215  1.00  0.00     0.036 C 
ENDBRANCH  26  27
BRANCH  26  32
HETATM   32  O   UNL     1     -38.221 -51.349  11.733  1.00  0.00    -0.391 OA
HETATM   33  H   UNL     1     -37.470 -51.194  12.342  1.00  0.00     0.210 HD
ENDBRANCH  26  32
ENDBRANCH  25  26
ENDBRANCH   2  25
TORSDOF 8
ENDMDL
MODEL 7
REMARK VINA RESULT:      -5.8      3.751      8.027
REMARK  8 active torsions:
REMARK  status: ('A' for Active; 'I' for Inactive)
REMARK    1  A    between atoms: N_2  and  C_13 
REMARK    2  A    between atoms: C_6  and  N_8 
REMARK    3  A    between atoms: C_13  and  C_14 
REMARK    4  A    between atoms: C_14  and  C_18 
REMARK    5  A    between atoms: C_14  and  O_25 
REMARK    6  A    between atoms: N_15  and  C_21 
REMARK    7  A    between atoms: C_21  and  C_26 
REMARK    8  A    between atoms: N_22  and  C_26 
ROOT
HETATM    1  C   UNL     1     -42.073 -51.805  13.402  1.00  0.00     0.117 A 
HETATM    2  N   UNL     1     -44.057 -52.672  13.061  1.00  0.00    -0.325 N 
HETATM    3  C   UNL     1     -42.724 -52.989  13.086  1.00  0.00     0.140 A 
HETATM    4  N   UNL     1     -42.988 -50.778  13.550  1.00  0.00    -0.346 N 
ATOM      5  HN  UNL     1     -42.795 -49.804  13.781  1.00  0.00     0.167 HD
HETATM    6  C   UNL     1     -40.660 -51.846  13.518  1.00  0.00     0.114 A 
HETATM    7  C   UNL     1     -44.161 -51.332  13.330  1.00  0.00     0.185 A 
HETATM    8  N   UNL     1     -42.160 -54.191  12.874  1.00  0.00    -0.336 N 
ATOM      9  HN  UNL     1     -42.677 -55.042  12.651  1.00  0.00     0.168 HD
HETATM   10  N   UNL     1     -40.056 -53.049  13.296  1.00  0.00    -0.341 N 
ATOM     11  HN  UNL     1     -39.042 -53.138  13.356  1.00  0.00     0.167 HD
HETATM   12  C   UNL     1     -40.821 -54.120  12.997  1.00  0.00     0.183 A 
ENDROOT
BRANCH   6  13
HETATM   13  N   UNL     1     -39.894 -50.704  13.810  1.00  0.00    -0.266 NA
HETATM   14  C   UNL     1     -39.395 -49.980  12.632  1.00  0.00     0.127 C 
HETATM   15  C   UNL     1     -39.381 -48.464  12.934  1.00  0.00     0.287 C 
HETATM   16  N   UNL     1     -38.212 -47.899  13.651  1.00  0.00     0.091 N 
HETATM   17  C   UNL     1     -37.545 -48.845  14.551  1.00  0.00     0.273 C 
HETATM   18  C   UNL     1     -38.437 -49.637  15.509  1.00  0.00     0.045 C 
HETATM   19  C   UNL     1     -38.937 -50.943  14.893  1.00  0.00     0.099 C 
BRANCH  16  20
HETATM   20  C   UNL     1     -38.626 -46.633  14.306  1.00  0.00     0.302 C 
BRANCH  20  21
HETATM   21  C   UNL     1     -40.090 -46.198  14.041  1.00  0.00     0.301 C 
BRANCH  21  22
HETATM   22  N   UNL     1     -40.243 -44.922  13.304  1.00  0.00     0.081 N 
HETATM   23  C   UNL     1     -38.945 -44.315  12.992  1.00  0.00     0.309 C 
HETATM   24  C   UNL     1     -40.972 -45.180  12.057  1.00  0.00     0.309 C 
ENDBRANCH  21  22
ENDBRANCH  20  21
ENDBRANCH  16  20
ENDBRANCH   6  13
BRANCH   2  25
HETATM   25  C   UNL     1     -45.169 -53.605  12.981  1.00  0.00     0.165 C 
BRANCH  25  26
HETATM   26  C   UNL     1     -45.363 -54.494  14.221  1.00  0.00     0.165 C 
BRANCH  26  27
HETATM   27  C   UNL     1     -46.186 -53.815  15.334  1.00  0.00     0.151 C 
HETATM   28  O   UNL     1     -47.073 -52.828  14.759  1.00  0.00    -0.383 OA
HETATM   29  C   UNL     1     -47.320 -51.820  15.757  1.00  0.00     0.168 C 
HETATM   30  C   UNL     1     -46.522 -52.198  16.987  1.00  0.00     0.029 C 
HETATM   31  C   UNL     1     -45.429 -53.082  16.425  1.00  0.00     0.036 C 
ENDBRANCH  26  27
BRANCH  26  32
HETATM   32  O   UNL     1     -46.076 -55.692  13.855  1.00  0.00    -0.391 OA
HETATM   33  H   UNL     1     -46.310 -56.146  14.690  1.00  0.00     0.210 HD
ENDBRANCH  26  32
ENDBRANCH  25  26
ENDBRANCH   2  25
TORSDOF 8
ENDMDL
MODEL 8
REMARK VINA RESULT:      -5.7      4.308      9.417
REMARK  8 active torsions:
REMARK  status: ('A' for Active; 'I' for Inactive)
REMARK    1  A    between atoms: N_2  and  C_13 
REMARK    2  A    between atoms: C_6  and  N_8 
REMARK    3  A    between atoms: C_13  and  C_14 
REMARK    4  A    between atoms: C_14  and  C_18 
REMARK    5  A    between atoms: C_14  and  O_25 
REMARK    6  A    between atoms: N_15  and  C_21 
REMARK    7  A    between atoms: C_21  and  C_26 
REMARK    8  A    between atoms: N_22  and  C_26 
ROOT
HETATM    1  C   UNL     1     -40.727 -51.414  13.085  1.00  0.00     0.117 A 
HETATM    2  N   UNL     1     -39.714 -53.187  13.882  1.00  0.00    -0.325 N 
HETATM    3  C   UNL     1     -40.889 -52.774  13.312  1.00  0.00     0.140 A 
HETATM    4  N   UNL     1     -39.483 -51.000  13.525  1.00  0.00    -0.346 N 
ATOM      5  HN  UNL     1     -39.093 -50.058  13.486  1.00  0.00     0.167 HD
HETATM    6  C   UNL     1     -41.801 -50.720  12.471  1.00  0.00     0.114 A 
HETATM    7  C   UNL     1     -38.911 -52.083  14.003  1.00  0.00     0.185 A 
HETATM    8  N   UNL     1     -41.965 -53.522  13.011  1.00  0.00    -0.336 N 
ATOM      9  HN  UNL     1     -42.042 -54.523  13.187  1.00  0.00     0.168 HD
HETATM   10  N   UNL     1     -42.913 -51.449  12.164  1.00  0.00    -0.341 N 
ATOM     11  HN  UNL     1     -43.720 -51.003  11.730  1.00  0.00     0.167 HD
HETATM   12  C   UNL     1     -42.927 -52.769  12.444  1.00  0.00     0.183 A 
ENDROOT
BRANCH   6  13
HETATM   13  N   UNL     1     -41.758 -49.339  12.215  1.00  0.00    -0.266 NA
HETATM   14  C   UNL     1     -43.061 -48.662  12.272  1.00  0.00     0.127 C 
HETATM   15  C   UNL     1     -42.871 -47.238  12.843  1.00  0.00     0.287 C 
HETATM   16  N   UNL     1     -42.463 -46.156  11.913  1.00  0.00     0.091 N 
HETATM   17  C   UNL     1     -41.668 -46.615  10.770  1.00  0.00     0.273 C 
HETATM   18  C   UNL     1     -40.490 -47.541  11.072  1.00  0.00     0.045 C 
HETATM   19  C   UNL     1     -40.895 -49.014  11.077  1.00  0.00     0.099 C 
BRANCH  16  20
HETATM   20  C   UNL     1     -41.819 -45.075  12.701  1.00  0.00     0.302 C 
BRANCH  20  21
HETATM   21  C   UNL     1     -41.182 -43.936  11.865  1.00  0.00     0.301 C 
BRANCH  21  22
HETATM   22  N   UNL     1     -39.833 -43.510  12.306  1.00  0.00     0.081 N 
HETATM   23  C   UNL     1     -39.881 -42.258  13.067  1.00  0.00     0.309 C 
HETATM   24  C   UNL     1     -39.252 -44.567  13.141  1.00  0.00     0.309 C 
ENDBRANCH  21  22
ENDBRANCH  20  21
ENDBRANCH  16  20
ENDBRANCH   6  13
BRANCH   2  25
HETATM   25  C   UNL     1     -39.302 -54.561  14.120  1.00  0.00     0.165 C 
BRANCH  25  26
HETATM   26  C   UNL     1     -38.731 -54.836  15.521  1.00  0.00     0.165 C 
BRANCH  26  27
HETATM   27  C   UNL     1     -39.813 -55.194  16.560  1.00  0.00     0.151 C 
HETATM   28  O   UNL     1     -39.410 -56.364  17.307  1.00  0.00    -0.383 OA
HETATM   29  C   UNL     1     -40.602 -57.033  17.760  1.00  0.00     0.168 C 
HETATM   30  C   UNL     1     -41.785 -56.246  17.238  1.00  0.00     0.029 C 
HETATM   31  C   UNL     1     -41.206 -55.507  16.049  1.00  0.00     0.036 C 
ENDBRANCH  26  27
BRANCH  26  32
HETATM   32  O   UNL     1     -37.825 -55.955  15.468  1.00  0.00    -0.391 OA
HETATM   33  H   UNL     1     -37.442 -56.051  16.363  1.00  0.00     0.210 HD
ENDBRANCH  26  32
ENDBRANCH  25  26
ENDBRANCH   2  25
TORSDOF 8
ENDMDL
MODEL 9
REMARK VINA RESULT:      -5.7      3.431      5.170
REMARK  8 active torsions:
REMARK  status: ('A' for Active; 'I' for Inactive)
REMARK    1  A    between atoms: N_2  and  C_13 
REMARK    2  A    between atoms: C_6  and  N_8 
REMARK    3  A    between atoms: C_13  and  C_14 
REMARK    4  A    between atoms: C_14  and  C_18 
REMARK    5  A    between atoms: C_14  and  O_25 
REMARK    6  A    between atoms: N_15  and  C_21 
REMARK    7  A    between atoms: C_21  and  C_26 
REMARK    8  A    between atoms: N_22  and  C_26 
ROOT
HETATM    1  C   UNL     1     -42.569 -50.553  13.073  1.00  0.00     0.117 A 
HETATM    2  N   UNL     1     -41.085 -49.142  12.291  1.00  0.00    -0.325 N 
HETATM    3  C   UNL     1     -41.475 -50.454  12.225  1.00  0.00     0.140 A 
HETATM    4  N   UNL     1     -42.832 -49.328  13.661  1.00  0.00    -0.346 N 
ATOM      5  HN  UNL     1     -43.573 -49.106  14.326  1.00  0.00     0.167 HD
HETATM    6  C   UNL     1     -43.199 -51.818  13.185  1.00  0.00     0.114 A 
HETATM    7  C   UNL     1     -41.920 -48.514  13.177  1.00  0.00     0.185 A 
HETATM    8  N   UNL     1     -40.935 -51.436  11.482  1.00  0.00    -0.336 N 
ATOM      9  HN  UNL     1     -40.133 -51.321  10.864  1.00  0.00     0.168 HD
HETATM   10  N   UNL     1     -42.667 -52.840  12.453  1.00  0.00    -0.341 N 
ATOM     11  HN  UNL     1     -43.072 -53.775  12.499  1.00  0.00     0.167 HD
HETATM   12  C   UNL     1     -41.598 -52.594  11.667  1.00  0.00     0.183 A 
ENDROOT
BRANCH   6  13
HETATM   13  N   UNL     1     -44.298 -52.042  14.030  1.00  0.00    -0.266 NA
HETATM   14  C   UNL     1     -44.295 -53.342  14.715  1.00  0.00     0.127 C 
HETATM   15  C   UNL     1     -44.906 -53.179  16.125  1.00  0.00     0.287 C 
HETATM   16  N   UNL     1     -46.382 -53.225  16.262  1.00  0.00     0.091 N 
HETATM   17  C   UNL     1     -47.110 -52.766  15.075  1.00  0.00     0.273 C 
HETATM   18  C   UNL     1     -46.665 -51.439  14.459  1.00  0.00     0.045 C 
HETATM   19  C   UNL     1     -45.562 -51.622  13.418  1.00  0.00     0.099 C 
BRANCH  16  20
HETATM   20  C   UNL     1     -46.763 -52.521  17.513  1.00  0.00     0.302 C 
BRANCH  20  21
HETATM   21  C   UNL     1     -45.581 -52.102  18.423  1.00  0.00     0.301 C 
BRANCH  21  22
HETATM   22  N   UNL     1     -45.601 -50.691  18.871  1.00  0.00     0.081 N 
HETATM   23  C   UNL     1     -45.729 -49.764  17.742  1.00  0.00     0.309 C 
HETATM   24  C   UNL     1     -46.729 -50.500  19.789  1.00  0.00     0.309 C 
ENDBRANCH  21  22
ENDBRANCH  20  21
ENDBRANCH  16  20
ENDBRANCH   6  13
BRANCH   2  25
HETATM   25  C   UNL     1     -40.115 -48.482  11.432  1.00  0.00     0.165 C 
BRANCH  25  26
HETATM   26  C   UNL     1     -38.644 -48.813  11.736  1.00  0.00     0.165 C 
BRANCH  26  27
HETATM   27  C   UNL     1     -38.398 -49.191  13.211  1.00  0.00     0.151 C 
HETATM   28  O   UNL     1     -37.787 -48.082  13.908  1.00  0.00    -0.383 OA
HETATM   29  C   UNL     1     -37.012 -48.617  14.998  1.00  0.00     0.168 C 
HETATM   30  C   UNL     1     -37.135 -50.125  14.941  1.00  0.00     0.029 C 
HETATM   31  C   UNL     1     -37.503 -50.382  13.494  1.00  0.00     0.036 C 
ENDBRANCH  26  27
BRANCH  26  32
HETATM   32  O   UNL     1     -38.225 -49.943  10.946  1.00  0.00    -0.391 OA
HETATM   33  H   UNL     1     -39.024 -50.483  10.779  1.00  0.00     0.210 HD
ENDBRANCH  26  32
ENDBRANCH  25  26
ENDBRANCH   2  25
TORSDOF 8
ENDMDL
