MODEL 1
REMARK VINA RESULT:      -5.3      0.000      0.000
REMARK  2 active torsions:
REMARK  status: ('A' for Active; 'I' for Inactive)
REMARK    1  A    between atoms: C_6  and  N_7 
REMARK       I    between atoms: N_7  and  C_8 
REMARK    2  A    between atoms: C_8  and  C_10 
ROOT
HETATM    1  N   UNL     1     -40.828 -51.759  12.497  1.00  0.00    -0.311 N 
HETATM    2  C   UNL     1     -40.932 -50.490  11.942  1.00  0.00     0.254 C 
HETATM    3  O   UNL     1     -41.958 -49.825  11.823  1.00  0.00    -0.270 OA
HETATM    4  H   UNL     1     -39.892 -52.141  12.568  1.00  0.00     0.170 HD
ENDROOT
BRANCH   1   5
HETATM    5  C   UNL     1     -41.918 -52.571  12.826  1.00  0.00     0.109 A 
HETATM    6  N   UNL     1     -43.035 -52.522  12.082  1.00  0.00    -0.351 N 
HETATM    7  C   UNL     1     -44.058 -53.354  12.383  1.00  0.00     0.115 A 
ATOM      8  HN  UNL     1     -43.111 -51.869  11.302  1.00  0.00     0.166 HD
HETATM    9  C   UNL     1     -44.026 -54.261  13.420  1.00  0.00     0.071 A 
HETATM   10 CL   UNL     1     -45.385 -55.282  13.686  1.00  0.00    -0.081 Cl
HETATM   11  C   UNL     1     -42.867 -54.297  14.191  1.00  0.00     0.060 A 
HETATM   12  C   UNL     1     -41.800 -53.441  13.898  1.00  0.00     0.074 A 
HETATM   13 CL   UNL     1     -42.685 -55.389  15.519  1.00  0.00    -0.082 Cl
ENDBRANCH   1   5
BRANCH   2  14
HETATM   14  C   UNL     1     -39.556 -49.921  11.539  1.00  0.00     0.237 C 
HETATM   15  C   UNL     1     -38.412 -50.684  12.223  1.00  0.00     0.209 C 
HETATM   16  O   UNL     1     -38.277 -50.316  13.605  1.00  0.00    -0.386 OA
HETATM   17  C   UNL     1     -38.090 -48.905  13.734  1.00  0.00     0.193 C 
HETATM   18  C   UNL     1     -39.259 -48.156  13.104  1.00  0.00     0.195 C 
HETATM   19  O   UNL     1     -39.433 -48.500  11.720  1.00  0.00    -0.372 OA
ENDBRANCH   2  14
TORSDOF 2
ENDMDL
MODEL 2
REMARK VINA RESULT:      -5.3      5.172      6.156
REMARK  2 active torsions:
REMARK  status: ('A' for Active; 'I' for Inactive)
REMARK    1  A    between atoms: C_6  and  N_7 
REMARK       I    between atoms: N_7  and  C_8 
REMARK    2  A    between atoms: C_8  and  C_10 
ROOT
HETATM    1  N   UNL     1     -39.707 -47.821  11.263  1.00  0.00    -0.311 N 
HETATM    2  C   UNL     1     -39.473 -49.150  11.594  1.00  0.00     0.254 C 
HETATM    3  O   UNL     1     -40.162 -50.116  11.276  1.00  0.00    -0.270 OA
HETATM    4  H   UNL     1     -39.003 -47.156  11.560  1.00  0.00     0.170 HD
ENDROOT
BRANCH   1   5
HETATM    5  C   UNL     1     -40.886 -47.346  10.683  1.00  0.00     0.109 A 
HETATM    6  N   UNL     1     -41.649 -48.174   9.948  1.00  0.00    -0.351 N 
HETATM    7  C   UNL     1     -42.813 -47.711   9.441  1.00  0.00     0.115 A 
ATOM      8  HN  UNL     1     -41.354 -49.136   9.777  1.00  0.00     0.166 HD
HETATM    9  C   UNL     1     -43.275 -46.426   9.632  1.00  0.00     0.071 A 
HETATM   10 CL   UNL     1     -44.787 -45.966   8.951  1.00  0.00    -0.081 Cl
HETATM   11  C   UNL     1     -42.472 -45.575  10.386  1.00  0.00     0.060 A 
HETATM   12  C   UNL     1     -41.262 -46.033  10.916  1.00  0.00     0.074 A 
HETATM   13 CL   UNL     1     -42.927 -43.939  10.712  1.00  0.00    -0.082 Cl
ENDBRANCH   1   5
BRANCH   2  14
HETATM   14  C   UNL     1     -38.152 -49.328  12.370  1.00  0.00     0.237 C 
HETATM   15  C   UNL     1     -37.606 -50.757  12.228  1.00  0.00     0.209 C 
HETATM   16  O   UNL     1     -38.333 -51.690  13.043  1.00  0.00    -0.386 OA
HETATM   17  C   UNL     1     -38.319 -51.279  14.412  1.00  0.00     0.193 C 
HETATM   18  C   UNL     1     -38.917 -49.883  14.552  1.00  0.00     0.195 C 
HETATM   19  O   UNL     1     -38.221 -48.918  13.746  1.00  0.00    -0.372 OA
ENDBRANCH   2  14
TORSDOF 2
ENDMDL
MODEL 3
REMARK VINA RESULT:      -5.2      1.624      2.011
REMARK  2 active torsions:
REMARK  status: ('A' for Active; 'I' for Inactive)
REMARK    1  A    between atoms: C_6  and  N_7 
REMARK       I    between atoms: N_7  and  C_8 
REMARK    2  A    between atoms: C_8  and  C_10 
ROOT
HETATM    1  N   UNL     1     -41.971 -50.941  11.963  1.00  0.00    -0.311 N 
HETATM    2  C   UNL     1     -40.605 -51.175  12.062  1.00  0.00     0.254 C 
HETATM    3  O   UNL     1     -40.065 -52.214  12.434  1.00  0.00    -0.270 OA
HETATM    4  H   UNL     1     -42.244 -50.043  11.582  1.00  0.00     0.170 HD
ENDROOT
BRANCH   1   5
HETATM    5  C   UNL     1     -42.958 -51.791  12.470  1.00  0.00     0.109 A 
HETATM    6  N   UNL     1     -42.864 -53.117  12.272  1.00  0.00    -0.351 N 
HETATM    7  C   UNL     1     -43.799 -53.927  12.816  1.00  0.00     0.115 A 
ATOM      8  HN  UNL     1     -42.099 -53.505  11.718  1.00  0.00     0.166 HD
HETATM    9  C   UNL     1     -44.857 -53.474  13.574  1.00  0.00     0.071 A 
HETATM   10 CL   UNL     1     -45.968 -54.611  14.233  1.00  0.00    -0.081 Cl
HETATM   11  C   UNL     1     -44.950 -52.098  13.766  1.00  0.00     0.060 A 
HETATM   12  C   UNL     1     -43.995 -51.242  13.207  1.00  0.00     0.074 A 
HETATM   13 CL   UNL     1     -46.221 -51.388  14.699  1.00  0.00    -0.082 Cl
ENDBRANCH   1   5
BRANCH   2  14
HETATM   14  C   UNL     1     -39.776 -49.977  11.557  1.00  0.00     0.237 C 
HETATM   15  C   UNL     1     -38.273 -50.201  11.778  1.00  0.00     0.209 C 
HETATM   16  O   UNL     1     -37.902 -50.014  13.153  1.00  0.00    -0.386 OA
HETATM   17  C   UNL     1     -38.289 -48.715  13.606  1.00  0.00     0.193 C 
HETATM   18  C   UNL     1     -39.792 -48.521  13.438  1.00  0.00     0.195 C 
HETATM   19  O   UNL     1     -40.207 -48.706  12.074  1.00  0.00    -0.372 OA
ENDBRANCH   2  14
TORSDOF 2
ENDMDL
MODEL 4
REMARK VINA RESULT:      -5.1      2.432      3.545
REMARK  2 active torsions:
REMARK  status: ('A' for Active; 'I' for Inactive)
REMARK    1  A    between atoms: C_6  and  N_7 
REMARK       I    between atoms: N_7  and  C_8 
REMARK    2  A    between atoms: C_8  and  C_10 
ROOT
HETATM    1  N   UNL     1     -43.437 -50.099  12.641  1.00  0.00    -0.311 N 
HETATM    2  C   UNL     1     -42.068 -49.897  12.513  1.00  0.00     0.254 C 
HETATM    3  O   UNL     1     -41.205 -50.766  12.424  1.00  0.00    -0.270 OA
HETATM    4  H   UNL     1     -44.014 -49.267  12.644  1.00  0.00     0.170 HD
ENDROOT
BRANCH   1   5
HETATM    5  C   UNL     1     -44.033 -51.338  12.896  1.00  0.00     0.109 A 
HETATM    6  N   UNL     1     -43.537 -52.448  12.322  1.00  0.00    -0.351 N 
HETATM    7  C   UNL     1     -44.093 -53.643  12.624  1.00  0.00     0.115 A 
ATOM      8  HN  UNL     1     -42.755 -52.389  11.670  1.00  0.00     0.166 HD
HETATM    9  C   UNL     1     -45.151 -53.797  13.495  1.00  0.00     0.071 A 
HETATM   10 CL   UNL     1     -45.753 -55.377  13.813  1.00  0.00    -0.081 Cl
HETATM   11  C   UNL     1     -45.662 -52.640  14.076  1.00  0.00     0.060 A 
HETATM   12  C   UNL     1     -45.104 -51.394  13.773  1.00  0.00     0.074 A 
HETATM   13 CL   UNL     1     -46.982 -52.684  15.191  1.00  0.00    -0.082 Cl
ENDBRANCH   1   5
BRANCH   2  14
HETATM   14  C   UNL     1     -41.714 -48.400  12.403  1.00  0.00     0.237 C 
HETATM   15  C   UNL     1     -42.951 -47.514  12.609  1.00  0.00     0.209 C 
HETATM   16  O   UNL     1     -43.801 -47.506  11.451  1.00  0.00    -0.386 OA
HETATM   17  C   UNL     1     -43.071 -47.091  10.295  1.00  0.00     0.193 C 
HETATM   18  C   UNL     1     -41.878 -48.011  10.063  1.00  0.00     0.195 C 
HETATM   19  O   UNL     1     -41.003 -48.052  11.203  1.00  0.00    -0.372 OA
ENDBRANCH   2  14
TORSDOF 2
ENDMDL
MODEL 5
REMARK VINA RESULT:      -5.0      4.378      6.006
REMARK  2 active torsions:
REMARK  status: ('A' for Active; 'I' for Inactive)
REMARK    1  A    between atoms: C_6  and  N_7 
REMARK       I    between atoms: N_7  and  C_8 
REMARK    2  A    between atoms: C_8  and  C_10 
ROOT
HETATM    1  N   UNL     1     -40.663 -50.775  11.431  1.00  0.00    -0.311 N 
HETATM    2  C   UNL     1     -41.510 -51.599  12.163  1.00  0.00     0.254 C 
HETATM    3  O   UNL     1     -42.623 -51.309  12.591  1.00  0.00    -0.270 OA
HETATM    4  H   UNL     1     -39.801 -51.195  11.106  1.00  0.00     0.170 HD
ENDROOT
BRANCH   1   5
HETATM    5  C   UNL     1     -40.864 -49.404  11.241  1.00  0.00     0.109 A 
HETATM    6  N   UNL     1     -41.810 -48.981  10.385  1.00  0.00    -0.351 N 
HETATM    7  C   UNL     1     -42.026 -47.653  10.255  1.00  0.00     0.115 A 
ATOM      8  HN  UNL     1     -42.355 -49.651   9.842  1.00  0.00     0.166 HD
HETATM    9  C   UNL     1     -41.329 -46.692  10.956  1.00  0.00     0.071 A 
HETATM   10 CL   UNL     1     -41.715 -45.032  10.718  1.00  0.00    -0.081 Cl
HETATM   11  C   UNL     1     -40.345 -47.141  11.833  1.00  0.00     0.060 A 
HETATM   12  C   UNL     1     -40.103 -48.511  11.978  1.00  0.00     0.074 A 
HETATM   13 CL   UNL     1     -39.397 -46.050  12.781  1.00  0.00    -0.082 Cl
ENDBRANCH   1   5
BRANCH   2  14
HETATM   14  C   UNL     1     -40.930 -53.019  12.329  1.00  0.00     0.237 C 
HETATM   15  C   UNL     1     -41.894 -53.930  13.104  1.00  0.00     0.209 C 
HETATM   16  O   UNL     1     -41.882 -53.646  14.512  1.00  0.00    -0.386 OA
HETATM   17  C   UNL     1     -40.556 -53.753  15.036  1.00  0.00     0.193 C 
HETATM   18  C   UNL     1     -39.618 -52.802  14.301  1.00  0.00     0.195 C 
HETATM   19  O   UNL     1     -39.605 -53.049  12.885  1.00  0.00    -0.372 OA
ENDBRANCH   2  14
TORSDOF 2
ENDMDL
MODEL 6
REMARK VINA RESULT:      -5.0      4.087      6.598
REMARK  2 active torsions:
REMARK  status: ('A' for Active; 'I' for Inactive)
REMARK    1  A    between atoms: C_6  and  N_7 
REMARK       I    between atoms: N_7  and  C_8 
REMARK    2  A    between atoms: C_8  and  C_10 
ROOT
HETATM    1  N   UNL     1     -43.352 -51.487  12.545  1.00  0.00    -0.311 N 
HETATM    2  C   UNL     1     -43.672 -52.838  12.602  1.00  0.00     0.254 C 
HETATM    3  O   UNL     1     -42.888 -53.770  12.766  1.00  0.00    -0.270 OA
HETATM    4  H   UNL     1     -44.132 -50.846  12.461  1.00  0.00     0.170 HD
ENDROOT
BRANCH   1   5
HETATM    5  C   UNL     1     -42.050 -50.985  12.463  1.00  0.00     0.109 A 
HETATM    6  N   UNL     1     -41.009 -51.774  12.780  1.00  0.00    -0.351 N 
HETATM    7  C   UNL     1     -39.755 -51.288  12.642  1.00  0.00     0.115 A 
ATOM      8  HN  UNL     1     -41.163 -52.724  13.120  1.00  0.00     0.166 HD
HETATM    9  C   UNL     1     -39.473 -50.017  12.189  1.00  0.00     0.071 A 
HETATM   10 CL   UNL     1     -37.831 -49.525  12.035  1.00  0.00    -0.081 Cl
HETATM   11  C   UNL     1     -40.558 -49.205  11.872  1.00  0.00     0.060 A 
HETATM   12  C   UNL     1     -41.863 -49.688  12.013  1.00  0.00     0.074 A 
HETATM   13 CL   UNL     1     -40.354 -47.591  11.288  1.00  0.00    -0.082 Cl
ENDBRANCH   1   5
BRANCH   2  14
HETATM   14  C   UNL     1     -45.194 -53.075  12.517  1.00  0.00     0.237 C 
HETATM   15  C   UNL     1     -45.980 -51.800  12.856  1.00  0.00     0.209 C 
HETATM   16  O   UNL     1     -45.992 -51.540  14.269  1.00  0.00    -0.386 OA
HETATM   17  C   UNL     1     -46.519 -52.661  14.981  1.00  0.00     0.193 C 
HETATM   18  C   UNL     1     -45.697 -53.911  14.686  1.00  0.00     0.195 C 
HETATM   19  O   UNL     1     -45.654 -54.204  13.279  1.00  0.00    -0.372 OA
ENDBRANCH   2  14
TORSDOF 2
ENDMDL
MODEL 7
REMARK VINA RESULT:      -5.0      3.128      3.939
REMARK  2 active torsions:
REMARK  status: ('A' for Active; 'I' for Inactive)
REMARK    1  A    between atoms: C_6  and  N_7 
REMARK       I    between atoms: N_7  and  C_8 
REMARK    2  A    between atoms: C_8  and  C_10 
ROOT
HETATM    1  N   UNL     1     -41.617 -48.424  12.009  1.00  0.00    -0.311 N 
HETATM    2  C   UNL     1     -41.579 -47.817  10.760  1.00  0.00     0.254 C 
HETATM    3  O   UNL     1     -42.162 -48.192   9.746  1.00  0.00    -0.270 OA
HETATM    4  H   UNL     1     -41.121 -47.948  12.753  1.00  0.00     0.170 HD
ENDROOT
BRANCH   1   5
HETATM    5  C   UNL     1     -42.168 -49.684  12.260  1.00  0.00     0.109 A 
HETATM    6  N   UNL     1     -41.568 -50.784  11.775  1.00  0.00    -0.351 N 
HETATM    7  C   UNL     1     -42.085 -51.997  12.074  1.00  0.00     0.115 A 
ATOM      8  HN  UNL     1     -40.735 -50.705  11.190  1.00  0.00     0.166 HD
HETATM    9  C   UNL     1     -43.205 -52.179  12.857  1.00  0.00     0.071 A 
HETATM   10 CL   UNL     1     -43.751 -53.777  13.184  1.00  0.00    -0.081 Cl
HETATM   11  C   UNL     1     -43.824 -51.032  13.347  1.00  0.00     0.060 A 
HETATM   12  C   UNL     1     -43.307 -49.768  13.045  1.00  0.00     0.074 A 
HETATM   13 CL   UNL     1     -45.233 -51.110  14.346  1.00  0.00    -0.082 Cl
ENDBRANCH   1   5
BRANCH   2  14
HETATM   14  C   UNL     1     -40.759 -46.511  10.778  1.00  0.00     0.237 C 
HETATM   15  C   UNL     1     -40.344 -46.128  12.206  1.00  0.00     0.209 C 
HETATM   16  O   UNL     1     -41.441 -45.575  12.951  1.00  0.00    -0.386 OA
HETATM   17  C   UNL     1     -41.994 -44.447  12.268  1.00  0.00     0.193 C 
HETATM   18  C   UNL     1     -42.458 -44.849  10.871  1.00  0.00     0.195 C 
HETATM   19  O   UNL     1     -41.389 -45.414  10.094  1.00  0.00    -0.372 OA
ENDBRANCH   2  14
TORSDOF 2
ENDMDL
MODEL 8
REMARK VINA RESULT:      -4.9      3.720      4.881
REMARK  2 active torsions:
REMARK  status: ('A' for Active; 'I' for Inactive)
REMARK    1  A    between atoms: C_6  and  N_7 
REMARK       I    between atoms: N_7  and  C_8 
REMARK    2  A    between atoms: C_8  and  C_10 
ROOT
HETATM    1  N   UNL     1     -40.619 -47.799  11.067  1.00  0.00    -0.311 N 
HETATM    2  C   UNL     1     -41.792 -47.087  10.849  1.00  0.00     0.254 C 
HETATM    3  O   UNL     1     -42.918 -47.398  11.227  1.00  0.00    -0.270 OA
HETATM    4  H   UNL     1     -39.765 -47.368  10.733  1.00  0.00     0.170 HD
ENDROOT
BRANCH   1   5
HETATM    5  C   UNL     1     -40.565 -49.098  11.583  1.00  0.00     0.109 A 
HETATM    6  N   UNL     1     -41.647 -49.891  11.506  1.00  0.00    -0.351 N 
HETATM    7  C   UNL     1     -41.559 -51.162  11.960  1.00  0.00     0.115 A 
ATOM      8  HN  UNL     1     -42.520 -49.541  11.111  1.00  0.00     0.166 HD
HETATM    9  C   UNL     1     -40.414 -51.702  12.505  1.00  0.00     0.071 A 
HETATM   10 CL   UNL     1     -40.424 -53.341  13.026  1.00  0.00    -0.081 Cl
HETATM   11  C   UNL     1     -39.302 -50.868  12.588  1.00  0.00     0.060 A 
HETATM   12  C   UNL     1     -39.374 -49.549  12.128  1.00  0.00     0.074 A 
HETATM   13 CL   UNL     1     -37.797 -51.413  13.243  1.00  0.00    -0.082 Cl
ENDBRANCH   1   5
BRANCH   2  14
HETATM   14  C   UNL     1     -41.531 -45.754  10.118  1.00  0.00     0.237 C 
HETATM   15  C   UNL     1     -40.072 -45.301  10.282  1.00  0.00     0.209 C 
HETATM   16  O   UNL     1     -39.826 -44.756  11.588  1.00  0.00    -0.386 OA
HETATM   17  C   UNL     1     -40.723 -43.676  11.858  1.00  0.00     0.193 C 
HETATM   18  C   UNL     1     -42.169 -44.148  11.751  1.00  0.00     0.195 C 
HETATM   19  O   UNL     1     -42.456 -44.708  10.459  1.00  0.00    -0.372 OA
ENDBRANCH   2  14
TORSDOF 2
ENDMDL
MODEL 9
REMARK VINA RESULT:      -4.9      4.532      6.559
REMARK  2 active torsions:
REMARK  status: ('A' for Active; 'I' for Inactive)
REMARK    1  A    between atoms: C_6  and  N_7 
REMARK       I    between atoms: N_7  and  C_8 
REMARK    2  A    between atoms: C_8  and  C_10 
ROOT
HETATM    1  N   UNL     1     -41.732 -50.301  11.739  1.00  0.00    -0.311 N 
HETATM    2  C   UNL     1     -40.796 -51.301  11.972  1.00  0.00     0.254 C 
HETATM    3  O   UNL     1     -39.590 -51.148  12.145  1.00  0.00    -0.270 OA
HETATM    4  H   UNL     1     -42.698 -50.599  11.676  1.00  0.00     0.170 HD
ENDROOT
BRANCH   1   5
HETATM    5  C   UNL     1     -41.414 -48.969  11.459  1.00  0.00     0.109 A 
HETATM    6  N   UNL     1     -40.263 -48.447  11.917  1.00  0.00    -0.351 N 
HETATM    7  C   UNL     1     -39.948 -47.174  11.590  1.00  0.00     0.115 A 
ATOM      8  HN  UNL     1     -39.638 -49.003  12.501  1.00  0.00     0.166 HD
HETATM    9  C   UNL     1     -40.743 -46.366  10.806  1.00  0.00     0.071 A 
HETATM   10 CL   UNL     1     -40.217 -44.768  10.442  1.00  0.00    -0.081 Cl
HETATM   11  C   UNL     1     -41.937 -46.913  10.345  1.00  0.00     0.060 A 
HETATM   12  C   UNL     1     -42.283 -48.227  10.676  1.00  0.00     0.074 A 
HETATM   13 CL   UNL     1     -43.029 -46.017   9.348  1.00  0.00    -0.082 Cl
ENDBRANCH   1   5
BRANCH   2  14
HETATM   14  C   UNL     1     -41.452 -52.692  12.083  1.00  0.00     0.237 C 
HETATM   15  C   UNL     1     -42.951 -52.582  12.400  1.00  0.00     0.209 C 
HETATM   16  O   UNL     1     -43.182 -52.246  13.778  1.00  0.00    -0.386 OA
HETATM   17  C   UNL     1     -42.554 -53.197  14.640  1.00  0.00     0.193 C 
HETATM   18  C   UNL     1     -41.056 -53.259  14.359  1.00  0.00     0.195 C 
HETATM   19  O   UNL     1     -40.781 -53.586  12.987  1.00  0.00    -0.372 OA
ENDBRANCH   2  14
TORSDOF 2
ENDMDL
