MODEL 1
REMARK VINA RESULT:      -6.4      0.000      0.000
REMARK  4 active torsions:
REMARK  status: ('A' for Active; 'I' for Inactive)
REMARK    1  A    between atoms: C_2  and  C_3 
REMARK       I    between atoms: C_3  and  N_5 
REMARK    2  A    between atoms: C_8  and  N_10 
REMARK       I    between atoms: N_10  and  C_11 
REMARK       I    between atoms: C_11  and  N_13 
REMARK    3  A    between atoms: N_13  and  C_14 
REMARK    4  A    between atoms: C_17  and  C_18 
ROOT
HETATM    1  N   UNL     1     -41.736 -51.153  12.109  1.00  0.00    -0.337 N 
HETATM    2  C   UNL     1     -41.560 -49.779  12.068  1.00  0.00     0.322 C 
HETATM    3  O   UNL     1     -41.333 -49.142  13.091  1.00  0.00    -0.247 OA
HETATM    4  N   UNL     1     -41.729 -49.282  10.807  1.00  0.00    -0.289 N 
HETATM    5  H   UNL     1     -41.331 -51.646  11.324  1.00  0.00     0.164 HD
HETATM    6  H   UNL     1     -42.251 -49.816  10.132  1.00  0.00     0.172 HD
ENDROOT
BRANCH   1   7
HETATM    7  C   UNL     1     -41.658 -51.801  13.422  1.00  0.00     0.105 C 
HETATM    8  C   UNL     1     -41.228 -53.264  13.324  1.00  0.00     0.047 C 
HETATM    9  C   UNL     1     -42.526 -54.041  13.135  1.00  0.00     0.128 C 
HETATM   10  N   UNL     1     -43.588 -53.144  13.546  1.00  0.00    -0.350 N 
HETATM   11  C   UNL     1     -44.904 -53.439  13.267  1.00  0.00     0.219 C 
HETATM   12  C   UNL     1     -43.043 -51.905  14.087  1.00  0.00     0.150 C 
HETATM   13  O   UNL     1     -45.214 -54.456  12.645  1.00  0.00    -0.273 OA
BRANCH  11  14
HETATM   14  C   UNL     1     -45.948 -52.465  13.785  1.00  0.00     0.098 C 
HETATM   15  C   UNL     1     -46.506 -51.585  12.677  1.00  0.00     0.014 C 
ENDBRANCH  11  14
ENDBRANCH   1   7
BRANCH   4  16
HETATM   16  C   UNL     1     -41.595 -47.939  10.572  1.00  0.00     0.152 A 
HETATM   17  N   UNL     1     -40.526 -47.196  10.698  1.00  0.00    -0.340 N 
HETATM   18  C   UNL     1     -40.828 -45.878  10.427  1.00  0.00     0.017 A 
ATOM     19  HN  UNL     1     -39.602 -47.541  10.960  1.00  0.00     0.168 HD
HETATM   20  C   UNL     1     -42.148 -45.653  10.075  1.00  0.00     0.078 A 
HETATM   21  S   UNL     1     -43.008 -47.144  10.052  1.00  0.00    -0.064 SA
BRANCH  18  22
HETATM   22  C   UNL     1     -39.736 -44.868  10.546  1.00  0.00     0.053 C 
HETATM   23  C   UNL     1     -38.944 -44.728   9.256  1.00  0.00     0.011 C 
ENDBRANCH  18  22
ENDBRANCH   4  16
TORSDOF 4
ENDMDL
MODEL 2
REMARK VINA RESULT:      -5.7      1.433      2.152
REMARK  4 active torsions:
REMARK  status: ('A' for Active; 'I' for Inactive)
REMARK    1  A    between atoms: C_2  and  C_3 
REMARK       I    between atoms: C_3  and  N_5 
REMARK    2  A    between atoms: C_8  and  N_10 
REMARK       I    between atoms: N_10  and  C_11 
REMARK       I    between atoms: C_11  and  N_13 
REMARK    3  A    between atoms: N_13  and  C_14 
REMARK    4  A    between atoms: C_17  and  C_18 
ROOT
HETATM    1  N   UNL     1     -41.708 -51.520  12.930  1.00  0.00    -0.337 N 
HETATM    2  C   UNL     1     -41.982 -50.188  12.666  1.00  0.00     0.322 C 
HETATM    3  O   UNL     1     -42.425 -49.451  13.541  1.00  0.00    -0.247 OA
HETATM    4  N   UNL     1     -41.754 -49.870  11.357  1.00  0.00    -0.289 N 
HETATM    5  H   UNL     1     -40.876 -51.869  12.473  1.00  0.00     0.164 HD
HETATM    6  H   UNL     1     -41.740 -50.603  10.667  1.00  0.00     0.172 HD
ENDROOT
BRANCH   1   7
HETATM    7  C   UNL     1     -41.987 -52.008  14.283  1.00  0.00     0.105 C 
HETATM    8  C   UNL     1     -41.582 -53.470  14.470  1.00  0.00     0.047 C 
HETATM    9  C   UNL     1     -42.805 -54.272  14.042  1.00  0.00     0.128 C 
HETATM   10  N   UNL     1     -43.915 -53.341  14.056  1.00  0.00    -0.350 N 
HETATM   11  C   UNL     1     -45.121 -53.676  13.481  1.00  0.00     0.219 C 
HETATM   12  C   UNL     1     -43.500 -52.043  14.574  1.00  0.00     0.150 C 
HETATM   13  O   UNL     1     -45.284 -54.762  12.923  1.00  0.00    -0.273 OA
BRANCH  11  14
HETATM   14  C   UNL     1     -46.240 -52.655  13.595  1.00  0.00     0.098 C 
HETATM   15  C   UNL     1     -46.551 -52.000  12.258  1.00  0.00     0.014 C 
ENDBRANCH  11  14
ENDBRANCH   1   7
BRANCH   4  16
HETATM   16  C   UNL     1     -41.971 -48.594  10.910  1.00  0.00     0.152 A 
HETATM   17  N   UNL     1     -43.000 -48.129  10.250  1.00  0.00    -0.340 N 
HETATM   18  C   UNL     1     -42.800 -46.803   9.929  1.00  0.00     0.017 A 
ATOM     19  HN  UNL     1     -43.831 -48.669  10.008  1.00  0.00     0.168 HD
HETATM   20  C   UNL     1     -41.601 -46.278  10.380  1.00  0.00     0.078 A 
HETATM   21  S   UNL     1     -40.733 -47.478  11.259  1.00  0.00    -0.064 SA
BRANCH  18  22
HETATM   22  C   UNL     1     -43.861 -46.102   9.147  1.00  0.00     0.053 C 
HETATM   23  C   UNL     1     -45.113 -46.950   8.993  1.00  0.00     0.011 C 
ENDBRANCH  18  22
ENDBRANCH   4  16
TORSDOF 4
ENDMDL
MODEL 3
REMARK VINA RESULT:      -5.7      2.454      7.860
REMARK  4 active torsions:
REMARK  status: ('A' for Active; 'I' for Inactive)
REMARK    1  A    between atoms: C_2  and  C_3 
REMARK       I    between atoms: C_3  and  N_5 
REMARK    2  A    between atoms: C_8  and  N_10 
REMARK       I    between atoms: N_10  and  C_11 
REMARK       I    between atoms: C_11  and  N_13 
REMARK    3  A    between atoms: N_13  and  C_14 
REMARK    4  A    between atoms: C_17  and  C_18 
ROOT
HETATM    1  N   UNL     1     -42.501 -48.902  11.265  1.00  0.00    -0.337 N 
HETATM    2  C   UNL     1     -42.661 -49.944  12.164  1.00  0.00     0.322 C 
HETATM    3  O   UNL     1     -43.414 -49.835  13.126  1.00  0.00    -0.247 OA
HETATM    4  N   UNL     1     -41.858 -51.006  11.861  1.00  0.00    -0.289 N 
HETATM    5  H   UNL     1     -42.412 -49.196  10.302  1.00  0.00     0.164 HD
HETATM    6  H   UNL     1     -41.044 -50.861  11.287  1.00  0.00     0.172 HD
ENDROOT
BRANCH   1   7
HETATM    7  C   UNL     1     -43.250 -47.669  11.525  1.00  0.00     0.105 C 
HETATM    8  C   UNL     1     -43.743 -47.006  10.240  1.00  0.00     0.047 C 
HETATM    9  C   UNL     1     -42.600 -46.095   9.807  1.00  0.00     0.128 C 
HETATM   10  N   UNL     1     -41.759 -45.931  10.976  1.00  0.00    -0.350 N 
HETATM   11  C   UNL     1     -40.506 -45.371  10.867  1.00  0.00     0.219 C 
HETATM   12  C   UNL     1     -42.354 -46.578  12.140  1.00  0.00     0.150 C 
HETATM   13  O   UNL     1     -40.056 -45.015   9.777  1.00  0.00    -0.273 OA
BRANCH  11  14
HETATM   14  C   UNL     1     -39.722 -45.193  12.157  1.00  0.00     0.098 C 
HETATM   15  C   UNL     1     -39.726 -43.748  12.631  1.00  0.00     0.014 C 
ENDBRANCH  11  14
ENDBRANCH   1   7
BRANCH   4  16
HETATM   16  C   UNL     1     -41.880 -52.132  12.641  1.00  0.00     0.152 A 
HETATM   17  N   UNL     1     -42.905 -52.875  12.966  1.00  0.00    -0.340 N 
HETATM   18  C   UNL     1     -42.512 -53.880  13.825  1.00  0.00     0.017 A 
ATOM     19  HN  UNL     1     -43.859 -52.732  12.633  1.00  0.00     0.168 HD
HETATM   20  C   UNL     1     -41.160 -53.883  14.122  1.00  0.00     0.078 A 
HETATM   21  S   UNL     1     -40.371 -52.614  13.268  1.00  0.00    -0.064 SA
BRANCH  18  22
HETATM   22  C   UNL     1     -43.555 -54.820  14.330  1.00  0.00     0.053 C 
HETATM   23  C   UNL     1     -44.883 -54.641  13.612  1.00  0.00     0.011 C 
ENDBRANCH  18  22
ENDBRANCH   4  16
TORSDOF 4
ENDMDL
MODEL 4
REMARK VINA RESULT:      -5.1      2.838      7.476
REMARK  4 active torsions:
REMARK  status: ('A' for Active; 'I' for Inactive)
REMARK    1  A    between atoms: C_2  and  C_3 
REMARK       I    between atoms: C_3  and  N_5 
REMARK    2  A    between atoms: C_8  and  N_10 
REMARK       I    between atoms: N_10  and  C_11 
REMARK       I    between atoms: C_11  and  N_13 
REMARK    3  A    between atoms: N_13  and  C_14 
REMARK    4  A    between atoms: C_17  and  C_18 
ROOT
HETATM    1  N   UNL     1     -42.171 -48.193  12.483  1.00  0.00    -0.337 N 
HETATM    2  C   UNL     1     -42.515 -49.482  12.858  1.00  0.00     0.322 C 
HETATM    3  O   UNL     1     -42.049 -50.454  12.272  1.00  0.00    -0.247 OA
HETATM    4  N   UNL     1     -43.434 -49.491  13.867  1.00  0.00    -0.289 N 
HETATM    5  H   UNL     1     -42.061 -47.552  13.258  1.00  0.00     0.164 HD
HETATM    6  H   UNL     1     -44.002 -48.674  14.024  1.00  0.00     0.172 HD
ENDROOT
BRANCH   1   7
HETATM    7  C   UNL     1     -41.248 -48.046  11.353  1.00  0.00     0.105 C 
HETATM    8  C   UNL     1     -40.536 -46.694  11.356  1.00  0.00     0.047 C 
HETATM    9  C   UNL     1     -41.464 -45.762  10.585  1.00  0.00     0.128 C 
HETATM   10  N   UNL     1     -42.365 -46.623   9.846  1.00  0.00    -0.350 N 
HETATM   11  C   UNL     1     -43.490 -46.108   9.241  1.00  0.00     0.219 C 
HETATM   12  C   UNL     1     -41.997 -48.024  10.007  1.00  0.00     0.150 C 
HETATM   13  O   UNL     1     -43.773 -44.912   9.327  1.00  0.00    -0.273 OA
BRANCH  11  14
HETATM   14  C   UNL     1     -44.345 -47.079   8.445  1.00  0.00     0.098 C 
HETATM   15  C   UNL     1     -45.633 -47.433   9.172  1.00  0.00     0.014 C 
ENDBRANCH  11  14
ENDBRANCH   1   7
BRANCH   4  16
HETATM   16  C   UNL     1     -43.896 -50.678  14.370  1.00  0.00     0.152 A 
HETATM   17  N   UNL     1     -44.218 -51.765  13.718  1.00  0.00    -0.340 N 
HETATM   18  C   UNL     1     -44.702 -52.718  14.590  1.00  0.00     0.017 A 
ATOM     19  HN  UNL     1     -44.125 -51.891  12.710  1.00  0.00     0.168 HD
HETATM   20  C   UNL     1     -44.717 -52.324  15.917  1.00  0.00     0.078 A 
HETATM   21  S   UNL     1     -44.072 -50.735  16.063  1.00  0.00    -0.064 SA
BRANCH  18  22
HETATM   22  C   UNL     1     -45.149 -54.025  14.025  1.00  0.00     0.053 C 
HETATM   23  C   UNL     1     -46.391 -54.555  14.724  1.00  0.00     0.011 C 
ENDBRANCH  18  22
ENDBRANCH   4  16
TORSDOF 4
ENDMDL
MODEL 5
REMARK VINA RESULT:      -5.0      3.247      7.898
REMARK  4 active torsions:
REMARK  status: ('A' for Active; 'I' for Inactive)
REMARK    1  A    between atoms: C_2  and  C_3 
REMARK       I    between atoms: C_3  and  N_5 
REMARK    2  A    between atoms: C_8  and  N_10 
REMARK       I    between atoms: N_10  and  C_11 
REMARK       I    between atoms: C_11  and  N_13 
REMARK    3  A    between atoms: N_13  and  C_14 
REMARK    4  A    between atoms: C_17  and  C_18 
ROOT
HETATM    1  N   UNL     1     -39.797 -51.060  13.589  1.00  0.00    -0.337 N 
HETATM    2  C   UNL     1     -40.552 -52.218  13.496  1.00  0.00     0.322 C 
HETATM    3  O   UNL     1     -40.416 -52.985  12.548  1.00  0.00    -0.247 OA
HETATM    4  N   UNL     1     -41.448 -52.325  14.521  1.00  0.00    -0.289 N 
HETATM    5  H   UNL     1     -39.503 -50.833  14.529  1.00  0.00     0.164 HD
HETATM    6  H   UNL     1     -41.722 -51.498  15.025  1.00  0.00     0.172 HD
ENDROOT
BRANCH   1   7
HETATM    7  C   UNL     1     -38.850 -50.787  12.504  1.00  0.00     0.105 C 
HETATM    8  C   UNL     1     -37.594 -50.068  12.995  1.00  0.00     0.047 C 
HETATM    9  C   UNL     1     -37.940 -48.585  12.924  1.00  0.00     0.128 C 
HETATM   10  N   UNL     1     -39.095 -48.489  12.055  1.00  0.00    -0.350 N 
HETATM   11  C   UNL     1     -39.818 -47.319  11.974  1.00  0.00     0.219 C 
HETATM   12  C   UNL     1     -39.427 -49.788  11.483  1.00  0.00     0.150 C 
HETATM   13  O   UNL     1     -39.519 -46.334  12.650  1.00  0.00    -0.273 OA
BRANCH  11  14
HETATM   14  C   UNL     1     -40.980 -47.299  10.995  1.00  0.00     0.098 C 
HETATM   15  C   UNL     1     -41.472 -45.886  10.723  1.00  0.00     0.014 C 
ENDBRANCH  11  14
ENDBRANCH   1   7
BRANCH   4  16
HETATM   16  C   UNL     1     -42.285 -53.407  14.595  1.00  0.00     0.152 A 
HETATM   17  N   UNL     1     -43.439 -53.583  14.006  1.00  0.00    -0.340 N 
HETATM   18  C   UNL     1     -43.994 -54.784  14.395  1.00  0.00     0.017 A 
ATOM     19  HN  UNL     1     -43.867 -52.927  13.352  1.00  0.00     0.168 HD
HETATM   20  C   UNL     1     -43.218 -55.515  15.278  1.00  0.00     0.078 A 
HETATM   21  S   UNL     1     -41.744 -54.680  15.589  1.00  0.00    -0.064 SA
BRANCH  18  22
HETATM   22  C   UNL     1     -45.332 -55.150  13.845  1.00  0.00     0.053 C 
HETATM   23  C   UNL     1     -46.469 -54.566  14.668  1.00  0.00     0.011 C 
ENDBRANCH  18  22
ENDBRANCH   4  16
TORSDOF 4
ENDMDL
MODEL 6
REMARK VINA RESULT:      -4.9      3.194      7.320
REMARK  4 active torsions:
REMARK  status: ('A' for Active; 'I' for Inactive)
REMARK    1  A    between atoms: C_2  and  C_3 
REMARK       I    between atoms: C_3  and  N_5 
REMARK    2  A    between atoms: C_8  and  N_10 
REMARK       I    between atoms: N_10  and  C_11 
REMARK       I    between atoms: C_11  and  N_13 
REMARK    3  A    between atoms: N_13  and  C_14 
REMARK    4  A    between atoms: C_17  and  C_18 
ROOT
HETATM    1  N   UNL     1     -42.295 -48.870  10.999  1.00  0.00    -0.337 N 
HETATM    2  C   UNL     1     -42.057 -49.771  12.025  1.00  0.00     0.322 C 
HETATM    3  O   UNL     1     -42.726 -49.746  13.052  1.00  0.00    -0.247 OA
HETATM    4  N   UNL     1     -40.996 -50.586  11.750  1.00  0.00    -0.289 N 
HETATM    5  H   UNL     1     -42.200 -49.264  10.072  1.00  0.00     0.164 HD
HETATM    6  H   UNL     1     -40.315 -50.296  11.068  1.00  0.00     0.172 HD
ENDROOT
BRANCH   1   7
HETATM    7  C   UNL     1     -43.360 -47.884  11.204  1.00  0.00     0.105 C 
HETATM    8  C   UNL     1     -43.825 -47.249   9.895  1.00  0.00     0.047 C 
HETATM    9  C   UNL     1     -42.902 -46.053   9.691  1.00  0.00     0.128 C 
HETATM   10  N   UNL     1     -42.297 -45.795  10.982  1.00  0.00    -0.350 N 
HETATM   11  C   UNL     1     -41.223 -44.940  11.097  1.00  0.00     0.219 C 
HETATM   12  C   UNL     1     -42.861 -46.667  12.006  1.00  0.00     0.150 C 
HETATM   13  O   UNL     1     -40.735 -44.390  10.109  1.00  0.00    -0.273 OA
BRANCH  11  14
HETATM   14  C   UNL     1     -40.693 -44.692  12.499  1.00  0.00     0.098 C 
HETATM   15  C   UNL     1     -39.441 -45.506  12.786  1.00  0.00     0.014 C 
ENDBRANCH  11  14
ENDBRANCH   1   7
BRANCH   4  16
HETATM   16  C   UNL     1     -40.611 -51.543  12.652  1.00  0.00     0.152 A 
HETATM   17  N   UNL     1     -39.950 -51.385  13.770  1.00  0.00    -0.340 N 
HETATM   18  C   UNL     1     -39.704 -52.610  14.354  1.00  0.00     0.017 A 
ATOM     19  HN  UNL     1     -39.659 -50.486  14.154  1.00  0.00     0.168 HD
HETATM   20  C   UNL     1     -40.213 -53.691  13.654  1.00  0.00     0.078 A 
HETATM   21  S   UNL     1     -41.050 -53.139  12.254  1.00  0.00    -0.064 SA
BRANCH  18  22
HETATM   22  C   UNL     1     -38.933 -52.637  15.631  1.00  0.00     0.053 C 
HETATM   23  C   UNL     1     -39.159 -51.384  16.462  1.00  0.00     0.011 C 
ENDBRANCH  18  22
ENDBRANCH   4  16
TORSDOF 4
ENDMDL
MODEL 7
REMARK VINA RESULT:      -4.8      2.542      3.538
REMARK  4 active torsions:
REMARK  status: ('A' for Active; 'I' for Inactive)
REMARK    1  A    between atoms: C_2  and  C_3 
REMARK       I    between atoms: C_3  and  N_5 
REMARK    2  A    between atoms: C_8  and  N_10 
REMARK       I    between atoms: N_10  and  C_11 
REMARK       I    between atoms: C_11  and  N_13 
REMARK    3  A    between atoms: N_13  and  C_14 
REMARK    4  A    between atoms: C_17  and  C_18 
ROOT
HETATM    1  N   UNL     1     -42.898 -51.707  13.251  1.00  0.00    -0.337 N 
HETATM    2  C   UNL     1     -42.010 -50.756  12.773  1.00  0.00     0.322 C 
HETATM    3  O   UNL     1     -41.285 -50.996  11.813  1.00  0.00    -0.247 OA
HETATM    4  N   UNL     1     -42.030 -49.618  13.527  1.00  0.00    -0.289 N 
HETATM    5  H   UNL     1     -43.785 -51.329  13.554  1.00  0.00     0.164 HD
HETATM    6  H   UNL     1     -42.380 -49.657  14.470  1.00  0.00     0.172 HD
ENDROOT
BRANCH   1   7
HETATM    7  C   UNL     1     -42.916 -53.008  12.574  1.00  0.00     0.105 C 
HETATM    8  C   UNL     1     -44.308 -53.638  12.564  1.00  0.00     0.047 C 
HETATM    9  C   UNL     1     -44.387 -54.431  13.864  1.00  0.00     0.128 C 
HETATM   10  N   UNL     1     -43.020 -54.590  14.315  1.00  0.00    -0.350 N 
HETATM   11  C   UNL     1     -42.748 -55.042  15.588  1.00  0.00     0.219 C 
HETATM   12  C   UNL     1     -42.082 -54.056  13.335  1.00  0.00     0.150 C 
HETATM   13  O   UNL     1     -43.653 -55.302  16.381  1.00  0.00    -0.273 OA
BRANCH  11  14
HETATM   14  C   UNL     1     -41.284 -55.226  15.950  1.00  0.00     0.098 C 
HETATM   15  C   UNL     1     -41.075 -56.398  16.897  1.00  0.00     0.014 C 
ENDBRANCH  11  14
ENDBRANCH   1   7
BRANCH   4  16
HETATM   16  C   UNL     1     -41.216 -48.564  13.206  1.00  0.00     0.152 A 
HETATM   17  N   UNL     1     -41.172 -47.882  12.091  1.00  0.00    -0.340 N 
HETATM   18  C   UNL     1     -40.164 -46.942  12.147  1.00  0.00     0.017 A 
ATOM     19  HN  UNL     1     -41.794 -48.023  11.295  1.00  0.00     0.168 HD
HETATM   20  C   UNL     1     -39.463 -46.924  13.341  1.00  0.00     0.078 A 
HETATM   21  S   UNL     1     -40.120 -48.093  14.421  1.00  0.00    -0.064 SA
BRANCH  18  22
HETATM   22  C   UNL     1     -39.940 -46.080  10.950  1.00  0.00     0.053 C 
HETATM   23  C   UNL     1     -41.242 -45.524  10.394  1.00  0.00     0.011 C 
ENDBRANCH  18  22
ENDBRANCH   4  16
TORSDOF 4
ENDMDL
MODEL 8
REMARK VINA RESULT:      -4.7      2.961      7.958
REMARK  4 active torsions:
REMARK  status: ('A' for Active; 'I' for Inactive)
REMARK    1  A    between atoms: C_2  and  C_3 
REMARK       I    between atoms: C_3  and  N_5 
REMARK    2  A    between atoms: C_8  and  N_10 
REMARK       I    between atoms: N_10  and  C_11 
REMARK       I    between atoms: C_11  and  N_13 
REMARK    3  A    between atoms: N_13  and  C_14 
REMARK    4  A    between atoms: C_17  and  C_18 
ROOT
HETATM    1  N   UNL     1     -41.314 -46.923  11.868  1.00  0.00    -0.337 N 
HETATM    2  C   UNL     1     -41.582 -48.245  11.551  1.00  0.00     0.322 C 
HETATM    3  O   UNL     1     -41.896 -48.568  10.410  1.00  0.00    -0.247 OA
HETATM    4  N   UNL     1     -41.507 -49.056  12.647  1.00  0.00    -0.289 N 
HETATM    5  H   UNL     1     -40.553 -46.801  12.523  1.00  0.00     0.164 HD
HETATM    6  H   UNL     1     -41.597 -48.654  13.566  1.00  0.00     0.172 HD
ENDROOT
BRANCH   1   7
HETATM    7  C   UNL     1     -41.439 -45.936  10.791  1.00  0.00     0.105 C 
HETATM    8  C   UNL     1     -40.086 -45.374  10.357  1.00  0.00     0.047 C 
HETATM    9  C   UNL     1     -39.843 -44.184  11.277  1.00  0.00     0.128 C 
HETATM   10  N   UNL     1     -41.134 -43.853  11.846  1.00  0.00    -0.350 N 
HETATM   11  C   UNL     1     -41.231 -42.985  12.911  1.00  0.00     0.219 C 
HETATM   12  C   UNL     1     -42.187 -44.674  11.261  1.00  0.00     0.150 C 
HETATM   13  O   UNL     1     -40.228 -42.484  13.422  1.00  0.00    -0.273 OA
BRANCH  11  14
HETATM   14  C   UNL     1     -42.631 -42.659  13.403  1.00  0.00     0.098 C 
HETATM   15  C   UNL     1     -42.960 -43.378  14.702  1.00  0.00     0.014 C 
ENDBRANCH  11  14
ENDBRANCH   1   7
BRANCH   4  16
HETATM   16  C   UNL     1     -41.743 -50.400  12.528  1.00  0.00     0.152 A 
HETATM   17  N   UNL     1     -42.893 -51.022  12.485  1.00  0.00    -0.340 N 
HETATM   18  C   UNL     1     -42.696 -52.385  12.427  1.00  0.00     0.017 A 
ATOM     19  HN  UNL     1     -43.805 -50.564  12.494  1.00  0.00     0.168 HD
HETATM   20  C   UNL     1     -41.366 -52.771  12.408  1.00  0.00     0.078 A 
HETATM   21  S   UNL     1     -40.353 -51.379  12.426  1.00  0.00    -0.064 SA
BRANCH  18  22
HETATM   22  C   UNL     1     -43.898 -53.269  12.399  1.00  0.00     0.053 C 
HETATM   23  C   UNL     1     -45.164 -52.525  12.792  1.00  0.00     0.011 C 
ENDBRANCH  18  22
ENDBRANCH   4  16
TORSDOF 4
ENDMDL
MODEL 9
REMARK VINA RESULT:      -4.6      2.035      2.330
REMARK  4 active torsions:
REMARK  status: ('A' for Active; 'I' for Inactive)
REMARK    1  A    between atoms: C_2  and  C_3 
REMARK       I    between atoms: C_3  and  N_5 
REMARK    2  A    between atoms: C_8  and  N_10 
REMARK       I    between atoms: N_10  and  C_11 
REMARK       I    between atoms: C_11  and  N_13 
REMARK    3  A    between atoms: N_13  and  C_14 
REMARK    4  A    between atoms: C_17  and  C_18 
ROOT
HETATM    1  N   UNL     1     -41.670 -49.504  12.257  1.00  0.00    -0.337 N 
HETATM    2  C   UNL     1     -41.073 -48.277  12.496  1.00  0.00     0.322 C 
HETATM    3  O   UNL     1     -40.221 -48.150  13.369  1.00  0.00    -0.247 OA
HETATM    4  N   UNL     1     -41.594 -47.294  11.704  1.00  0.00    -0.289 N 
HETATM    5  H   UNL     1     -41.844 -49.696  11.280  1.00  0.00     0.164 HD
HETATM    6  H   UNL     1     -42.505 -47.422  11.295  1.00  0.00     0.172 HD
ENDROOT
BRANCH   1   7
HETATM    7  C   UNL     1     -41.254 -50.629  13.100  1.00  0.00     0.105 C 
HETATM    8  C   UNL     1     -40.923 -51.877  12.283  1.00  0.00     0.047 C 
HETATM    9  C   UNL     1     -42.250 -52.613  12.138  1.00  0.00     0.128 C 
HETATM   10  N   UNL     1     -43.122 -52.062  13.156  1.00  0.00    -0.350 N 
HETATM   11  C   UNL     1     -44.473 -52.326  13.141  1.00  0.00     0.219 C 
HETATM   12  C   UNL     1     -42.403 -51.118  14.003  1.00  0.00     0.150 C 
HETATM   13  O   UNL     1     -44.981 -53.016  12.256  1.00  0.00    -0.273 OA
BRANCH  11  14
HETATM   14  C   UNL     1     -45.296 -51.748  14.280  1.00  0.00     0.098 C 
HETATM   15  C   UNL     1     -46.733 -51.474  13.864  1.00  0.00     0.014 C 
ENDBRANCH  11  14
ENDBRANCH   1   7
BRANCH   4  16
HETATM   16  C   UNL     1     -41.127 -46.010  11.800  1.00  0.00     0.152 A 
HETATM   17  N   UNL     1     -41.202 -45.193  12.819  1.00  0.00    -0.340 N 
HETATM   18  C   UNL     1     -40.667 -43.967  12.486  1.00  0.00     0.017 A 
ATOM     19  HN  UNL     1     -41.598 -45.429  13.729  1.00  0.00     0.168 HD
HETATM   20  C   UNL     1     -40.171 -43.889  11.195  1.00  0.00     0.078 A 
HETATM   21  S   UNL     1     -40.353 -45.409  10.407  1.00  0.00    -0.064 SA
BRANCH  18  22
HETATM   22  C   UNL     1     -40.687 -42.888  13.517  1.00  0.00     0.053 C 
HETATM   23  C   UNL     1     -39.831 -41.698  13.116  1.00  0.00     0.011 C 
ENDBRANCH  18  22
ENDBRANCH   4  16
TORSDOF 4
ENDMDL
