MODEL 1
REMARK VINA RESULT:      -6.4      0.000      0.000
REMARK  6 active torsions:
REMARK  status: ('A' for Active; 'I' for Inactive)
REMARK    1  A    between atoms: C_2  and  N_3 
REMARK    2  A    between atoms: C_2  and  C_14 
REMARK    3  A    between atoms: N_3  and  C_4 
REMARK    4  A    between atoms: C_4  and  C_5 
REMARK    5  A    between atoms: C_5  and  C_6 
REMARK       I    between atoms: C_6  and  N_8 
REMARK    6  A    between atoms: C_14  and  N_16 
ROOT
HETATM    1  N   UNL     1     -42.168 -50.300  11.861  1.00  0.00     0.090 N 
HETATM    2  H   UNL     1     -43.014 -50.364  11.297  1.00  0.00     0.316 HD
ENDROOT
BRANCH   1   3
HETATM    3  C   UNL     1     -41.225 -49.349  11.224  1.00  0.00     0.240 C 
HETATM    4  C   UNL     1     -39.847 -49.459  11.896  1.00  0.00     0.045 C 
BRANCH   3   5
HETATM    5  C   UNL     1     -41.740 -47.878  11.139  1.00  0.00     0.136 C 
HETATM    6  C   UNL     1     -40.635 -46.864  10.820  1.00  0.00     0.036 C 
BRANCH   5   7
HETATM    7  N   UNL     1     -42.833 -47.739  10.174  1.00  0.00    -0.297 N 
HETATM    8  C   UNL     1     -44.132 -47.416  10.461  1.00  0.00     0.118 A 
HETATM    9  C   UNL     1     -44.811 -47.413   9.261  1.00  0.00    -0.028 A 
HETATM   10  C   UNL     1     -46.246 -47.149   9.019  1.00  0.00     0.051 C 
HETATM   11  C   UNL     1     -43.816 -47.722   8.306  1.00  0.00     0.115 A 
HETATM   12  N   UNL     1     -42.608 -47.880   8.850  1.00  0.00    -0.309 N 
ATOM     13  HN  UNL     1     -41.723 -48.064   8.377  1.00  0.00     0.186 HD
ENDBRANCH   5   7
ENDBRANCH   3   5
ENDBRANCH   1   3
BRANCH   1  14
HETATM   14  C   UNL     1     -41.622 -51.635  12.107  1.00  0.00     0.279 C 
BRANCH  14  15
HETATM   15  C   UNL     1     -42.324 -52.280  13.296  1.00  0.00     0.133 C 
BRANCH  15  16
HETATM   16  C   UNL     1     -43.767 -52.604  12.948  1.00  0.00     0.221 C 
HETATM   17  O   UNL     1     -44.043 -53.492  12.142  1.00  0.00    -0.273 OA
HETATM   18  N   UNL     1     -44.747 -51.852  13.582  1.00  0.00    -0.352 N 
HETATM   19  C   UNL     1     -44.503 -50.761  14.523  1.00  0.00     0.125 C 
HETATM   20  C   UNL     1     -46.153 -52.141  13.315  1.00  0.00     0.125 C 
HETATM   21  C   UNL     1     -45.198 -51.044  15.852  1.00  0.00     0.020 C 
HETATM   22  C   UNL     1     -46.687 -51.316  15.640  1.00  0.00     0.003 C 
HETATM   23  C   UNL     1     -46.900 -52.430  14.613  1.00  0.00     0.020 C 
ENDBRANCH  15  16
ENDBRANCH  14  15
ENDBRANCH   1  14
TORSDOF 6
ENDMDL
MODEL 2
REMARK VINA RESULT:      -6.0      2.014      3.073
REMARK  6 active torsions:
REMARK  status: ('A' for Active; 'I' for Inactive)
REMARK    1  A    between atoms: C_2  and  N_3 
REMARK    2  A    between atoms: C_2  and  C_14 
REMARK    3  A    between atoms: N_3  and  C_4 
REMARK    4  A    between atoms: C_4  and  C_5 
REMARK    5  A    between atoms: C_5  and  C_6 
REMARK       I    between atoms: C_6  and  N_8 
REMARK    6  A    between atoms: C_14  and  N_16 
ROOT
HETATM    1  N   UNL     1     -42.474 -52.462  11.789  1.00  0.00     0.090 N 
HETATM    2  H   UNL     1     -42.271 -52.948  10.918  1.00  0.00     0.316 HD
ENDROOT
BRANCH   1   3
HETATM    3  C   UNL     1     -41.422 -51.449  12.042  1.00  0.00     0.240 C 
HETATM    4  C   UNL     1     -40.260 -52.092  12.816  1.00  0.00     0.045 C 
BRANCH   3   5
HETATM    5  C   UNL     1     -41.931 -50.130  12.704  1.00  0.00     0.136 C 
HETATM    6  C   UNL     1     -41.351 -49.886  14.102  1.00  0.00     0.036 C 
BRANCH   5   7
HETATM    7  N   UNL     1     -41.683 -48.963  11.854  1.00  0.00    -0.297 N 
HETATM    8  C   UNL     1     -40.672 -48.053  12.002  1.00  0.00     0.118 A 
HETATM    9  C   UNL     1     -40.830 -47.122  10.997  1.00  0.00    -0.028 A 
HETATM   10  C   UNL     1     -40.017 -45.917  10.725  1.00  0.00     0.051 C 
HETATM   11  C   UNL     1     -41.957 -47.584  10.280  1.00  0.00     0.115 A 
HETATM   12  N   UNL     1     -42.452 -48.722  10.771  1.00  0.00    -0.309 N 
ATOM     13  HN  UNL     1     -43.228 -49.278  10.412  1.00  0.00     0.186 HD
ENDBRANCH   5   7
ENDBRANCH   3   5
ENDBRANCH   1   3
BRANCH   1  14
HETATM   14  C   UNL     1     -42.671 -53.427  12.872  1.00  0.00     0.279 C 
BRANCH  14  15
HETATM   15  C   UNL     1     -44.027 -54.107  12.730  1.00  0.00     0.133 C 
BRANCH  15  16
HETATM   16  C   UNL     1     -44.613 -54.413  14.098  1.00  0.00     0.221 C 
HETATM   17  O   UNL     1     -44.103 -55.257  14.835  1.00  0.00    -0.273 OA
HETATM   18  N   UNL     1     -45.742 -53.696  14.469  1.00  0.00    -0.352 N 
HETATM   19  C   UNL     1     -46.427 -52.704  13.642  1.00  0.00     0.125 C 
HETATM   20  C   UNL     1     -46.330 -53.921  15.786  1.00  0.00     0.125 C 
HETATM   21  C   UNL     1     -46.499 -51.366  14.373  1.00  0.00     0.020 C 
HETATM   22  C   UNL     1     -47.144 -51.531  15.748  1.00  0.00     0.003 C 
HETATM   23  C   UNL     1     -46.428 -52.610  16.563  1.00  0.00     0.020 C 
ENDBRANCH  15  16
ENDBRANCH  14  15
ENDBRANCH   1  14
TORSDOF 6
ENDMDL
MODEL 3
REMARK VINA RESULT:      -5.9      2.516      4.295
REMARK  6 active torsions:
REMARK  status: ('A' for Active; 'I' for Inactive)
REMARK    1  A    between atoms: C_2  and  N_3 
REMARK    2  A    between atoms: C_2  and  C_14 
REMARK    3  A    between atoms: N_3  and  C_4 
REMARK    4  A    between atoms: C_4  and  C_5 
REMARK    5  A    between atoms: C_5  and  C_6 
REMARK       I    between atoms: C_6  and  N_8 
REMARK    6  A    between atoms: C_14  and  N_16 
ROOT
HETATM    1  N   UNL     1     -42.185 -52.109  11.797  1.00  0.00     0.090 N 
HETATM    2  H   UNL     1     -41.952 -52.176  10.808  1.00  0.00     0.316 HD
ENDROOT
BRANCH   1   3
HETATM    3  C   UNL     1     -41.883 -50.740  12.280  1.00  0.00     0.240 C 
HETATM    4  C   UNL     1     -43.183 -50.046  12.716  1.00  0.00     0.045 C 
BRANCH   3   5
HETATM    5  C   UNL     1     -41.036 -49.873  11.297  1.00  0.00     0.136 C 
HETATM    6  C   UNL     1     -41.710 -48.550  10.915  1.00  0.00     0.036 C 
BRANCH   5   7
HETATM    7  N   UNL     1     -39.693 -49.611  11.821  1.00  0.00    -0.297 N 
HETATM    8  C   UNL     1     -39.390 -49.025  13.020  1.00  0.00     0.118 A 
HETATM    9  C   UNL     1     -38.014 -48.965  13.092  1.00  0.00    -0.028 A 
HETATM   10  C   UNL     1     -37.176 -48.400  14.171  1.00  0.00     0.051 C 
HETATM   11  C   UNL     1     -37.584 -49.570  11.890  1.00  0.00     0.115 A 
HETATM   12  N   UNL     1     -38.597 -50.001  11.135  1.00  0.00    -0.309 N 
ATOM     13  HN  UNL     1     -38.553 -50.506  10.250  1.00  0.00     0.186 HD
ENDBRANCH   5   7
ENDBRANCH   3   5
ENDBRANCH   1   3
BRANCH   1  14
HETATM   14  C   UNL     1     -41.529 -53.183  12.545  1.00  0.00     0.279 C 
BRANCH  14  15
HETATM   15  C   UNL     1     -42.573 -54.085  13.193  1.00  0.00     0.133 C 
BRANCH  15  16
HETATM   16  C   UNL     1     -43.143 -53.428  14.438  1.00  0.00     0.221 C 
HETATM   17  O   UNL     1     -42.427 -53.164  15.404  1.00  0.00    -0.273 OA
HETATM   18  N   UNL     1     -44.502 -53.142  14.428  1.00  0.00    -0.352 N 
HETATM   19  C   UNL     1     -45.425 -53.452  13.338  1.00  0.00     0.125 C 
HETATM   20  C   UNL     1     -45.101 -52.478  15.582  1.00  0.00     0.125 C 
HETATM   21  C   UNL     1     -46.120 -52.181  12.856  1.00  0.00     0.020 C 
HETATM   22  C   UNL     1     -46.802 -51.460  14.018  1.00  0.00     0.003 C 
HETATM   23  C   UNL     1     -45.813 -51.198  15.156  1.00  0.00     0.020 C 
ENDBRANCH  15  16
ENDBRANCH  14  15
ENDBRANCH   1  14
TORSDOF 6
ENDMDL
MODEL 4
REMARK VINA RESULT:      -5.9      3.065      4.037
REMARK  6 active torsions:
REMARK  status: ('A' for Active; 'I' for Inactive)
REMARK    1  A    between atoms: C_2  and  N_3 
REMARK    2  A    between atoms: C_2  and  C_14 
REMARK    3  A    between atoms: N_3  and  C_4 
REMARK    4  A    between atoms: C_4  and  C_5 
REMARK    5  A    between atoms: C_5  and  C_6 
REMARK       I    between atoms: C_6  and  N_8 
REMARK    6  A    between atoms: C_14  and  N_16 
ROOT
HETATM    1  N   UNL     1     -39.081 -51.440  13.760  1.00  0.00     0.090 N 
HETATM    2  H   UNL     1     -39.555 -51.627  12.879  1.00  0.00     0.316 HD
ENDROOT
BRANCH   1   3
HETATM    3  C   UNL     1     -37.831 -50.689  13.494  1.00  0.00     0.240 C 
HETATM    4  C   UNL     1     -37.332 -50.036  14.793  1.00  0.00     0.045 C 
BRANCH   3   5
HETATM    5  C   UNL     1     -37.915 -49.680  12.306  1.00  0.00     0.136 C 
HETATM    6  C   UNL     1     -37.228 -50.182  11.030  1.00  0.00     0.036 C 
BRANCH   5   7
HETATM    7  N   UNL     1     -39.300 -49.306  12.008  1.00  0.00    -0.297 N 
HETATM    8  C   UNL     1     -40.054 -48.384  12.683  1.00  0.00     0.118 A 
HETATM    9  C   UNL     1     -41.291 -48.366  12.073  1.00  0.00    -0.028 A 
HETATM   10  C   UNL     1     -42.479 -47.561  12.432  1.00  0.00     0.051 C 
HETATM   11  C   UNL     1     -41.165 -49.300  11.020  1.00  0.00     0.115 A 
HETATM   12  N   UNL     1     -39.947 -49.842  10.951  1.00  0.00    -0.309 N 
ATOM     13  HN  UNL     1     -39.590 -50.503  10.262  1.00  0.00     0.186 HD
ENDBRANCH   5   7
ENDBRANCH   3   5
ENDBRANCH   1   3
BRANCH   1  14
HETATM   14  C   UNL     1     -38.903 -52.682  14.513  1.00  0.00     0.279 C 
BRANCH  14  15
HETATM   15  C   UNL     1     -39.616 -53.830  13.808  1.00  0.00     0.133 C 
BRANCH  15  16
HETATM   16  C   UNL     1     -40.778 -53.305  12.983  1.00  0.00     0.221 C 
HETATM   17  O   UNL     1     -40.599 -52.830  11.862  1.00  0.00    -0.273 OA
HETATM   18  N   UNL     1     -42.040 -53.390  13.555  1.00  0.00    -0.352 N 
HETATM   19  C   UNL     1     -42.333 -53.908  14.890  1.00  0.00     0.125 C 
HETATM   20  C   UNL     1     -43.201 -52.933  12.796  1.00  0.00     0.125 C 
HETATM   21  C   UNL     1     -43.334 -55.056  14.804  1.00  0.00     0.020 C 
HETATM   22  C   UNL     1     -44.593 -54.625  14.051  1.00  0.00     0.003 C 
HETATM   23  C   UNL     1     -44.240 -54.045  12.680  1.00  0.00     0.020 C 
ENDBRANCH  15  16
ENDBRANCH  14  15
ENDBRANCH   1  14
TORSDOF 6
ENDMDL
MODEL 5
REMARK VINA RESULT:      -5.9      2.366      3.346
REMARK  6 active torsions:
REMARK  status: ('A' for Active; 'I' for Inactive)
REMARK    1  A    between atoms: C_2  and  N_3 
REMARK    2  A    between atoms: C_2  and  C_14 
REMARK    3  A    between atoms: N_3  and  C_4 
REMARK    4  A    between atoms: C_4  and  C_5 
REMARK    5  A    between atoms: C_5  and  C_6 
REMARK       I    between atoms: C_6  and  N_8 
REMARK    6  A    between atoms: C_14  and  N_16 
ROOT
HETATM    1  N   UNL     1     -40.081 -47.981  11.152  1.00  0.00     0.090 N 
HETATM    2  H   UNL     1     -39.683 -47.819  12.075  1.00  0.00     0.316 HD
ENDROOT
BRANCH   1   3
HETATM    3  C   UNL     1     -40.811 -46.768  10.712  1.00  0.00     0.240 C 
HETATM    4  C   UNL     1     -39.885 -45.545  10.805  1.00  0.00     0.045 C 
BRANCH   3   5
HETATM    5  C   UNL     1     -42.184 -46.541  11.419  1.00  0.00     0.136 C 
HETATM    6  C   UNL     1     -42.249 -45.234  12.219  1.00  0.00     0.036 C 
BRANCH   5   7
HETATM    7  N   UNL     1     -43.300 -46.598  10.473  1.00  0.00    -0.297 N 
HETATM    8  C   UNL     1     -44.181 -47.634  10.319  1.00  0.00     0.118 A 
HETATM    9  C   UNL     1     -45.049 -47.267   9.312  1.00  0.00    -0.028 A 
HETATM   10  C   UNL     1     -46.173 -48.040   8.742  1.00  0.00     0.051 C 
HETATM   11  C   UNL     1     -44.615 -45.973   8.945  1.00  0.00     0.115 A 
HETATM   12  N   UNL     1     -43.582 -45.546   9.673  1.00  0.00    -0.309 N 
ATOM     13  HN  UNL     1     -43.115 -44.641   9.635  1.00  0.00     0.186 HD
ENDBRANCH   5   7
ENDBRANCH   3   5
ENDBRANCH   1   3
BRANCH   1  14
HETATM   14  C   UNL     1     -40.875 -49.210  11.152  1.00  0.00     0.279 C 
BRANCH  14  15
HETATM   15  C   UNL     1     -40.912 -49.812  12.552  1.00  0.00     0.133 C 
BRANCH  15  16
HETATM   16  C   UNL     1     -40.382 -51.235  12.532  1.00  0.00     0.221 C 
HETATM   17  O   UNL     1     -39.179 -51.465  12.417  1.00  0.00    -0.273 OA
HETATM   18  N   UNL     1     -41.320 -52.253  12.648  1.00  0.00    -0.352 N 
HETATM   19  C   UNL     1     -42.766 -52.065  12.754  1.00  0.00     0.125 C 
HETATM   20  C   UNL     1     -40.869 -53.641  12.670  1.00  0.00     0.125 C 
HETATM   21  C   UNL     1     -43.292 -52.724  14.026  1.00  0.00     0.020 C 
HETATM   22  C   UNL     1     -42.884 -54.195  14.087  1.00  0.00     0.003 C 
HETATM   23  C   UNL     1     -41.370 -54.351  13.924  1.00  0.00     0.020 C 
ENDBRANCH  15  16
ENDBRANCH  14  15
ENDBRANCH   1  14
TORSDOF 6
ENDMDL
MODEL 6
REMARK VINA RESULT:      -5.8      3.114      4.058
REMARK  6 active torsions:
REMARK  status: ('A' for Active; 'I' for Inactive)
REMARK    1  A    between atoms: C_2  and  N_3 
REMARK    2  A    between atoms: C_2  and  C_14 
REMARK    3  A    between atoms: N_3  and  C_4 
REMARK    4  A    between atoms: C_4  and  C_5 
REMARK    5  A    between atoms: C_5  and  C_6 
REMARK       I    between atoms: C_6  and  N_8 
REMARK    6  A    between atoms: C_14  and  N_16 
ROOT
HETATM    1  N   UNL     1     -39.543 -47.115  11.060  1.00  0.00     0.090 N 
HETATM    2  H   UNL     1     -38.749 -46.507  10.870  1.00  0.00     0.316 HD
ENDROOT
BRANCH   1   3
HETATM    3  C   UNL     1     -40.800 -46.346  10.890  1.00  0.00     0.240 C 
HETATM    4  C   UNL     1     -40.641 -44.951  11.515  1.00  0.00     0.045 C 
BRANCH   3   5
HETATM    5  C   UNL     1     -42.087 -47.082  11.376  1.00  0.00     0.136 C 
HETATM    6  C   UNL     1     -42.823 -46.345  12.501  1.00  0.00     0.036 C 
BRANCH   5   7
HETATM    7  N   UNL     1     -43.011 -47.350  10.272  1.00  0.00    -0.297 N 
HETATM    8  C   UNL     1     -44.374 -47.444  10.359  1.00  0.00     0.118 A 
HETATM    9  C   UNL     1     -44.831 -47.721   9.088  1.00  0.00    -0.028 A 
HETATM   10  C   UNL     1     -46.224 -47.941   8.641  1.00  0.00     0.051 C 
HETATM   11  C   UNL     1     -43.657 -47.747   8.302  1.00  0.00     0.115 A 
HETATM   12  N   UNL     1     -42.555 -47.482   9.007  1.00  0.00    -0.309 N 
ATOM     13  HN  UNL     1     -41.597 -47.398   8.671  1.00  0.00     0.186 HD
ENDBRANCH   5   7
ENDBRANCH   3   5
ENDBRANCH   1   3
BRANCH   1  14
HETATM   14  C   UNL     1     -39.389 -47.757  12.366  1.00  0.00     0.279 C 
BRANCH  14  15
HETATM   15  C   UNL     1     -38.878 -49.183  12.193  1.00  0.00     0.133 C 
BRANCH  15  16
HETATM   16  C   UNL     1     -40.016 -50.108  11.795  1.00  0.00     0.221 C 
HETATM   17  O   UNL     1     -40.577 -49.995  10.705  1.00  0.00    -0.273 OA
HETATM   18  N   UNL     1     -40.384 -51.078  12.717  1.00  0.00    -0.352 N 
HETATM   19  C   UNL     1     -39.793 -51.256  14.042  1.00  0.00     0.125 C 
HETATM   20  C   UNL     1     -41.447 -52.019  12.378  1.00  0.00     0.125 C 
HETATM   21  C   UNL     1     -39.248 -52.674  14.191  1.00  0.00     0.020 C 
HETATM   22  C   UNL     1     -40.330 -53.709  13.886  1.00  0.00     0.003 C 
HETATM   23  C   UNL     1     -40.956 -53.458  12.512  1.00  0.00     0.020 C 
ENDBRANCH  15  16
ENDBRANCH  14  15
ENDBRANCH   1  14
TORSDOF 6
ENDMDL
MODEL 7
REMARK VINA RESULT:      -5.8      2.136      2.915
REMARK  6 active torsions:
REMARK  status: ('A' for Active; 'I' for Inactive)
REMARK    1  A    between atoms: C_2  and  N_3 
REMARK    2  A    between atoms: C_2  and  C_14 
REMARK    3  A    between atoms: N_3  and  C_4 
REMARK    4  A    between atoms: C_4  and  C_5 
REMARK    5  A    between atoms: C_5  and  C_6 
REMARK       I    between atoms: C_6  and  N_8 
REMARK    6  A    between atoms: C_14  and  N_16 
ROOT
HETATM    1  N   UNL     1     -41.150 -51.326  13.042  1.00  0.00     0.090 N 
HETATM    2  H   UNL     1     -41.536 -50.384  13.053  1.00  0.00     0.316 HD
ENDROOT
BRANCH   1   3
HETATM    3  C   UNL     1     -39.716 -51.263  12.668  1.00  0.00     0.240 C 
HETATM    4  C   UNL     1     -38.872 -51.988  13.728  1.00  0.00     0.045 C 
BRANCH   3   5
HETATM    5  C   UNL     1     -39.186 -49.829  12.353  1.00  0.00     0.136 C 
HETATM    6  C   UNL     1     -37.943 -49.822  11.455  1.00  0.00     0.036 C 
BRANCH   5   7
HETATM    7  N   UNL     1     -40.227 -48.981  11.766  1.00  0.00    -0.297 N 
HETATM    8  C   UNL     1     -40.751 -47.843  12.316  1.00  0.00     0.118 A 
HETATM    9  C   UNL     1     -41.707 -47.384  11.433  1.00  0.00    -0.028 A 
HETATM   10  C   UNL     1     -42.584 -46.200  11.564  1.00  0.00     0.051 C 
HETATM   11  C   UNL     1     -41.657 -48.309  10.367  1.00  0.00     0.115 A 
HETATM   12  N   UNL     1     -40.733 -49.256  10.544  1.00  0.00    -0.309 N 
ATOM     13  HN  UNL     1     -40.471 -50.008   9.908  1.00  0.00     0.186 HD
ENDBRANCH   5   7
ENDBRANCH   3   5
ENDBRANCH   1   3
BRANCH   1  14
HETATM   14  C   UNL     1     -41.966 -52.198  12.197  1.00  0.00     0.279 C 
BRANCH  14  15
HETATM   15  C   UNL     1     -42.375 -53.447  12.970  1.00  0.00     0.133 C 
BRANCH  15  16
HETATM   16  C   UNL     1     -42.958 -53.067  14.320  1.00  0.00     0.221 C 
HETATM   17  O   UNL     1     -42.236 -52.911  15.304  1.00  0.00    -0.273 OA
HETATM   18  N   UNL     1     -44.335 -52.907  14.383  1.00  0.00    -0.352 N 
HETATM   19  C   UNL     1     -45.264 -53.106  13.272  1.00  0.00     0.125 C 
HETATM   20  C   UNL     1     -44.951 -52.508  15.645  1.00  0.00     0.125 C 
HETATM   21  C   UNL     1     -46.080 -51.839  13.031  1.00  0.00     0.020 C 
HETATM   22  C   UNL     1     -46.783 -51.392  14.313  1.00  0.00     0.003 C 
HETATM   23  C   UNL     1     -45.784 -51.242  15.462  1.00  0.00     0.020 C 
ENDBRANCH  15  16
ENDBRANCH  14  15
ENDBRANCH   1  14
TORSDOF 6
ENDMDL
MODEL 8
REMARK VINA RESULT:      -5.7      2.339      6.687
REMARK  6 active torsions:
REMARK  status: ('A' for Active; 'I' for Inactive)
REMARK    1  A    between atoms: C_2  and  N_3 
REMARK    2  A    between atoms: C_2  and  C_14 
REMARK    3  A    between atoms: N_3  and  C_4 
REMARK    4  A    between atoms: C_4  and  C_5 
REMARK    5  A    between atoms: C_5  and  C_6 
REMARK       I    between atoms: C_6  and  N_8 
REMARK    6  A    between atoms: C_14  and  N_16 
ROOT
HETATM    1  N   UNL     1     -42.328 -50.100  11.842  1.00  0.00     0.090 N 
HETATM    2  H   UNL     1     -43.028 -49.551  12.338  1.00  0.00     0.316 HD
ENDROOT
BRANCH   1   3
HETATM    3  C   UNL     1     -41.942 -51.265  12.674  1.00  0.00     0.240 C 
HETATM    4  C   UNL     1     -40.445 -51.560  12.488  1.00  0.00     0.045 C 
BRANCH   3   5
HETATM    5  C   UNL     1     -42.835 -52.531  12.481  1.00  0.00     0.136 C 
HETATM    6  C   UNL     1     -42.285 -53.778  13.184  1.00  0.00     0.036 C 
BRANCH   5   7
HETATM    7  N   UNL     1     -44.216 -52.292  12.904  1.00  0.00    -0.297 N 
HETATM    8  C   UNL     1     -44.622 -51.839  14.130  1.00  0.00     0.118 A 
HETATM    9  C   UNL     1     -46.000 -51.778  14.091  1.00  0.00    -0.028 A 
HETATM   10  C   UNL     1     -46.931 -51.375  15.166  1.00  0.00     0.051 C 
HETATM   11  C   UNL     1     -46.321 -52.192  12.779  1.00  0.00     0.115 A 
HETATM   12  N   UNL     1     -45.242 -52.464  12.042  1.00  0.00    -0.309 N 
ATOM     13  HN  UNL     1     -45.201 -52.738  11.061  1.00  0.00     0.186 HD
ENDBRANCH   5   7
ENDBRANCH   3   5
ENDBRANCH   1   3
BRANCH   1  14
HETATM   14  C   UNL     1     -41.215 -49.246  11.427  1.00  0.00     0.279 C 
BRANCH  14  15
HETATM   15  C   UNL     1     -41.714 -48.152  10.490  1.00  0.00     0.133 C 
BRANCH  15  16
HETATM   16  C   UNL     1     -42.382 -47.040  11.281  1.00  0.00     0.221 C 
HETATM   17  O   UNL     1     -43.399 -47.252  11.943  1.00  0.00    -0.273 OA
HETATM   18  N   UNL     1     -41.791 -45.785  11.219  1.00  0.00    -0.352 N 
HETATM   19  C   UNL     1     -40.606 -45.445  10.432  1.00  0.00     0.125 C 
HETATM   20  C   UNL     1     -42.367 -44.685  11.986  1.00  0.00     0.125 C 
HETATM   21  C   UNL     1     -39.521 -44.866  11.336  1.00  0.00     0.020 C 
HETATM   22  C   UNL     1     -40.055 -43.681  12.139  1.00  0.00     0.003 C 
HETATM   23  C   UNL     1     -41.321 -44.066  12.908  1.00  0.00     0.020 C 
ENDBRANCH  15  16
ENDBRANCH  14  15
ENDBRANCH   1  14
TORSDOF 6
ENDMDL
MODEL 9
REMARK VINA RESULT:      -5.7      3.662      7.272
REMARK  6 active torsions:
REMARK  status: ('A' for Active; 'I' for Inactive)
REMARK    1  A    between atoms: C_2  and  N_3 
REMARK    2  A    between atoms: C_2  and  C_14 
REMARK    3  A    between atoms: N_3  and  C_4 
REMARK    4  A    between atoms: C_4  and  C_5 
REMARK    5  A    between atoms: C_5  and  C_6 
REMARK       I    between atoms: C_6  and  N_8 
REMARK    6  A    between atoms: C_14  and  N_16 
ROOT
HETATM    1  N   UNL     1     -39.765 -51.182  11.879  1.00  0.00     0.090 N 
HETATM    2  H   UNL     1     -40.471 -50.738  11.294  1.00  0.00     0.316 HD
ENDROOT
BRANCH   1   3
HETATM    3  C   UNL     1     -40.425 -51.815  13.047  1.00  0.00     0.240 C 
HETATM    4  C   UNL     1     -39.584 -51.572  14.310  1.00  0.00     0.045 C 
BRANCH   3   5
HETATM    5  C   UNL     1     -40.798 -53.317  12.850  1.00  0.00     0.136 C 
HETATM    6  C   UNL     1     -40.119 -54.251  13.859  1.00  0.00     0.036 C 
BRANCH   5   7
HETATM    7  N   UNL     1     -42.248 -53.526  12.880  1.00  0.00    -0.297 N 
HETATM    8  C   UNL     1     -42.933 -54.337  13.744  1.00  0.00     0.118 A 
HETATM    9  C   UNL     1     -44.265 -54.241  13.401  1.00  0.00    -0.028 A 
HETATM   10  C   UNL     1     -45.421 -54.935  14.007  1.00  0.00     0.051 C 
HETATM   11  C   UNL     1     -44.275 -53.320  12.329  1.00  0.00     0.115 A 
HETATM   12  N   UNL     1     -43.059 -52.852  12.036  1.00  0.00    -0.309 N 
ATOM     13  HN  UNL     1     -42.804 -52.152  11.341  1.00  0.00     0.186 HD
ENDBRANCH   5   7
ENDBRANCH   3   5
ENDBRANCH   1   3
BRANCH   1  14
HETATM   14  C   UNL     1     -38.711 -50.223  12.214  1.00  0.00     0.279 C 
BRANCH  14  15
HETATM   15  C   UNL     1     -39.012 -48.869  11.582  1.00  0.00     0.133 C 
BRANCH  15  16
HETATM   16  C   UNL     1     -39.309 -47.837  12.656  1.00  0.00     0.221 C 
HETATM   17  O   UNL     1     -39.006 -48.037  13.832  1.00  0.00    -0.273 OA
HETATM   18  N   UNL     1     -39.935 -46.668  12.244  1.00  0.00    -0.352 N 
HETATM   19  C   UNL     1     -40.358 -46.370  10.877  1.00  0.00     0.125 C 
HETATM   20  C   UNL     1     -40.215 -45.624  13.225  1.00  0.00     0.125 C 
HETATM   21  C   UNL     1     -39.714 -45.072  10.397  1.00  0.00     0.020 C 
HETATM   22  C   UNL     1     -40.007 -43.927  11.367  1.00  0.00     0.003 C 
HETATM   23  C   UNL     1     -39.594 -44.299  12.793  1.00  0.00     0.020 C 
ENDBRANCH  15  16
ENDBRANCH  14  15
ENDBRANCH   1  14
TORSDOF 6
ENDMDL
