MODEL 1
REMARK VINA RESULT:      -5.4      0.000      0.000
REMARK  5 active torsions:
REMARK  status: ('A' for Active; 'I' for Inactive)
REMARK    1  A    between atoms: S_2  and  C_3 
REMARK    2  A    between atoms: C_3  and  C_4 
REMARK    3  A    between atoms: C_4  and  C_5 
REMARK       I    between atoms: C_5  and  N_7 
REMARK    4  A    between atoms: N_7  and  C_8 
REMARK    5  A    between atoms: C_11  and  N_15 
ROOT
HETATM    1  C   UNL     1     -40.405 -49.960  11.625  1.00  0.00     0.107 A 
HETATM    2  C   UNL     1     -39.487 -49.007  12.046  1.00  0.00     0.051 A 
HETATM    3  C   UNL     1     -39.707 -47.667  11.711  1.00  0.00     0.034 A 
HETATM    4  C   UNL     1     -40.807 -47.292  10.937  1.00  0.00     0.046 A 
HETATM    5  C   UNL     1     -41.643 -48.352  10.566  1.00  0.00     0.119 A 
HETATM    6  N   UNL     1     -41.501 -49.652  10.920  1.00  0.00    -0.350 N 
ATOM      7  HN  UNL     1     -42.191 -50.357  10.663  1.00  0.00     0.166 HD
ENDROOT
BRANCH   1   8
HETATM    8  N   UNL     1     -40.293 -51.311  11.937  1.00  0.00    -0.313 N 
HETATM    9  C   UNL     1     -41.339 -52.114  12.319  1.00  0.00     0.223 C 
HETATM   10  O   UNL     1     -42.479 -51.721  12.552  1.00  0.00    -0.273 OA
HETATM   11  H   UNL     1     -39.346 -51.596  12.152  1.00  0.00     0.170 HD
BRANCH   9  12
HETATM   12  C   UNL     1     -40.954 -53.568  12.472  1.00  0.00     0.113 C 
BRANCH  12  13
HETATM   13  C   UNL     1     -41.794 -54.148  13.599  1.00  0.00     0.082 C 
BRANCH  13  14
HETATM   14  S   UNL     1     -40.815 -54.339  15.118  1.00  0.00    -0.173 SA
HETATM   15  C   UNL     1     -39.185 -54.480  14.342  1.00  0.00     0.089 C 
ENDBRANCH  13  14
ENDBRANCH  12  13
ENDBRANCH   9  12
ENDBRANCH   1   8
BRANCH   4  16
HETATM   16  N   UNL     1     -41.044 -45.990  10.571  1.00  0.00    -0.376 N 
HETATM   17  C   UNL     1     -39.952 -45.040  10.292  1.00  0.00     0.149 C 
HETATM   18  C   UNL     1     -40.171 -43.762  11.112  1.00  0.00     0.187 C 
HETATM   19  O   UNL     1     -41.462 -43.188  10.841  1.00  0.00    -0.388 OA
HETATM   20  C   UNL     1     -42.507 -44.121  11.167  1.00  0.00     0.187 C 
HETATM   21  C   UNL     1     -42.385 -45.429  10.363  1.00  0.00     0.149 C 
ENDBRANCH   4  16
TORSDOF 5
ENDMDL
MODEL 2
REMARK VINA RESULT:      -5.2      3.128      7.674
REMARK  5 active torsions:
REMARK  status: ('A' for Active; 'I' for Inactive)
REMARK    1  A    between atoms: S_2  and  C_3 
REMARK    2  A    between atoms: C_3  and  C_4 
REMARK    3  A    between atoms: C_4  and  C_5 
REMARK       I    between atoms: C_5  and  N_7 
REMARK    4  A    between atoms: N_7  and  C_8 
REMARK    5  A    between atoms: C_11  and  N_15 
ROOT
HETATM    1  C   UNL     1     -40.763 -49.389  11.315  1.00  0.00     0.107 A 
HETATM    2  C   UNL     1     -39.482 -49.752  11.710  1.00  0.00     0.051 A 
HETATM    3  C   UNL     1     -39.304 -50.964  12.383  1.00  0.00     0.034 A 
HETATM    4  C   UNL     1     -40.393 -51.782  12.689  1.00  0.00     0.046 A 
HETATM    5  C   UNL     1     -41.628 -51.291  12.249  1.00  0.00     0.119 A 
HETATM    6  N   UNL     1     -41.837 -50.156  11.541  1.00  0.00    -0.350 N 
ATOM      7  HN  UNL     1     -42.763 -49.898  11.199  1.00  0.00     0.166 HD
ENDROOT
BRANCH   1   8
HETATM    8  N   UNL     1     -41.038 -48.222  10.609  1.00  0.00    -0.313 N 
HETATM    9  C   UNL     1     -42.027 -47.327  10.934  1.00  0.00     0.223 C 
HETATM   10  O   UNL     1     -42.870 -47.497  11.810  1.00  0.00    -0.273 OA
HETATM   11  H   UNL     1     -40.659 -48.223   9.670  1.00  0.00     0.170 HD
BRANCH   9  12
HETATM   12  C   UNL     1     -42.017 -46.084  10.073  1.00  0.00     0.113 C 
BRANCH  12  13
HETATM   13  C   UNL     1     -43.399 -45.947   9.452  1.00  0.00     0.082 C 
BRANCH  13  14
HETATM   14  S   UNL     1     -43.773 -47.352   8.362  1.00  0.00    -0.173 SA
HETATM   15  C   UNL     1     -45.464 -47.660   8.932  1.00  0.00     0.089 C 
ENDBRANCH  13  14
ENDBRANCH  12  13
ENDBRANCH   9  12
ENDBRANCH   1   8
BRANCH   4  16
HETATM   16  N   UNL     1     -40.259 -52.969  13.367  1.00  0.00    -0.376 N 
HETATM   17  C   UNL     1     -41.253 -54.052  13.260  1.00  0.00     0.149 C 
HETATM   18  C   UNL     1     -41.679 -54.488  14.669  1.00  0.00     0.187 C 
HETATM   19  O   UNL     1     -40.541 -54.882  15.455  1.00  0.00    -0.388 OA
HETATM   20  C   UNL     1     -39.612 -53.790  15.580  1.00  0.00     0.187 C 
HETATM   21  C   UNL     1     -39.104 -53.304  14.209  1.00  0.00     0.149 C 
ENDBRANCH   4  16
TORSDOF 5
ENDMDL
MODEL 3
REMARK VINA RESULT:      -5.1      1.626      2.068
REMARK  5 active torsions:
REMARK  status: ('A' for Active; 'I' for Inactive)
REMARK    1  A    between atoms: S_2  and  C_3 
REMARK    2  A    between atoms: C_3  and  C_4 
REMARK    3  A    between atoms: C_4  and  C_5 
REMARK       I    between atoms: C_5  and  N_7 
REMARK    4  A    between atoms: N_7  and  C_8 
REMARK    5  A    between atoms: C_11  and  N_15 
ROOT
HETATM    1  C   UNL     1     -41.682 -50.822  12.066  1.00  0.00     0.107 A 
HETATM    2  C   UNL     1     -42.538 -49.867  12.599  1.00  0.00     0.051 A 
HETATM    3  C   UNL     1     -42.440 -48.548  12.145  1.00  0.00     0.034 A 
HETATM    4  C   UNL     1     -41.478 -48.184  11.201  1.00  0.00     0.046 A 
HETATM    5  C   UNL     1     -40.670 -49.239  10.760  1.00  0.00     0.119 A 
HETATM    6  N   UNL     1     -40.772 -50.538  11.126  1.00  0.00    -0.350 N 
ATOM      7  HN  UNL     1     -40.187 -51.262  10.709  1.00  0.00     0.166 HD
ENDROOT
BRANCH   1   8
HETATM    8  N   UNL     1     -41.726 -52.166  12.426  1.00  0.00    -0.313 N 
HETATM    9  C   UNL     1     -40.655 -52.884  12.897  1.00  0.00     0.223 C 
HETATM   10  O   UNL     1     -39.500 -52.472  12.947  1.00  0.00    -0.273 OA
HETATM   11  H   UNL     1     -42.522 -52.658  12.039  1.00  0.00     0.170 HD
BRANCH   9  12
HETATM   12  C   UNL     1     -41.018 -54.286  13.331  1.00  0.00     0.113 C 
BRANCH  12  13
HETATM   13  C   UNL     1     -41.617 -54.191  14.726  1.00  0.00     0.082 C 
BRANCH  13  14
HETATM   14  S   UNL     1     -43.371 -54.665  14.722  1.00  0.00    -0.173 SA
HETATM   15  C   UNL     1     -44.061 -53.055  15.177  1.00  0.00     0.089 C 
ENDBRANCH  13  14
ENDBRANCH  12  13
ENDBRANCH   9  12
ENDBRANCH   1   8
BRANCH   4  16
HETATM   16  N   UNL     1     -41.337 -46.895  10.748  1.00  0.00    -0.376 N 
HETATM   17  C   UNL     1     -40.047 -46.184  10.785  1.00  0.00     0.149 C 
HETATM   18  C   UNL     1     -40.239 -44.824  11.470  1.00  0.00     0.187 C 
HETATM   19  O   UNL     1     -41.256 -44.051  10.810  1.00  0.00    -0.388 OA
HETATM   20  C   UNL     1     -42.513 -44.750  10.829  1.00  0.00     0.187 C 
HETATM   21  C   UNL     1     -42.423 -46.121  10.132  1.00  0.00     0.149 C 
ENDBRANCH   4  16
TORSDOF 5
ENDMDL
MODEL 4
REMARK VINA RESULT:      -5.0      3.446      7.918
REMARK  5 active torsions:
REMARK  status: ('A' for Active; 'I' for Inactive)
REMARK    1  A    between atoms: S_2  and  C_3 
REMARK    2  A    between atoms: C_3  and  C_4 
REMARK    3  A    between atoms: C_4  and  C_5 
REMARK       I    between atoms: C_5  and  N_7 
REMARK    4  A    between atoms: N_7  and  C_8 
REMARK    5  A    between atoms: C_11  and  N_15 
ROOT
HETATM    1  C   UNL     1     -42.107 -49.427  12.170  1.00  0.00     0.107 A 
HETATM    2  C   UNL     1     -43.210 -49.636  12.988  1.00  0.00     0.051 A 
HETATM    3  C   UNL     1     -43.552 -50.946  13.334  1.00  0.00     0.034 A 
HETATM    4  C   UNL     1     -42.825 -52.032  12.842  1.00  0.00     0.046 A 
HETATM    5  C   UNL     1     -41.750 -51.682  12.017  1.00  0.00     0.119 A 
HETATM    6  N   UNL     1     -41.347 -50.427  11.706  1.00  0.00    -0.350 N 
ATOM      7  HN  UNL     1     -40.511 -50.253  11.149  1.00  0.00     0.166 HD
ENDROOT
BRANCH   1   8
HETATM    8  N   UNL     1     -41.665 -48.161  11.799  1.00  0.00    -0.313 N 
HETATM    9  C   UNL     1     -41.892 -47.581  10.576  1.00  0.00     0.223 C 
HETATM   10  O   UNL     1     -42.406 -48.147   9.614  1.00  0.00    -0.273 OA
HETATM   11  H   UNL     1     -40.913 -47.813  12.380  1.00  0.00     0.170 HD
BRANCH   9  12
HETATM   12  C   UNL     1     -41.411 -46.151  10.491  1.00  0.00     0.113 C 
BRANCH  12  13
HETATM   13  C   UNL     1     -39.988 -46.115  11.027  1.00  0.00     0.082 C 
BRANCH  13  14
HETATM   14  S   UNL     1     -39.691 -44.612  12.005  1.00  0.00    -0.173 SA
HETATM   15  C   UNL     1     -40.440 -45.177  13.554  1.00  0.00     0.089 C 
ENDBRANCH  13  14
ENDBRANCH  12  13
ENDBRANCH   9  12
ENDBRANCH   1   8
BRANCH   4  16
HETATM   16  N   UNL     1     -43.144 -53.333  13.144  1.00  0.00    -0.376 N 
HETATM   17  C   UNL     1     -44.388 -53.967  12.672  1.00  0.00     0.149 C 
HETATM   18  C   UNL     1     -45.117 -54.600  13.865  1.00  0.00     0.187 C 
HETATM   19  O   UNL     1     -44.268 -55.535  14.553  1.00  0.00    -0.388 OA
HETATM   20  C   UNL     1     -43.085 -54.877  15.041  1.00  0.00     0.187 C 
HETATM   21  C   UNL     1     -42.270 -54.236  13.902  1.00  0.00     0.149 C 
ENDBRANCH   4  16
TORSDOF 5
ENDMDL
MODEL 5
REMARK VINA RESULT:      -4.8      1.699      2.131
REMARK  5 active torsions:
REMARK  status: ('A' for Active; 'I' for Inactive)
REMARK    1  A    between atoms: S_2  and  C_3 
REMARK    2  A    between atoms: C_3  and  C_4 
REMARK    3  A    between atoms: C_4  and  C_5 
REMARK       I    between atoms: C_5  and  N_7 
REMARK    4  A    between atoms: N_7  and  C_8 
REMARK    5  A    between atoms: C_11  and  N_15 
ROOT
HETATM    1  C   UNL     1     -41.481 -49.903  11.714  1.00  0.00     0.107 A 
HETATM    2  C   UNL     1     -40.275 -49.224  11.825  1.00  0.00     0.051 A 
HETATM    3  C   UNL     1     -40.232 -47.870  11.478  1.00  0.00     0.034 A 
HETATM    4  C   UNL     1     -41.367 -47.216  10.995  1.00  0.00     0.046 A 
HETATM    5  C   UNL     1     -42.510 -48.021  10.917  1.00  0.00     0.119 A 
HETATM    6  N   UNL     1     -42.611 -49.316  11.300  1.00  0.00    -0.350 N 
ATOM      7  HN  UNL     1     -43.498 -49.817  11.273  1.00  0.00     0.166 HD
ENDROOT
BRANCH   1   8
HETATM    8  N   UNL     1     -41.634 -51.241  12.068  1.00  0.00    -0.313 N 
HETATM    9  C   UNL     1     -42.680 -51.739  12.805  1.00  0.00     0.223 C 
HETATM   10  O   UNL     1     -43.546 -51.058  13.347  1.00  0.00    -0.273 OA
HETATM   11  H   UNL     1     -40.776 -51.773  12.002  1.00  0.00     0.170 HD
BRANCH   9  12
HETATM   12  C   UNL     1     -42.660 -53.245  12.930  1.00  0.00     0.113 C 
BRANCH  12  13
HETATM   13  C   UNL     1     -43.423 -53.609  14.194  1.00  0.00     0.082 C 
BRANCH  13  14
HETATM   14  S   UNL     1     -44.874 -54.636  13.814  1.00  0.00    -0.173 SA
HETATM   15  C   UNL     1     -46.138 -53.355  14.010  1.00  0.00     0.089 C 
ENDBRANCH  13  14
ENDBRANCH  12  13
ENDBRANCH   9  12
ENDBRANCH   1   8
BRANCH   4  16
HETATM   16  N   UNL     1     -41.358 -45.893  10.624  1.00  0.00    -0.376 N 
HETATM   17  C   UNL     1     -40.107 -45.161  10.358  1.00  0.00     0.149 C 
HETATM   18  C   UNL     1     -40.099 -43.862  11.175  1.00  0.00     0.187 C 
HETATM   19  O   UNL     1     -41.259 -43.062  10.887  1.00  0.00    -0.388 OA
HETATM   20  C   UNL     1     -42.462 -43.787  11.199  1.00  0.00     0.187 C 
HETATM   21  C   UNL     1     -42.571 -45.098  10.398  1.00  0.00     0.149 C 
ENDBRANCH   4  16
TORSDOF 5
ENDMDL
MODEL 6
REMARK VINA RESULT:      -4.8      3.157      7.844
REMARK  5 active torsions:
REMARK  status: ('A' for Active; 'I' for Inactive)
REMARK    1  A    between atoms: S_2  and  C_3 
REMARK    2  A    between atoms: C_3  and  C_4 
REMARK    3  A    between atoms: C_4  and  C_5 
REMARK       I    between atoms: C_5  and  N_7 
REMARK    4  A    between atoms: N_7  and  C_8 
REMARK    5  A    between atoms: C_11  and  N_15 
ROOT
HETATM    1  C   UNL     1     -40.603 -49.596  11.577  1.00  0.00     0.107 A 
HETATM    2  C   UNL     1     -39.421 -49.935  12.222  1.00  0.00     0.051 A 
HETATM    3  C   UNL     1     -39.332 -51.179  12.853  1.00  0.00     0.034 A 
HETATM    4  C   UNL     1     -40.420 -52.054  12.871  1.00  0.00     0.046 A 
HETATM    5  C   UNL     1     -41.554 -51.583  12.199  1.00  0.00     0.119 A 
HETATM    6  N   UNL     1     -41.662 -50.414  11.524  1.00  0.00    -0.350 N 
ATOM      7  HN  UNL     1     -42.503 -50.170  11.002  1.00  0.00     0.166 HD
ENDROOT
BRANCH   1   8
HETATM    8  N   UNL     1     -40.777 -48.398  10.891  1.00  0.00    -0.313 N 
HETATM    9  C   UNL     1     -41.902 -47.615  10.959  1.00  0.00     0.223 C 
HETATM   10  O   UNL     1     -42.942 -47.926  11.533  1.00  0.00    -0.273 OA
HETATM   11  H   UNL     1     -40.144 -48.290  10.109  1.00  0.00     0.170 HD
BRANCH   9  12
HETATM   12  C   UNL     1     -41.767 -46.307  10.213  1.00  0.00     0.113 C 
BRANCH  12  13
HETATM   13  C   UNL     1     -41.994 -45.184  11.214  1.00  0.00     0.082 C 
BRANCH  13  14
HETATM   14  S   UNL     1     -40.633 -43.981  11.173  1.00  0.00    -0.173 SA
HETATM   15  C   UNL     1     -39.532 -44.894  10.063  1.00  0.00     0.089 C 
ENDBRANCH  13  14
ENDBRANCH  12  13
ENDBRANCH   9  12
ENDBRANCH   1   8
BRANCH   4  16
HETATM   16  N   UNL     1     -40.377 -53.275  13.499  1.00  0.00    -0.376 N 
HETATM   17  C   UNL     1     -41.554 -54.157  13.586  1.00  0.00     0.149 C 
HETATM   18  C   UNL     1     -41.768 -54.572  15.047  1.00  0.00     0.187 C 
HETATM   19  O   UNL     1     -40.591 -55.198  15.586  1.00  0.00    -0.388 OA
HETATM   20  C   UNL     1     -39.471 -54.298  15.529  1.00  0.00     0.187 C 
HETATM   21  C   UNL     1     -39.161 -53.850  14.088  1.00  0.00     0.149 C 
ENDBRANCH   4  16
TORSDOF 5
ENDMDL
MODEL 7
REMARK VINA RESULT:      -4.5      6.613      8.504
REMARK  5 active torsions:
REMARK  status: ('A' for Active; 'I' for Inactive)
REMARK    1  A    between atoms: S_2  and  C_3 
REMARK    2  A    between atoms: C_3  and  C_4 
REMARK    3  A    between atoms: C_4  and  C_5 
REMARK       I    between atoms: C_5  and  N_7 
REMARK    4  A    between atoms: N_7  and  C_8 
REMARK    5  A    between atoms: C_11  and  N_15 
ROOT
HETATM    1  C   UNL     1     -39.140 -55.229  15.484  1.00  0.00     0.107 A 
HETATM    2  C   UNL     1     -39.275 -54.582  14.262  1.00  0.00     0.051 A 
HETATM    3  C   UNL     1     -40.542 -54.138  13.873  1.00  0.00     0.034 A 
HETATM    4  C   UNL     1     -41.661 -54.368  14.675  1.00  0.00     0.046 A 
HETATM    5  C   UNL     1     -41.388 -55.043  15.870  1.00  0.00     0.119 A 
HETATM    6  N   UNL     1     -40.170 -55.436  16.313  1.00  0.00    -0.350 N 
ATOM      7  HN  UNL     1     -40.044 -55.867  17.229  1.00  0.00     0.166 HD
ENDROOT
BRANCH   1   8
HETATM    8  N   UNL     1     -37.917 -55.676  15.975  1.00  0.00    -0.313 N 
HETATM    9  C   UNL     1     -37.392 -55.331  17.195  1.00  0.00     0.223 C 
HETATM   10  O   UNL     1     -37.871 -54.494  17.956  1.00  0.00    -0.273 OA
HETATM   11  H   UNL     1     -37.303 -56.034  15.254  1.00  0.00     0.170 HD
BRANCH   9  12
HETATM   12  C   UNL     1     -36.112 -56.064  17.526  1.00  0.00     0.113 C 
BRANCH  12  13
HETATM   13  C   UNL     1     -36.210 -56.526  18.972  1.00  0.00     0.082 C 
BRANCH  13  14
HETATM   14  S   UNL     1     -36.757 -58.256  19.074  1.00  0.00    -0.173 SA
HETATM   15  C   UNL     1     -35.972 -58.669  20.651  1.00  0.00     0.089 C 
ENDBRANCH  13  14
ENDBRANCH  12  13
ENDBRANCH   9  12
ENDBRANCH   1   8
BRANCH   4  16
HETATM   16  N   UNL     1     -42.924 -53.964  14.316  1.00  0.00    -0.376 N 
HETATM   17  C   UNL     1     -44.136 -54.532  14.933  1.00  0.00     0.149 C 
HETATM   18  C   UNL     1     -45.093 -55.002  13.829  1.00  0.00     0.187 C 
HETATM   19  O   UNL     1     -45.406 -53.928  12.925  1.00  0.00    -0.388 OA
HETATM   20  C   UNL     1     -44.209 -53.426  12.304  1.00  0.00     0.187 C 
HETATM   21  C   UNL     1     -43.197 -52.902  13.341  1.00  0.00     0.149 C 
ENDBRANCH   4  16
TORSDOF 5
ENDMDL
MODEL 8
REMARK VINA RESULT:      -4.4      3.644      7.628
REMARK  5 active torsions:
REMARK  status: ('A' for Active; 'I' for Inactive)
REMARK    1  A    between atoms: S_2  and  C_3 
REMARK    2  A    between atoms: C_3  and  C_4 
REMARK    3  A    between atoms: C_4  and  C_5 
REMARK       I    between atoms: C_5  and  N_7 
REMARK    4  A    between atoms: N_7  and  C_8 
REMARK    5  A    between atoms: C_11  and  N_15 
ROOT
HETATM    1  C   UNL     1     -41.245 -48.511  12.202  1.00  0.00     0.107 A 
HETATM    2  C   UNL     1     -40.814 -49.814  11.986  1.00  0.00     0.051 A 
HETATM    3  C   UNL     1     -41.674 -50.868  12.307  1.00  0.00     0.034 A 
HETATM    4  C   UNL     1     -42.929 -50.626  12.867  1.00  0.00     0.046 A 
HETATM    5  C   UNL     1     -43.231 -49.271  13.047  1.00  0.00     0.119 A 
HETATM    6  N   UNL     1     -42.455 -48.219  12.695  1.00  0.00    -0.350 N 
ATOM      7  HN  UNL     1     -42.774 -47.256  12.799  1.00  0.00     0.166 HD
ENDROOT
BRANCH   1   8
HETATM    8  N   UNL     1     -40.478 -47.395  11.883  1.00  0.00    -0.313 N 
HETATM    9  C   UNL     1     -40.845 -46.426  10.983  1.00  0.00     0.223 C 
HETATM   10  O   UNL     1     -41.834 -46.479  10.257  1.00  0.00    -0.273 OA
HETATM   11  H   UNL     1     -39.502 -47.495  12.133  1.00  0.00     0.170 HD
BRANCH   9  12
HETATM   12  C   UNL     1     -39.881 -45.263  10.928  1.00  0.00     0.113 C 
BRANCH  12  13
HETATM   13  C   UNL     1     -39.432 -44.973  12.352  1.00  0.00     0.082 C 
BRANCH  13  14
HETATM   14  S   UNL     1     -39.824 -43.265  12.830  1.00  0.00    -0.173 SA
HETATM   15  C   UNL     1     -40.766 -42.806  11.354  1.00  0.00     0.089 C 
ENDBRANCH  13  14
ENDBRANCH  12  13
ENDBRANCH   9  12
ENDBRANCH   1   8
BRANCH   4  16
HETATM   16  N   UNL     1     -43.792 -51.637  13.214  1.00  0.00    -0.376 N 
HETATM   17  C   UNL     1     -43.328 -53.011  13.476  1.00  0.00     0.149 C 
HETATM   18  C   UNL     1     -44.157 -53.992  12.637  1.00  0.00     0.187 C 
HETATM   19  O   UNL     1     -45.562 -53.842  12.903  1.00  0.00    -0.388 OA
HETATM   20  C   UNL     1     -45.994 -52.505  12.595  1.00  0.00     0.187 C 
HETATM   21  C   UNL     1     -45.233 -51.448  13.418  1.00  0.00     0.149 C 
ENDBRANCH   4  16
TORSDOF 5
ENDMDL
MODEL 9
REMARK VINA RESULT:      -4.4      3.944      8.143
REMARK  5 active torsions:
REMARK  status: ('A' for Active; 'I' for Inactive)
REMARK    1  A    between atoms: S_2  and  C_3 
REMARK    2  A    between atoms: C_3  and  C_4 
REMARK    3  A    between atoms: C_4  and  C_5 
REMARK       I    between atoms: C_5  and  N_7 
REMARK    4  A    between atoms: N_7  and  C_8 
REMARK    5  A    between atoms: C_11  and  N_15 
ROOT
HETATM    1  C   UNL     1     -40.107 -45.554  12.453  1.00  0.00     0.107 A 
HETATM    2  C   UNL     1     -39.286 -46.077  13.444  1.00  0.00     0.051 A 
HETATM    3  C   UNL     1     -38.920 -47.424  13.372  1.00  0.00     0.034 A 
HETATM    4  C   UNL     1     -39.394 -48.243  12.346  1.00  0.00     0.046 A 
HETATM    5  C   UNL     1     -40.224 -47.595  11.424  1.00  0.00     0.119 A 
HETATM    6  N   UNL     1     -40.554 -46.282  11.422  1.00  0.00    -0.350 N 
ATOM      7  HN  UNL     1     -41.114 -45.869  10.676  1.00  0.00     0.166 HD
ENDROOT
BRANCH   1   8
HETATM    8  N   UNL     1     -40.498 -44.219  12.417  1.00  0.00    -0.313 N 
HETATM    9  C   UNL     1     -40.519 -43.441  11.286  1.00  0.00     0.223 C 
HETATM   10  O   UNL     1     -40.084 -43.783  10.189  1.00  0.00    -0.273 OA
HETATM   11  H   UNL     1     -40.482 -43.773  13.325  1.00  0.00     0.170 HD
BRANCH   9  12
HETATM   12  C   UNL     1     -41.109 -42.069  11.514  1.00  0.00     0.113 C 
BRANCH  12  13
HETATM   13  C   UNL     1     -40.232 -41.357  12.532  1.00  0.00     0.082 C 
BRANCH  13  14
HETATM   14  S   UNL     1     -41.233 -40.583  13.836  1.00  0.00    -0.173 SA
HETATM   15  C   UNL     1     -40.747 -41.672  15.198  1.00  0.00     0.089 C 
ENDBRANCH  13  14
ENDBRANCH  12  13
ENDBRANCH   9  12
ENDBRANCH   1   8
BRANCH   4  16
HETATM   16  N   UNL     1     -39.072 -49.576  12.255  1.00  0.00    -0.376 N 
HETATM   17  C   UNL     1     -40.027 -50.641  12.609  1.00  0.00     0.149 C 
HETATM   18  C   UNL     1     -39.359 -51.610  13.594  1.00  0.00     0.187 C 
HETATM   19  O   UNL     1     -38.140 -52.144  13.049  1.00  0.00    -0.388 OA
HETATM   20  C   UNL     1     -37.212 -51.084  12.756  1.00  0.00     0.187 C 
HETATM   21  C   UNL     1     -37.789 -50.074  11.746  1.00  0.00     0.149 C 
ENDBRANCH   4  16
TORSDOF 5
ENDMDL
