MODEL 1
REMARK VINA RESULT:      -6.5      0.000      0.000
REMARK  7 active torsions:
REMARK  status: ('A' for Active; 'I' for Inactive)
REMARK    1  A    between atoms: N_2  and  C_9 
REMARK    2  A    between atoms: C_4  and  N_5 
REMARK    3  A    between atoms: C_11  and  C_16 
REMARK       I    between atoms: C_16  and  N_25 
REMARK    4  A    between atoms: C_17  and  C_26 
REMARK    5  A    between atoms: C_17  and  C_27 
REMARK    6  A    between atoms: C_26  and  O_28 
REMARK    7  A    between atoms: C_27  and  O_29 
ROOT
HETATM    1  C   UNL     1     -40.319 -50.421  13.236  1.00  0.00     0.117 A 
HETATM    2  N   UNL     1     -41.541 -49.176  11.921  1.00  0.00    -0.322 N 
HETATM    3  C   UNL     1     -40.294 -49.751  12.012  1.00  0.00     0.140 A 
HETATM    4  C   UNL     1     -39.147 -51.095  13.666  1.00  0.00     0.115 A 
HETATM    5  N   UNL     1     -41.551 -50.288  13.848  1.00  0.00    -0.346 N 
ATOM      6  HN  UNL     1     -41.852 -50.695  14.733  1.00  0.00     0.167 HD
HETATM    7  C   UNL     1     -42.244 -49.526  13.042  1.00  0.00     0.185 A 
HETATM    8  N   UNL     1     -39.263 -49.705  11.156  1.00  0.00    -0.336 N 
ATOM      9  HN  UNL     1     -39.271 -49.208  10.266  1.00  0.00     0.168 HD
HETATM   10  N   UNL     1     -38.093 -51.084  12.807  1.00  0.00    -0.341 N 
ATOM     11  HN  UNL     1     -37.229 -51.575  13.040  1.00  0.00     0.167 HD
HETATM   12  C   UNL     1     -38.209 -50.410  11.635  1.00  0.00     0.183 A 
ENDROOT
BRANCH   4  13
HETATM   13  N   UNL     1     -39.099 -51.779  14.896  1.00  0.00    -0.262 NA
HETATM   14  C   UNL     1     -38.952 -53.244  14.736  1.00  0.00     0.111 C 
HETATM   15  C   UNL     1     -39.300 -53.928  16.068  1.00  0.00     0.091 C 
HETATM   16  C   UNL     1     -38.424 -53.386  17.203  1.00  0.00     0.017 C 
HETATM   17  C   UNL     1     -38.483 -51.863  17.260  1.00  0.00     0.020 C 
HETATM   18  C   UNL     1     -38.150 -51.223  15.897  1.00  0.00     0.060 C 
HETATM   19  C   UNL     1     -38.187 -49.704  16.080  1.00  0.00     0.027 C 
BRANCH  15  20
HETATM   20  C   UNL     1     -39.126 -55.431  15.972  1.00  0.00     0.220 C 
HETATM   21  O   UNL     1     -38.146 -55.988  15.491  1.00  0.00    -0.273 OA
HETATM   22  N   UNL     1     -40.136 -56.163  16.529  1.00  0.00    -0.370 N 
HETATM   23  H   UNL     1     -40.982 -55.750  16.897  1.00  0.00     0.159 HD
HETATM   24  H   UNL     1     -40.069 -57.172  16.482  1.00  0.00     0.159 HD
ENDBRANCH  15  20
ENDBRANCH   4  13
BRANCH   2  25
HETATM   25  C   UNL     1     -42.176 -48.378  10.913  1.00  0.00     0.094 C 
HETATM   26  C   UNL     1     -41.393 -47.104  10.489  1.00  0.00     0.039 C 
HETATM   27  C   UNL     1     -42.793 -46.477  10.132  1.00  0.00     0.006 C 
HETATM   28  C   UNL     1     -43.306 -47.389  11.316  1.00  0.00     0.039 C 
BRANCH  27  29
HETATM   29  C   UNL     1     -42.930 -44.977  10.377  1.00  0.00     0.175 C 
BRANCH  29  30
HETATM   30  O   UNL     1     -43.928 -44.446   9.506  1.00  0.00    -0.400 OA
HETATM   31  H   UNL     1     -44.298 -43.659   9.945  1.00  0.00     0.209 HD
ENDBRANCH  29  30
ENDBRANCH  27  29
BRANCH  27  32
HETATM   32  C   UNL     1     -43.363 -46.851   8.746  1.00  0.00     0.175 C 
BRANCH  32  33
HETATM   33  O   UNL     1     -42.720 -46.091   7.729  1.00  0.00    -0.400 OA
HETATM   34  H   UNL     1     -41.784 -45.998   8.003  1.00  0.00     0.209 HD
ENDBRANCH  32  33
ENDBRANCH  27  32
ENDBRANCH   2  25
TORSDOF 7
ENDMDL
MODEL 2
REMARK VINA RESULT:      -6.3      3.539      4.324
REMARK  7 active torsions:
REMARK  status: ('A' for Active; 'I' for Inactive)
REMARK    1  A    between atoms: N_2  and  C_9 
REMARK    2  A    between atoms: C_4  and  N_5 
REMARK    3  A    between atoms: C_11  and  C_16 
REMARK       I    between atoms: C_16  and  N_25 
REMARK    4  A    between atoms: C_17  and  C_26 
REMARK    5  A    between atoms: C_17  and  C_27 
REMARK    6  A    between atoms: C_26  and  O_28 
REMARK    7  A    between atoms: C_27  and  O_29 
ROOT
HETATM    1  C   UNL     1     -41.378 -49.574  13.303  1.00  0.00     0.117 A 
HETATM    2  N   UNL     1     -41.067 -47.419  13.477  1.00  0.00    -0.322 N 
HETATM    3  C   UNL     1     -40.881 -48.471  12.609  1.00  0.00     0.140 A 
HETATM    4  C   UNL     1     -41.293 -50.853  12.696  1.00  0.00     0.115 A 
HETATM    5  N   UNL     1     -41.881 -49.199  14.534  1.00  0.00    -0.346 N 
ATOM      6  HN  UNL     1     -42.326 -49.795  15.232  1.00  0.00     0.167 HD
HETATM    7  C   UNL     1     -41.662 -47.912  14.607  1.00  0.00     0.185 A 
HETATM    8  N   UNL     1     -40.350 -48.484  11.377  1.00  0.00    -0.336 N 
ATOM      9  HN  UNL     1     -39.995 -47.661  10.891  1.00  0.00     0.168 HD
HETATM   10  N   UNL     1     -40.779 -50.894  11.437  1.00  0.00    -0.341 N 
ATOM     11  HN  UNL     1     -40.717 -51.777  10.931  1.00  0.00     0.167 HD
HETATM   12  C   UNL     1     -40.351 -49.740  10.867  1.00  0.00     0.183 A 
ENDROOT
BRANCH   4  13
HETATM   13  N   UNL     1     -41.762 -52.012  13.347  1.00  0.00    -0.262 NA
HETATM   14  C   UNL     1     -43.047 -52.500  12.798  1.00  0.00     0.111 C 
HETATM   15  C   UNL     1     -43.667 -53.496  13.793  1.00  0.00     0.091 C 
HETATM   16  C   UNL     1     -42.696 -54.646  14.088  1.00  0.00     0.017 C 
HETATM   17  C   UNL     1     -41.333 -54.115  14.518  1.00  0.00     0.020 C 
HETATM   18  C   UNL     1     -40.763 -53.103  13.502  1.00  0.00     0.060 C 
HETATM   19  C   UNL     1     -39.381 -52.677  14.002  1.00  0.00     0.027 C 
BRANCH  15  20
HETATM   20  C   UNL     1     -44.970 -54.061  13.261  1.00  0.00     0.220 C 
HETATM   21  O   UNL     1     -45.637 -53.548  12.371  1.00  0.00    -0.273 OA
HETATM   22  N   UNL     1     -45.344 -55.255  13.811  1.00  0.00    -0.370 N 
HETATM   23  H   UNL     1     -44.850 -55.692  14.576  1.00  0.00     0.159 HD
HETATM   24  H   UNL     1     -46.212 -55.668  13.494  1.00  0.00     0.159 HD
ENDBRANCH  15  20
ENDBRANCH   4  13
BRANCH   2  25
HETATM   25  C   UNL     1     -40.800 -46.014  13.378  1.00  0.00     0.094 C 
HETATM   26  C   UNL     1     -41.617 -45.260  12.292  1.00  0.00     0.039 C 
HETATM   27  C   UNL     1     -40.411 -44.250  12.219  1.00  0.00     0.006 C 
HETATM   28  C   UNL     1     -39.551 -45.523  12.592  1.00  0.00     0.039 C 
BRANCH  27  29
HETATM   29  C   UNL     1     -40.118 -43.664  10.841  1.00  0.00     0.175 C 
BRANCH  29  30
HETATM   30  O   UNL     1     -40.831 -42.437  10.689  1.00  0.00    -0.400 OA
HETATM   31  H   UNL     1     -40.686 -42.138   9.772  1.00  0.00     0.209 HD
ENDBRANCH  29  30
ENDBRANCH  27  29
BRANCH  27  32
HETATM   32  C   UNL     1     -40.400 -43.138  13.291  1.00  0.00     0.175 C 
BRANCH  32  33
HETATM   33  O   UNL     1     -39.249 -42.316  13.133  1.00  0.00    -0.400 OA
HETATM   34  H   UNL     1     -39.502 -41.421  13.439  1.00  0.00     0.209 HD
ENDBRANCH  32  33
ENDBRANCH  27  32
ENDBRANCH   2  25
TORSDOF 7
ENDMDL
MODEL 3
REMARK VINA RESULT:      -6.3      1.861      8.332
REMARK  7 active torsions:
REMARK  status: ('A' for Active; 'I' for Inactive)
REMARK    1  A    between atoms: N_2  and  C_9 
REMARK    2  A    between atoms: C_4  and  N_5 
REMARK    3  A    between atoms: C_11  and  C_16 
REMARK       I    between atoms: C_16  and  N_25 
REMARK    4  A    between atoms: C_17  and  C_26 
REMARK    5  A    between atoms: C_17  and  C_27 
REMARK    6  A    between atoms: C_26  and  O_28 
REMARK    7  A    between atoms: C_27  and  O_29 
ROOT
HETATM    1  C   UNL     1     -39.846 -49.862  12.829  1.00  0.00     0.117 A 
HETATM    2  N   UNL     1     -39.580 -51.591  14.137  1.00  0.00    -0.322 N 
HETATM    3  C   UNL     1     -38.946 -50.881  13.142  1.00  0.00     0.140 A 
HETATM    4  C   UNL     1     -39.513 -48.959  11.786  1.00  0.00     0.115 A 
HETATM    5  N   UNL     1     -40.969 -49.928  13.630  1.00  0.00    -0.346 N 
ATOM      6  HN  UNL     1     -41.769 -49.295  13.634  1.00  0.00     0.167 HD
HETATM    7  C   UNL     1     -40.781 -50.980  14.383  1.00  0.00     0.185 A 
HETATM    8  N   UNL     1     -37.749 -51.083  12.573  1.00  0.00    -0.336 N 
ATOM      9  HN  UNL     1     -37.109 -51.837  12.822  1.00  0.00     0.168 HD
HETATM   10  N   UNL     1     -38.294 -49.127  11.206  1.00  0.00    -0.341 N 
ATOM     11  HN  UNL     1     -37.978 -48.493  10.471  1.00  0.00     0.167 HD
HETATM   12  C   UNL     1     -37.505 -50.149  11.622  1.00  0.00     0.183 A 
ENDROOT
BRANCH   4  13
HETATM   13  N   UNL     1     -40.380 -47.915  11.408  1.00  0.00    -0.262 NA
HETATM   14  C   UNL     1     -41.551 -48.390  10.637  1.00  0.00     0.111 C 
HETATM   15  C   UNL     1     -42.212 -47.187   9.944  1.00  0.00     0.091 C 
HETATM   16  C   UNL     1     -42.598 -46.113  10.968  1.00  0.00     0.017 C 
HETATM   17  C   UNL     1     -41.407 -45.740  11.845  1.00  0.00     0.020 C 
HETATM   18  C   UNL     1     -40.764 -46.980  12.500  1.00  0.00     0.060 C 
HETATM   19  C   UNL     1     -39.621 -46.489  13.391  1.00  0.00     0.027 C 
BRANCH  15  20
HETATM   20  C   UNL     1     -43.446 -47.611   9.170  1.00  0.00     0.220 C 
HETATM   21  O   UNL     1     -44.592 -47.540   9.598  1.00  0.00    -0.273 OA
HETATM   22  N   UNL     1     -43.205 -48.038   7.895  1.00  0.00    -0.370 N 
HETATM   23  H   UNL     1     -42.275 -48.155   7.515  1.00  0.00     0.159 HD
HETATM   24  H   UNL     1     -43.997 -48.340   7.342  1.00  0.00     0.159 HD
ENDBRANCH  15  20
ENDBRANCH   4  13
BRANCH   2  25
HETATM   25  C   UNL     1     -39.200 -52.736  14.912  1.00  0.00     0.094 C 
HETATM   26  C   UNL     1     -39.649 -54.105  14.331  1.00  0.00     0.039 C 
HETATM   27  C   UNL     1     -39.653 -54.628  15.816  1.00  0.00     0.006 C 
HETATM   28  C   UNL     1     -40.045 -53.135  16.155  1.00  0.00     0.039 C 
BRANCH  27  29
HETATM   29  C   UNL     1     -40.724 -55.661  16.154  1.00  0.00     0.175 C 
BRANCH  29  30
HETATM   30  O   UNL     1     -40.097 -56.862  16.603  1.00  0.00    -0.400 OA
HETATM   31  H   UNL     1     -40.693 -57.263  17.261  1.00  0.00     0.209 HD
ENDBRANCH  29  30
ENDBRANCH  27  29
BRANCH  27  32
HETATM   32  C   UNL     1     -38.283 -55.070  16.377  1.00  0.00     0.175 C 
BRANCH  32  33
HETATM   33  O   UNL     1     -37.713 -56.075  15.545  1.00  0.00    -0.400 OA
HETATM   34  H   UNL     1     -37.700 -56.899  16.074  1.00  0.00     0.209 HD
ENDBRANCH  32  33
ENDBRANCH  27  32
ENDBRANCH   2  25
TORSDOF 7
ENDMDL
MODEL 4
REMARK VINA RESULT:      -6.3      3.437      4.693
REMARK  7 active torsions:
REMARK  status: ('A' for Active; 'I' for Inactive)
REMARK    1  A    between atoms: N_2  and  C_9 
REMARK    2  A    between atoms: C_4  and  N_5 
REMARK    3  A    between atoms: C_11  and  C_16 
REMARK       I    between atoms: C_16  and  N_25 
REMARK    4  A    between atoms: C_17  and  C_26 
REMARK    5  A    between atoms: C_17  and  C_27 
REMARK    6  A    between atoms: C_26  and  O_28 
REMARK    7  A    between atoms: C_27  and  O_29 
ROOT
HETATM    1  C   UNL     1     -43.029 -49.805  13.426  1.00  0.00     0.117 A 
HETATM    2  N   UNL     1     -42.394 -47.920  12.523  1.00  0.00    -0.322 N 
HETATM    3  C   UNL     1     -42.812 -48.459  13.719  1.00  0.00     0.140 A 
HETATM    4  C   UNL     1     -43.521 -50.653  14.452  1.00  0.00     0.115 A 
HETATM    5  N   UNL     1     -42.718 -50.083  12.109  1.00  0.00    -0.346 N 
ATOM      6  HN  UNL     1     -42.758 -50.986  11.637  1.00  0.00     0.167 HD
HETATM    7  C   UNL     1     -42.361 -48.932  11.600  1.00  0.00     0.185 A 
HETATM    8  N   UNL     1     -42.988 -47.869  14.910  1.00  0.00    -0.336 N 
ATOM      9  HN  UNL     1     -42.821 -46.881  15.098  1.00  0.00     0.168 HD
HETATM   10  N   UNL     1     -43.687 -50.086  15.677  1.00  0.00    -0.341 N 
ATOM     11  HN  UNL     1     -44.009 -50.646  16.468  1.00  0.00     0.167 HD
HETATM   12  C   UNL     1     -43.418 -48.766  15.831  1.00  0.00     0.183 A 
ENDROOT
BRANCH   4  13
HETATM   13  N   UNL     1     -43.775 -52.019  14.222  1.00  0.00    -0.262 NA
HETATM   14  C   UNL     1     -43.033 -52.907  15.146  1.00  0.00     0.111 C 
HETATM   15  C   UNL     1     -43.055 -54.339  14.585  1.00  0.00     0.091 C 
HETATM   16  C   UNL     1     -44.496 -54.816  14.366  1.00  0.00     0.017 C 
HETATM   17  C   UNL     1     -45.282 -53.814  13.527  1.00  0.00     0.020 C 
HETATM   18  C   UNL     1     -45.212 -52.390  14.115  1.00  0.00     0.060 C 
HETATM   19  C   UNL     1     -46.070 -51.484  13.230  1.00  0.00     0.027 C 
BRANCH  15  20
HETATM   20  C   UNL     1     -42.342 -55.301  15.515  1.00  0.00     0.220 C 
HETATM   21  O   UNL     1     -42.842 -56.320  15.977  1.00  0.00    -0.273 OA
HETATM   22  N   UNL     1     -41.037 -54.988  15.774  1.00  0.00    -0.370 N 
HETATM   23  H   UNL     1     -40.596 -54.138  15.453  1.00  0.00     0.159 HD
HETATM   24  H   UNL     1     -40.521 -55.597  16.398  1.00  0.00     0.159 HD
ENDBRANCH  15  20
ENDBRANCH   4  13
BRANCH   2  25
HETATM   25  C   UNL     1     -41.987 -46.601  12.136  1.00  0.00     0.094 C 
HETATM   26  C   UNL     1     -41.596 -46.443  10.640  1.00  0.00     0.039 C 
HETATM   27  C   UNL     1     -40.653 -45.271  11.107  1.00  0.00     0.006 C 
HETATM   28  C   UNL     1     -40.534 -46.130  12.430  1.00  0.00     0.039 C 
BRANCH  27  29
HETATM   29  C   UNL     1     -39.350 -45.116  10.329  1.00  0.00     0.175 C 
BRANCH  29  30
HETATM   30  O   UNL     1     -39.647 -44.788   8.973  1.00  0.00    -0.400 OA
HETATM   31  H   UNL     1     -38.804 -44.819   8.483  1.00  0.00     0.209 HD
ENDBRANCH  29  30
ENDBRANCH  27  29
BRANCH  27  32
HETATM   32  C   UNL     1     -41.334 -43.898  11.299  1.00  0.00     0.175 C 
BRANCH  32  33
HETATM   33  O   UNL     1     -40.586 -42.883  10.638  1.00  0.00    -0.400 OA
HETATM   34  H   UNL     1     -40.779 -42.045  11.106  1.00  0.00     0.209 HD
ENDBRANCH  32  33
ENDBRANCH  27  32
ENDBRANCH   2  25
TORSDOF 7
ENDMDL
MODEL 5
REMARK VINA RESULT:      -6.3      2.646      3.641
REMARK  7 active torsions:
REMARK  status: ('A' for Active; 'I' for Inactive)
REMARK    1  A    between atoms: N_2  and  C_9 
REMARK    2  A    between atoms: C_4  and  N_5 
REMARK    3  A    between atoms: C_11  and  C_16 
REMARK       I    between atoms: C_16  and  N_25 
REMARK    4  A    between atoms: C_17  and  C_26 
REMARK    5  A    between atoms: C_17  and  C_27 
REMARK    6  A    between atoms: C_26  and  O_28 
REMARK    7  A    between atoms: C_27  and  O_29 
ROOT
HETATM    1  C   UNL     1     -39.032 -49.215  13.395  1.00  0.00     0.117 A 
HETATM    2  N   UNL     1     -40.531 -48.168  12.200  1.00  0.00    -0.322 N 
HETATM    3  C   UNL     1     -39.484 -49.054  12.085  1.00  0.00     0.140 A 
HETATM    4  C   UNL     1     -37.907 -50.046  13.628  1.00  0.00     0.115 A 
HETATM    5  N   UNL     1     -39.801 -48.481  14.278  1.00  0.00    -0.346 N 
ATOM      6  HN  UNL     1     -39.710 -48.436  15.292  1.00  0.00     0.167 HD
HETATM    7  C   UNL     1     -40.672 -47.859  13.526  1.00  0.00     0.185 A 
HETATM    8  N   UNL     1     -38.978 -49.648  10.994  1.00  0.00    -0.336 N 
ATOM      9  HN  UNL     1     -39.329 -49.514  10.046  1.00  0.00     0.168 HD
HETATM   10  N   UNL     1     -37.387 -50.680  12.543  1.00  0.00    -0.341 N 
ATOM     11  HN  UNL     1     -36.596 -51.316  12.644  1.00  0.00     0.167 HD
HETATM   12  C   UNL     1     -37.937 -50.451  11.324  1.00  0.00     0.183 A 
ENDROOT
BRANCH   4  13
HETATM   13  N   UNL     1     -37.389 -50.242  14.924  1.00  0.00    -0.262 NA
HETATM   14  C   UNL     1     -36.761 -49.024  15.483  1.00  0.00     0.111 C 
HETATM   15  C   UNL     1     -35.897 -49.420  16.692  1.00  0.00     0.091 C 
HETATM   16  C   UNL     1     -36.733 -50.165  17.739  1.00  0.00     0.017 C 
HETATM   17  C   UNL     1     -37.482 -51.334  17.109  1.00  0.00     0.020 C 
HETATM   18  C   UNL     1     -38.316 -50.893  15.888  1.00  0.00     0.060 C 
HETATM   19  C   UNL     1     -39.060 -52.125  15.370  1.00  0.00     0.027 C 
BRANCH  15  20
HETATM   20  C   UNL     1     -35.260 -48.201  17.332  1.00  0.00     0.220 C 
HETATM   21  O   UNL     1     -34.347 -47.553  16.835  1.00  0.00    -0.273 OA
HETATM   22  N   UNL     1     -35.824 -47.812  18.514  1.00  0.00    -0.370 N 
HETATM   23  H   UNL     1     -36.548 -48.339  18.982  1.00  0.00     0.159 HD
HETATM   24  H   UNL     1     -35.428 -47.008  18.984  1.00  0.00     0.159 HD
ENDBRANCH  15  20
ENDBRANCH   4  13
BRANCH   2  25
HETATM   25  C   UNL     1     -41.440 -47.603  11.245  1.00  0.00     0.094 C 
HETATM   26  C   UNL     1     -40.970 -46.273  10.593  1.00  0.00     0.039 C 
HETATM   27  C   UNL     1     -42.496 -45.928  10.418  1.00  0.00     0.006 C 
HETATM   28  C   UNL     1     -42.659 -46.775  11.743  1.00  0.00     0.039 C 
BRANCH  27  29
HETATM   29  C   UNL     1     -42.864 -44.454  10.555  1.00  0.00     0.175 C 
BRANCH  29  30
HETATM   30  O   UNL     1     -43.910 -44.141   9.637  1.00  0.00    -0.400 OA
HETATM   31  H   UNL     1     -44.679 -43.861  10.167  1.00  0.00     0.209 HD
ENDBRANCH  29  30
ENDBRANCH  27  29
BRANCH  27  32
HETATM   32  C   UNL     1     -43.187 -46.543   9.181  1.00  0.00     0.175 C 
BRANCH  32  33
HETATM   33  O   UNL     1     -42.670 -45.960   7.990  1.00  0.00    -0.400 OA
HETATM   34  H   UNL     1     -43.173 -45.132   7.845  1.00  0.00     0.209 HD
ENDBRANCH  32  33
ENDBRANCH  27  32
ENDBRANCH   2  25
TORSDOF 7
ENDMDL
MODEL 6
REMARK VINA RESULT:      -6.3      3.222      8.230
REMARK  7 active torsions:
REMARK  status: ('A' for Active; 'I' for Inactive)
REMARK    1  A    between atoms: N_2  and  C_9 
REMARK    2  A    between atoms: C_4  and  N_5 
REMARK    3  A    between atoms: C_11  and  C_16 
REMARK       I    between atoms: C_16  and  N_25 
REMARK    4  A    between atoms: C_17  and  C_26 
REMARK    5  A    between atoms: C_17  and  C_27 
REMARK    6  A    between atoms: C_26  and  O_28 
REMARK    7  A    between atoms: C_27  and  O_29 
ROOT
HETATM    1  C   UNL     1     -41.626 -49.402  12.225  1.00  0.00     0.117 A 
HETATM    2  N   UNL     1     -42.362 -51.229  13.169  1.00  0.00    -0.322 N 
HETATM    3  C   UNL     1     -41.269 -50.721  12.504  1.00  0.00     0.140 A 
HETATM    4  C   UNL     1     -40.721 -48.594  11.490  1.00  0.00     0.115 A 
HETATM    5  N   UNL     1     -42.877 -49.108  12.736  1.00  0.00    -0.346 N 
ATOM      6  HN  UNL     1     -43.369 -48.216  12.700  1.00  0.00     0.167 HD
HETATM    7  C   UNL     1     -43.288 -50.226  13.275  1.00  0.00     0.185 A 
HETATM    8  N   UNL     1     -40.112 -51.315  12.176  1.00  0.00    -0.336 N 
ATOM      9  HN  UNL     1     -39.875 -52.282  12.393  1.00  0.00     0.168 HD
HETATM   10  N   UNL     1     -39.530 -49.163  11.163  1.00  0.00    -0.341 N 
ATOM     11  HN  UNL     1     -38.821 -48.628  10.661  1.00  0.00     0.167 HD
HETATM   12  C   UNL     1     -39.301 -50.452  11.515  1.00  0.00     0.183 A 
ENDROOT
BRANCH   4  13
HETATM   13  N   UNL     1     -41.024 -47.257  11.162  1.00  0.00    -0.262 NA
HETATM   14  C   UNL     1     -42.327 -47.114  10.475  1.00  0.00     0.111 C 
HETATM   15  C   UNL     1     -42.393 -45.726   9.817  1.00  0.00     0.091 C 
HETATM   16  C   UNL     1     -42.167 -44.620  10.854  1.00  0.00     0.017 C 
HETATM   17  C   UNL     1     -40.887 -44.865  11.646  1.00  0.00     0.020 C 
HETATM   18  C   UNL     1     -40.857 -46.276  12.267  1.00  0.00     0.060 C 
HETATM   19  C   UNL     1     -39.563 -46.395  13.075  1.00  0.00     0.027 C 
BRANCH  15  20
HETATM   20  C   UNL     1     -43.728 -45.508   9.131  1.00  0.00     0.220 C 
HETATM   21  O   UNL     1     -44.330 -44.441   9.105  1.00  0.00    -0.273 OA
HETATM   22  N   UNL     1     -44.217 -46.598   8.467  1.00  0.00    -0.370 N 
HETATM   23  H   UNL     1     -43.779 -47.508   8.497  1.00  0.00     0.159 HD
HETATM   24  H   UNL     1     -45.111 -46.504   8.000  1.00  0.00     0.159 HD
ENDBRANCH  15  20
ENDBRANCH   4  13
BRANCH   2  25
HETATM   25  C   UNL     1     -42.641 -52.509  13.752  1.00  0.00     0.094 C 
HETATM   26  C   UNL     1     -43.614 -53.407  12.937  1.00  0.00     0.039 C 
HETATM   27  C   UNL     1     -44.014 -54.060  14.313  1.00  0.00     0.006 C 
HETATM   28  C   UNL     1     -43.697 -52.622  14.888  1.00  0.00     0.039 C 
BRANCH  27  29
HETATM   29  C   UNL     1     -45.471 -54.492  14.445  1.00  0.00     0.175 C 
BRANCH  29  30
HETATM   30  O   UNL     1     -45.621 -55.813  13.925  1.00  0.00    -0.400 OA
HETATM   31  H   UNL     1     -46.370 -56.220  14.398  1.00  0.00     0.209 HD
ENDBRANCH  29  30
ENDBRANCH  27  29
BRANCH  27  32
HETATM   32  C   UNL     1     -43.073 -55.172  14.828  1.00  0.00     0.175 C 
BRANCH  32  33
HETATM   33  O   UNL     1     -43.472 -55.588  16.130  1.00  0.00    -0.400 OA
HETATM   34  H   UNL     1     -43.833 -54.795  16.576  1.00  0.00     0.209 HD
ENDBRANCH  32  33
ENDBRANCH  27  32
ENDBRANCH   2  25
TORSDOF 7
ENDMDL
MODEL 7
REMARK VINA RESULT:      -6.2      3.909      8.272
REMARK  7 active torsions:
REMARK  status: ('A' for Active; 'I' for Inactive)
REMARK    1  A    between atoms: N_2  and  C_9 
REMARK    2  A    between atoms: C_4  and  N_5 
REMARK    3  A    between atoms: C_11  and  C_16 
REMARK       I    between atoms: C_16  and  N_25 
REMARK    4  A    between atoms: C_17  and  C_26 
REMARK    5  A    between atoms: C_17  and  C_27 
REMARK    6  A    between atoms: C_26  and  O_28 
REMARK    7  A    between atoms: C_27  and  O_29 
ROOT
HETATM    1  C   UNL     1     -42.064 -48.949  12.445  1.00  0.00     0.117 A 
HETATM    2  N   UNL     1     -42.740 -50.870  13.233  1.00  0.00    -0.322 N 
HETATM    3  C   UNL     1     -41.821 -50.320  12.368  1.00  0.00     0.140 A 
HETATM    4  C   UNL     1     -41.303 -48.078  11.623  1.00  0.00     0.115 A 
HETATM    5  N   UNL     1     -43.068 -48.673  13.352  1.00  0.00    -0.346 N 
ATOM      6  HN  UNL     1     -43.428 -47.758  13.623  1.00  0.00     0.167 HD
HETATM    7  C   UNL     1     -43.457 -49.843  13.788  1.00  0.00     0.185 A 
HETATM    8  N   UNL     1     -40.895 -50.920  11.607  1.00  0.00    -0.336 N 
ATOM      9  HN  UNL     1     -40.737 -51.926  11.570  1.00  0.00     0.168 HD
HETATM   10  N   UNL     1     -40.340 -48.656  10.856  1.00  0.00    -0.341 N 
ATOM     11  HN  UNL     1     -39.736 -48.085  10.264  1.00  0.00     0.167 HD
HETATM   12  C   UNL     1     -40.195 -50.004  10.892  1.00  0.00     0.183 A 
ENDROOT
BRANCH   4  13
HETATM   13  N   UNL     1     -41.505 -46.684  11.639  1.00  0.00    -0.262 NA
HETATM   14  C   UNL     1     -40.322 -45.936  12.121  1.00  0.00     0.111 C 
HETATM   15  C   UNL     1     -40.751 -44.502  12.477  1.00  0.00     0.091 C 
HETATM   16  C   UNL     1     -41.410 -43.817  11.274  1.00  0.00     0.017 C 
HETATM   17  C   UNL     1     -42.538 -44.673  10.708  1.00  0.00     0.020 C 
HETATM   18  C   UNL     1     -42.067 -46.107  10.388  1.00  0.00     0.060 C 
HETATM   19  C   UNL     1     -43.255 -46.857   9.783  1.00  0.00     0.027 C 
BRANCH  15  20
HETATM   20  C   UNL     1     -39.566 -43.676  12.939  1.00  0.00     0.220 C 
HETATM   21  O   UNL     1     -38.423 -44.103  13.051  1.00  0.00    -0.273 OA
HETATM   22  N   UNL     1     -39.842 -42.359  13.176  1.00  0.00    -0.370 N 
HETATM   23  H   UNL     1     -40.774 -41.972  13.139  1.00  0.00     0.159 HD
HETATM   24  H   UNL     1     -39.083 -41.768  13.495  1.00  0.00     0.159 HD
ENDBRANCH  15  20
ENDBRANCH   4  13
BRANCH   2  25
HETATM   25  C   UNL     1     -43.012 -52.218  13.641  1.00  0.00     0.094 C 
HETATM   26  C   UNL     1     -43.965 -53.012  12.704  1.00  0.00     0.039 C 
HETATM   27  C   UNL     1     -44.373 -53.842  13.978  1.00  0.00     0.006 C 
HETATM   28  C   UNL     1     -44.080 -52.487  14.738  1.00  0.00     0.039 C 
BRANCH  27  29
HETATM   29  C   UNL     1     -45.827 -54.302  14.033  1.00  0.00     0.175 C 
BRANCH  29  30
HETATM   30  O   UNL     1     -45.885 -55.712  13.822  1.00  0.00    -0.400 OA
HETATM   31  H   UNL     1     -46.223 -55.849  12.918  1.00  0.00     0.209 HD
ENDBRANCH  29  30
ENDBRANCH  27  29
BRANCH  27  32
HETATM   32  C   UNL     1     -43.426 -55.002  14.356  1.00  0.00     0.175 C 
BRANCH  32  33
HETATM   33  O   UNL     1     -43.690 -55.437  15.686  1.00  0.00    -0.400 OA
HETATM   34  H   UNL     1     -44.455 -56.046  15.632  1.00  0.00     0.209 HD
ENDBRANCH  32  33
ENDBRANCH  27  32
ENDBRANCH   2  25
TORSDOF 7
ENDMDL
MODEL 8
REMARK VINA RESULT:      -6.1      3.644      7.803
REMARK  7 active torsions:
REMARK  status: ('A' for Active; 'I' for Inactive)
REMARK    1  A    between atoms: N_2  and  C_9 
REMARK    2  A    between atoms: C_4  and  N_5 
REMARK    3  A    between atoms: C_11  and  C_16 
REMARK       I    between atoms: C_16  and  N_25 
REMARK    4  A    between atoms: C_17  and  C_26 
REMARK    5  A    between atoms: C_17  and  C_27 
REMARK    6  A    between atoms: C_26  and  O_28 
REMARK    7  A    between atoms: C_27  and  O_29 
ROOT
HETATM    1  C   UNL     1     -41.102 -48.663  12.572  1.00  0.00     0.117 A 
HETATM    2  N   UNL     1     -42.372 -50.408  12.910  1.00  0.00    -0.322 N 
HETATM    3  C   UNL     1     -41.176 -50.036  12.339  1.00  0.00     0.140 A 
HETATM    4  C   UNL     1     -39.990 -47.946  12.061  1.00  0.00     0.115 A 
HETATM    5  N   UNL     1     -42.196 -48.224  13.293  1.00  0.00    -0.346 N 
ATOM      6  HN  UNL     1     -42.384 -47.277  13.622  1.00  0.00     0.167 HD
HETATM    7  C   UNL     1     -42.937 -49.289  13.459  1.00  0.00     0.185 A 
HETATM    8  N   UNL     1     -40.264 -50.781  11.696  1.00  0.00    -0.336 N 
ATOM      9  HN  UNL     1     -40.342 -51.785  11.538  1.00  0.00     0.168 HD
HETATM   10  N   UNL     1     -39.038 -48.679  11.424  1.00  0.00    -0.341 N 
ATOM     11  HN  UNL     1     -38.197 -48.231  11.058  1.00  0.00     0.167 HD
HETATM   12  C   UNL     1     -39.224 -50.015  11.283  1.00  0.00     0.183 A 
ENDROOT
BRANCH   4  13
HETATM   13  N   UNL     1     -39.859 -46.556  12.248  1.00  0.00    -0.262 NA
HETATM   14  C   UNL     1     -41.008 -45.791  11.713  1.00  0.00     0.111 C 
HETATM   15  C   UNL     1     -40.612 -44.310  11.601  1.00  0.00     0.091 C 
HETATM   16  C   UNL     1     -40.145 -43.768  12.958  1.00  0.00     0.017 C 
HETATM   17  C   UNL     1     -39.057 -44.652  13.555  1.00  0.00     0.020 C 
HETATM   18  C   UNL     1     -39.490 -46.131  13.625  1.00  0.00     0.060 C 
HETATM   19  C   UNL     1     -38.352 -46.914  14.283  1.00  0.00     0.027 C 
BRANCH  15  20
HETATM   20  C   UNL     1     -41.769 -43.471  11.095  1.00  0.00     0.220 C 
HETATM   21  O   UNL     1     -41.662 -42.333  10.654  1.00  0.00    -0.273 OA
HETATM   22  N   UNL     1     -42.982 -44.101  11.103  1.00  0.00    -0.370 N 
HETATM   23  H   UNL     1     -43.126 -45.020  11.497  1.00  0.00     0.159 HD
HETATM   24  H   UNL     1     -43.787 -43.578  10.782  1.00  0.00     0.159 HD
ENDBRANCH  15  20
ENDBRANCH   4  13
BRANCH   2  25
HETATM   25  C   UNL     1     -43.038 -51.671  13.045  1.00  0.00     0.094 C 
HETATM   26  C   UNL     1     -44.533 -51.588  13.459  1.00  0.00     0.039 C 
HETATM   27  C   UNL     1     -44.335 -53.008  14.110  1.00  0.00     0.006 C 
HETATM   28  C   UNL     1     -42.858 -52.498  14.350  1.00  0.00     0.039 C 
BRANCH  27  29
HETATM   29  C   UNL     1     -45.132 -53.273  15.383  1.00  0.00     0.175 C 
BRANCH  29  30
HETATM   30  O   UNL     1     -44.913 -54.617  15.807  1.00  0.00    -0.400 OA
HETATM   31  H   UNL     1     -45.422 -54.742  16.629  1.00  0.00     0.209 HD
ENDBRANCH  29  30
ENDBRANCH  27  29
BRANCH  27  32
HETATM   32  C   UNL     1     -44.444 -54.210  13.146  1.00  0.00     0.175 C 
BRANCH  32  33
HETATM   33  O   UNL     1     -45.743 -54.788  13.228  1.00  0.00    -0.400 OA
HETATM   34  H   UNL     1     -46.285 -54.350  12.539  1.00  0.00     0.209 HD
ENDBRANCH  32  33
ENDBRANCH  27  32
ENDBRANCH   2  25
TORSDOF 7
ENDMDL
MODEL 9
REMARK VINA RESULT:      -6.1      3.507      4.589
REMARK  7 active torsions:
REMARK  status: ('A' for Active; 'I' for Inactive)
REMARK    1  A    between atoms: N_2  and  C_9 
REMARK    2  A    between atoms: C_4  and  N_5 
REMARK    3  A    between atoms: C_11  and  C_16 
REMARK       I    between atoms: C_16  and  N_25 
REMARK    4  A    between atoms: C_17  and  C_26 
REMARK    5  A    between atoms: C_17  and  C_27 
REMARK    6  A    between atoms: C_26  and  O_28 
REMARK    7  A    between atoms: C_27  and  O_29 
ROOT
HETATM    1  C   UNL     1     -41.622 -50.225  13.080  1.00  0.00     0.117 A 
HETATM    2  N   UNL     1     -41.045 -48.438  11.964  1.00  0.00    -0.322 N 
HETATM    3  C   UNL     1     -40.691 -49.187  13.063  1.00  0.00     0.140 A 
HETATM    4  C   UNL     1     -41.567 -51.171  14.136  1.00  0.00     0.115 A 
HETATM    5  N   UNL     1     -42.488 -50.131  12.007  1.00  0.00    -0.346 N 
ATOM      6  HN  UNL     1     -43.245 -50.769  11.761  1.00  0.00     0.167 HD
HETATM    7  C   UNL     1     -42.123 -49.046  11.376  1.00  0.00     0.185 A 
HETATM    8  N   UNL     1     -39.696 -49.001  13.943  1.00  0.00    -0.336 N 
ATOM      9  HN  UNL     1     -39.027 -48.233  13.907  1.00  0.00     0.168 HD
HETATM   10  N   UNL     1     -40.554 -51.020  15.030  1.00  0.00    -0.341 N 
ATOM     11  HN  UNL     1     -40.437 -51.683  15.798  1.00  0.00     0.167 HD
HETATM   12  C   UNL     1     -39.701 -49.975  14.886  1.00  0.00     0.183 A 
ENDROOT
BRANCH   4  13
HETATM   13  N   UNL     1     -42.485 -52.236  14.222  1.00  0.00    -0.262 NA
HETATM   14  C   UNL     1     -43.894 -51.783  14.232  1.00  0.00     0.111 C 
HETATM   15  C   UNL     1     -44.785 -52.939  14.717  1.00  0.00     0.091 C 
HETATM   16  C   UNL     1     -44.589 -54.181  13.840  1.00  0.00     0.017 C 
HETATM   17  C   UNL     1     -43.113 -54.547  13.731  1.00  0.00     0.020 C 
HETATM   18  C   UNL     1     -42.257 -53.352  13.265  1.00  0.00     0.060 C 
HETATM   19  C   UNL     1     -40.813 -53.840  13.141  1.00  0.00     0.027 C 
BRANCH  15  20
HETATM   20  C   UNL     1     -46.249 -52.542  14.707  1.00  0.00     0.220 C 
HETATM   21  O   UNL     1     -46.665 -51.415  14.949  1.00  0.00    -0.273 OA
HETATM   22  N   UNL     1     -47.111 -53.536  14.339  1.00  0.00    -0.370 N 
HETATM   23  H   UNL     1     -46.819 -54.489  14.173  1.00  0.00     0.159 HD
HETATM   24  H   UNL     1     -48.100 -53.322  14.326  1.00  0.00     0.159 HD
ENDBRANCH  15  20
ENDBRANCH   4  13
BRANCH   2  25
HETATM   25  C   UNL     1     -40.491 -47.258  11.367  1.00  0.00     0.094 C 
HETATM   26  C   UNL     1     -40.468 -46.003  12.284  1.00  0.00     0.039 C 
HETATM   27  C   UNL     1     -40.549 -45.152  10.961  1.00  0.00     0.006 C 
HETATM   28  C   UNL     1     -41.370 -46.390  10.422  1.00  0.00     0.039 C 
BRANCH  27  29
HETATM   29  C   UNL     1     -41.343 -43.853  11.055  1.00  0.00     0.175 C 
BRANCH  29  30
HETATM   30  O   UNL     1     -40.529 -42.768  10.612  1.00  0.00    -0.400 OA
HETATM   31  H   UNL     1     -41.127 -42.017  10.440  1.00  0.00     0.209 HD
ENDBRANCH  29  30
ENDBRANCH  27  29
BRANCH  27  32
HETATM   32  C   UNL     1     -39.208 -44.912  10.233  1.00  0.00     0.175 C 
BRANCH  32  33
HETATM   33  O   UNL     1     -39.441 -44.611   8.861  1.00  0.00    -0.400 OA
HETATM   34  H   UNL     1     -38.636 -44.886   8.376  1.00  0.00     0.209 HD
ENDBRANCH  32  33
ENDBRANCH  27  32
ENDBRANCH   2  25
TORSDOF 7
ENDMDL
