MODEL 1
REMARK VINA RESULT:      -6.1      0.000      0.000
REMARK  5 active torsions:
REMARK  status: ('A' for Active; 'I' for Inactive)
REMARK    1  A    between atoms: C_2  and  N_3 
REMARK    2  A    between atoms: C_2  and  C_16 
REMARK       I    between atoms: N_3  and  C_4 
REMARK       I    between atoms: C_4  and  N_6 
REMARK    3  A    between atoms: N_6  and  C_7 
REMARK    4  A    between atoms: C_7  and  C_8 
REMARK    5  A    between atoms: C_8  and  C_9 
ROOT
HETATM    1  N   UNL     1     -42.750 -52.065  12.410  1.00  0.00    -0.336 N 
HETATM    2  C   UNL     1     -41.609 -51.329  12.563  1.00  0.00     0.316 C 
HETATM    3  O   UNL     1     -41.050 -51.149  13.637  1.00  0.00    -0.247 OA
HETATM    4  N   UNL     1     -41.196 -50.751  11.396  1.00  0.00    -0.343 N 
HETATM    5  H   UNL     1     -42.997 -52.394  11.487  1.00  0.00     0.164 HD
HETATM    6  H   UNL     1     -41.585 -51.072  10.523  1.00  0.00     0.164 HD
ENDROOT
BRANCH   1   7
HETATM    7  C   UNL     1     -43.363 -52.767  13.539  1.00  0.00     0.111 C 
HETATM    8  C   UNL     1     -42.894 -54.223  13.549  1.00  0.00     0.035 C 
BRANCH   7   9
HETATM    9  C   UNL     1     -44.896 -52.605  13.493  1.00  0.00     0.143 C 
HETATM   10  C   UNL     1     -45.408 -51.222  13.873  1.00  0.00     0.036 C 
HETATM   11  C   UNL     1     -46.764 -51.479  14.497  1.00  0.00     0.029 C 
HETATM   12  C   UNL     1     -46.885 -52.988  14.563  1.00  0.00     0.168 C 
HETATM   13  O   UNL     1     -45.562 -53.510  14.392  1.00  0.00    -0.384 OA
ENDBRANCH   7   9
ENDBRANCH   1   7
BRANCH   4  14
HETATM   14  C   UNL     1     -40.034 -49.876  11.348  1.00  0.00     0.131 C 
BRANCH  14  15
HETATM   15  C   UNL     1     -40.375 -48.393  11.495  1.00  0.00     0.084 C 
BRANCH  15  16
HETATM   16  C   UNL     1     -41.669 -48.060  10.816  1.00  0.00     0.052 A 
HETATM   17  N   UNL     1     -41.861 -48.128   9.515  1.00  0.00    -0.357 N 
HETATM   18  C   UNL     1     -43.154 -47.740   9.202  1.00  0.00     0.012 A 
ATOM     19  HN  UNL     1     -41.160 -48.423   8.837  1.00  0.00     0.166 HD
HETATM   20  C   UNL     1     -43.581 -47.737   7.779  1.00  0.00     0.068 C 
HETATM   21  C   UNL     1     -43.927 -47.381  10.288  1.00  0.00     0.076 A 
HETATM   22  S   UNL     1     -43.024 -47.534  11.733  1.00  0.00    -0.087 SA
ENDBRANCH  15  16
ENDBRANCH  14  15
ENDBRANCH   4  14
TORSDOF 5
ENDMDL
MODEL 2
REMARK VINA RESULT:      -6.0      1.663      1.950
REMARK  5 active torsions:
REMARK  status: ('A' for Active; 'I' for Inactive)
REMARK    1  A    between atoms: C_2  and  N_3 
REMARK    2  A    between atoms: C_2  and  C_16 
REMARK       I    between atoms: N_3  and  C_4 
REMARK       I    between atoms: C_4  and  N_6 
REMARK    3  A    between atoms: N_6  and  C_7 
REMARK    4  A    between atoms: C_7  and  C_8 
REMARK    5  A    between atoms: C_8  and  C_9 
ROOT
HETATM    1  N   UNL     1     -42.087 -52.037  11.896  1.00  0.00    -0.336 N 
HETATM    2  C   UNL     1     -41.729 -50.767  12.254  1.00  0.00     0.316 C 
HETATM    3  O   UNL     1     -41.609 -50.391  13.413  1.00  0.00    -0.247 OA
HETATM    4  N   UNL     1     -41.590 -49.937  11.179  1.00  0.00    -0.343 N 
HETATM    5  H   UNL     1     -41.903 -52.346  10.952  1.00  0.00     0.164 HD
HETATM    6  H   UNL     1     -41.526 -50.335  10.254  1.00  0.00     0.164 HD
ENDROOT
BRANCH   1   7
HETATM    7  C   UNL     1     -42.290 -53.084  12.899  1.00  0.00     0.111 C 
HETATM    8  C   UNL     1     -41.169 -54.119  12.788  1.00  0.00     0.035 C 
BRANCH   7   9
HETATM    9  C   UNL     1     -43.705 -53.680  12.762  1.00  0.00     0.143 C 
HETATM   10  C   UNL     1     -44.837 -52.661  12.789  1.00  0.00     0.036 C 
HETATM   11  C   UNL     1     -46.002 -53.406  13.407  1.00  0.00     0.029 C 
HETATM   12  C   UNL     1     -45.433 -54.749  13.820  1.00  0.00     0.168 C 
HETATM   13  O   UNL     1     -44.008 -54.603  13.823  1.00  0.00    -0.384 OA
ENDBRANCH   7   9
ENDBRANCH   1   7
BRANCH   4  14
HETATM   14  C   UNL     1     -41.271 -48.526  11.340  1.00  0.00     0.131 C 
BRANCH  14  15
HETATM   15  C   UNL     1     -42.447 -47.684  11.835  1.00  0.00     0.084 C 
BRANCH  15  16
HETATM   16  C   UNL     1     -43.368 -47.314  10.712  1.00  0.00     0.052 A 
HETATM   17  N   UNL     1     -44.469 -47.971  10.412  1.00  0.00    -0.357 N 
HETATM   18  C   UNL     1     -45.087 -47.391   9.315  1.00  0.00     0.012 A 
ATOM     19  HN  UNL     1     -44.817 -48.787  10.914  1.00  0.00     0.166 HD
HETATM   20  C   UNL     1     -46.349 -47.983   8.802  1.00  0.00     0.068 C 
HETATM   21  C   UNL     1     -44.432 -46.291   8.799  1.00  0.00     0.076 A 
HETATM   22  S   UNL     1     -43.015 -45.968   9.703  1.00  0.00    -0.087 SA
ENDBRANCH  15  16
ENDBRANCH  14  15
ENDBRANCH   4  14
TORSDOF 5
ENDMDL
MODEL 3
REMARK VINA RESULT:      -5.7      2.776      6.627
REMARK  5 active torsions:
REMARK  status: ('A' for Active; 'I' for Inactive)
REMARK    1  A    between atoms: C_2  and  N_3 
REMARK    2  A    between atoms: C_2  and  C_16 
REMARK       I    between atoms: N_3  and  C_4 
REMARK       I    between atoms: C_4  and  N_6 
REMARK    3  A    between atoms: N_6  and  C_7 
REMARK    4  A    between atoms: C_7  and  C_8 
REMARK    5  A    between atoms: C_8  and  C_9 
ROOT
HETATM    1  N   UNL     1     -41.791 -48.170  10.003  1.00  0.00    -0.336 N 
HETATM    2  C   UNL     1     -41.797 -49.007  11.084  1.00  0.00     0.316 C 
HETATM    3  O   UNL     1     -42.543 -48.877  12.046  1.00  0.00    -0.247 OA
HETATM    4  N   UNL     1     -40.828 -49.967  11.011  1.00  0.00    -0.343 N 
HETATM    5  H   UNL     1     -41.357 -48.485   9.147  1.00  0.00     0.164 HD
HETATM    6  H   UNL     1     -40.367 -50.135  10.130  1.00  0.00     0.164 HD
ENDROOT
BRANCH   1   7
HETATM    7  C   UNL     1     -42.749 -47.069   9.885  1.00  0.00     0.111 C 
HETATM    8  C   UNL     1     -43.319 -47.041   8.466  1.00  0.00     0.035 C 
BRANCH   7   9
HETATM    9  C   UNL     1     -42.090 -45.745  10.320  1.00  0.00     0.143 C 
HETATM   10  C   UNL     1     -40.569 -45.779  10.395  1.00  0.00     0.036 C 
HETATM   11  C   UNL     1     -40.223 -44.795  11.494  1.00  0.00     0.029 C 
HETATM   12  C   UNL     1     -41.558 -44.366  12.070  1.00  0.00     0.168 C 
HETATM   13  O   UNL     1     -42.520 -45.331  11.629  1.00  0.00    -0.384 OA
ENDBRANCH   7   9
ENDBRANCH   1   7
BRANCH   4  14
HETATM   14  C   UNL     1     -40.620 -50.926  12.086  1.00  0.00     0.131 C 
BRANCH  14  15
HETATM   15  C   UNL     1     -41.207 -52.307  11.799  1.00  0.00     0.084 C 
BRANCH  15  16
HETATM   16  C   UNL     1     -42.472 -52.537  12.570  1.00  0.00     0.052 A 
HETATM   17  N   UNL     1     -43.530 -51.756  12.504  1.00  0.00    -0.357 N 
HETATM   18  C   UNL     1     -44.524 -52.226  13.347  1.00  0.00     0.012 A 
ATOM     19  HN  UNL     1     -43.607 -50.925  11.918  1.00  0.00     0.166 HD
HETATM   20  C   UNL     1     -45.809 -51.485  13.431  1.00  0.00     0.068 C 
HETATM   21  C   UNL     1     -44.195 -53.372  14.044  1.00  0.00     0.076 A 
HETATM   22  S   UNL     1     -42.611 -53.876  13.637  1.00  0.00    -0.087 SA
ENDBRANCH  15  16
ENDBRANCH  14  15
ENDBRANCH   4  14
TORSDOF 5
ENDMDL
MODEL 4
REMARK VINA RESULT:      -5.6      3.657      4.444
REMARK  5 active torsions:
REMARK  status: ('A' for Active; 'I' for Inactive)
REMARK    1  A    between atoms: C_2  and  N_3 
REMARK    2  A    between atoms: C_2  and  C_16 
REMARK       I    between atoms: N_3  and  C_4 
REMARK       I    between atoms: C_4  and  N_6 
REMARK    3  A    between atoms: N_6  and  C_7 
REMARK    4  A    between atoms: C_7  and  C_8 
REMARK    5  A    between atoms: C_8  and  C_9 
ROOT
HETATM    1  N   UNL     1     -44.952 -52.024  12.395  1.00  0.00    -0.336 N 
HETATM    2  C   UNL     1     -43.889 -52.879  12.302  1.00  0.00     0.316 C 
HETATM    3  O   UNL     1     -43.989 -54.099  12.320  1.00  0.00    -0.247 OA
HETATM    4  N   UNL     1     -42.691 -52.225  12.258  1.00  0.00    -0.343 N 
HETATM    5  H   UNL     1     -44.831 -51.064  12.103  1.00  0.00     0.164 HD
HETATM    6  H   UNL     1     -42.676 -51.235  12.069  1.00  0.00     0.164 HD
ENDROOT
BRANCH   1   7
HETATM    7  C   UNL     1     -46.328 -52.521  12.456  1.00  0.00     0.111 C 
HETATM    8  C   UNL     1     -47.209 -51.697  11.515  1.00  0.00     0.035 C 
BRANCH   7   9
HETATM    9  C   UNL     1     -46.819 -52.537  13.917  1.00  0.00     0.143 C 
HETATM   10  C   UNL     1     -46.602 -51.239  14.683  1.00  0.00     0.036 C 
HETATM   11  C   UNL     1     -46.403 -51.676  16.119  1.00  0.00     0.029 C 
HETATM   12  C   UNL     1     -46.379 -53.191  16.069  1.00  0.00     0.168 C 
HETATM   13  O   UNL     1     -46.157 -53.548  14.699  1.00  0.00    -0.384 OA
ENDBRANCH   7   9
ENDBRANCH   1   7
BRANCH   4  14
HETATM   14  C   UNL     1     -41.428 -52.948  12.218  1.00  0.00     0.131 C 
BRANCH  14  15
HETATM   15  C   UNL     1     -40.616 -52.837  13.508  1.00  0.00     0.084 C 
BRANCH  15  16
HETATM   16  C   UNL     1     -39.500 -51.846  13.369  1.00  0.00     0.052 A 
HETATM   17  N   UNL     1     -39.104 -51.333  12.222  1.00  0.00    -0.357 N 
HETATM   18  C   UNL     1     -38.044 -50.465  12.427  1.00  0.00     0.012 A 
ATOM     19  HN  UNL     1     -39.519 -51.545  11.315  1.00  0.00     0.166 HD
HETATM   20  C   UNL     1     -37.438 -49.779  11.258  1.00  0.00     0.068 C 
HETATM   21  C   UNL     1     -37.652 -50.335  13.745  1.00  0.00     0.076 A 
HETATM   22  S   UNL     1     -38.630 -51.314  14.752  1.00  0.00    -0.087 SA
ENDBRANCH  15  16
ENDBRANCH  14  15
ENDBRANCH   4  14
TORSDOF 5
ENDMDL
MODEL 5
REMARK VINA RESULT:      -5.5      1.627      2.113
REMARK  5 active torsions:
REMARK  status: ('A' for Active; 'I' for Inactive)
REMARK    1  A    between atoms: C_2  and  N_3 
REMARK    2  A    between atoms: C_2  and  C_16 
REMARK       I    between atoms: N_3  and  C_4 
REMARK       I    between atoms: C_4  and  N_6 
REMARK    3  A    between atoms: N_6  and  C_7 
REMARK    4  A    between atoms: C_7  and  C_8 
REMARK    5  A    between atoms: C_8  and  C_9 
ROOT
HETATM    1  N   UNL     1     -44.376 -50.982  13.117  1.00  0.00    -0.336 N 
HETATM    2  C   UNL     1     -43.172 -51.391  12.616  1.00  0.00     0.316 C 
HETATM    3  O   UNL     1     -42.861 -52.563  12.454  1.00  0.00    -0.247 OA
HETATM    4  N   UNL     1     -42.320 -50.349  12.381  1.00  0.00    -0.343 N 
HETATM    5  H   UNL     1     -44.665 -50.025  12.970  1.00  0.00     0.164 HD
HETATM    6  H   UNL     1     -42.684 -49.409  12.364  1.00  0.00     0.164 HD
ENDROOT
BRANCH   1   7
HETATM    7  C   UNL     1     -45.434 -51.942  13.440  1.00  0.00     0.111 C 
HETATM    8  C   UNL     1     -46.662 -51.657  12.575  1.00  0.00     0.035 C 
BRANCH   7   9
HETATM    9  C   UNL     1     -45.720 -51.923  14.956  1.00  0.00     0.143 C 
HETATM   10  C   UNL     1     -47.194 -51.976  15.332  1.00  0.00     0.036 C 
HETATM   11  C   UNL     1     -47.281 -51.203  16.631  1.00  0.00     0.029 C 
HETATM   12  C   UNL     1     -45.889 -50.641  16.847  1.00  0.00     0.168 C 
HETATM   13  O   UNL     1     -45.215 -50.732  15.586  1.00  0.00    -0.384 OA
ENDBRANCH   7   9
ENDBRANCH   1   7
BRANCH   4  14
HETATM   14  C   UNL     1     -40.962 -50.566  11.902  1.00  0.00     0.131 C 
BRANCH  14  15
HETATM   15  C   UNL     1     -40.315 -49.318  11.305  1.00  0.00     0.084 C 
BRANCH  15  16
HETATM   16  C   UNL     1     -41.346 -48.362  10.784  1.00  0.00     0.052 A 
HETATM   17  N   UNL     1     -41.976 -48.506   9.637  1.00  0.00    -0.357 N 
HETATM   18  C   UNL     1     -42.851 -47.451   9.436  1.00  0.00     0.012 A 
ATOM     19  HN  UNL     1     -41.840 -49.283   8.990  1.00  0.00     0.166 HD
HETATM   20  C   UNL     1     -43.662 -47.413   8.193  1.00  0.00     0.068 C 
HETATM   21  C   UNL     1     -42.867 -46.515  10.451  1.00  0.00     0.076 A 
HETATM   22  S   UNL     1     -41.770 -46.961  11.685  1.00  0.00    -0.087 SA
ENDBRANCH  15  16
ENDBRANCH  14  15
ENDBRANCH   4  14
TORSDOF 5
ENDMDL
MODEL 6
REMARK VINA RESULT:      -5.3      2.035      2.416
REMARK  5 active torsions:
REMARK  status: ('A' for Active; 'I' for Inactive)
REMARK    1  A    between atoms: C_2  and  N_3 
REMARK    2  A    between atoms: C_2  and  C_16 
REMARK       I    between atoms: N_3  and  C_4 
REMARK       I    between atoms: C_4  and  N_6 
REMARK    3  A    between atoms: N_6  and  C_7 
REMARK    4  A    between atoms: C_7  and  C_8 
REMARK    5  A    between atoms: C_8  and  C_9 
ROOT
HETATM    1  N   UNL     1     -44.727 -52.158  13.497  1.00  0.00    -0.336 N 
HETATM    2  C   UNL     1     -43.832 -51.142  13.686  1.00  0.00     0.316 C 
HETATM    3  O   UNL     1     -43.086 -51.058  14.653  1.00  0.00    -0.247 OA
HETATM    4  N   UNL     1     -43.909 -50.187  12.713  1.00  0.00    -0.343 N 
HETATM    5  H   UNL     1     -45.103 -52.310  12.572  1.00  0.00     0.164 HD
HETATM    6  H   UNL     1     -44.406 -50.392  11.860  1.00  0.00     0.164 HD
ENDROOT
BRANCH   1   7
HETATM    7  C   UNL     1     -44.810 -53.285  14.429  1.00  0.00     0.111 C 
HETATM    8  C   UNL     1     -44.969 -54.587  13.642  1.00  0.00     0.035 C 
BRANCH   7   9
HETATM    9  C   UNL     1     -45.931 -53.037  15.458  1.00  0.00     0.143 C 
HETATM   10  C   UNL     1     -46.980 -52.018  15.034  1.00  0.00     0.036 C 
HETATM   11  C   UNL     1     -47.440 -51.387  16.331  1.00  0.00     0.029 C 
HETATM   12  C   UNL     1     -46.538 -51.977  17.397  1.00  0.00     0.168 C 
HETATM   13  O   UNL     1     -45.417 -52.546  16.710  1.00  0.00    -0.384 OA
ENDBRANCH   7   9
ENDBRANCH   1   7
BRANCH   4  14
HETATM   14  C   UNL     1     -43.085 -48.987  12.754  1.00  0.00     0.131 C 
BRANCH  14  15
HETATM   15  C   UNL     1     -42.402 -48.666  11.425  1.00  0.00     0.084 C 
BRANCH  15  16
HETATM   16  C   UNL     1     -43.262 -47.791  10.565  1.00  0.00     0.052 A 
HETATM   17  N   UNL     1     -44.514 -48.058  10.257  1.00  0.00    -0.357 N 
HETATM   18  C   UNL     1     -45.026 -47.066   9.435  1.00  0.00     0.012 A 
ATOM     19  HN  UNL     1     -45.032 -48.876  10.577  1.00  0.00     0.166 HD
HETATM   20  C   UNL     1     -46.430 -47.175   8.961  1.00  0.00     0.068 C 
HETATM   21  C   UNL     1     -44.138 -46.053   9.133  1.00  0.00     0.076 A 
HETATM   22  S   UNL     1     -42.633 -46.339   9.894  1.00  0.00    -0.087 SA
ENDBRANCH  15  16
ENDBRANCH  14  15
ENDBRANCH   4  14
TORSDOF 5
ENDMDL
MODEL 7
REMARK VINA RESULT:      -5.3      2.402      2.947
REMARK  5 active torsions:
REMARK  status: ('A' for Active; 'I' for Inactive)
REMARK    1  A    between atoms: C_2  and  N_3 
REMARK    2  A    between atoms: C_2  and  C_16 
REMARK       I    between atoms: N_3  and  C_4 
REMARK       I    between atoms: C_4  and  N_6 
REMARK    3  A    between atoms: N_6  and  C_7 
REMARK    4  A    between atoms: C_7  and  C_8 
REMARK    5  A    between atoms: C_8  and  C_9 
ROOT
HETATM    1  N   UNL     1     -44.903 -51.465  12.658  1.00  0.00    -0.336 N 
HETATM    2  C   UNL     1     -43.599 -51.869  12.593  1.00  0.00     0.316 C 
HETATM    3  O   UNL     1     -43.248 -53.040  12.532  1.00  0.00    -0.247 OA
HETATM    4  N   UNL     1     -42.721 -50.827  12.677  1.00  0.00    -0.343 N 
HETATM    5  H   UNL     1     -45.127 -50.506  12.433  1.00  0.00     0.164 HD
HETATM    6  H   UNL     1     -43.060 -49.886  12.549  1.00  0.00     0.164 HD
ENDROOT
BRANCH   1   7
HETATM    7  C   UNL     1     -46.005 -52.427  12.587  1.00  0.00     0.111 C 
HETATM    8  C   UNL     1     -47.029 -51.954  11.554  1.00  0.00     0.035 C 
BRANCH   7   9
HETATM    9  C   UNL     1     -46.597 -52.657  13.993  1.00  0.00     0.143 C 
HETATM   10  C   UNL     1     -46.875 -51.389  14.788  1.00  0.00     0.036 C 
HETATM   11  C   UNL     1     -46.678 -51.798  16.233  1.00  0.00     0.029 C 
HETATM   12  C   UNL     1     -46.169 -53.225  16.170  1.00  0.00     0.168 C 
HETATM   13  O   UNL     1     -45.721 -53.438  14.826  1.00  0.00    -0.384 OA
ENDBRANCH   7   9
ENDBRANCH   1   7
BRANCH   4  14
HETATM   14  C   UNL     1     -41.281 -51.040  12.689  1.00  0.00     0.131 C 
BRANCH  14  15
HETATM   15  C   UNL     1     -40.555 -50.390  11.512  1.00  0.00     0.084 C 
BRANCH  15  16
HETATM   16  C   UNL     1     -40.274 -48.941  11.775  1.00  0.00     0.052 A 
HETATM   17  N   UNL     1     -40.403 -47.987  10.876  1.00  0.00    -0.357 N 
HETATM   18  C   UNL     1     -40.051 -46.764  11.424  1.00  0.00     0.012 A 
ATOM     19  HN  UNL     1     -40.715 -48.129   9.916  1.00  0.00     0.166 HD
HETATM   20  C   UNL     1     -40.119 -45.547  10.574  1.00  0.00     0.068 C 
HETATM   21  C   UNL     1     -39.659 -46.816  12.747  1.00  0.00     0.076 A 
HETATM   22  S   UNL     1     -39.733 -48.426  13.323  1.00  0.00    -0.087 SA
ENDBRANCH  15  16
ENDBRANCH  14  15
ENDBRANCH   4  14
TORSDOF 5
ENDMDL
MODEL 8
REMARK VINA RESULT:      -5.3      4.359      6.720
REMARK  5 active torsions:
REMARK  status: ('A' for Active; 'I' for Inactive)
REMARK    1  A    between atoms: C_2  and  N_3 
REMARK    2  A    between atoms: C_2  and  C_16 
REMARK       I    between atoms: N_3  and  C_4 
REMARK       I    between atoms: C_4  and  N_6 
REMARK    3  A    between atoms: N_6  and  C_7 
REMARK    4  A    between atoms: C_7  and  C_8 
REMARK    5  A    between atoms: C_8  and  C_9 
ROOT
HETATM    1  N   UNL     1     -41.403 -48.401  10.033  1.00  0.00    -0.336 N 
HETATM    2  C   UNL     1     -40.964 -49.034  11.163  1.00  0.00     0.316 C 
HETATM    3  O   UNL     1     -41.411 -48.822  12.283  1.00  0.00    -0.247 OA
HETATM    4  N   UNL     1     -39.918 -49.877  10.919  1.00  0.00    -0.343 N 
HETATM    5  H   UNL     1     -41.192 -48.809   9.134  1.00  0.00     0.164 HD
HETATM    6  H   UNL     1     -39.710 -50.143   9.969  1.00  0.00     0.164 HD
ENDROOT
BRANCH   1   7
HETATM    7  C   UNL     1     -42.517 -47.452  10.075  1.00  0.00     0.111 C 
HETATM    8  C   UNL     1     -43.377 -47.620   8.821  1.00  0.00     0.035 C 
BRANCH   7   9
HETATM    9  C   UNL     1     -41.983 -46.019  10.278  1.00  0.00     0.143 C 
HETATM   10  C   UNL     1     -40.475 -45.916  10.461  1.00  0.00     0.036 C 
HETATM   11  C   UNL     1     -40.286 -44.712  11.360  1.00  0.00     0.029 C 
HETATM   12  C   UNL     1     -41.688 -44.286  11.747  1.00  0.00     0.168 C 
HETATM   13  O   UNL     1     -42.546 -45.393  11.445  1.00  0.00    -0.384 OA
ENDBRANCH   7   9
ENDBRANCH   1   7
BRANCH   4  14
HETATM   14  C   UNL     1     -39.259 -50.606  11.994  1.00  0.00     0.131 C 
BRANCH  14  15
HETATM   15  C   UNL     1     -37.891 -50.038  12.371  1.00  0.00     0.084 C 
BRANCH  15  16
HETATM   16  C   UNL     1     -37.997 -49.054  13.496  1.00  0.00     0.052 A 
HETATM   17  N   UNL     1     -38.578 -47.876  13.396  1.00  0.00    -0.357 N 
HETATM   18  C   UNL     1     -38.496 -47.199  14.602  1.00  0.00     0.012 A 
ATOM     19  HN  UNL     1     -39.024 -47.516  12.553  1.00  0.00     0.166 HD
HETATM   20  C   UNL     1     -39.087 -45.840  14.708  1.00  0.00     0.068 C 
HETATM   21  C   UNL     1     -37.846 -47.888  15.607  1.00  0.00     0.076 A 
HETATM   22  S   UNL     1     -37.328 -49.416  15.037  1.00  0.00    -0.087 SA
ENDBRANCH  15  16
ENDBRANCH  14  15
ENDBRANCH   4  14
TORSDOF 5
ENDMDL
MODEL 9
REMARK VINA RESULT:      -5.3      2.367      2.758
REMARK  5 active torsions:
REMARK  status: ('A' for Active; 'I' for Inactive)
REMARK    1  A    between atoms: C_2  and  N_3 
REMARK    2  A    between atoms: C_2  and  C_16 
REMARK       I    between atoms: N_3  and  C_4 
REMARK       I    between atoms: C_4  and  N_6 
REMARK    3  A    between atoms: N_6  and  C_7 
REMARK    4  A    between atoms: C_7  and  C_8 
REMARK    5  A    between atoms: C_8  and  C_9 
ROOT
HETATM    1  N   UNL     1     -42.329 -51.802  12.142  1.00  0.00    -0.336 N 
HETATM    2  C   UNL     1     -42.307 -50.471  12.454  1.00  0.00     0.316 C 
HETATM    3  O   UNL     1     -42.549 -50.026  13.568  1.00  0.00    -0.247 OA
HETATM    4  N   UNL     1     -42.056 -49.681  11.369  1.00  0.00    -0.343 N 
HETATM    5  H   UNL     1     -41.864 -52.112  11.301  1.00  0.00     0.164 HD
HETATM    6  H   UNL     1     -41.694 -50.101  10.527  1.00  0.00     0.164 HD
ENDROOT
BRANCH   1   7
HETATM    7  C   UNL     1     -42.583 -52.821  13.162  1.00  0.00     0.111 C 
HETATM    8  C   UNL     1     -41.536 -53.930  13.046  1.00  0.00     0.035 C 
BRANCH   7   9
HETATM    9  C   UNL     1     -44.038 -53.322  13.058  1.00  0.00     0.143 C 
HETATM   10  C   UNL     1     -45.062 -52.485  13.812  1.00  0.00     0.036 C 
HETATM   11  C   UNL     1     -46.130 -53.476  14.224  1.00  0.00     0.029 C 
HETATM   12  C   UNL     1     -45.592 -54.830  13.807  1.00  0.00     0.168 C 
HETATM   13  O   UNL     1     -44.188 -54.655  13.578  1.00  0.00    -0.384 OA
ENDBRANCH   7   9
ENDBRANCH   1   7
BRANCH   4  14
HETATM   14  C   UNL     1     -42.047 -48.229  11.468  1.00  0.00     0.131 C 
BRANCH  14  15
HETATM   15  C   UNL     1     -40.759 -47.662  12.062  1.00  0.00     0.084 C 
BRANCH  15  16
HETATM   16  C   UNL     1     -40.386 -46.359  11.421  1.00  0.00     0.052 A 
HETATM   17  N   UNL     1     -39.635 -46.253  10.344  1.00  0.00    -0.357 N 
HETATM   18  C   UNL     1     -39.461 -44.919  10.012  1.00  0.00     0.012 A 
ATOM     19  HN  UNL     1     -39.240 -47.039   9.829  1.00  0.00     0.166 HD
HETATM   20  C   UNL     1     -38.637 -44.573   8.826  1.00  0.00     0.068 C 
HETATM   21  C   UNL     1     -40.094 -44.028  10.856  1.00  0.00     0.076 A 
HETATM   22  S   UNL     1     -40.928 -44.872  12.090  1.00  0.00    -0.087 SA
ENDBRANCH  15  16
ENDBRANCH  14  15
ENDBRANCH   4  14
TORSDOF 5
ENDMDL
