MODEL 1
REMARK VINA RESULT:      -6.1      0.000      0.000
REMARK  5 active torsions:
REMARK  status: ('A' for Active; 'I' for Inactive)
REMARK    1  A    between atoms: C_2  and  C_3 
REMARK    2  A    between atoms: N_9  and  C_10 
REMARK    3  A    between atoms: C_10  and  C_11 
REMARK    4  A    between atoms: C_11  and  N_12 
REMARK       I    between atoms: N_12  and  C_13 
REMARK    5  A    between atoms: C_13  and  C_15 
ROOT
HETATM    1  C   UNL     1     -40.986 -53.553  12.802  1.00  0.00     0.143 C 
ENDROOT
BRANCH   1   2
HETATM    2  C   UNL     1     -40.365 -52.277  13.359  1.00  0.00     0.151 C 
BRANCH   2   3
HETATM    3  N   UNL     1     -40.036 -51.304  12.341  1.00  0.00    -0.329 N 
HETATM    4  C   UNL     1     -38.823 -50.715  12.079  1.00  0.00     0.098 A 
HETATM    5  N   UNL     1     -38.965 -49.916  11.039  1.00  0.00    -0.288 N 
HETATM    6  N   UNL     1     -40.267 -49.999  10.608  1.00  0.00    -0.295 N 
ATOM      7  HN  UNL     1     -38.235 -49.336  10.626  1.00  0.00     0.188 HD
HETATM    8  C   UNL     1     -40.888 -50.845  11.386  1.00  0.00     0.201 A 
ATOM      9  HN  UNL     1     -40.674 -49.493   9.822  1.00  0.00     0.187 HD
BRANCH   4  10
HETATM   10  C   UNL     1     -37.566 -50.938  12.841  1.00  0.00     0.073 C 
HETATM   11  C   UNL     1     -37.513 -50.084  14.101  1.00  0.00     0.013 C 
ENDBRANCH   4  10
ENDBRANCH   2   3
ENDBRANCH   1   2
BRANCH   1  12
HETATM   12  N   UNL     1     -42.441 -53.558  12.752  1.00  0.00    -0.359 N 
HETATM   13  C   UNL     1     -43.147 -53.930  13.879  1.00  0.00     0.222 C 
HETATM   14  O   UNL     1     -42.596 -54.484  14.827  1.00  0.00    -0.273 OA
HETATM   15  H   UNL     1     -42.935 -53.104  11.995  1.00  0.00     0.162 HD
BRANCH  13  16
HETATM   16  C   UNL     1     -44.645 -53.611  13.853  1.00  0.00     0.086 C 
HETATM   17  C   UNL     1     -45.054 -52.795  12.586  1.00  0.00     0.023 C 
HETATM   18  C   UNL     1     -45.415 -51.405  13.166  1.00  0.00     0.009 C 
HETATM   19  C   UNL     1     -44.501 -51.303  14.388  1.00  0.00     0.018 C 
HETATM   20  C   UNL     1     -46.728 -51.561  13.890  1.00  0.00    -0.026 C 
HETATM   21  C   UNL     1     -45.004 -52.623  14.996  1.00  0.00     0.021 C 
HETATM   22  C   UNL     1     -46.491 -52.317  14.973  1.00  0.00    -0.025 C 
ENDBRANCH  13  16
ENDBRANCH   1  12
TORSDOF 5
ENDMDL
MODEL 2
REMARK VINA RESULT:      -6.0      2.797      4.281
REMARK  5 active torsions:
REMARK  status: ('A' for Active; 'I' for Inactive)
REMARK    1  A    between atoms: C_2  and  C_3 
REMARK    2  A    between atoms: N_9  and  C_10 
REMARK    3  A    between atoms: C_10  and  C_11 
REMARK    4  A    between atoms: C_11  and  N_12 
REMARK       I    between atoms: N_12  and  C_13 
REMARK    5  A    between atoms: C_13  and  C_15 
ROOT
HETATM    1  C   UNL     1     -40.705 -50.304  11.484  1.00  0.00     0.143 C 
ENDROOT
BRANCH   1   2
HETATM    2  C   UNL     1     -41.431 -49.052  11.965  1.00  0.00     0.151 C 
BRANCH   2   3
HETATM    3  N   UNL     1     -41.125 -47.873  11.186  1.00  0.00    -0.329 N 
HETATM    4  C   UNL     1     -41.939 -47.181  10.323  1.00  0.00     0.098 A 
HETATM    5  N   UNL     1     -41.267 -46.147   9.855  1.00  0.00    -0.288 N 
HETATM    6  N   UNL     1     -40.019 -46.151  10.429  1.00  0.00    -0.295 N 
ATOM      7  HN  UNL     1     -41.613 -45.463   9.183  1.00  0.00     0.188 HD
HETATM    8  C   UNL     1     -39.957 -47.179  11.234  1.00  0.00     0.201 A 
ATOM      9  HN  UNL     1     -39.276 -45.474  10.259  1.00  0.00     0.187 HD
BRANCH   4  10
HETATM   10  C   UNL     1     -43.340 -47.541   9.973  1.00  0.00     0.073 C 
HETATM   11  C   UNL     1     -43.567 -47.515   8.468  1.00  0.00     0.013 C 
ENDBRANCH   4  10
ENDBRANCH   2   3
ENDBRANCH   1   2
BRANCH   1  12
HETATM   12  N   UNL     1     -41.437 -51.549  11.669  1.00  0.00    -0.359 N 
HETATM   13  C   UNL     1     -40.897 -52.526  12.482  1.00  0.00     0.222 C 
HETATM   14  O   UNL     1     -39.726 -52.480  12.850  1.00  0.00    -0.273 OA
HETATM   15  H   UNL     1     -42.406 -51.627  11.390  1.00  0.00     0.162 HD
BRANCH  13  16
HETATM   16  C   UNL     1     -41.852 -53.656  12.876  1.00  0.00     0.086 C 
HETATM   17  C   UNL     1     -43.348 -53.278  12.632  1.00  0.00     0.023 C 
HETATM   18  C   UNL     1     -43.917 -53.154  14.067  1.00  0.00     0.009 C 
HETATM   19  C   UNL     1     -42.702 -52.691  14.872  1.00  0.00     0.018 C 
HETATM   20  C   UNL     1     -44.022 -54.554  14.619  1.00  0.00    -0.026 C 
HETATM   21  C   UNL     1     -41.827 -53.870  14.415  1.00  0.00     0.021 C 
HETATM   22  C   UNL     1     -42.768 -54.997  14.800  1.00  0.00    -0.025 C 
ENDBRANCH  13  16
ENDBRANCH   1  12
TORSDOF 5
ENDMDL
MODEL 3
REMARK VINA RESULT:      -6.0      3.632      4.866
REMARK  5 active torsions:
REMARK  status: ('A' for Active; 'I' for Inactive)
REMARK    1  A    between atoms: C_2  and  C_3 
REMARK    2  A    between atoms: N_9  and  C_10 
REMARK    3  A    between atoms: C_10  and  C_11 
REMARK    4  A    between atoms: C_11  and  N_12 
REMARK       I    between atoms: N_12  and  C_13 
REMARK    5  A    between atoms: C_13  and  C_15 
ROOT
HETATM    1  C   UNL     1     -42.859 -48.806  12.500  1.00  0.00     0.143 C 
ENDROOT
BRANCH   1   2
HETATM    2  C   UNL     1     -42.346 -48.374  11.131  1.00  0.00     0.151 C 
BRANCH   2   3
HETATM    3  N   UNL     1     -42.748 -47.035  10.761  1.00  0.00    -0.329 N 
HETATM    4  C   UNL     1     -43.559 -46.640   9.725  1.00  0.00     0.098 A 
HETATM    5  N   UNL     1     -43.691 -45.328   9.777  1.00  0.00    -0.288 N 
HETATM    6  N   UNL     1     -42.983 -44.868  10.861  1.00  0.00    -0.295 N 
ATOM      7  HN  UNL     1     -44.226 -44.755   9.125  1.00  0.00     0.188 HD
HETATM    8  C   UNL     1     -42.439 -45.902  11.446  1.00  0.00     0.201 A 
ATOM      9  HN  UNL     1     -42.898 -43.895  11.155  1.00  0.00     0.187 HD
BRANCH   4  10
HETATM   10  C   UNL     1     -44.179 -47.539   8.714  1.00  0.00     0.073 C 
HETATM   11  C   UNL     1     -45.672 -47.710   8.955  1.00  0.00     0.013 C 
ENDBRANCH   4  10
ENDBRANCH   2   3
ENDBRANCH   1   2
BRANCH   1  12
HETATM   12  N   UNL     1     -43.768 -49.942  12.486  1.00  0.00    -0.359 N 
HETATM   13  C   UNL     1     -43.448 -51.064  13.226  1.00  0.00     0.222 C 
HETATM   14  O   UNL     1     -42.321 -51.226  13.691  1.00  0.00    -0.273 OA
HETATM   15  H   UNL     1     -44.708 -49.850  12.123  1.00  0.00     0.162 HD
BRANCH  13  16
HETATM   16  C   UNL     1     -44.582 -52.075  13.414  1.00  0.00     0.086 C 
HETATM   17  C   UNL     1     -45.975 -51.478  13.036  1.00  0.00     0.023 C 
HETATM   18  C   UNL     1     -46.694 -51.376  14.404  1.00  0.00     0.009 C 
HETATM   19  C   UNL     1     -45.538 -51.141  15.376  1.00  0.00     0.018 C 
HETATM   20  C   UNL     1     -47.045 -52.781  14.820  1.00  0.00    -0.026 C 
HETATM   21  C   UNL     1     -44.773 -52.395  14.922  1.00  0.00     0.021 C 
HETATM   22  C   UNL     1     -45.891 -53.405  15.102  1.00  0.00    -0.025 C 
ENDBRANCH  13  16
ENDBRANCH   1  12
TORSDOF 5
ENDMDL
MODEL 4
REMARK VINA RESULT:      -5.8      2.055      3.288
REMARK  5 active torsions:
REMARK  status: ('A' for Active; 'I' for Inactive)
REMARK    1  A    between atoms: C_2  and  C_3 
REMARK    2  A    between atoms: N_9  and  C_10 
REMARK    3  A    between atoms: C_10  and  C_11 
REMARK    4  A    between atoms: C_11  and  N_12 
REMARK       I    between atoms: N_12  and  C_13 
REMARK    5  A    between atoms: C_13  and  C_15 
ROOT
HETATM    1  C   UNL     1     -40.925 -49.985  14.562  1.00  0.00     0.143 C 
ENDROOT
BRANCH   1   2
HETATM    2  C   UNL     1     -39.970 -51.125  14.228  1.00  0.00     0.151 C 
BRANCH   2   3
HETATM    3  N   UNL     1     -40.389 -51.914  13.091  1.00  0.00    -0.329 N 
HETATM    4  C   UNL     1     -40.516 -53.278  12.995  1.00  0.00     0.098 A 
HETATM    5  N   UNL     1     -40.963 -53.570  11.788  1.00  0.00    -0.288 N 
HETATM    6  N   UNL     1     -41.150 -52.395  11.103  1.00  0.00    -0.295 N 
ATOM      7  HN  UNL     1     -41.140 -54.508  11.427  1.00  0.00     0.188 HD
HETATM    8  C   UNL     1     -40.818 -51.414  11.901  1.00  0.00     0.201 A 
ATOM      9  HN  UNL     1     -41.486 -52.304  10.145  1.00  0.00     0.187 HD
BRANCH   4  10
HETATM   10  C   UNL     1     -40.198 -54.258  14.067  1.00  0.00     0.073 C 
HETATM   11  C   UNL     1     -41.400 -54.519  14.965  1.00  0.00     0.013 C 
ENDBRANCH   4  10
ENDBRANCH   2   3
ENDBRANCH   1   2
BRANCH   1  12
HETATM   12  N   UNL     1     -42.252 -50.400  14.994  1.00  0.00    -0.359 N 
HETATM   13  C   UNL     1     -43.345 -50.054  14.224  1.00  0.00     0.222 C 
HETATM   14  O   UNL     1     -43.261 -49.212  13.333  1.00  0.00    -0.273 OA
HETATM   15  H   UNL     1     -42.367 -51.099  15.717  1.00  0.00     0.162 HD
BRANCH  13  16
HETATM   16  C   UNL     1     -44.648 -50.783  14.564  1.00  0.00     0.086 C 
HETATM   17  C   UNL     1     -44.396 -52.115  15.339  1.00  0.00     0.023 C 
HETATM   18  C   UNL     1     -44.801 -53.200  14.311  1.00  0.00     0.009 C 
HETATM   19  C   UNL     1     -44.472 -52.537  12.974  1.00  0.00     0.018 C 
HETATM   20  C   UNL     1     -46.304 -53.165  14.208  1.00  0.00    -0.026 C 
HETATM   21  C   UNL     1     -45.332 -51.296  13.267  1.00  0.00     0.021 C 
HETATM   22  C   UNL     1     -46.628 -52.009  13.608  1.00  0.00    -0.025 C 
ENDBRANCH  13  16
ENDBRANCH   1  12
TORSDOF 5
ENDMDL
MODEL 5
REMARK VINA RESULT:      -5.8      1.608      2.154
REMARK  5 active torsions:
REMARK  status: ('A' for Active; 'I' for Inactive)
REMARK    1  A    between atoms: C_2  and  C_3 
REMARK    2  A    between atoms: N_9  and  C_10 
REMARK    3  A    between atoms: C_10  and  C_11 
REMARK    4  A    between atoms: C_11  and  N_12 
REMARK       I    between atoms: N_12  and  C_13 
REMARK    5  A    between atoms: C_13  and  C_15 
ROOT
HETATM    1  C   UNL     1     -41.211 -53.405  15.245  1.00  0.00     0.143 C 
ENDROOT
BRANCH   1   2
HETATM    2  C   UNL     1     -40.238 -52.428  14.593  1.00  0.00     0.151 C 
BRANCH   2   3
HETATM    3  N   UNL     1     -40.539 -52.156  13.205  1.00  0.00    -0.329 N 
HETATM    4  C   UNL     1     -40.296 -51.012  12.484  1.00  0.00     0.098 A 
HETATM    5  N   UNL     1     -40.698 -51.209  11.243  1.00  0.00    -0.288 N 
HETATM    6  N   UNL     1     -41.184 -52.490  11.148  1.00  0.00    -0.295 N 
ATOM      7  HN  UNL     1     -40.654 -50.528  10.485  1.00  0.00     0.188 HD
HETATM    8  C   UNL     1     -41.067 -53.047  12.324  1.00  0.00     0.201 A 
ATOM      9  HN  UNL     1     -41.567 -52.927  10.310  1.00  0.00     0.187 HD
BRANCH   4  10
HETATM   10  C   UNL     1     -39.686 -49.763  13.015  1.00  0.00     0.073 C 
HETATM   11  C   UNL     1     -39.290 -48.811  11.896  1.00  0.00     0.013 C 
ENDBRANCH   4  10
ENDBRANCH   2   3
ENDBRANCH   1   2
BRANCH   1  12
HETATM   12  N   UNL     1     -42.485 -52.828  15.647  1.00  0.00    -0.359 N 
HETATM   13  C   UNL     1     -43.654 -53.443  15.244  1.00  0.00     0.222 C 
HETATM   14  O   UNL     1     -43.657 -54.304  14.368  1.00  0.00    -0.273 OA
HETATM   15  H   UNL     1     -42.529 -52.124  16.373  1.00  0.00     0.162 HD
BRANCH  13  16
HETATM   16  C   UNL     1     -44.926 -52.972  15.956  1.00  0.00     0.086 C 
HETATM   17  C   UNL     1     -46.222 -53.454  15.231  1.00  0.00     0.023 C 
HETATM   18  C   UNL     1     -46.816 -52.141  14.664  1.00  0.00     0.009 C 
HETATM   19  C   UNL     1     -45.570 -51.292  14.407  1.00  0.00     0.018 C 
HETATM   20  C   UNL     1     -47.367 -51.368  15.835  1.00  0.00    -0.026 C 
HETATM   21  C   UNL     1     -45.060 -51.428  15.852  1.00  0.00     0.021 C 
HETATM   22  C   UNL     1     -46.316 -50.965  16.567  1.00  0.00    -0.025 C 
ENDBRANCH  13  16
ENDBRANCH   1  12
TORSDOF 5
ENDMDL
MODEL 6
REMARK VINA RESULT:      -5.7      1.855      2.850
REMARK  5 active torsions:
REMARK  status: ('A' for Active; 'I' for Inactive)
REMARK    1  A    between atoms: C_2  and  C_3 
REMARK    2  A    between atoms: N_9  and  C_10 
REMARK    3  A    between atoms: C_10  and  C_11 
REMARK    4  A    between atoms: C_11  and  N_12 
REMARK       I    between atoms: N_12  and  C_13 
REMARK    5  A    between atoms: C_13  and  C_15 
ROOT
HETATM    1  C   UNL     1     -40.378 -51.100  14.473  1.00  0.00     0.143 C 
ENDROOT
BRANCH   1   2
HETATM    2  C   UNL     1     -39.267 -50.081  14.239  1.00  0.00     0.151 C 
BRANCH   2   3
HETATM    3  N   UNL     1     -38.729 -50.113  12.898  1.00  0.00    -0.329 N 
HETATM    4  C   UNL     1     -39.087 -49.351  11.812  1.00  0.00     0.098 A 
HETATM    5  N   UNL     1     -38.312 -49.684  10.797  1.00  0.00    -0.288 N 
HETATM    6  N   UNL     1     -37.433 -50.648  11.225  1.00  0.00    -0.295 N 
ATOM      7  HN  UNL     1     -38.358 -49.291   9.856  1.00  0.00     0.188 HD
HETATM    8  C   UNL     1     -37.685 -50.882  12.486  1.00  0.00     0.201 A 
ATOM      9  HN  UNL     1     -36.714 -51.100  10.661  1.00  0.00     0.187 HD
BRANCH   4  10
HETATM   10  C   UNL     1     -40.166 -48.328  11.787  1.00  0.00     0.073 C 
HETATM   11  C   UNL     1     -41.264 -48.695  10.798  1.00  0.00     0.013 C 
ENDBRANCH   4  10
ENDBRANCH   2   3
ENDBRANCH   1   2
BRANCH   1  12
HETATM   12  N   UNL     1     -41.729 -50.570  14.375  1.00  0.00    -0.359 N 
HETATM   13  C   UNL     1     -42.561 -51.039  13.377  1.00  0.00     0.222 C 
HETATM   14  O   UNL     1     -42.125 -51.697  12.435  1.00  0.00    -0.273 OA
HETATM   15  H   UNL     1     -42.132 -50.032  15.132  1.00  0.00     0.162 HD
BRANCH  13  16
HETATM   16  C   UNL     1     -44.041 -50.678  13.528  1.00  0.00     0.086 C 
HETATM   17  C   UNL     1     -44.446 -50.456  15.020  1.00  0.00     0.023 C 
HETATM   18  C   UNL     1     -45.366 -51.666  15.317  1.00  0.00     0.009 C 
HETATM   19  C   UNL     1     -44.802 -52.751  14.400  1.00  0.00     0.018 C 
HETATM   20  C   UNL     1     -46.663 -51.418  14.589  1.00  0.00    -0.026 C 
HETATM   21  C   UNL     1     -44.934 -51.886  13.135  1.00  0.00     0.021 C 
HETATM   22  C   UNL     1     -46.400 -51.520  13.277  1.00  0.00    -0.025 C 
ENDBRANCH  13  16
ENDBRANCH   1  12
TORSDOF 5
ENDMDL
MODEL 7
REMARK VINA RESULT:      -5.7      1.847      2.500
REMARK  5 active torsions:
REMARK  status: ('A' for Active; 'I' for Inactive)
REMARK    1  A    between atoms: C_2  and  C_3 
REMARK    2  A    between atoms: N_9  and  C_10 
REMARK    3  A    between atoms: C_10  and  C_11 
REMARK    4  A    between atoms: C_11  and  N_12 
REMARK       I    between atoms: N_12  and  C_13 
REMARK    5  A    between atoms: C_13  and  C_15 
ROOT
HETATM    1  C   UNL     1     -42.555 -49.760  13.900  1.00  0.00     0.143 C 
ENDROOT
BRANCH   1   2
HETATM    2  C   UNL     1     -41.075 -49.405  13.811  1.00  0.00     0.151 C 
BRANCH   2   3
HETATM    3  N   UNL     1     -40.521 -49.572  12.485  1.00  0.00    -0.329 N 
HETATM    4  C   UNL     1     -39.208 -49.742  12.120  1.00  0.00     0.098 A 
HETATM    5  N   UNL     1     -39.156 -49.892  10.810  1.00  0.00    -0.288 N 
HETATM    6  N   UNL     1     -40.439 -49.841  10.321  1.00  0.00    -0.295 N 
ATOM      7  HN  UNL     1     -38.310 -50.024  10.256  1.00  0.00     0.188 HD
HETATM    8  C   UNL     1     -41.243 -49.666  11.336  1.00  0.00     0.201 A 
ATOM      9  HN  UNL     1     -40.714 -49.926   9.343  1.00  0.00     0.187 HD
BRANCH   4  10
HETATM   10  C   UNL     1     -38.043 -49.751  13.045  1.00  0.00     0.073 C 
HETATM   11  C   UNL     1     -37.330 -51.097  13.037  1.00  0.00     0.013 C 
ENDBRANCH   4  10
ENDBRANCH   2   3
ENDBRANCH   1   2
BRANCH   1  12
HETATM   12  N   UNL     1     -42.836 -51.129  14.305  1.00  0.00    -0.359 N 
HETATM   13  C   UNL     1     -44.020 -51.403  14.961  1.00  0.00     0.222 C 
HETATM   14  O   UNL     1     -44.720 -50.504  15.424  1.00  0.00    -0.273 OA
HETATM   15  H   UNL     1     -42.291 -51.900  13.940  1.00  0.00     0.162 HD
BRANCH  13  16
HETATM   16  C   UNL     1     -44.385 -52.885  15.071  1.00  0.00     0.086 C 
HETATM   17  C   UNL     1     -43.547 -53.775  14.099  1.00  0.00     0.023 C 
HETATM   18  C   UNL     1     -44.597 -54.247  13.063  1.00  0.00     0.009 C 
HETATM   19  C   UNL     1     -45.588 -53.083  13.034  1.00  0.00     0.018 C 
HETATM   20  C   UNL     1     -45.471 -55.260  13.757  1.00  0.00    -0.026 C 
HETATM   21  C   UNL     1     -45.830 -53.124  14.552  1.00  0.00     0.021 C 
HETATM   22  C   UNL     1     -46.190 -54.594  14.673  1.00  0.00    -0.025 C 
ENDBRANCH  13  16
ENDBRANCH   1  12
TORSDOF 5
ENDMDL
MODEL 8
REMARK VINA RESULT:      -5.6      2.208      3.045
REMARK  5 active torsions:
REMARK  status: ('A' for Active; 'I' for Inactive)
REMARK    1  A    between atoms: C_2  and  C_3 
REMARK    2  A    between atoms: N_9  and  C_10 
REMARK    3  A    between atoms: C_10  and  C_11 
REMARK    4  A    between atoms: C_11  and  N_12 
REMARK       I    between atoms: N_12  and  C_13 
REMARK    5  A    between atoms: C_13  and  C_15 
ROOT
HETATM    1  C   UNL     1     -40.916 -50.434  14.481  1.00  0.00     0.143 C 
ENDROOT
BRANCH   1   2
HETATM    2  C   UNL     1     -40.758 -49.110  13.742  1.00  0.00     0.151 C 
BRANCH   2   3
HETATM    3  N   UNL     1     -40.853 -49.237  12.305  1.00  0.00    -0.329 N 
HETATM    4  C   UNL     1     -41.726 -48.617  11.446  1.00  0.00     0.098 A 
HETATM    5  N   UNL     1     -41.436 -48.992  10.214  1.00  0.00    -0.288 N 
HETATM    6  N   UNL     1     -40.358 -49.841  10.267  1.00  0.00    -0.295 N 
ATOM      7  HN  UNL     1     -41.928 -48.701   9.369  1.00  0.00     0.188 HD
HETATM    8  C   UNL     1     -40.012 -49.964  11.521  1.00  0.00     0.201 A 
ATOM      9  HN  UNL     1     -39.909 -50.293   9.471  1.00  0.00     0.187 HD
BRANCH   4  10
HETATM   10  C   UNL     1     -42.817 -47.684  11.839  1.00  0.00     0.073 C 
HETATM   11  C   UNL     1     -42.383 -46.230  11.719  1.00  0.00     0.013 C 
ENDBRANCH   4  10
ENDBRANCH   2   3
ENDBRANCH   1   2
BRANCH   1  12
HETATM   12  N   UNL     1     -42.275 -50.747  14.898  1.00  0.00    -0.359 N 
HETATM   13  C   UNL     1     -42.963 -51.746  14.239  1.00  0.00     0.222 C 
HETATM   14  O   UNL     1     -42.564 -52.203  13.170  1.00  0.00    -0.273 OA
HETATM   15  H   UNL     1     -42.641 -50.400  15.776  1.00  0.00     0.162 HD
BRANCH  13  16
HETATM   16  C   UNL     1     -44.245 -52.227  14.925  1.00  0.00     0.086 C 
HETATM   17  C   UNL     1     -44.891 -53.442  14.186  1.00  0.00     0.023 C 
HETATM   18  C   UNL     1     -46.190 -52.841  13.595  1.00  0.00     0.009 C 
HETATM   19  C   UNL     1     -45.804 -51.383  13.346  1.00  0.00     0.018 C 
HETATM   20  C   UNL     1     -47.136 -52.622  14.748  1.00  0.00    -0.026 C 
HETATM   21  C   UNL     1     -45.359 -51.152  14.800  1.00  0.00     0.021 C 
HETATM   22  C   UNL     1     -46.623 -51.629  15.490  1.00  0.00    -0.025 C 
ENDBRANCH  13  16
ENDBRANCH   1  12
TORSDOF 5
ENDMDL
MODEL 9
REMARK VINA RESULT:      -5.5      2.245      6.737
REMARK  5 active torsions:
REMARK  status: ('A' for Active; 'I' for Inactive)
REMARK    1  A    between atoms: C_2  and  C_3 
REMARK    2  A    between atoms: N_9  and  C_10 
REMARK    3  A    between atoms: C_10  and  C_11 
REMARK    4  A    between atoms: C_11  and  N_12 
REMARK       I    between atoms: N_12  and  C_13 
REMARK    5  A    between atoms: C_13  and  C_15 
ROOT
HETATM    1  C   UNL     1     -42.404 -53.295  14.198  1.00  0.00     0.143 C 
ENDROOT
BRANCH   1   2
HETATM    2  C   UNL     1     -43.640 -52.719  13.516  1.00  0.00     0.151 C 
BRANCH   2   3
HETATM    3  N   UNL     1     -44.849 -53.462  13.792  1.00  0.00    -0.329 N 
HETATM    4  C   UNL     1     -46.091 -52.984  14.132  1.00  0.00     0.098 A 
HETATM    5  N   UNL     1     -46.912 -54.009  14.256  1.00  0.00    -0.288 N 
HETATM    6  N   UNL     1     -46.212 -55.156  13.974  1.00  0.00    -0.295 N 
ATOM      7  HN  UNL     1     -47.898 -53.957  14.515  1.00  0.00     0.188 HD
HETATM    8  C   UNL     1     -44.986 -54.811  13.684  1.00  0.00     0.201 A 
ATOM      9  HN  UNL     1     -46.583 -56.106  13.990  1.00  0.00     0.187 HD
BRANCH   4  10
HETATM   10  C   UNL     1     -46.446 -51.553  14.331  1.00  0.00     0.073 C 
HETATM   11  C   UNL     1     -47.130 -51.325  15.672  1.00  0.00     0.013 C 
ENDBRANCH   4  10
ENDBRANCH   2   3
ENDBRANCH   1   2
BRANCH   1  12
HETATM   12  N   UNL     1     -41.326 -52.344  14.423  1.00  0.00    -0.359 N 
HETATM   13  C   UNL     1     -40.194 -52.416  13.634  1.00  0.00     0.222 C 
HETATM   14  O   UNL     1     -39.968 -53.394  12.925  1.00  0.00    -0.273 OA
HETATM   15  H   UNL     1     -41.472 -51.519  14.991  1.00  0.00     0.162 HD
BRANCH  13  16
HETATM   16  C   UNL     1     -39.257 -51.208  13.713  1.00  0.00     0.086 C 
HETATM   17  C   UNL     1     -39.986 -49.927  14.232  1.00  0.00     0.023 C 
HETATM   18  C   UNL     1     -40.023 -49.014  12.982  1.00  0.00     0.009 C 
HETATM   19  C   UNL     1     -40.087 -50.020  11.832  1.00  0.00     0.018 C 
HETATM   20  C   UNL     1     -38.616 -48.520  12.760  1.00  0.00    -0.026 C 
HETATM   21  C   UNL     1     -38.823 -50.769  12.288  1.00  0.00     0.021 C 
HETATM   22  C   UNL     1     -37.886 -49.577  12.372  1.00  0.00    -0.025 C 
ENDBRANCH  13  16
ENDBRANCH   1  12
TORSDOF 5
ENDMDL
