MODEL 1
REMARK VINA RESULT:      -5.4      0.000      0.000
REMARK  4 active torsions:
REMARK  status: ('A' for Active; 'I' for Inactive)
REMARK    1  A    between atoms: C_2  and  C_3 
REMARK       I    between atoms: C_2  and  N_6 
REMARK    2  A    between atoms: N_6  and  C_7 
REMARK    3  A    between atoms: C_7  and  C_8 
REMARK    4  A    between atoms: C_8  and  C_14 
ROOT
HETATM    1  C   UNL     1     -38.706 -49.616  11.683  1.00  0.00     0.226 C 
HETATM    2  C   UNL     1     -37.746 -50.663  12.031  1.00  0.00     0.068 C 
HETATM    3  N   UNL     1     -36.966 -51.468  12.335  1.00  0.00    -0.197 NA
ENDROOT
BRANCH   1   4
HETATM    4  C   UNL     1     -40.099 -50.190  11.632  1.00  0.00     0.230 C 
HETATM    5  O   UNL     1     -41.068 -49.497  11.331  1.00  0.00    -0.273 OA
HETATM    6  N   UNL     1     -40.198 -51.534  11.941  1.00  0.00    -0.359 N 
HETATM    7  H   UNL     1     -39.372 -52.066  12.182  1.00  0.00     0.162 HD
BRANCH   6   8
HETATM    8  C   UNL     1     -41.469 -52.251  11.900  1.00  0.00     0.137 C 
BRANCH   8   9
HETATM    9  C   UNL     1     -42.008 -52.658  13.317  1.00  0.00     0.003 C 
HETATM   10  C   UNL     1     -43.138 -53.722  13.170  1.00  0.00     0.016 C 
HETATM   11  C   UNL     1     -44.388 -53.202  12.454  1.00  0.00     0.001 C 
HETATM   12  C   UNL     1     -44.956 -51.961  13.131  1.00  0.00     0.000 C 
HETATM   13  C   UNL     1     -43.900 -50.883  13.334  1.00  0.00     0.001 C 
HETATM   14  C   UNL     1     -42.646 -51.422  14.026  1.00  0.00     0.016 C 
BRANCH   9  15
HETATM   15  C   UNL     1     -40.807 -53.142  14.168  1.00  0.00    -0.045 A 
HETATM   16  C   UNL     1     -40.157 -54.350  13.854  1.00  0.00     0.025 A 
HETATM   17  C   UNL     1     -39.133 -54.815  14.665  1.00  0.00     0.088 A 
HETATM   18  N   UNL     1     -38.695 -54.167  15.759  1.00  0.00    -0.375 N 
HETATM   19  C   UNL     1     -39.296 -52.993  16.039  1.00  0.00     0.088 A 
ATOM     20  HN  UNL     1     -37.949 -54.543  16.345  1.00  0.00     0.164 HD
HETATM   21  C   UNL     1     -40.334 -52.450  15.291  1.00  0.00     0.025 A 
ENDBRANCH   9  15
ENDBRANCH   8   9
ENDBRANCH   6   8
ENDBRANCH   1   4
TORSDOF 4
ENDMDL
MODEL 2
REMARK VINA RESULT:      -5.4      4.516      6.625
REMARK  4 active torsions:
REMARK  status: ('A' for Active; 'I' for Inactive)
REMARK    1  A    between atoms: C_2  and  C_3 
REMARK       I    between atoms: C_2  and  N_6 
REMARK    2  A    between atoms: N_6  and  C_7 
REMARK    3  A    between atoms: C_7  and  C_8 
REMARK    4  A    between atoms: C_8  and  C_14 
ROOT
HETATM    1  C   UNL     1     -44.187 -46.421   8.938  1.00  0.00     0.226 C 
HETATM    2  C   UNL     1     -43.665 -47.455   8.046  1.00  0.00     0.068 C 
HETATM    3  N   UNL     1     -43.275 -48.262   7.308  1.00  0.00    -0.197 NA
ENDROOT
BRANCH   1   4
HETATM    4  C   UNL     1     -43.053 -45.749   9.669  1.00  0.00     0.230 C 
HETATM    5  O   UNL     1     -43.083 -44.549   9.936  1.00  0.00    -0.273 OA
HETATM    6  N   UNL     1     -41.997 -46.573  10.011  1.00  0.00    -0.359 N 
HETATM    7  H   UNL     1     -42.016 -47.556   9.772  1.00  0.00     0.162 HD
BRANCH   6   8
HETATM    8  C   UNL     1     -40.839 -46.087  10.756  1.00  0.00     0.137 C 
BRANCH   8   9
HETATM    9  C   UNL     1     -40.718 -46.693  12.198  1.00  0.00     0.003 C 
HETATM   10  C   UNL     1     -42.020 -46.402  13.007  1.00  0.00     0.016 C 
HETATM   11  C   UNL     1     -42.264 -44.914  13.271  1.00  0.00     0.001 C 
HETATM   12  C   UNL     1     -41.081 -44.260  13.974  1.00  0.00     0.000 C 
HETATM   13  C   UNL     1     -39.766 -44.524  13.255  1.00  0.00     0.001 C 
HETATM   14  C   UNL     1     -39.548 -46.012  12.974  1.00  0.00     0.016 C 
BRANCH   9  15
HETATM   15  C   UNL     1     -40.399 -48.203  12.061  1.00  0.00    -0.045 A 
HETATM   16  C   UNL     1     -39.079 -48.630  11.825  1.00  0.00     0.025 A 
HETATM   17  C   UNL     1     -38.812 -49.977  11.628  1.00  0.00     0.088 A 
HETATM   18  N   UNL     1     -39.754 -50.936  11.658  1.00  0.00    -0.375 N 
HETATM   19  C   UNL     1     -41.013 -50.530  11.919  1.00  0.00     0.088 A 
ATOM     20  HN  UNL     1     -39.529 -51.917  11.494  1.00  0.00     0.164 HD
HETATM   21  C   UNL     1     -41.378 -49.203  12.122  1.00  0.00     0.025 A 
ENDBRANCH   9  15
ENDBRANCH   8   9
ENDBRANCH   6   8
ENDBRANCH   1   4
TORSDOF 4
ENDMDL
MODEL 3
REMARK VINA RESULT:      -5.3      4.136      7.184
REMARK  4 active torsions:
REMARK  status: ('A' for Active; 'I' for Inactive)
REMARK    1  A    between atoms: C_2  and  C_3 
REMARK       I    between atoms: C_2  and  N_6 
REMARK    2  A    between atoms: N_6  and  C_7 
REMARK    3  A    between atoms: C_7  and  C_8 
REMARK    4  A    between atoms: C_8  and  C_14 
ROOT
HETATM    1  C   UNL     1     -42.888 -51.584  13.235  1.00  0.00     0.226 C 
HETATM    2  C   UNL     1     -42.268 -52.905  13.125  1.00  0.00     0.068 C 
HETATM    3  N   UNL     1     -41.811 -53.967  13.021  1.00  0.00    -0.197 NA
ENDROOT
BRANCH   1   4
HETATM    4  C   UNL     1     -41.921 -50.522  12.776  1.00  0.00     0.230 C 
HETATM    5  O   UNL     1     -40.850 -50.338  13.349  1.00  0.00    -0.273 OA
HETATM    6  N   UNL     1     -42.326 -49.787  11.677  1.00  0.00    -0.359 N 
HETATM    7  H   UNL     1     -43.217 -49.975  11.236  1.00  0.00     0.162 HD
BRANCH   6   8
HETATM    8  C   UNL     1     -41.490 -48.748  11.083  1.00  0.00     0.137 C 
BRANCH   8   9
HETATM    9  C   UNL     1     -42.230 -47.377  10.892  1.00  0.00     0.003 C 
HETATM   10  C   UNL     1     -41.197 -46.257  10.560  1.00  0.00     0.016 C 
HETATM   11  C   UNL     1     -40.211 -45.969  11.696  1.00  0.00     0.001 C 
HETATM   12  C   UNL     1     -40.927 -45.620  12.995  1.00  0.00     0.000 C 
HETATM   13  C   UNL     1     -41.974 -46.658  13.372  1.00  0.00     0.001 C 
HETATM   14  C   UNL     1     -42.936 -46.956  12.219  1.00  0.00     0.016 C 
BRANCH   9  15
HETATM   15  C   UNL     1     -43.314 -47.563   9.801  1.00  0.00    -0.045 A 
HETATM   16  C   UNL     1     -44.679 -47.513  10.142  1.00  0.00     0.025 A 
HETATM   17  C   UNL     1     -45.643 -47.756   9.175  1.00  0.00     0.088 A 
HETATM   18  N   UNL     1     -45.357 -48.034   7.890  1.00  0.00    -0.375 N 
HETATM   19  C   UNL     1     -44.050 -48.047   7.558  1.00  0.00     0.088 A 
ATOM     20  HN  UNL     1     -46.088 -48.223   7.205  1.00  0.00     0.164 HD
HETATM   21  C   UNL     1     -43.014 -47.823   8.458  1.00  0.00     0.025 A 
ENDBRANCH   9  15
ENDBRANCH   8   9
ENDBRANCH   6   8
ENDBRANCH   1   4
TORSDOF 4
ENDMDL
MODEL 4
REMARK VINA RESULT:      -5.2      2.313      4.805
REMARK  4 active torsions:
REMARK  status: ('A' for Active; 'I' for Inactive)
REMARK    1  A    between atoms: C_2  and  C_3 
REMARK       I    between atoms: C_2  and  N_6 
REMARK    2  A    between atoms: N_6  and  C_7 
REMARK    3  A    between atoms: C_7  and  C_8 
REMARK    4  A    between atoms: C_8  and  C_14 
ROOT
HETATM    1  C   UNL     1     -40.980 -48.235  11.214  1.00  0.00     0.226 C 
HETATM    2  C   UNL     1     -42.433 -48.096  11.120  1.00  0.00     0.068 C 
HETATM    3  N   UNL     1     -43.581 -47.961  11.014  1.00  0.00    -0.197 NA
ENDROOT
BRANCH   1   4
HETATM    4  C   UNL     1     -40.612 -49.684  11.405  1.00  0.00     0.230 C 
HETATM    5  O   UNL     1     -39.441 -50.059  11.371  1.00  0.00    -0.273 OA
HETATM    6  N   UNL     1     -41.674 -50.542  11.621  1.00  0.00    -0.359 N 
HETATM    7  H   UNL     1     -42.621 -50.189  11.643  1.00  0.00     0.162 HD
BRANCH   6   8
HETATM    8  C   UNL     1     -41.485 -51.970  11.864  1.00  0.00     0.137 C 
BRANCH   8   9
HETATM    9  C   UNL     1     -41.989 -52.440  13.274  1.00  0.00     0.003 C 
HETATM   10  C   UNL     1     -41.239 -51.656  14.395  1.00  0.00     0.016 C 
HETATM   11  C   UNL     1     -39.735 -51.939  14.446  1.00  0.00     0.001 C 
HETATM   12  C   UNL     1     -39.440 -53.426  14.594  1.00  0.00     0.000 C 
HETATM   13  C   UNL     1     -40.163 -54.263  13.547  1.00  0.00     0.001 C 
HETATM   14  C   UNL     1     -41.660 -53.951  13.488  1.00  0.00     0.016 C 
BRANCH   9  15
HETATM   15  C   UNL     1     -43.528 -52.265  13.319  1.00  0.00    -0.045 A 
HETATM   16  C   UNL     1     -44.110 -51.339  14.204  1.00  0.00     0.025 A 
HETATM   17  C   UNL     1     -45.491 -51.241  14.293  1.00  0.00     0.088 A 
HETATM   18  N   UNL     1     -46.340 -51.986  13.562  1.00  0.00    -0.375 N 
HETATM   19  C   UNL     1     -45.780 -52.849  12.690  1.00  0.00     0.088 A 
ATOM     20  HN  UNL     1     -47.351 -51.902  13.661  1.00  0.00     0.164 HD
HETATM   21  C   UNL     1     -44.409 -53.022  12.536  1.00  0.00     0.025 A 
ENDBRANCH   9  15
ENDBRANCH   8   9
ENDBRANCH   6   8
ENDBRANCH   1   4
TORSDOF 4
ENDMDL
MODEL 5
REMARK VINA RESULT:      -5.0      2.965      6.440
REMARK  4 active torsions:
REMARK  status: ('A' for Active; 'I' for Inactive)
REMARK    1  A    between atoms: C_2  and  C_3 
REMARK       I    between atoms: C_2  and  N_6 
REMARK    2  A    between atoms: N_6  and  C_7 
REMARK    3  A    between atoms: C_7  and  C_8 
REMARK    4  A    between atoms: C_8  and  C_14 
ROOT
HETATM    1  C   UNL     1     -43.361 -51.856  13.060  1.00  0.00     0.226 C 
HETATM    2  C   UNL     1     -43.979 -53.129  12.688  1.00  0.00     0.068 C 
HETATM    3  N   UNL     1     -44.504 -54.120  12.389  1.00  0.00    -0.197 NA
ENDROOT
BRANCH   1   4
HETATM    4  C   UNL     1     -42.054 -51.685  12.329  1.00  0.00     0.230 C 
HETATM    5  O   UNL     1     -41.393 -52.653  11.959  1.00  0.00    -0.273 OA
HETATM    6  N   UNL     1     -41.665 -50.377  12.109  1.00  0.00    -0.359 N 
HETATM    7  H   UNL     1     -42.242 -49.610  12.430  1.00  0.00     0.162 HD
BRANCH   6   8
HETATM    8  C   UNL     1     -40.445 -50.038  11.381  1.00  0.00     0.137 C 
BRANCH   8   9
HETATM    9  C   UNL     1     -39.454 -49.138  12.199  1.00  0.00     0.003 C 
HETATM   10  C   UNL     1     -38.028 -49.211  11.571  1.00  0.00     0.016 C 
HETATM   11  C   UNL     1     -37.388 -50.600  11.651  1.00  0.00     0.001 C 
HETATM   12  C   UNL     1     -37.332 -51.119  13.082  1.00  0.00     0.000 C 
HETATM   13  C   UNL     1     -38.687 -51.052  13.772  1.00  0.00     0.001 C 
HETATM   14  C   UNL     1     -39.326 -49.667  13.662  1.00  0.00     0.016 C 
BRANCH   9  15
HETATM   15  C   UNL     1     -40.036 -47.702  12.249  1.00  0.00    -0.045 A 
HETATM   16  C   UNL     1     -40.172 -47.035  13.480  1.00  0.00     0.025 A 
HETATM   17  C   UNL     1     -40.764 -45.781  13.526  1.00  0.00     0.088 A 
HETATM   18  N   UNL     1     -41.221 -45.132  12.440  1.00  0.00    -0.375 N 
HETATM   19  C   UNL     1     -41.058 -45.758  11.257  1.00  0.00     0.088 A 
ATOM     20  HN  UNL     1     -41.665 -44.217  12.508  1.00  0.00     0.164 HD
HETATM   21  C   UNL     1     -40.485 -47.017  11.113  1.00  0.00     0.025 A 
ENDBRANCH   9  15
ENDBRANCH   8   9
ENDBRANCH   6   8
ENDBRANCH   1   4
TORSDOF 4
ENDMDL
MODEL 6
REMARK VINA RESULT:      -5.0      4.669      6.977
REMARK  4 active torsions:
REMARK  status: ('A' for Active; 'I' for Inactive)
REMARK    1  A    between atoms: C_2  and  C_3 
REMARK       I    between atoms: C_2  and  N_6 
REMARK    2  A    between atoms: N_6  and  C_7 
REMARK    3  A    between atoms: C_7  and  C_8 
REMARK    4  A    between atoms: C_8  and  C_14 
ROOT
HETATM    1  C   UNL     1     -43.064 -54.920  16.021  1.00  0.00     0.226 C 
HETATM    2  C   UNL     1     -43.348 -54.460  14.662  1.00  0.00     0.068 C 
HETATM    3  N   UNL     1     -43.567 -54.134  13.570  1.00  0.00    -0.197 NA
ENDROOT
BRANCH   1   4
HETATM    4  C   UNL     1     -44.089 -54.366  16.978  1.00  0.00     0.230 C 
HETATM    5  O   UNL     1     -44.339 -54.923  18.044  1.00  0.00    -0.273 OA
HETATM    6  N   UNL     1     -44.710 -53.200  16.571  1.00  0.00    -0.359 N 
HETATM    7  H   UNL     1     -44.471 -52.775  15.685  1.00  0.00     0.162 HD
BRANCH   6   8
HETATM    8  C   UNL     1     -45.698 -52.513  17.399  1.00  0.00     0.137 C 
BRANCH   8   9
HETATM    9  C   UNL     1     -46.239 -51.185  16.762  1.00  0.00     0.003 C 
HETATM   10  C   UNL     1     -45.735 -49.959  17.583  1.00  0.00     0.016 C 
HETATM   11  C   UNL     1     -46.278 -49.908  19.014  1.00  0.00     0.001 C 
HETATM   12  C   UNL     1     -47.801 -49.940  19.046  1.00  0.00     0.000 C 
HETATM   13  C   UNL     1     -48.369 -51.100  18.239  1.00  0.00     0.001 C 
HETATM   14  C   UNL     1     -47.798 -51.154  16.821  1.00  0.00     0.016 C 
BRANCH   9  15
HETATM   15  C   UNL     1     -45.807 -51.154  15.274  1.00  0.00    -0.045 A 
HETATM   16  C   UNL     1     -46.653 -51.679  14.279  1.00  0.00     0.025 A 
HETATM   17  C   UNL     1     -46.228 -51.717  12.959  1.00  0.00     0.088 A 
HETATM   18  N   UNL     1     -45.030 -51.262  12.548  1.00  0.00    -0.375 N 
HETATM   19  C   UNL     1     -44.236 -50.727  13.497  1.00  0.00     0.088 A 
ATOM     20  HN  UNL     1     -44.740 -51.317  11.572  1.00  0.00     0.164 HD
HETATM   21  C   UNL     1     -44.571 -50.653  14.844  1.00  0.00     0.025 A 
ENDBRANCH   9  15
ENDBRANCH   8   9
ENDBRANCH   6   8
ENDBRANCH   1   4
TORSDOF 4
ENDMDL
MODEL 7
REMARK VINA RESULT:      -5.0      3.251      5.269
REMARK  4 active torsions:
REMARK  status: ('A' for Active; 'I' for Inactive)
REMARK    1  A    between atoms: C_2  and  C_3 
REMARK       I    between atoms: C_2  and  N_6 
REMARK    2  A    between atoms: N_6  and  C_7 
REMARK    3  A    between atoms: C_7  and  C_8 
REMARK    4  A    between atoms: C_8  and  C_14 
ROOT
HETATM    1  C   UNL     1     -43.073 -47.665   9.601  1.00  0.00     0.226 C 
HETATM    2  C   UNL     1     -43.404 -46.290   9.229  1.00  0.00     0.068 C 
HETATM    3  N   UNL     1     -43.705 -45.205   8.949  1.00  0.00    -0.197 NA
ENDROOT
BRANCH   1   4
HETATM    4  C   UNL     1     -41.737 -47.703  10.298  1.00  0.00     0.230 C 
HETATM    5  O   UNL     1     -41.121 -46.673  10.563  1.00  0.00    -0.273 OA
HETATM    6  N   UNL     1     -41.268 -48.965  10.613  1.00  0.00    -0.359 N 
HETATM    7  H   UNL     1     -41.810 -49.786  10.376  1.00  0.00     0.162 HD
BRANCH   6   8
HETATM    8  C   UNL     1     -40.010 -49.174  11.324  1.00  0.00     0.137 C 
BRANCH   8   9
HETATM    9  C   UNL     1     -40.196 -49.666  12.802  1.00  0.00     0.003 C 
HETATM   10  C   UNL     1     -40.865 -48.544  13.655  1.00  0.00     0.016 C 
HETATM   11  C   UNL     1     -40.002 -47.288  13.808  1.00  0.00     0.001 C 
HETATM   12  C   UNL     1     -38.631 -47.608  14.390  1.00  0.00     0.000 C 
HETATM   13  C   UNL     1     -37.926 -48.718  13.623  1.00  0.00     0.001 C 
HETATM   14  C   UNL     1     -38.808 -49.957  13.454  1.00  0.00     0.016 C 
BRANCH   9  15
HETATM   15  C   UNL     1     -41.007 -50.987  12.772  1.00  0.00    -0.045 A 
HETATM   16  C   UNL     1     -40.352 -52.215  12.564  1.00  0.00     0.025 A 
HETATM   17  C   UNL     1     -41.091 -53.385  12.462  1.00  0.00     0.088 A 
HETATM   18  N   UNL     1     -42.432 -53.430  12.563  1.00  0.00    -0.375 N 
HETATM   19  C   UNL     1     -43.054 -52.258  12.797  1.00  0.00     0.088 A 
ATOM     20  HN  UNL     1     -42.949 -54.304  12.468  1.00  0.00     0.164 HD
HETATM   21  C   UNL     1     -42.400 -51.036  12.906  1.00  0.00     0.025 A 
ENDBRANCH   9  15
ENDBRANCH   8   9
ENDBRANCH   6   8
ENDBRANCH   1   4
TORSDOF 4
ENDMDL
MODEL 8
REMARK VINA RESULT:      -5.0      2.475      5.475
REMARK  4 active torsions:
REMARK  status: ('A' for Active; 'I' for Inactive)
REMARK    1  A    between atoms: C_2  and  C_3 
REMARK       I    between atoms: C_2  and  N_6 
REMARK    2  A    between atoms: N_6  and  C_7 
REMARK    3  A    between atoms: C_7  and  C_8 
REMARK    4  A    between atoms: C_8  and  C_14 
ROOT
HETATM    1  C   UNL     1     -45.484 -51.539  13.815  1.00  0.00     0.226 C 
HETATM    2  C   UNL     1     -45.286 -52.774  13.058  1.00  0.00     0.068 C 
HETATM    3  N   UNL     1     -45.153 -53.740  12.427  1.00  0.00    -0.197 NA
ENDROOT
BRANCH   1   4
HETATM    4  C   UNL     1     -44.168 -51.059  14.372  1.00  0.00     0.230 C 
HETATM    5  O   UNL     1     -44.109 -50.118  15.160  1.00  0.00    -0.273 OA
HETATM    6  N   UNL     1     -43.053 -51.750  13.937  1.00  0.00    -0.359 N 
HETATM    7  H   UNL     1     -43.149 -52.520  13.288  1.00  0.00     0.162 HD
BRANCH   6   8
HETATM    8  C   UNL     1     -41.707 -51.437  14.411  1.00  0.00     0.137 C 
BRANCH   8   9
HETATM    9  C   UNL     1     -40.597 -51.611  13.315  1.00  0.00     0.003 C 
HETATM   10  C   UNL     1     -40.959 -52.803  12.377  1.00  0.00     0.016 C 
HETATM   11  C   UNL     1     -40.972 -54.162  13.082  1.00  0.00     0.001 C 
HETATM   12  C   UNL     1     -39.647 -54.455  13.776  1.00  0.00     0.000 C 
HETATM   13  C   UNL     1     -39.213 -53.319  14.691  1.00  0.00     0.001 C 
HETATM   14  C   UNL     1     -39.231 -51.964  13.981  1.00  0.00     0.016 C 
BRANCH   9  15
HETATM   15  C   UNL     1     -40.442 -50.261  12.569  1.00  0.00    -0.045 A 
HETATM   16  C   UNL     1     -41.429 -49.835  11.661  1.00  0.00     0.025 A 
HETATM   17  C   UNL     1     -41.247 -48.664  10.941  1.00  0.00     0.088 A 
HETATM   18  N   UNL     1     -40.165 -47.874  11.062  1.00  0.00    -0.375 N 
HETATM   19  C   UNL     1     -39.236 -48.266  11.957  1.00  0.00     0.088 A 
ATOM     20  HN  UNL     1     -40.053 -47.026  10.507  1.00  0.00     0.164 HD
HETATM   21  C   UNL     1     -39.327 -49.426  12.718  1.00  0.00     0.025 A 
ENDBRANCH   9  15
ENDBRANCH   8   9
ENDBRANCH   6   8
ENDBRANCH   1   4
TORSDOF 4
ENDMDL
MODEL 9
REMARK VINA RESULT:      -5.0      2.211      3.136
REMARK  4 active torsions:
REMARK  status: ('A' for Active; 'I' for Inactive)
REMARK    1  A    between atoms: C_2  and  C_3 
REMARK       I    between atoms: C_2  and  N_6 
REMARK    2  A    between atoms: N_6  and  C_7 
REMARK    3  A    between atoms: C_7  and  C_8 
REMARK    4  A    between atoms: C_8  and  C_14 
ROOT
HETATM    1  C   UNL     1     -41.219 -49.039  11.113  1.00  0.00     0.226 C 
HETATM    2  C   UNL     1     -40.787 -47.649  10.966  1.00  0.00     0.068 C 
HETATM    3  N   UNL     1     -40.463 -46.545  10.814  1.00  0.00    -0.197 NA
ENDROOT
BRANCH   1   4
HETATM    4  C   UNL     1     -41.744 -49.271  12.507  1.00  0.00     0.230 C 
HETATM    5  O   UNL     1     -41.114 -48.908  13.498  1.00  0.00    -0.273 OA
HETATM    6  N   UNL     1     -42.967 -49.910  12.581  1.00  0.00    -0.359 N 
HETATM    7  H   UNL     1     -43.451 -50.190  11.738  1.00  0.00     0.162 HD
BRANCH   6   8
HETATM    8  C   UNL     1     -43.632 -50.175  13.854  1.00  0.00     0.137 C 
BRANCH   8   9
HETATM    9  C   UNL     1     -43.966 -51.691  14.086  1.00  0.00     0.003 C 
HETATM   10  C   UNL     1     -45.046 -52.159  13.063  1.00  0.00     0.016 C 
HETATM   11  C   UNL     1     -46.402 -51.470  13.238  1.00  0.00     0.001 C 
HETATM   12  C   UNL     1     -46.947 -51.636  14.651  1.00  0.00     0.000 C 
HETATM   13  C   UNL     1     -45.934 -51.222  15.710  1.00  0.00     0.001 C 
HETATM   14  C   UNL     1     -44.576 -51.898  15.508  1.00  0.00     0.016 C 
BRANCH   9  15
HETATM   15  C   UNL     1     -42.643 -52.494  14.002  1.00  0.00    -0.045 A 
HETATM   16  C   UNL     1     -41.579 -52.199  14.874  1.00  0.00     0.025 A 
HETATM   17  C   UNL     1     -40.371 -52.869  14.743  1.00  0.00     0.088 A 
HETATM   18  N   UNL     1     -40.142 -53.820  13.819  1.00  0.00    -0.375 N 
HETATM   19  C   UNL     1     -41.175 -54.125  13.007  1.00  0.00     0.088 A 
ATOM     20  HN  UNL     1     -39.238 -54.284  13.737  1.00  0.00     0.164 HD
HETATM   21  C   UNL     1     -42.417 -53.503  13.058  1.00  0.00     0.025 A 
ENDBRANCH   9  15
ENDBRANCH   8   9
ENDBRANCH   6   8
ENDBRANCH   1   4
TORSDOF 4
ENDMDL
