MODEL 1
REMARK VINA RESULT:      -6.2      0.000      0.000
REMARK  4 active torsions:
REMARK  status: ('A' for Active; 'I' for Inactive)
REMARK    1  A    between atoms: C_5  and  C_9 
REMARK       I    between atoms: C_9  and  N_11 
REMARK    2  A    between atoms: N_11  and  C_12 
REMARK    3  A    between atoms: C_12  and  C_13 
REMARK    4  A    between atoms: C_13  and  C_14 
ROOT
HETATM    1  C   UNL     1     -43.387 -53.547  12.956  1.00  0.00     0.222 C 
HETATM    2  O   UNL     1     -42.785 -53.932  13.953  1.00  0.00    -0.273 OA
HETATM    3  N   UNL     1     -42.806 -52.715  12.017  1.00  0.00    -0.360 N 
HETATM    4  H   UNL     1     -43.229 -52.667  11.099  1.00  0.00     0.162 HD
ENDROOT
BRANCH   3   5
HETATM    5  C   UNL     1     -41.405 -52.362  12.163  1.00  0.00     0.127 C 
BRANCH   5   6
HETATM    6  C   UNL     1     -41.198 -51.044  12.905  1.00  0.00     0.059 C 
BRANCH   6   7
HETATM    7  C   UNL     1     -41.646 -49.875  12.070  1.00  0.00    -0.041 A 
HETATM    8  C   UNL     1     -42.798 -49.151  12.391  1.00  0.00     0.010 A 
HETATM    9  C   UNL     1     -43.206 -48.103  11.569  1.00  0.00     0.018 A 
HETATM   10  C   UNL     1     -42.444 -47.813  10.450  1.00  0.00     0.087 A 
HETATM   11  N   UNL     1     -41.327 -48.490  10.107  1.00  0.00    -0.375 N 
HETATM   12  C   UNL     1     -40.957 -49.505  10.920  1.00  0.00     0.094 A 
ATOM     13  HN  UNL     1     -40.789 -48.246   9.275  1.00  0.00     0.164 HD
ENDBRANCH   6   7
ENDBRANCH   5   6
ENDBRANCH   3   5
BRANCH   1  14
HETATM   14  C   UNL     1     -44.832 -53.920  12.662  1.00  0.00     0.088 C 
HETATM   15  C   UNL     1     -45.694 -52.684  12.422  1.00  0.00     0.034 C 
HETATM   16  C   UNL     1     -45.869 -51.913  13.719  1.00  0.00     0.126 C 
HETATM   17  N   UNL     1     -46.437 -52.752  14.758  1.00  0.00    -0.356 N 
HETATM   18  C   UNL     1     -47.100 -52.097  15.870  1.00  0.00     0.152 C 
HETATM   19  C   UNL     1     -45.883 -54.006  15.008  1.00  0.00     0.220 C 
HETATM   20  C   UNL     1     -45.415 -54.775  13.784  1.00  0.00     0.117 C 
HETATM   21  O   UNL     1     -45.924 -54.546  16.113  1.00  0.00    -0.273 OA
ENDBRANCH   1  14
TORSDOF 4
ENDMDL
MODEL 2
REMARK VINA RESULT:      -6.0      1.644      2.405
REMARK  4 active torsions:
REMARK  status: ('A' for Active; 'I' for Inactive)
REMARK    1  A    between atoms: C_5  and  C_9 
REMARK       I    between atoms: C_9  and  N_11 
REMARK    2  A    between atoms: N_11  and  C_12 
REMARK    3  A    between atoms: C_12  and  C_13 
REMARK    4  A    between atoms: C_13  and  C_14 
ROOT
HETATM    1  C   UNL     1     -43.688 -53.693  13.028  1.00  0.00     0.222 C 
HETATM    2  O   UNL     1     -43.020 -54.198  13.925  1.00  0.00    -0.273 OA
HETATM    3  N   UNL     1     -43.139 -52.843  12.086  1.00  0.00    -0.360 N 
HETATM    4  H   UNL     1     -43.650 -52.694  11.226  1.00  0.00     0.162 HD
ENDROOT
BRANCH   3   5
HETATM    5  C   UNL     1     -41.705 -52.616  12.098  1.00  0.00     0.127 C 
BRANCH   5   6
HETATM    6  C   UNL     1     -41.317 -51.302  12.773  1.00  0.00     0.059 C 
BRANCH   6   7
HETATM    7  C   UNL     1     -39.933 -50.872  12.369  1.00  0.00    -0.041 A 
HETATM    8  C   UNL     1     -38.809 -51.248  13.111  1.00  0.00     0.010 A 
HETATM    9  C   UNL     1     -37.549 -50.794  12.732  1.00  0.00     0.018 A 
HETATM   10  C   UNL     1     -37.454 -49.976  11.618  1.00  0.00     0.087 A 
HETATM   11  N   UNL     1     -38.515 -49.591  10.878  1.00  0.00    -0.375 N 
HETATM   12  C   UNL     1     -39.728 -50.043  11.271  1.00  0.00     0.094 A 
ATOM     13  HN  UNL     1     -38.407 -48.989  10.062  1.00  0.00     0.164 HD
ENDBRANCH   6   7
ENDBRANCH   5   6
ENDBRANCH   3   5
BRANCH   1  14
HETATM   14  C   UNL     1     -45.183 -53.927  12.872  1.00  0.00     0.088 C 
HETATM   15  C   UNL     1     -45.948 -52.613  12.751  1.00  0.00     0.034 C 
HETATM   16  C   UNL     1     -45.922 -51.872  14.078  1.00  0.00     0.126 C 
HETATM   17  N   UNL     1     -46.461 -52.693  15.148  1.00  0.00    -0.356 N 
HETATM   18  C   UNL     1     -46.947 -52.019  16.337  1.00  0.00     0.152 C 
HETATM   19  C   UNL     1     -46.001 -53.999  15.309  1.00  0.00     0.220 C 
HETATM   20  C   UNL     1     -45.729 -54.764  14.027  1.00  0.00     0.117 C 
HETATM   21  O   UNL     1     -45.983 -54.569  16.399  1.00  0.00    -0.273 OA
ENDBRANCH   1  14
TORSDOF 4
ENDMDL
MODEL 3
REMARK VINA RESULT:      -5.8      1.672      2.353
REMARK  4 active torsions:
REMARK  status: ('A' for Active; 'I' for Inactive)
REMARK    1  A    between atoms: C_5  and  C_9 
REMARK       I    between atoms: C_9  and  N_11 
REMARK    2  A    between atoms: N_11  and  C_12 
REMARK    3  A    between atoms: C_12  and  C_13 
REMARK    4  A    between atoms: C_13  and  C_14 
ROOT
HETATM    1  C   UNL     1     -44.020 -51.617  12.930  1.00  0.00     0.222 C 
HETATM    2  O   UNL     1     -42.966 -52.233  13.053  1.00  0.00    -0.273 OA
HETATM    3  N   UNL     1     -44.061 -50.242  12.795  1.00  0.00    -0.360 N 
HETATM    4  H   UNL     1     -44.901 -49.827  12.414  1.00  0.00     0.162 HD
ENDROOT
BRANCH   3   5
HETATM    5  C   UNL     1     -42.811 -49.509  12.698  1.00  0.00     0.127 C 
BRANCH   5   6
HETATM    6  C   UNL     1     -43.011 -48.036  12.348  1.00  0.00     0.059 C 
BRANCH   6   7
HETATM    7  C   UNL     1     -43.301 -47.860  10.882  1.00  0.00    -0.041 A 
HETATM    8  C   UNL     1     -44.588 -47.559  10.426  1.00  0.00     0.010 A 
HETATM    9  C   UNL     1     -44.826 -47.448   9.060  1.00  0.00     0.018 A 
HETATM   10  C   UNL     1     -43.766 -47.641   8.190  1.00  0.00     0.087 A 
HETATM   11  N   UNL     1     -42.511 -47.934   8.592  1.00  0.00    -0.375 N 
HETATM   12  C   UNL     1     -42.308 -48.041   9.925  1.00  0.00     0.094 A 
ATOM     13  HN  UNL     1     -41.753 -48.068   7.923  1.00  0.00     0.164 HD
ENDBRANCH   6   7
ENDBRANCH   5   6
ENDBRANCH   3   5
BRANCH   1  14
HETATM   14  C   UNL     1     -45.383 -52.292  12.937  1.00  0.00     0.088 C 
HETATM   15  C   UNL     1     -46.325 -51.645  13.948  1.00  0.00     0.034 C 
HETATM   16  C   UNL     1     -45.859 -51.952  15.362  1.00  0.00     0.126 C 
HETATM   17  N   UNL     1     -45.759 -53.383  15.583  1.00  0.00    -0.356 N 
HETATM   18  C   UNL     1     -45.798 -53.860  16.953  1.00  0.00     0.152 C 
HETATM   19  C   UNL     1     -45.074 -54.174  14.662  1.00  0.00     0.220 C 
HETATM   20  C   UNL     1     -45.251 -53.789  13.204  1.00  0.00     0.117 C 
HETATM   21  O   UNL     1     -44.507 -55.221  14.973  1.00  0.00    -0.273 OA
ENDBRANCH   1  14
TORSDOF 4
ENDMDL
MODEL 4
REMARK VINA RESULT:      -5.4      2.831      4.554
REMARK  4 active torsions:
REMARK  status: ('A' for Active; 'I' for Inactive)
REMARK    1  A    between atoms: C_5  and  C_9 
REMARK       I    between atoms: C_9  and  N_11 
REMARK    2  A    between atoms: N_11  and  C_12 
REMARK    3  A    between atoms: C_12  and  C_13 
REMARK    4  A    between atoms: C_13  and  C_14 
ROOT
HETATM    1  C   UNL     1     -42.819 -52.541  13.494  1.00  0.00     0.222 C 
HETATM    2  O   UNL     1     -43.604 -52.076  14.314  1.00  0.00    -0.273 OA
HETATM    3  N   UNL     1     -42.128 -51.744  12.599  1.00  0.00    -0.360 N 
HETATM    4  H   UNL     1     -41.303 -52.130  12.160  1.00  0.00     0.162 HD
ENDROOT
BRANCH   3   5
HETATM    5  C   UNL     1     -42.262 -50.302  12.695  1.00  0.00     0.127 C 
BRANCH   5   6
HETATM    6  C   UNL     1     -41.109 -49.647  13.453  1.00  0.00     0.059 C 
BRANCH   6   7
HETATM    7  C   UNL     1     -39.791 -49.928  12.784  1.00  0.00    -0.041 A 
HETATM    8  C   UNL     1     -38.716 -50.473  13.494  1.00  0.00     0.010 A 
HETATM    9  C   UNL     1     -37.499 -50.679  12.852  1.00  0.00     0.018 A 
HETATM   10  C   UNL     1     -37.394 -50.332  11.515  1.00  0.00     0.087 A 
HETATM   11  N   UNL     1     -38.408 -49.804  10.797  1.00  0.00    -0.375 N 
HETATM   12  C   UNL     1     -39.579 -49.611  11.446  1.00  0.00     0.094 A 
ATOM     13  HN  UNL     1     -38.296 -49.563   9.812  1.00  0.00     0.164 HD
ENDBRANCH   6   7
ENDBRANCH   5   6
ENDBRANCH   3   5
BRANCH   1  14
HETATM   14  C   UNL     1     -42.540 -54.029  13.360  1.00  0.00     0.088 C 
HETATM   15  C   UNL     1     -42.805 -54.772  14.666  1.00  0.00     0.034 C 
HETATM   16  C   UNL     1     -41.761 -54.389  15.702  1.00  0.00     0.126 C 
HETATM   17  N   UNL     1     -40.418 -54.651  15.216  1.00  0.00    -0.356 N 
HETATM   18  C   UNL     1     -39.360 -54.800  16.198  1.00  0.00     0.152 C 
HETATM   19  C   UNL     1     -40.043 -54.194  13.954  1.00  0.00     0.220 C 
HETATM   20  C   UNL     1     -41.112 -54.277  12.879  1.00  0.00     0.117 C 
HETATM   21  O   UNL     1     -38.882 -53.907  13.666  1.00  0.00    -0.273 OA
ENDBRANCH   1  14
TORSDOF 4
ENDMDL
MODEL 5
REMARK VINA RESULT:      -5.4      2.438      4.295
REMARK  4 active torsions:
REMARK  status: ('A' for Active; 'I' for Inactive)
REMARK    1  A    between atoms: C_5  and  C_9 
REMARK       I    between atoms: C_9  and  N_11 
REMARK    2  A    between atoms: N_11  and  C_12 
REMARK    3  A    between atoms: C_12  and  C_13 
REMARK    4  A    between atoms: C_13  and  C_14 
ROOT
HETATM    1  C   UNL     1     -44.219 -51.358  13.217  1.00  0.00     0.222 C 
HETATM    2  O   UNL     1     -43.861 -50.315  13.754  1.00  0.00    -0.273 OA
HETATM    3  N   UNL     1     -43.345 -52.161  12.506  1.00  0.00    -0.360 N 
HETATM    4  H   UNL     1     -43.612 -53.122  12.339  1.00  0.00     0.162 HD
ENDROOT
BRANCH   3   5
HETATM    5  C   UNL     1     -41.936 -51.809  12.475  1.00  0.00     0.127 C 
BRANCH   5   6
HETATM    6  C   UNL     1     -41.029 -53.010  12.220  1.00  0.00     0.059 C 
BRANCH   6   7
HETATM    7  C   UNL     1     -40.690 -53.716  13.505  1.00  0.00    -0.041 A 
HETATM    8  C   UNL     1     -41.688 -54.255  14.323  1.00  0.00     0.010 A 
HETATM    9  C   UNL     1     -41.340 -54.863  15.526  1.00  0.00     0.018 A 
HETATM   10  C   UNL     1     -40.000 -54.912  15.873  1.00  0.00     0.087 A 
HETATM   11  N   UNL     1     -39.009 -54.402  15.110  1.00  0.00    -0.375 N 
HETATM   12  C   UNL     1     -39.376 -53.814  13.949  1.00  0.00     0.094 A 
ATOM     13  HN  UNL     1     -38.032 -54.458  15.397  1.00  0.00     0.164 HD
ENDBRANCH   6   7
ENDBRANCH   5   6
ENDBRANCH   3   5
BRANCH   1  14
HETATM   14  C   UNL     1     -45.652 -51.865  13.254  1.00  0.00     0.088 C 
HETATM   15  C   UNL     1     -46.415 -51.304  14.450  1.00  0.00     0.034 C 
HETATM   16  C   UNL     1     -45.877 -51.906  15.738  1.00  0.00     0.126 C 
HETATM   17  N   UNL     1     -45.944 -53.356  15.709  1.00  0.00    -0.356 N 
HETATM   18  C   UNL     1     -45.931 -54.059  16.978  1.00  0.00     0.152 C 
HETATM   19  C   UNL     1     -45.446 -54.044  14.604  1.00  0.00     0.220 C 
HETATM   20  C   UNL     1     -45.693 -53.391  13.256  1.00  0.00     0.117 C 
HETATM   21  O   UNL     1     -44.996 -55.187  14.678  1.00  0.00    -0.273 OA
ENDBRANCH   1  14
TORSDOF 4
ENDMDL
MODEL 6
REMARK VINA RESULT:      -5.3      3.396      7.068
REMARK  4 active torsions:
REMARK  status: ('A' for Active; 'I' for Inactive)
REMARK    1  A    between atoms: C_5  and  C_9 
REMARK       I    between atoms: C_9  and  N_11 
REMARK    2  A    between atoms: N_11  and  C_12 
REMARK    3  A    between atoms: C_12  and  C_13 
REMARK    4  A    between atoms: C_13  and  C_14 
ROOT
HETATM    1  C   UNL     1     -39.995 -51.237  13.072  1.00  0.00     0.222 C 
HETATM    2  O   UNL     1     -41.048 -50.644  13.285  1.00  0.00    -0.273 OA
HETATM    3  N   UNL     1     -39.741 -52.499  13.580  1.00  0.00    -0.360 N 
HETATM    4  H   UNL     1     -39.009 -53.045  13.148  1.00  0.00     0.162 HD
ENDROOT
BRANCH   3   5
HETATM    5  C   UNL     1     -40.792 -53.186  14.310  1.00  0.00     0.127 C 
BRANCH   5   6
HETATM    6  C   UNL     1     -41.508 -54.240  13.469  1.00  0.00     0.059 C 
BRANCH   6   7
HETATM    7  C   UNL     1     -42.983 -53.957  13.384  1.00  0.00    -0.041 A 
HETATM    8  C   UNL     1     -43.899 -54.620  14.207  1.00  0.00     0.010 A 
HETATM    9  C   UNL     1     -45.261 -54.364  14.069  1.00  0.00     0.018 A 
HETATM   10  C   UNL     1     -45.663 -53.450  13.110  1.00  0.00     0.087 A 
HETATM   11  N   UNL     1     -44.809 -52.792  12.297  1.00  0.00    -0.375 N 
HETATM   12  C   UNL     1     -43.493 -53.062  12.449  1.00  0.00     0.094 A 
ATOM     13  HN  UNL     1     -45.142 -52.123  11.602  1.00  0.00     0.164 HD
ENDBRANCH   6   7
ENDBRANCH   5   6
ENDBRANCH   3   5
BRANCH   1  14
HETATM   14  C   UNL     1     -38.858 -50.646  12.254  1.00  0.00     0.088 C 
HETATM   15  C   UNL     1     -37.506 -50.875  12.923  1.00  0.00     0.034 C 
HETATM   16  C   UNL     1     -37.402 -50.036  14.186  1.00  0.00     0.126 C 
HETATM   17  N   UNL     1     -37.611 -48.628  13.900  1.00  0.00    -0.356 N 
HETATM   18  C   UNL     1     -37.093 -47.661  14.850  1.00  0.00     0.152 C 
HETATM   19  C   UNL     1     -38.715 -48.237  13.144  1.00  0.00     0.220 C 
HETATM   20  C   UNL     1     -39.086 -49.158  11.996  1.00  0.00     0.117 C 
HETATM   21  O   UNL     1     -39.253 -47.138  13.270  1.00  0.00    -0.273 OA
ENDBRANCH   1  14
TORSDOF 4
ENDMDL
MODEL 7
REMARK VINA RESULT:      -5.3      2.108      3.110
REMARK  4 active torsions:
REMARK  status: ('A' for Active; 'I' for Inactive)
REMARK    1  A    between atoms: C_5  and  C_9 
REMARK       I    between atoms: C_9  and  N_11 
REMARK    2  A    between atoms: N_11  and  C_12 
REMARK    3  A    between atoms: C_12  and  C_13 
REMARK    4  A    between atoms: C_13  and  C_14 
ROOT
HETATM    1  C   UNL     1     -44.440 -51.524  13.403  1.00  0.00     0.222 C 
HETATM    2  O   UNL     1     -44.079 -52.588  12.912  1.00  0.00    -0.273 OA
HETATM    3  N   UNL     1     -43.639 -50.396  13.393  1.00  0.00    -0.360 N 
HETATM    4  H   UNL     1     -44.082 -49.499  13.541  1.00  0.00     0.162 HD
ENDROOT
BRANCH   3   5
HETATM    5  C   UNL     1     -42.368 -50.444  12.693  1.00  0.00     0.127 C 
BRANCH   5   6
HETATM    6  C   UNL     1     -41.179 -50.630  13.632  1.00  0.00     0.059 C 
BRANCH   6   7
HETATM    7  C   UNL     1     -39.877 -50.548  12.882  1.00  0.00    -0.041 A 
HETATM    8  C   UNL     1     -38.677 -50.977  13.459  1.00  0.00     0.010 A 
HETATM    9  C   UNL     1     -37.486 -50.845  12.751  1.00  0.00     0.018 A 
HETATM   10  C   UNL     1     -37.534 -50.287  11.484  1.00  0.00     0.087 A 
HETATM   11  N   UNL     1     -38.671 -49.861  10.895  1.00  0.00    -0.375 N 
HETATM   12  C   UNL     1     -39.813 -49.997  11.607  1.00  0.00     0.094 A 
ATOM     13  HN  UNL     1     -38.669 -49.457   9.959  1.00  0.00     0.164 HD
ENDBRANCH   6   7
ENDBRANCH   5   6
ENDBRANCH   3   5
BRANCH   1  14
HETATM   14  C   UNL     1     -45.783 -51.338  14.091  1.00  0.00     0.088 C 
HETATM   15  C   UNL     1     -45.617 -50.863  15.531  1.00  0.00     0.034 C 
HETATM   16  C   UNL     1     -45.026 -51.977  16.380  1.00  0.00     0.126 C 
HETATM   17  N   UNL     1     -45.842 -53.176  16.316  1.00  0.00    -0.356 N 
HETATM   18  C   UNL     1     -45.711 -54.141  17.392  1.00  0.00     0.152 C 
HETATM   19  C   UNL     1     -46.242 -53.669  15.075  1.00  0.00     0.220 C 
HETATM   20  C   UNL     1     -46.607 -52.622  14.038  1.00  0.00     0.117 C 
HETATM   21  O   UNL     1     -46.464 -54.862  14.871  1.00  0.00    -0.273 OA
ENDBRANCH   1  14
TORSDOF 4
ENDMDL
MODEL 8
REMARK VINA RESULT:      -5.3      2.752      6.195
REMARK  4 active torsions:
REMARK  status: ('A' for Active; 'I' for Inactive)
REMARK    1  A    between atoms: C_5  and  C_9 
REMARK       I    between atoms: C_9  and  N_11 
REMARK    2  A    between atoms: N_11  and  C_12 
REMARK    3  A    between atoms: C_12  and  C_13 
REMARK    4  A    between atoms: C_13  and  C_14 
ROOT
HETATM    1  C   UNL     1     -42.652 -52.280  12.570  1.00  0.00     0.222 C 
HETATM    2  O   UNL     1     -42.947 -51.303  13.251  1.00  0.00    -0.273 OA
HETATM    3  N   UNL     1     -43.596 -53.197  12.144  1.00  0.00    -0.360 N 
HETATM    4  H   UNL     1     -43.356 -53.799  11.368  1.00  0.00     0.162 HD
ENDROOT
BRANCH   3   5
HETATM    5  C   UNL     1     -44.997 -52.945  12.430  1.00  0.00     0.127 C 
BRANCH   5   6
HETATM    6  C   UNL     1     -45.576 -53.912  13.460  1.00  0.00     0.059 C 
BRANCH   6   7
HETATM    7  C   UNL     1     -46.068 -53.177  14.678  1.00  0.00    -0.041 A 
HETATM    8  C   UNL     1     -46.700 -51.934  14.571  1.00  0.00     0.010 A 
HETATM    9  C   UNL     1     -47.102 -51.264  15.723  1.00  0.00     0.018 A 
HETATM   10  C   UNL     1     -46.859 -51.861  16.948  1.00  0.00     0.087 A 
HETATM   11  N   UNL     1     -46.252 -53.058  17.091  1.00  0.00    -0.375 N 
HETATM   12  C   UNL     1     -45.868 -53.686  15.957  1.00  0.00     0.094 A 
ATOM     13  HN  UNL     1     -46.091 -53.470  18.011  1.00  0.00     0.164 HD
ENDBRANCH   6   7
ENDBRANCH   5   6
ENDBRANCH   3   5
BRANCH   1  14
HETATM   14  C   UNL     1     -41.227 -52.597  12.144  1.00  0.00     0.088 C 
HETATM   15  C   UNL     1     -40.738 -53.909  12.751  1.00  0.00     0.034 C 
HETATM   16  C   UNL     1     -40.548 -53.749  14.250  1.00  0.00     0.126 C 
HETATM   17  N   UNL     1     -39.634 -52.661  14.551  1.00  0.00    -0.356 N 
HETATM   18  C   UNL     1     -38.979 -52.668  15.846  1.00  0.00     0.152 C 
HETATM   19  C   UNL     1     -39.823 -51.419  13.949  1.00  0.00     0.220 C 
HETATM   20  C   UNL     1     -40.282 -51.452  12.502  1.00  0.00     0.117 C 
HETATM   21  O   UNL     1     -39.475 -50.363  14.475  1.00  0.00    -0.273 OA
ENDBRANCH   1  14
TORSDOF 4
ENDMDL
MODEL 9
REMARK VINA RESULT:      -5.2      2.282      4.176
REMARK  4 active torsions:
REMARK  status: ('A' for Active; 'I' for Inactive)
REMARK    1  A    between atoms: C_5  and  C_9 
REMARK       I    between atoms: C_9  and  N_11 
REMARK    2  A    between atoms: N_11  and  C_12 
REMARK    3  A    between atoms: C_12  and  C_13 
REMARK    4  A    between atoms: C_13  and  C_14 
ROOT
HETATM    1  C   UNL     1     -43.530 -50.555  14.288  1.00  0.00     0.222 C 
HETATM    2  O   UNL     1     -42.624 -50.414  15.103  1.00  0.00    -0.273 OA
HETATM    3  N   UNL     1     -43.320 -50.451  12.925  1.00  0.00    -0.360 N 
HETATM    4  H   UNL     1     -44.012 -50.853  12.307  1.00  0.00     0.162 HD
ENDROOT
BRANCH   3   5
HETATM    5  C   UNL     1     -41.966 -50.264  12.435  1.00  0.00     0.127 C 
BRANCH   5   6
HETATM    6  C   UNL     1     -41.380 -51.528  11.810  1.00  0.00     0.059 C 
BRANCH   6   7
HETATM    7  C   UNL     1     -40.940 -52.503  12.868  1.00  0.00    -0.041 A 
HETATM    8  C   UNL     1     -41.704 -53.633  13.179  1.00  0.00     0.010 A 
HETATM    9  C   UNL     1     -41.287 -54.488  14.194  1.00  0.00     0.018 A 
HETATM   10  C   UNL     1     -40.116 -54.186  14.869  1.00  0.00     0.087 A 
HETATM   11  N   UNL     1     -39.354 -53.105  14.598  1.00  0.00    -0.375 N 
HETATM   12  C   UNL     1     -39.784 -52.288  13.610  1.00  0.00     0.094 A 
ATOM     13  HN  UNL     1     -38.495 -52.915  15.114  1.00  0.00     0.164 HD
ENDBRANCH   6   7
ENDBRANCH   5   6
ENDBRANCH   3   5
BRANCH   1  14
HETATM   14  C   UNL     1     -44.970 -50.835  14.686  1.00  0.00     0.088 C 
HETATM   15  C   UNL     1     -45.053 -51.845  15.826  1.00  0.00     0.034 C 
HETATM   16  C   UNL     1     -44.632 -53.220  15.334  1.00  0.00     0.126 C 
HETATM   17  N   UNL     1     -45.438 -53.642  14.203  1.00  0.00    -0.356 N 
HETATM   18  C   UNL     1     -45.509 -55.063  13.916  1.00  0.00     0.152 C 
HETATM   19  C   UNL     1     -45.621 -52.775  13.128  1.00  0.00     0.220 C 
HETATM   20  C   UNL     1     -45.787 -51.308  13.486  1.00  0.00     0.117 C 
HETATM   21  O   UNL     1     -45.817 -53.168  11.979  1.00  0.00    -0.273 OA
ENDBRANCH   1  14
TORSDOF 4
ENDMDL
