MODEL 1
REMARK VINA RESULT:      -6.4      0.000      0.000
REMARK  3 active torsions:
REMARK  status: ('A' for Active; 'I' for Inactive)
REMARK       I    between atoms: N_8  and  C_9 
REMARK       I    between atoms: C_9  and  N_11 
REMARK    1  A    between atoms: N_11  and  C_12 
REMARK    2  A    between atoms: C_12  and  C_13 
REMARK    3  A    between atoms: C_13  and  N_14 
ROOT
HETATM    1  C   UNL     1     -42.504 -45.768  10.229  1.00  0.00     0.078 C 
HETATM    2  C   UNL     1     -41.866 -47.074  10.522  1.00  0.00     0.066 A 
HETATM    3  N   UNL     1     -42.360 -48.237  10.156  1.00  0.00    -0.296 N 
ATOM      4  HN  UNL     1     -43.198 -48.348   9.585  1.00  0.00     0.187 HD
HETATM    5  N   UNL     1     -41.612 -49.284  10.637  1.00  0.00    -0.279 N 
ATOM      6  HN  UNL     1     -41.837 -50.266  10.478  1.00  0.00     0.189 HD
HETATM    7  C   UNL     1     -40.574 -48.871  11.328  1.00  0.00     0.169 A 
HETATM    8  N   UNL     1     -39.660 -49.625  12.006  1.00  0.00    -0.288 N 
HETATM    9  C   UNL     1     -39.760 -50.971  12.208  1.00  0.00     0.322 C 
HETATM   10  O   UNL     1     -38.874 -51.560  12.821  1.00  0.00    -0.247 OA
HETATM   11  N   UNL     1     -40.867 -51.593  11.714  1.00  0.00    -0.341 N 
HETATM   12  S   UNL     1     -40.396 -47.180  11.417  1.00  0.00    -0.038 SA
HETATM   13  H   UNL     1     -38.874 -49.167  12.440  1.00  0.00     0.172 HD
HETATM   14  H   UNL     1     -41.611 -51.010  11.344  1.00  0.00     0.164 HD
ENDROOT
BRANCH  11  15
HETATM   15  C   UNL     1     -41.165 -52.990  11.921  1.00  0.00     0.154 C 
BRANCH  15  16
HETATM   16  C   UNL     1     -42.194 -53.257  13.044  1.00  0.00     0.292 C 
BRANCH  16  17
HETATM   17  N   UNL     1     -43.446 -52.445  13.081  1.00  0.00     0.090 N 
HETATM   18  C   UNL     1     -43.665 -52.011  14.478  1.00  0.00     0.272 C 
HETATM   19  C   UNL     1     -44.649 -50.851  14.619  1.00  0.00     0.030 C 
HETATM   20  C   UNL     1     -46.110 -51.256  14.775  1.00  0.00     0.002 C 
HETATM   21  C   UNL     1     -46.578 -52.421  13.914  1.00  0.00     0.002 C 
HETATM   22  C   UNL     1     -45.947 -52.463  12.529  1.00  0.00     0.030 C 
HETATM   23  C   UNL     1     -44.584 -53.173  12.503  1.00  0.00     0.272 C 
ENDBRANCH  16  17
ENDBRANCH  15  16
ENDBRANCH  11  15
TORSDOF 3
ENDMDL
MODEL 2
REMARK VINA RESULT:      -6.3      1.230      1.526
REMARK  3 active torsions:
REMARK  status: ('A' for Active; 'I' for Inactive)
REMARK       I    between atoms: N_8  and  C_9 
REMARK       I    between atoms: C_9  and  N_11 
REMARK    1  A    between atoms: N_11  and  C_12 
REMARK    2  A    between atoms: C_12  and  C_13 
REMARK    3  A    between atoms: C_13  and  N_14 
ROOT
HETATM    1  C   UNL     1     -41.257 -46.778  10.814  1.00  0.00     0.078 C 
HETATM    2  C   UNL     1     -41.056 -48.207  11.150  1.00  0.00     0.066 A 
HETATM    3  N   UNL     1     -41.976 -49.137  11.007  1.00  0.00    -0.296 N 
ATOM      4  HN  UNL     1     -42.895 -48.974  10.596  1.00  0.00     0.187 HD
HETATM    5  N   UNL     1     -41.550 -50.354  11.481  1.00  0.00    -0.279 N 
ATOM      6  HN  UNL     1     -42.121 -51.199  11.475  1.00  0.00     0.189 HD
HETATM    7  C   UNL     1     -40.322 -50.301  11.942  1.00  0.00     0.169 A 
HETATM    8  N   UNL     1     -39.605 -51.293  12.547  1.00  0.00    -0.288 N 
HETATM    9  C   UNL     1     -40.115 -52.503  12.918  1.00  0.00     0.322 C 
HETATM   10  O   UNL     1     -39.382 -53.334  13.445  1.00  0.00    -0.247 OA
HETATM   11  N   UNL     1     -41.440 -52.717  12.685  1.00  0.00    -0.341 N 
HETATM   12  S   UNL     1     -39.567 -48.781  11.803  1.00  0.00    -0.038 SA
HETATM   13  H   UNL     1     -38.643 -51.121  12.792  1.00  0.00     0.172 HD
HETATM   14  H   UNL     1     -41.999 -51.929  12.374  1.00  0.00     0.164 HD
ENDROOT
BRANCH  11  15
HETATM   15  C   UNL     1     -42.149 -53.904  13.099  1.00  0.00     0.154 C 
BRANCH  15  16
HETATM   16  C   UNL     1     -43.683 -53.815  12.930  1.00  0.00     0.292 C 
BRANCH  16  17
HETATM   17  N   UNL     1     -44.396 -52.613  13.455  1.00  0.00     0.090 N 
HETATM   18  C   UNL     1     -44.197 -52.570  14.920  1.00  0.00     0.272 C 
HETATM   19  C   UNL     1     -44.499 -51.209  15.547  1.00  0.00     0.030 C 
HETATM   20  C   UNL     1     -45.945 -51.005  15.985  1.00  0.00     0.002 C 
HETATM   21  C   UNL     1     -47.013 -51.555  15.049  1.00  0.00     0.002 C 
HETATM   22  C   UNL     1     -46.667 -51.434  13.571  1.00  0.00     0.030 C 
HETATM   23  C   UNL     1     -45.808 -52.597  13.050  1.00  0.00     0.272 C 
ENDBRANCH  16  17
ENDBRANCH  15  16
ENDBRANCH  11  15
TORSDOF 3
ENDMDL
MODEL 3
REMARK VINA RESULT:      -6.1      3.322      4.791
REMARK  3 active torsions:
REMARK  status: ('A' for Active; 'I' for Inactive)
REMARK       I    between atoms: N_8  and  C_9 
REMARK       I    between atoms: C_9  and  N_11 
REMARK    1  A    between atoms: N_11  and  C_12 
REMARK    2  A    between atoms: C_12  and  C_13 
REMARK    3  A    between atoms: C_13  and  N_14 
ROOT
HETATM    1  C   UNL     1     -46.749 -47.194   9.105  1.00  0.00     0.078 C 
HETATM    2  C   UNL     1     -45.306 -47.218   9.438  1.00  0.00     0.066 A 
HETATM    3  N   UNL     1     -44.735 -48.137  10.188  1.00  0.00    -0.296 N 
ATOM      4  HN  UNL     1     -45.219 -48.953  10.560  1.00  0.00     0.187 HD
HETATM    5  N   UNL     1     -43.407 -47.864  10.407  1.00  0.00    -0.279 N 
ATOM      6  HN  UNL     1     -42.791 -48.446  10.975  1.00  0.00     0.189 HD
HETATM    7  C   UNL     1     -43.023 -46.764   9.801  1.00  0.00     0.169 A 
HETATM    8  N   UNL     1     -41.802 -46.155   9.854  1.00  0.00    -0.288 N 
HETATM    9  C   UNL     1     -40.788 -46.520  10.690  1.00  0.00     0.322 C 
HETATM   10  O   UNL     1     -39.720 -45.914  10.651  1.00  0.00    -0.247 OA
HETATM   11  N   UNL     1     -41.029 -47.552  11.547  1.00  0.00    -0.341 N 
HETATM   12  S   UNL     1     -44.229 -45.992   8.880  1.00  0.00    -0.038 SA
HETATM   13  H   UNL     1     -41.635 -45.345   9.278  1.00  0.00     0.172 HD
HETATM   14  H   UNL     1     -41.980 -47.902  11.609  1.00  0.00     0.164 HD
ENDROOT
BRANCH  11  15
HETATM   15  C   UNL     1     -40.096 -47.998  12.554  1.00  0.00     0.154 C 
BRANCH  15  16
HETATM   16  C   UNL     1     -40.623 -49.155  13.434  1.00  0.00     0.292 C 
BRANCH  16  17
HETATM   17  N   UNL     1     -40.190 -50.549  13.125  1.00  0.00     0.090 N 
HETATM   18  C   UNL     1     -41.393 -51.328  12.760  1.00  0.00     0.272 C 
HETATM   19  C   UNL     1     -41.088 -52.633  12.026  1.00  0.00     0.030 C 
HETATM   20  C   UNL     1     -40.877 -53.846  12.924  1.00  0.00     0.002 C 
HETATM   21  C   UNL     1     -40.087 -53.604  14.203  1.00  0.00     0.002 C 
HETATM   22  C   UNL     1     -38.958 -52.593  14.055  1.00  0.00     0.030 C 
HETATM   23  C   UNL     1     -39.419 -51.137  14.229  1.00  0.00     0.272 C 
ENDBRANCH  16  17
ENDBRANCH  15  16
ENDBRANCH  11  15
TORSDOF 3
ENDMDL
MODEL 4
REMARK VINA RESULT:      -6.0      2.147      2.868
REMARK  3 active torsions:
REMARK  status: ('A' for Active; 'I' for Inactive)
REMARK       I    between atoms: N_8  and  C_9 
REMARK       I    between atoms: C_9  and  N_11 
REMARK    1  A    between atoms: N_11  and  C_12 
REMARK    2  A    between atoms: C_12  and  C_13 
REMARK    3  A    between atoms: C_13  and  N_14 
ROOT
HETATM    1  C   UNL     1     -46.170 -46.629   8.775  1.00  0.00     0.078 C 
HETATM    2  C   UNL     1     -44.923 -47.170   9.364  1.00  0.00     0.066 A 
HETATM    3  N   UNL     1     -44.886 -48.116  10.279  1.00  0.00    -0.296 N 
ATOM      4  HN  UNL     1     -45.709 -48.609  10.625  1.00  0.00     0.187 HD
HETATM    5  N   UNL     1     -43.605 -48.359  10.711  1.00  0.00    -0.279 N 
ATOM      6  HN  UNL     1     -43.365 -49.045  11.427  1.00  0.00     0.189 HD
HETATM    7  C   UNL     1     -42.725 -47.604  10.093  1.00  0.00     0.169 A 
HETATM    8  N   UNL     1     -41.380 -47.525  10.314  1.00  0.00    -0.288 N 
HETATM    9  C   UNL     1     -40.727 -48.130  11.348  1.00  0.00     0.322 C 
HETATM   10  O   UNL     1     -39.509 -48.008  11.451  1.00  0.00    -0.247 OA
HETATM   11  N   UNL     1     -41.482 -48.843  12.230  1.00  0.00    -0.341 N 
HETATM   12  S   UNL     1     -43.373 -46.566   8.909  1.00  0.00    -0.038 SA
HETATM   13  H   UNL     1     -40.819 -46.943   9.713  1.00  0.00     0.172 HD
HETATM   14  H   UNL     1     -42.492 -48.776  12.149  1.00  0.00     0.164 HD
ENDROOT
BRANCH  11  15
HETATM   15  C   UNL     1     -40.958 -49.464  13.423  1.00  0.00     0.154 C 
BRANCH  15  16
HETATM   16  C   UNL     1     -41.955 -50.406  14.135  1.00  0.00     0.292 C 
BRANCH  16  17
HETATM   17  N   UNL     1     -42.994 -51.103  13.321  1.00  0.00     0.090 N 
HETATM   18  C   UNL     1     -44.297 -50.928  14.000  1.00  0.00     0.272 C 
HETATM   19  C   UNL     1     -45.504 -51.213  13.108  1.00  0.00     0.030 C 
HETATM   20  C   UNL     1     -45.979 -52.661  13.105  1.00  0.00     0.002 C 
HETATM   21  C   UNL     1     -44.889 -53.724  13.104  1.00  0.00     0.002 C 
HETATM   22  C   UNL     1     -43.658 -53.351  12.289  1.00  0.00     0.030 C 
HETATM   23  C   UNL     1     -42.641 -52.508  13.074  1.00  0.00     0.272 C 
ENDBRANCH  16  17
ENDBRANCH  15  16
ENDBRANCH  11  15
TORSDOF 3
ENDMDL
MODEL 5
REMARK VINA RESULT:      -5.9      1.337      1.739
REMARK  3 active torsions:
REMARK  status: ('A' for Active; 'I' for Inactive)
REMARK       I    between atoms: N_8  and  C_9 
REMARK       I    between atoms: C_9  and  N_11 
REMARK    1  A    between atoms: N_11  and  C_12 
REMARK    2  A    between atoms: C_12  and  C_13 
REMARK    3  A    between atoms: C_13  and  N_14 
ROOT
HETATM    1  C   UNL     1     -42.415 -45.287  10.853  1.00  0.00     0.078 C 
HETATM    2  C   UNL     1     -42.127 -46.736  10.964  1.00  0.00     0.066 A 
HETATM    3  N   UNL     1     -43.045 -47.679  10.909  1.00  0.00    -0.296 N 
ATOM      4  HN  UNL     1     -44.033 -47.504  10.725  1.00  0.00     0.187 HD
HETATM    5  N   UNL     1     -42.511 -48.925  11.130  1.00  0.00    -0.279 N 
ATOM      6  HN  UNL     1     -43.059 -49.785  11.143  1.00  0.00     0.189 HD
HETATM    7  C   UNL     1     -41.213 -48.878  11.321  1.00  0.00     0.169 A 
HETATM    8  N   UNL     1     -40.370 -49.905  11.636  1.00  0.00    -0.288 N 
HETATM    9  C   UNL     1     -40.772 -51.168  11.958  1.00  0.00     0.322 C 
HETATM   10  O   UNL     1     -39.932 -52.026  12.212  1.00  0.00    -0.247 OA
HETATM   11  N   UNL     1     -42.113 -51.405  11.988  1.00  0.00    -0.341 N 
HETATM   12  S   UNL     1     -40.525 -47.324  11.210  1.00  0.00    -0.038 SA
HETATM   13  H   UNL     1     -39.380 -49.725  11.689  1.00  0.00     0.172 HD
HETATM   14  H   UNL     1     -42.736 -50.608  11.901  1.00  0.00     0.164 HD
ENDROOT
BRANCH  11  15
HETATM   15  C   UNL     1     -42.701 -52.659  12.397  1.00  0.00     0.154 C 
BRANCH  15  16
HETATM   16  C   UNL     1     -43.030 -52.740  13.905  1.00  0.00     0.292 C 
BRANCH  16  17
HETATM   17  N   UNL     1     -44.458 -52.841  14.326  1.00  0.00     0.090 N 
HETATM   18  C   UNL     1     -45.044 -51.484  14.275  1.00  0.00     0.272 C 
HETATM   19  C   UNL     1     -46.572 -51.468  14.272  1.00  0.00     0.030 C 
HETATM   20  C   UNL     1     -47.223 -51.431  15.649  1.00  0.00     0.002 C 
HETATM   21  C   UNL     1     -46.571 -52.294  16.722  1.00  0.00     0.002 C 
HETATM   22  C   UNL     1     -46.017 -53.615  16.205  1.00  0.00     0.030 C 
HETATM   23  C   UNL     1     -44.595 -53.495  15.635  1.00  0.00     0.272 C 
ENDBRANCH  16  17
ENDBRANCH  15  16
ENDBRANCH  11  15
TORSDOF 3
ENDMDL
MODEL 6
REMARK VINA RESULT:      -5.8      2.606      3.693
REMARK  3 active torsions:
REMARK  status: ('A' for Active; 'I' for Inactive)
REMARK       I    between atoms: N_8  and  C_9 
REMARK       I    between atoms: C_9  and  N_11 
REMARK    1  A    between atoms: N_11  and  C_12 
REMARK    2  A    between atoms: C_12  and  C_13 
REMARK    3  A    between atoms: C_13  and  N_14 
ROOT
HETATM    1  C   UNL     1     -38.525 -49.152  11.495  1.00  0.00     0.078 C 
HETATM    2  C   UNL     1     -39.371 -50.329  11.800  1.00  0.00     0.066 A 
HETATM    3  N   UNL     1     -40.413 -50.696  11.085  1.00  0.00    -0.296 N 
ATOM      4  HN  UNL     1     -40.702 -50.240  10.219  1.00  0.00     0.187 HD
HETATM    5  N   UNL     1     -41.066 -51.767  11.645  1.00  0.00    -0.279 N 
ATOM      6  HN  UNL     1     -41.906 -52.192  11.252  1.00  0.00     0.189 HD
HETATM    7  C   UNL     1     -40.481 -52.178  12.747  1.00  0.00     0.169 A 
HETATM    8  N   UNL     1     -40.889 -53.164  13.599  1.00  0.00    -0.288 N 
HETATM    9  C   UNL     1     -42.089 -53.809  13.524  1.00  0.00     0.322 C 
HETATM   10  O   UNL     1     -42.355 -54.693  14.332  1.00  0.00    -0.247 OA
HETATM   11  N   UNL     1     -42.945 -53.417  12.538  1.00  0.00    -0.341 N 
HETATM   12  S   UNL     1     -39.069 -51.328  13.173  1.00  0.00    -0.038 SA
HETATM   13  H   UNL     1     -40.298 -53.414  14.376  1.00  0.00     0.172 HD
HETATM   14  H   UNL     1     -42.702 -52.588  12.004  1.00  0.00     0.164 HD
ENDROOT
BRANCH  11  15
HETATM   15  C   UNL     1     -44.283 -53.933  12.380  1.00  0.00     0.154 C 
BRANCH  15  16
HETATM   16  C   UNL     1     -45.386 -53.017  12.956  1.00  0.00     0.292 C 
BRANCH  16  17
HETATM   17  N   UNL     1     -45.326 -52.635  14.398  1.00  0.00     0.090 N 
HETATM   18  C   UNL     1     -45.707 -53.820  15.198  1.00  0.00     0.272 C 
HETATM   19  C   UNL     1     -45.303 -53.731  16.669  1.00  0.00     0.030 C 
HETATM   20  C   UNL     1     -46.335 -53.085  17.586  1.00  0.00     0.002 C 
HETATM   21  C   UNL     1     -47.065 -51.872  17.024  1.00  0.00     0.002 C 
HETATM   22  C   UNL     1     -46.200 -50.979  16.145  1.00  0.00     0.030 C 
HETATM   23  C   UNL     1     -46.138 -51.445  14.681  1.00  0.00     0.272 C 
ENDBRANCH  16  17
ENDBRANCH  15  16
ENDBRANCH  11  15
TORSDOF 3
ENDMDL
MODEL 7
REMARK VINA RESULT:      -5.8      4.714      6.211
REMARK  3 active torsions:
REMARK  status: ('A' for Active; 'I' for Inactive)
REMARK       I    between atoms: N_8  and  C_9 
REMARK       I    between atoms: C_9  and  N_11 
REMARK    1  A    between atoms: N_11  and  C_12 
REMARK    2  A    between atoms: C_12  and  C_13 
REMARK    3  A    between atoms: C_13  and  N_14 
ROOT
HETATM    1  C   UNL     1     -46.311 -47.736   8.931  1.00  0.00     0.078 C 
HETATM    2  C   UNL     1     -44.944 -47.467   9.436  1.00  0.00     0.066 A 
HETATM    3  N   UNL     1     -44.528 -47.777  10.646  1.00  0.00    -0.296 N 
ATOM      4  HN  UNL     1     -45.088 -48.286  11.330  1.00  0.00     0.187 HD
HETATM    5  N   UNL     1     -43.249 -47.333  10.876  1.00  0.00    -0.279 N 
ATOM      6  HN  UNL     1     -42.751 -47.460  11.757  1.00  0.00     0.189 HD
HETATM    7  C   UNL     1     -42.743 -46.724   9.828  1.00  0.00     0.169 A 
HETATM    8  N   UNL     1     -41.534 -46.099   9.719  1.00  0.00    -0.288 N 
HETATM    9  C   UNL     1     -40.683 -45.868  10.760  1.00  0.00     0.322 C 
HETATM   10  O   UNL     1     -39.610 -45.309  10.554  1.00  0.00    -0.247 OA
HETATM   11  N   UNL     1     -41.088 -46.272  11.996  1.00  0.00    -0.341 N 
HETATM   12  S   UNL     1     -43.761 -46.676   8.463  1.00  0.00    -0.038 SA
HETATM   13  H   UNL     1     -41.254 -45.729   8.824  1.00  0.00     0.172 HD
HETATM   14  H   UNL     1     -42.044 -46.599  12.097  1.00  0.00     0.164 HD
ENDROOT
BRANCH  11  15
HETATM   15  C   UNL     1     -40.347 -46.022  13.209  1.00  0.00     0.154 C 
BRANCH  15  16
HETATM   16  C   UNL     1     -40.049 -47.291  14.041  1.00  0.00     0.292 C 
BRANCH  16  17
HETATM   17  N   UNL     1     -38.845 -48.106  13.704  1.00  0.00     0.090 N 
HETATM   18  C   UNL     1     -39.132 -48.845  12.455  1.00  0.00     0.272 C 
HETATM   19  C   UNL     1     -37.886 -49.391  11.757  1.00  0.00     0.030 C 
HETATM   20  C   UNL     1     -37.458 -50.787  12.195  1.00  0.00     0.002 C 
HETATM   21  C   UNL     1     -37.569 -51.085  13.684  1.00  0.00     0.002 C 
HETATM   22  C   UNL     1     -37.242 -49.900  14.582  1.00  0.00     0.030 C 
HETATM   23  C   UNL     1     -38.441 -48.969  14.822  1.00  0.00     0.272 C 
ENDBRANCH  16  17
ENDBRANCH  15  16
ENDBRANCH  11  15
TORSDOF 3
ENDMDL
MODEL 8
REMARK VINA RESULT:      -5.7      3.182      4.707
REMARK  3 active torsions:
REMARK  status: ('A' for Active; 'I' for Inactive)
REMARK       I    between atoms: N_8  and  C_9 
REMARK       I    between atoms: C_9  and  N_11 
REMARK    1  A    between atoms: N_11  and  C_12 
REMARK    2  A    between atoms: C_12  and  C_13 
REMARK    3  A    between atoms: C_13  and  N_14 
ROOT
HETATM    1  C   UNL     1     -38.930 -50.801  12.505  1.00  0.00     0.078 C 
HETATM    2  C   UNL     1     -40.248 -51.462  12.361  1.00  0.00     0.066 A 
HETATM    3  N   UNL     1     -41.311 -50.887  11.840  1.00  0.00    -0.296 N 
ATOM      4  HN  UNL     1     -41.313 -49.952  11.431  1.00  0.00     0.187 HD
HETATM    5  N   UNL     1     -42.418 -51.696  11.914  1.00  0.00    -0.279 N 
ATOM      6  HN  UNL     1     -43.344 -51.429  11.579  1.00  0.00     0.189 HD
HETATM    7  C   UNL     1     -42.145 -52.856  12.467  1.00  0.00     0.169 A 
HETATM    8  N   UNL     1     -43.007 -53.872  12.764  1.00  0.00    -0.288 N 
HETATM    9  C   UNL     1     -44.365 -53.791  12.666  1.00  0.00     0.322 C 
HETATM   10  O   UNL     1     -45.053 -54.769  12.945  1.00  0.00    -0.247 OA
HETATM   11  N   UNL     1     -44.890 -52.599  12.265  1.00  0.00    -0.341 N 
HETATM   12  S   UNL     1     -40.515 -53.076  12.906  1.00  0.00    -0.038 SA
HETATM   13  H   UNL     1     -42.637 -54.735  13.131  1.00  0.00     0.172 HD
HETATM   14  H   UNL     1     -44.260 -51.807  12.190  1.00  0.00     0.164 HD
ENDROOT
BRANCH  11  15
HETATM   15  C   UNL     1     -46.305 -52.323  12.199  1.00  0.00     0.154 C 
BRANCH  15  16
HETATM   16  C   UNL     1     -46.838 -51.466  13.370  1.00  0.00     0.292 C 
BRANCH  16  17
HETATM   17  N   UNL     1     -46.242 -51.650  14.726  1.00  0.00     0.090 N 
HETATM   18  C   UNL     1     -47.301 -51.396  15.726  1.00  0.00     0.272 C 
HETATM   19  C   UNL     1     -46.981 -51.937  17.119  1.00  0.00     0.030 C 
HETATM   20  C   UNL     1     -46.231 -50.972  18.031  1.00  0.00     0.002 C 
HETATM   21  C   UNL     1     -45.136 -50.143  17.374  1.00  0.00     0.002 C 
HETATM   22  C   UNL     1     -44.364 -50.881  16.289  1.00  0.00     0.030 C 
HETATM   23  C   UNL     1     -45.043 -50.820  14.911  1.00  0.00     0.272 C 
ENDBRANCH  16  17
ENDBRANCH  15  16
ENDBRANCH  11  15
TORSDOF 3
ENDMDL
MODEL 9
REMARK VINA RESULT:      -5.5      2.832      6.688
REMARK  3 active torsions:
REMARK  status: ('A' for Active; 'I' for Inactive)
REMARK       I    between atoms: N_8  and  C_9 
REMARK       I    between atoms: C_9  and  N_11 
REMARK    1  A    between atoms: N_11  and  C_12 
REMARK    2  A    between atoms: C_12  and  C_13 
REMARK    3  A    between atoms: C_13  and  N_14 
ROOT
HETATM    1  C   UNL     1     -44.783 -54.433  13.381  1.00  0.00     0.078 C 
HETATM    2  C   UNL     1     -43.900 -53.288  13.059  1.00  0.00     0.066 A 
HETATM    3  N   UNL     1     -44.332 -52.078  12.770  1.00  0.00    -0.296 N 
ATOM      4  HN  UNL     1     -45.313 -51.800  12.798  1.00  0.00     0.187 HD
HETATM    5  N   UNL     1     -43.303 -51.237  12.424  1.00  0.00    -0.279 N 
ATOM      6  HN  UNL     1     -43.430 -50.263  12.151  1.00  0.00     0.189 HD
HETATM    7  C   UNL     1     -42.136 -51.836  12.485  1.00  0.00     0.169 A 
HETATM    8  N   UNL     1     -40.912 -51.334  12.146  1.00  0.00    -0.288 N 
HETATM    9  C   UNL     1     -40.710 -50.134  11.528  1.00  0.00     0.322 C 
HETATM   10  O   UNL     1     -39.565 -49.766  11.278  1.00  0.00    -0.247 OA
HETATM   11  N   UNL     1     -41.815 -49.404  11.209  1.00  0.00    -0.341 N 
HETATM   12  S   UNL     1     -42.185 -53.456  13.006  1.00  0.00    -0.038 SA
HETATM   13  H   UNL     1     -40.091 -51.895  12.309  1.00  0.00     0.172 HD
HETATM   14  H   UNL     1     -42.722 -49.845  11.326  1.00  0.00     0.164 HD
ENDROOT
BRANCH  11  15
HETATM   15  C   UNL     1     -41.776 -48.162  10.475  1.00  0.00     0.154 C 
BRANCH  15  16
HETATM   16  C   UNL     1     -42.600 -47.023  11.118  1.00  0.00     0.292 C 
BRANCH  16  17
HETATM   17  N   UNL     1     -41.878 -45.862  11.717  1.00  0.00     0.090 N 
HETATM   18  C   UNL     1     -40.492 -45.872  11.199  1.00  0.00     0.272 C 
HETATM   19  C   UNL     1     -39.754 -44.546  11.377  1.00  0.00     0.030 C 
HETATM   20  C   UNL     1     -38.999 -44.397  12.693  1.00  0.00     0.002 C 
HETATM   21  C   UNL     1     -39.700 -44.938  13.932  1.00  0.00     0.002 C 
HETATM   22  C   UNL     1     -41.211 -44.748  13.925  1.00  0.00     0.030 C 
HETATM   23  C   UNL     1     -41.960 -45.867  13.184  1.00  0.00     0.272 C 
ENDBRANCH  16  17
ENDBRANCH  15  16
ENDBRANCH  11  15
TORSDOF 3
ENDMDL
