MODEL 1
REMARK VINA RESULT:      -5.8      0.000      0.000
REMARK  5 active torsions:
REMARK  status: ('A' for Active; 'I' for Inactive)
REMARK    1  A    between atoms: O_2  and  C_3 
REMARK    2  A    between atoms: C_3  and  C_4 
REMARK    3  A    between atoms: C_4  and  N_5 
REMARK    4  A    between atoms: C_7  and  N_8 
REMARK       I    between atoms: N_8  and  C_9 
REMARK    5  A    between atoms: C_9  and  C_11 
ROOT
HETATM    1  N   UNL     1     -42.291 -46.484   9.945  1.00  0.00    -0.320 N 
HETATM    2  C   UNL     1     -42.255 -47.862  10.094  1.00  0.00     0.123 A 
HETATM    3  C   UNL     1     -41.302 -48.486  10.807  1.00  0.00     0.050 A 
HETATM    4  C   UNL     1     -40.247 -47.677  11.392  1.00  0.00     0.036 A 
HETATM    5  C   UNL     1     -40.245 -46.341  11.258  1.00  0.00     0.077 A 
HETATM    6  C   UNL     1     -41.333 -45.653  10.517  1.00  0.00     0.247 A 
HETATM    7  O   UNL     1     -41.332 -44.427  10.450  1.00  0.00    -0.268 OA
ENDROOT
BRANCH   3   8
HETATM    8  N   UNL     1     -41.261 -49.843  11.056  1.00  0.00    -0.326 N 
HETATM    9  C   UNL     1     -41.678 -50.502  12.207  1.00  0.00     0.226 C 
HETATM   10  O   UNL     1     -42.226 -49.972  13.168  1.00  0.00    -0.273 OA
HETATM   11  H   UNL     1     -40.859 -50.421  10.327  1.00  0.00     0.169 HD
BRANCH   9  12
HETATM   12  C   UNL     1     -41.431 -52.006  12.159  1.00  0.00     0.078 C 
HETATM   13  C   UNL     1     -42.666 -52.835  12.546  1.00  0.00     0.014 C 
HETATM   14  C   UNL     1     -42.143 -54.085  13.252  1.00  0.00     0.001 C 
HETATM   15  C   UNL     1     -40.626 -53.964  13.255  1.00  0.00     0.001 C 
HETATM   16  C   UNL     1     -40.367 -52.471  13.149  1.00  0.00     0.014 C 
ENDBRANCH   9  12
ENDBRANCH   3   8
BRANCH   1  17
HETATM   17  C   UNL     1     -43.450 -45.879   9.284  1.00  0.00     0.158 C 
BRANCH  17  18
HETATM   18  C   UNL     1     -44.507 -46.888   8.834  1.00  0.00     0.187 C 
BRANCH  18  19
HETATM   19  O   UNL     1     -45.788 -46.253   8.885  1.00  0.00    -0.394 OA
HETATM   20  C   UNL     1     -46.832 -47.200   9.069  1.00  0.00     0.201 C 
ENDBRANCH  18  19
ENDBRANCH  17  18
ENDBRANCH   1  17
TORSDOF 5
ENDMDL
MODEL 2
REMARK VINA RESULT:      -5.5      2.014      2.452
REMARK  5 active torsions:
REMARK  status: ('A' for Active; 'I' for Inactive)
REMARK    1  A    between atoms: O_2  and  C_3 
REMARK    2  A    between atoms: C_3  and  C_4 
REMARK    3  A    between atoms: C_4  and  N_5 
REMARK    4  A    between atoms: C_7  and  N_8 
REMARK       I    between atoms: N_8  and  C_9 
REMARK    5  A    between atoms: C_9  and  C_11 
ROOT
HETATM    1  N   UNL     1     -43.149 -46.207   9.602  1.00  0.00    -0.320 N 
HETATM    2  C   UNL     1     -42.355 -47.317   9.846  1.00  0.00     0.123 A 
HETATM    3  C   UNL     1     -41.256 -47.265  10.619  1.00  0.00     0.050 A 
HETATM    4  C   UNL     1     -40.870 -45.976  11.167  1.00  0.00     0.036 A 
HETATM    5  C   UNL     1     -41.609 -44.878  10.942  1.00  0.00     0.077 A 
HETATM    6  C   UNL     1     -42.853 -44.956  10.135  1.00  0.00     0.247 A 
HETATM    7  O   UNL     1     -43.534 -43.945   9.984  1.00  0.00    -0.268 OA
ENDROOT
BRANCH   3   8
HETATM    8  N   UNL     1     -40.476 -48.351  10.960  1.00  0.00    -0.326 N 
HETATM    9  C   UNL     1     -40.796 -49.372  11.848  1.00  0.00     0.226 C 
HETATM   10  O   UNL     1     -41.874 -49.504  12.418  1.00  0.00    -0.273 OA
HETATM   11  H   UNL     1     -39.558 -48.395  10.535  1.00  0.00     0.169 HD
BRANCH   9  12
HETATM   12  C   UNL     1     -39.669 -50.383  12.029  1.00  0.00     0.078 C 
HETATM   13  C   UNL     1     -39.440 -50.778  13.496  1.00  0.00     0.014 C 
HETATM   14  C   UNL     1     -37.942 -51.034  13.647  1.00  0.00     0.001 C 
HETATM   15  C   UNL     1     -37.333 -50.792  12.273  1.00  0.00     0.001 C 
HETATM   16  C   UNL     1     -38.308 -49.850  11.589  1.00  0.00     0.014 C 
ENDBRANCH   9  12
ENDBRANCH   3   8
BRANCH   1  17
HETATM   17  C   UNL     1     -44.409 -46.390   8.880  1.00  0.00     0.158 C 
BRANCH  17  18
HETATM   18  C   UNL     1     -44.655 -47.823   8.408  1.00  0.00     0.187 C 
BRANCH  18  19
HETATM   19  O   UNL     1     -46.067 -48.040   8.341  1.00  0.00    -0.394 OA
HETATM   20  C   UNL     1     -46.776 -47.127   9.169  1.00  0.00     0.201 C 
ENDBRANCH  18  19
ENDBRANCH  17  18
ENDBRANCH   1  17
TORSDOF 5
ENDMDL
MODEL 3
REMARK VINA RESULT:      -5.5      5.564      8.566
REMARK  5 active torsions:
REMARK  status: ('A' for Active; 'I' for Inactive)
REMARK    1  A    between atoms: O_2  and  C_3 
REMARK    2  A    between atoms: C_3  and  C_4 
REMARK    3  A    between atoms: C_4  and  N_5 
REMARK    4  A    between atoms: C_7  and  N_8 
REMARK       I    between atoms: N_8  and  C_9 
REMARK    5  A    between atoms: C_9  and  C_11 
ROOT
HETATM    1  N   UNL     1     -40.184 -54.616  14.881  1.00  0.00    -0.320 N 
HETATM    2  C   UNL     1     -41.462 -54.108  14.702  1.00  0.00     0.123 A 
HETATM    3  C   UNL     1     -42.504 -54.487  15.462  1.00  0.00     0.050 A 
HETATM    4  C   UNL     1     -42.276 -55.509  16.469  1.00  0.00     0.036 A 
HETATM    5  C   UNL     1     -41.054 -56.031  16.662  1.00  0.00     0.077 A 
HETATM    6  C   UNL     1     -39.897 -55.565  15.857  1.00  0.00     0.247 A 
HETATM    7  O   UNL     1     -38.782 -56.026  16.085  1.00  0.00    -0.268 OA
ENDROOT
BRANCH   3   8
HETATM    8  N   UNL     1     -43.776 -53.958  15.383  1.00  0.00    -0.326 N 
HETATM    9  C   UNL     1     -44.885 -54.519  14.760  1.00  0.00     0.226 C 
HETATM   10  O   UNL     1     -44.918 -55.629  14.238  1.00  0.00    -0.273 OA
HETATM   11  H   UNL     1     -43.910 -53.046  15.803  1.00  0.00     0.169 HD
BRANCH   9  12
HETATM   12  C   UNL     1     -46.119 -53.627  14.817  1.00  0.00     0.078 C 
HETATM   13  C   UNL     1     -46.118 -52.522  13.749  1.00  0.00     0.014 C 
HETATM   14  C   UNL     1     -46.816 -51.316  14.373  1.00  0.00     0.001 C 
HETATM   15  C   UNL     1     -47.214 -51.740  15.779  1.00  0.00     0.001 C 
HETATM   16  C   UNL     1     -46.240 -52.853  16.127  1.00  0.00     0.014 C 
ENDBRANCH   9  12
ENDBRANCH   3   8
BRANCH   1  17
HETATM   17  C   UNL     1     -39.082 -54.031  14.114  1.00  0.00     0.158 C 
BRANCH  17  18
HETATM   18  C   UNL     1     -38.996 -52.508  14.208  1.00  0.00     0.187 C 
BRANCH  18  19
HETATM   19  O   UNL     1     -38.807 -51.983  12.890  1.00  0.00    -0.394 OA
HETATM   20  C   UNL     1     -39.869 -51.117  12.516  1.00  0.00     0.201 C 
ENDBRANCH  18  19
ENDBRANCH  17  18
ENDBRANCH   1  17
TORSDOF 5
ENDMDL
MODEL 4
REMARK VINA RESULT:      -5.5      2.482      2.917
REMARK  5 active torsions:
REMARK  status: ('A' for Active; 'I' for Inactive)
REMARK    1  A    between atoms: O_2  and  C_3 
REMARK    2  A    between atoms: C_3  and  C_4 
REMARK    3  A    between atoms: C_4  and  N_5 
REMARK    4  A    between atoms: C_7  and  N_8 
REMARK       I    between atoms: N_8  and  C_9 
REMARK    5  A    between atoms: C_9  and  C_11 
ROOT
HETATM    1  N   UNL     1     -42.178 -47.058  10.619  1.00  0.00    -0.320 N 
HETATM    2  C   UNL     1     -42.992 -47.958  11.291  1.00  0.00     0.123 A 
HETATM    3  C   UNL     1     -42.578 -48.636  12.376  1.00  0.00     0.050 A 
HETATM    4  C   UNL     1     -41.206 -48.448  12.815  1.00  0.00     0.036 A 
HETATM    5  C   UNL     1     -40.388 -47.593  12.181  1.00  0.00     0.077 A 
HETATM    6  C   UNL     1     -40.870 -46.804  11.018  1.00  0.00     0.247 A 
HETATM    7  O   UNL     1     -40.114 -45.996  10.486  1.00  0.00    -0.268 OA
ENDROOT
BRANCH   3   8
HETATM    8  N   UNL     1     -43.367 -49.481  13.130  1.00  0.00    -0.326 N 
HETATM    9  C   UNL     1     -43.355 -50.871  13.127  1.00  0.00     0.226 C 
HETATM   10  O   UNL     1     -42.572 -51.572  12.494  1.00  0.00    -0.273 OA
HETATM   11  H   UNL     1     -44.049 -49.038  13.733  1.00  0.00     0.169 HD
BRANCH   9  12
HETATM   12  C   UNL     1     -44.407 -51.480  14.046  1.00  0.00     0.078 C 
HETATM   13  C   UNL     1     -45.802 -51.553  13.406  1.00  0.00     0.014 C 
HETATM   14  C   UNL     1     -46.809 -51.350  14.536  1.00  0.00     0.001 C 
HETATM   15  C   UNL     1     -45.987 -51.171  15.805  1.00  0.00     0.001 C 
HETATM   16  C   UNL     1     -44.642 -50.664  15.314  1.00  0.00     0.014 C 
ENDBRANCH   9  12
ENDBRANCH   3   8
BRANCH   1  17
HETATM   17  C   UNL     1     -42.762 -46.251   9.546  1.00  0.00     0.158 C 
BRANCH  17  18
HETATM   18  C   UNL     1     -43.818 -46.983   8.718  1.00  0.00     0.187 C 
BRANCH  18  19
HETATM   19  O   UNL     1     -45.056 -46.275   8.837  1.00  0.00    -0.394 OA
HETATM   20  C   UNL     1     -46.138 -47.157   9.102  1.00  0.00     0.201 C 
ENDBRANCH  18  19
ENDBRANCH  17  18
ENDBRANCH   1  17
TORSDOF 5
ENDMDL
MODEL 5
REMARK VINA RESULT:      -5.3      2.237      3.643
REMARK  5 active torsions:
REMARK  status: ('A' for Active; 'I' for Inactive)
REMARK    1  A    between atoms: O_2  and  C_3 
REMARK    2  A    between atoms: C_3  and  C_4 
REMARK    3  A    between atoms: C_4  and  N_5 
REMARK    4  A    between atoms: C_7  and  N_8 
REMARK       I    between atoms: N_8  and  C_9 
REMARK    5  A    between atoms: C_9  and  C_11 
ROOT
HETATM    1  N   UNL     1     -42.468 -45.262  10.578  1.00  0.00    -0.320 N 
HETATM    2  C   UNL     1     -41.627 -46.284  10.991  1.00  0.00     0.123 A 
HETATM    3  C   UNL     1     -41.651 -47.508  10.434  1.00  0.00     0.050 A 
HETATM    4  C   UNL     1     -42.637 -47.767   9.400  1.00  0.00     0.036 A 
HETATM    5  C   UNL     1     -43.475 -46.804   8.985  1.00  0.00     0.077 A 
HETATM    6  C   UNL     1     -43.404 -45.438   9.564  1.00  0.00     0.247 A 
HETATM    7  O   UNL     1     -44.151 -44.563   9.133  1.00  0.00    -0.268 OA
ENDROOT
BRANCH   3   8
HETATM    8  N   UNL     1     -40.785 -48.536  10.748  1.00  0.00    -0.326 N 
HETATM    9  C   UNL     1     -40.989 -49.557  11.670  1.00  0.00     0.226 C 
HETATM   10  O   UNL     1     -42.021 -49.742  12.305  1.00  0.00    -0.273 OA
HETATM   11  H   UNL     1     -39.892 -48.532  10.271  1.00  0.00     0.169 HD
BRANCH   9  12
HETATM   12  C   UNL     1     -39.792 -50.491  11.802  1.00  0.00     0.078 C 
HETATM   13  C   UNL     1     -39.699 -51.166  13.180  1.00  0.00     0.014 C 
HETATM   14  C   UNL     1     -38.211 -51.330  13.482  1.00  0.00     0.001 C 
HETATM   15  C   UNL     1     -37.472 -50.758  12.281  1.00  0.00     0.001 C 
HETATM   16  C   UNL     1     -38.452 -49.773  11.668  1.00  0.00     0.014 C 
ENDBRANCH   9  12
ENDBRANCH   3   8
BRANCH   1  17
HETATM   17  C   UNL     1     -42.267 -43.921  11.132  1.00  0.00     0.158 C 
BRANCH  17  18
HETATM   18  C   UNL     1     -42.133 -43.888  12.654  1.00  0.00     0.187 C 
BRANCH  18  19
HETATM   19  O   UNL     1     -43.240 -43.157  13.189  1.00  0.00    -0.394 OA
HETATM   20  C   UNL     1     -43.332 -41.858  12.620  1.00  0.00     0.201 C 
ENDBRANCH  18  19
ENDBRANCH  17  18
ENDBRANCH   1  17
TORSDOF 5
ENDMDL
MODEL 6
REMARK VINA RESULT:      -5.2      5.186      7.112
REMARK  5 active torsions:
REMARK  status: ('A' for Active; 'I' for Inactive)
REMARK    1  A    between atoms: O_2  and  C_3 
REMARK    2  A    between atoms: C_3  and  C_4 
REMARK    3  A    between atoms: C_4  and  N_5 
REMARK    4  A    between atoms: C_7  and  N_8 
REMARK       I    between atoms: N_8  and  C_9 
REMARK    5  A    between atoms: C_9  and  C_11 
ROOT
HETATM    1  N   UNL     1     -44.796 -53.286  13.771  1.00  0.00    -0.320 N 
HETATM    2  C   UNL     1     -43.629 -52.536  13.795  1.00  0.00     0.123 A 
HETATM    3  C   UNL     1     -42.456 -53.038  14.217  1.00  0.00     0.050 A 
HETATM    4  C   UNL     1     -42.438 -54.402  14.715  1.00  0.00     0.036 A 
HETATM    5  C   UNL     1     -43.551 -55.153  14.718  1.00  0.00     0.077 A 
HETATM    6  C   UNL     1     -44.831 -54.610  14.196  1.00  0.00     0.247 A 
HETATM    7  O   UNL     1     -45.823 -55.334  14.168  1.00  0.00    -0.268 OA
ENDROOT
BRANCH   3   8
HETATM    8  N   UNL     1     -41.251 -52.366  14.186  1.00  0.00    -0.326 N 
HETATM    9  C   UNL     1     -40.277 -52.427  13.196  1.00  0.00     0.226 C 
HETATM   10  O   UNL     1     -40.376 -53.045  12.142  1.00  0.00    -0.273 OA
HETATM   11  H   UNL     1     -41.042 -51.782  14.987  1.00  0.00     0.169 HD
BRANCH   9  12
HETATM   12  C   UNL     1     -39.042 -51.594  13.519  1.00  0.00     0.078 C 
HETATM   13  C   UNL     1     -39.219 -50.705  14.761  1.00  0.00     0.014 C 
HETATM   14  C   UNL     1     -38.408 -49.436  14.503  1.00  0.00     0.001 C 
HETATM   15  C   UNL     1     -37.775 -49.612  13.131  1.00  0.00     0.001 C 
HETATM   16  C   UNL     1     -38.684 -50.599  12.419  1.00  0.00     0.014 C 
ENDBRANCH   9  12
ENDBRANCH   3   8
BRANCH   1  17
HETATM   17  C   UNL     1     -45.989 -52.708  13.150  1.00  0.00     0.158 C 
BRANCH  17  18
HETATM   18  C   UNL     1     -46.619 -51.569  13.952  1.00  0.00     0.187 C 
BRANCH  18  19
HETATM   19  O   UNL     1     -47.216 -52.121  15.129  1.00  0.00    -0.394 OA
HETATM   20  C   UNL     1     -46.925 -51.338  16.278  1.00  0.00     0.201 C 
ENDBRANCH  18  19
ENDBRANCH  17  18
ENDBRANCH   1  17
TORSDOF 5
ENDMDL
MODEL 7
REMARK VINA RESULT:      -5.2      3.099      5.384
REMARK  5 active torsions:
REMARK  status: ('A' for Active; 'I' for Inactive)
REMARK    1  A    between atoms: O_2  and  C_3 
REMARK    2  A    between atoms: C_3  and  C_4 
REMARK    3  A    between atoms: C_4  and  N_5 
REMARK    4  A    between atoms: C_7  and  N_8 
REMARK       I    between atoms: N_8  and  C_9 
REMARK    5  A    between atoms: C_9  and  C_11 
ROOT
HETATM    1  N   UNL     1     -40.611 -50.500  12.091  1.00  0.00    -0.320 N 
HETATM    2  C   UNL     1     -41.918 -50.752  12.481  1.00  0.00     0.123 A 
HETATM    3  C   UNL     1     -42.247 -51.777  13.286  1.00  0.00     0.050 A 
HETATM    4  C   UNL     1     -41.189 -52.677  13.711  1.00  0.00     0.036 A 
HETATM    5  C   UNL     1     -39.914 -52.470  13.343  1.00  0.00     0.077 A 
HETATM    6  C   UNL     1     -39.550 -51.302  12.500  1.00  0.00     0.247 A 
HETATM    7  O   UNL     1     -38.371 -51.110  12.216  1.00  0.00    -0.268 OA
ENDROOT
BRANCH   3   8
HETATM    8  N   UNL     1     -43.515 -52.027  13.770  1.00  0.00    -0.326 N 
HETATM    9  C   UNL     1     -44.514 -52.781  13.165  1.00  0.00     0.226 C 
HETATM   10  O   UNL     1     -44.392 -53.411  12.120  1.00  0.00    -0.273 OA
HETATM   11  H   UNL     1     -43.752 -51.593  14.654  1.00  0.00     0.169 HD
BRANCH   9  12
HETATM   12  C   UNL     1     -45.815 -52.797  13.959  1.00  0.00     0.078 C 
HETATM   13  C   UNL     1     -46.518 -51.431  13.999  1.00  0.00     0.014 C 
HETATM   14  C   UNL     1     -47.206 -51.338  15.359  1.00  0.00     0.001 C 
HETATM   15  C   UNL     1     -46.900 -52.644  16.077  1.00  0.00     0.001 C 
HETATM   16  C   UNL     1     -45.614 -53.135  15.433  1.00  0.00     0.014 C 
ENDBRANCH   9  12
ENDBRANCH   3   8
BRANCH   1  17
HETATM   17  C   UNL     1     -40.326 -49.274  11.342  1.00  0.00     0.158 C 
BRANCH  17  18
HETATM   18  C   UNL     1     -41.567 -48.593  10.766  1.00  0.00     0.187 C 
BRANCH  18  19
HETATM   19  O   UNL     1     -41.271 -47.207  10.570  1.00  0.00    -0.394 OA
HETATM   20  C   UNL     1     -40.090 -46.822  11.260  1.00  0.00     0.201 C 
ENDBRANCH  18  19
ENDBRANCH  17  18
ENDBRANCH   1  17
TORSDOF 5
ENDMDL
MODEL 8
REMARK VINA RESULT:      -5.1      2.202      3.127
REMARK  5 active torsions:
REMARK  status: ('A' for Active; 'I' for Inactive)
REMARK    1  A    between atoms: O_2  and  C_3 
REMARK    2  A    between atoms: C_3  and  C_4 
REMARK    3  A    between atoms: C_4  and  N_5 
REMARK    4  A    between atoms: C_7  and  N_8 
REMARK       I    between atoms: N_8  and  C_9 
REMARK    5  A    between atoms: C_9  and  C_11 
ROOT
HETATM    1  N   UNL     1     -40.840 -48.322  11.926  1.00  0.00    -0.320 N 
HETATM    2  C   UNL     1     -41.460 -49.559  12.006  1.00  0.00     0.123 A 
HETATM    3  C   UNL     1     -41.228 -50.421  13.011  1.00  0.00     0.050 A 
HETATM    4  C   UNL     1     -40.246 -50.049  14.015  1.00  0.00     0.036 A 
HETATM    5  C   UNL     1     -39.618 -48.863  13.962  1.00  0.00     0.077 A 
HETATM    6  C   UNL     1     -39.923 -47.892  12.880  1.00  0.00     0.247 A 
HETATM    7  O   UNL     1     -39.368 -46.797  12.882  1.00  0.00    -0.268 OA
ENDROOT
BRANCH   3   8
HETATM    8  N   UNL     1     -41.874 -51.628  13.184  1.00  0.00    -0.326 N 
HETATM    9  C   UNL     1     -41.451 -52.880  12.752  1.00  0.00     0.226 C 
HETATM   10  O   UNL     1     -40.381 -53.116  12.203  1.00  0.00    -0.273 OA
HETATM   11  H   UNL     1     -42.769 -51.594  13.658  1.00  0.00     0.169 HD
BRANCH   9  12
HETATM   12  C   UNL     1     -42.448 -53.990  13.067  1.00  0.00     0.078 C 
HETATM   13  C   UNL     1     -43.869 -53.688  12.565  1.00  0.00     0.014 C 
HETATM   14  C   UNL     1     -44.827 -54.322  13.573  1.00  0.00     0.001 C 
HETATM   15  C   UNL     1     -43.952 -54.981  14.629  1.00  0.00     0.001 C 
HETATM   16  C   UNL     1     -42.641 -54.216  14.564  1.00  0.00     0.014 C 
ENDBRANCH   9  12
ENDBRANCH   3   8
BRANCH   1  17
HETATM   17  C   UNL     1     -41.270 -47.387  10.884  1.00  0.00     0.158 C 
BRANCH  17  18
HETATM   18  C   UNL     1     -42.744 -47.515  10.502  1.00  0.00     0.187 C 
BRANCH  18  19
HETATM   19  O   UNL     1     -42.822 -47.900   9.126  1.00  0.00    -0.394 OA
HETATM   20  C   UNL     1     -43.623 -46.996   8.376  1.00  0.00     0.201 C 
ENDBRANCH  18  19
ENDBRANCH  17  18
ENDBRANCH   1  17
TORSDOF 5
ENDMDL
MODEL 9
REMARK VINA RESULT:      -5.1      5.868      8.846
REMARK  5 active torsions:
REMARK  status: ('A' for Active; 'I' for Inactive)
REMARK    1  A    between atoms: O_2  and  C_3 
REMARK    2  A    between atoms: C_3  and  C_4 
REMARK    3  A    between atoms: C_4  and  N_5 
REMARK    4  A    between atoms: C_7  and  N_8 
REMARK       I    between atoms: N_8  and  C_9 
REMARK    5  A    between atoms: C_9  and  C_11 
ROOT
HETATM    1  N   UNL     1     -46.496 -52.791  17.489  1.00  0.00    -0.320 N 
HETATM    2  C   UNL     1     -45.473 -53.126  16.614  1.00  0.00     0.123 A 
HETATM    3  C   UNL     1     -45.364 -52.583  15.389  1.00  0.00     0.050 A 
HETATM    4  C   UNL     1     -46.394 -51.653  14.961  1.00  0.00     0.036 A 
HETATM    5  C   UNL     1     -47.404 -51.315  15.778  1.00  0.00     0.077 A 
HETATM    6  C   UNL     1     -47.487 -51.875  17.151  1.00  0.00     0.247 A 
HETATM    7  O   UNL     1     -48.396 -51.513  17.894  1.00  0.00    -0.268 OA
ENDROOT
BRANCH   3   8
HETATM    8  N   UNL     1     -44.326 -52.818  14.510  1.00  0.00    -0.326 N 
HETATM    9  C   UNL     1     -44.289 -53.752  13.480  1.00  0.00     0.226 C 
HETATM   10  O   UNL     1     -45.221 -54.474  13.144  1.00  0.00    -0.273 OA
HETATM   11  H   UNL     1     -43.488 -52.265  14.646  1.00  0.00     0.169 HD
BRANCH   9  12
HETATM   12  C   UNL     1     -42.955 -53.776  12.743  1.00  0.00     0.078 C 
HETATM   13  C   UNL     1     -41.798 -54.310  13.602  1.00  0.00     0.014 C 
HETATM   14  C   UNL     1     -40.546 -53.552  13.162  1.00  0.00     0.001 C 
HETATM   15  C   UNL     1     -40.994 -52.605  12.059  1.00  0.00     0.001 C 
HETATM   16  C   UNL     1     -42.475 -52.390  12.323  1.00  0.00     0.014 C 
ENDBRANCH   9  12
ENDBRANCH   3   8
BRANCH   1  17
HETATM   17  C   UNL     1     -46.448 -53.312  18.857  1.00  0.00     0.158 C 
BRANCH  17  18
HETATM   18  C   UNL     1     -45.585 -54.563  19.017  1.00  0.00     0.187 C 
BRANCH  18  19
HETATM   19  O   UNL     1     -46.411 -55.713  18.805  1.00  0.00    -0.394 OA
HETATM   20  C   UNL     1     -47.373 -55.862  19.840  1.00  0.00     0.201 C 
ENDBRANCH  18  19
ENDBRANCH  17  18
ENDBRANCH   1  17
TORSDOF 5
ENDMDL
