MODEL 1
REMARK VINA RESULT:      -6.1      0.000      0.000
REMARK  4 active torsions:
REMARK  status: ('A' for Active; 'I' for Inactive)
REMARK    1  A    between atoms: C_2  and  C_3 
REMARK    2  A    between atoms: C_2  and  C_16 
REMARK    3  A    between atoms: C_3  and  N_4 
REMARK       I    between atoms: N_4  and  C_5 
REMARK       I    between atoms: C_5  and  N_7 
REMARK    4  A    between atoms: C_11  and  C_12 
ROOT
HETATM    1  N   UNL     1     -42.167 -50.220  12.509  1.00  0.00    -0.342 N 
HETATM    2  C   UNL     1     -41.880 -51.557  12.372  1.00  0.00     0.318 C 
HETATM    3  O   UNL     1     -41.082 -51.968  11.536  1.00  0.00    -0.247 OA
HETATM    4  N   UNL     1     -42.526 -52.388  13.263  1.00  0.00    -0.329 N 
HETATM    5  C   UNL     1     -42.165 -53.798  13.295  1.00  0.00     0.128 C 
HETATM    6  C   UNL     1     -42.536 -54.293  14.691  1.00  0.00     0.022 C 
HETATM    7  C   UNL     1     -42.803 -53.020  15.492  1.00  0.00     0.027 C 
HETATM    8  C   UNL     1     -43.297 -52.022  14.445  1.00  0.00     0.093 C 
HETATM    9  H   UNL     1     -43.124 -50.049  12.765  1.00  0.00     0.164 HD
ENDROOT
BRANCH   1  10
HETATM   10  C   UNL     1     -41.581 -49.268  11.580  1.00  0.00     0.133 C 
BRANCH  10  11
HETATM   11  C   UNL     1     -42.277 -47.891  11.554  1.00  0.00     0.032 C 
HETATM   12  C   UNL     1     -42.921 -47.553  12.904  1.00  0.00     0.017 C 
BRANCH  11  13
HETATM   13  C   UNL     1     -43.225 -47.753  10.371  1.00  0.00    -0.050 A 
HETATM   14  C   UNL     1     -42.708 -47.758   9.068  1.00  0.00     0.024 A 
HETATM   15  C   UNL     1     -43.583 -47.657   7.995  1.00  0.00     0.088 A 
HETATM   16  N   UNL     1     -44.921 -47.559   8.125  1.00  0.00    -0.375 N 
HETATM   17  C   UNL     1     -45.405 -47.556   9.382  1.00  0.00     0.088 A 
ATOM     18  HN  UNL     1     -45.535 -47.491   7.313  1.00  0.00     0.164 HD
HETATM   19  C   UNL     1     -44.611 -47.646  10.517  1.00  0.00     0.024 A 
ENDBRANCH  11  13
ENDBRANCH  10  11
ENDBRANCH   1  10
BRANCH   8  20
HETATM   20  C   UNL     1     -44.777 -52.259  14.129  1.00  0.00     0.009 C 
HETATM   21  C   UNL     1     -45.521 -51.281  13.181  1.00  0.00     0.007 C 
HETATM   22  C   UNL     1     -46.752 -51.436  14.093  1.00  0.00     0.001 C 
HETATM   23  C   UNL     1     -45.775 -51.798  15.229  1.00  0.00     0.007 C 
ENDBRANCH   8  20
TORSDOF 4
ENDMDL
MODEL 2
REMARK VINA RESULT:      -5.8      1.609      2.160
REMARK  4 active torsions:
REMARK  status: ('A' for Active; 'I' for Inactive)
REMARK    1  A    between atoms: C_2  and  C_3 
REMARK    2  A    between atoms: C_2  and  C_16 
REMARK    3  A    between atoms: C_3  and  N_4 
REMARK       I    between atoms: N_4  and  C_5 
REMARK       I    between atoms: C_5  and  N_7 
REMARK    4  A    between atoms: C_11  and  C_12 
ROOT
HETATM    1  N   UNL     1     -41.372 -51.171  12.656  1.00  0.00    -0.342 N 
HETATM    2  C   UNL     1     -41.337 -52.536  12.809  1.00  0.00     0.318 C 
HETATM    3  O   UNL     1     -40.505 -53.232  12.238  1.00  0.00    -0.247 OA
HETATM    4  N   UNL     1     -42.278 -53.051  13.676  1.00  0.00    -0.329 N 
HETATM    5  C   UNL     1     -42.215 -54.465  14.019  1.00  0.00     0.128 C 
HETATM    6  C   UNL     1     -42.911 -54.597  15.372  1.00  0.00     0.022 C 
HETATM    7  C   UNL     1     -43.053 -53.162  15.874  1.00  0.00     0.027 C 
HETATM    8  C   UNL     1     -43.153 -52.332  14.594  1.00  0.00     0.093 C 
HETATM    9  H   UNL     1     -42.306 -50.798  12.677  1.00  0.00     0.164 HD
ENDROOT
BRANCH   1  10
HETATM   10  C   UNL     1     -40.458 -50.536  11.721  1.00  0.00     0.133 C 
BRANCH  10  11
HETATM   11  C   UNL     1     -39.999 -49.123  12.138  1.00  0.00     0.032 C 
HETATM   12  C   UNL     1     -40.079 -48.923  13.656  1.00  0.00     0.017 C 
BRANCH  11  13
HETATM   13  C   UNL     1     -40.702 -48.035  11.338  1.00  0.00    -0.050 A 
HETATM   14  C   UNL     1     -40.131 -46.758  11.260  1.00  0.00     0.024 A 
HETATM   15  C   UNL     1     -40.767 -45.780  10.508  1.00  0.00     0.088 A 
HETATM   16  N   UNL     1     -41.915 -45.982   9.830  1.00  0.00    -0.375 N 
HETATM   17  C   UNL     1     -42.453 -47.214   9.913  1.00  0.00     0.088 A 
ATOM     18  HN  UNL     1     -42.353 -45.241   9.283  1.00  0.00     0.164 HD
HETATM   19  C   UNL     1     -41.896 -48.254  10.643  1.00  0.00     0.024 A 
ENDBRANCH  11  13
ENDBRANCH  10  11
ENDBRANCH   1  10
BRANCH   8  20
HETATM   20  C   UNL     1     -44.573 -52.385  14.024  1.00  0.00     0.009 C 
HETATM   21  C   UNL     1     -45.146 -51.146  13.285  1.00  0.00     0.007 C 
HETATM   22  C   UNL     1     -46.503 -51.463  13.942  1.00  0.00     0.001 C 
HETATM   23  C   UNL     1     -45.714 -52.173  15.059  1.00  0.00     0.007 C 
ENDBRANCH   8  20
TORSDOF 4
ENDMDL
MODEL 3
REMARK VINA RESULT:      -5.8      3.585      6.098
REMARK  4 active torsions:
REMARK  status: ('A' for Active; 'I' for Inactive)
REMARK    1  A    between atoms: C_2  and  C_3 
REMARK    2  A    between atoms: C_2  and  C_16 
REMARK    3  A    between atoms: C_3  and  N_4 
REMARK       I    between atoms: N_4  and  C_5 
REMARK       I    between atoms: C_5  and  N_7 
REMARK    4  A    between atoms: C_11  and  C_12 
ROOT
HETATM    1  N   UNL     1     -44.626 -53.544  14.045  1.00  0.00    -0.342 N 
HETATM    2  C   UNL     1     -43.656 -54.002  14.903  1.00  0.00     0.318 C 
HETATM    3  O   UNL     1     -43.933 -54.589  15.943  1.00  0.00    -0.247 OA
HETATM    4  N   UNL     1     -42.359 -53.783  14.489  1.00  0.00    -0.329 N 
HETATM    5  C   UNL     1     -41.268 -54.369  15.256  1.00  0.00     0.128 C 
HETATM    6  C   UNL     1     -40.096 -54.495  14.286  1.00  0.00     0.022 C 
HETATM    7  C   UNL     1     -40.709 -54.256  12.908  1.00  0.00     0.027 C 
HETATM    8  C   UNL     1     -41.890 -53.326  13.186  1.00  0.00     0.093 C 
HETATM    9  H   UNL     1     -44.374 -52.684  13.590  1.00  0.00     0.164 HD
ENDROOT
BRANCH   1  10
HETATM   10  C   UNL     1     -46.025 -53.676  14.417  1.00  0.00     0.133 C 
BRANCH  10  11
HETATM   11  C   UNL     1     -46.830 -52.362  14.347  1.00  0.00     0.032 C 
HETATM   12  C   UNL     1     -46.494 -51.555  13.087  1.00  0.00     0.017 C 
BRANCH  11  13
HETATM   13  C   UNL     1     -46.726 -51.558  15.635  1.00  0.00    -0.050 A 
HETATM   14  C   UNL     1     -45.532 -50.888  15.936  1.00  0.00     0.024 A 
HETATM   15  C   UNL     1     -45.456 -50.137  17.101  1.00  0.00     0.088 A 
HETATM   16  N   UNL     1     -46.474 -50.002  17.975  1.00  0.00    -0.375 N 
HETATM   17  C   UNL     1     -47.615 -50.650  17.674  1.00  0.00     0.088 A 
ATOM     18  HN  UNL     1     -46.384 -49.437  18.820  1.00  0.00     0.164 HD
HETATM   19  C   UNL     1     -47.786 -51.429  16.538  1.00  0.00     0.024 A 
ENDBRANCH  11  13
ENDBRANCH  10  11
ENDBRANCH   1  10
BRANCH   8  20
HETATM   20  C   UNL     1     -41.413 -51.879  13.342  1.00  0.00     0.009 C 
HETATM   21  C   UNL     1     -42.419 -50.716  13.130  1.00  0.00     0.007 C 
HETATM   22  C   UNL     1     -41.275 -49.935  12.456  1.00  0.00     0.001 C 
HETATM   23  C   UNL     1     -40.636 -51.298  12.126  1.00  0.00     0.007 C 
ENDBRANCH   8  20
TORSDOF 4
ENDMDL
MODEL 4
REMARK VINA RESULT:      -5.7      2.710      6.071
REMARK  4 active torsions:
REMARK  status: ('A' for Active; 'I' for Inactive)
REMARK    1  A    between atoms: C_2  and  C_3 
REMARK    2  A    between atoms: C_2  and  C_16 
REMARK    3  A    between atoms: C_3  and  N_4 
REMARK       I    between atoms: N_4  and  C_5 
REMARK       I    between atoms: C_5  and  N_7 
REMARK    4  A    between atoms: C_11  and  C_12 
ROOT
HETATM    1  N   UNL     1     -43.742 -51.938  12.516  1.00  0.00    -0.342 N 
HETATM    2  C   UNL     1     -42.381 -52.119  12.468  1.00  0.00     0.318 C 
HETATM    3  O   UNL     1     -41.875 -53.236  12.448  1.00  0.00    -0.247 OA
HETATM    4  N   UNL     1     -41.639 -50.959  12.408  1.00  0.00    -0.329 N 
HETATM    5  C   UNL     1     -40.201 -51.055  12.197  1.00  0.00     0.128 C 
HETATM    6  C   UNL     1     -39.779 -49.724  11.579  1.00  0.00     0.022 C 
HETATM    7  C   UNL     1     -41.091 -49.054  11.175  1.00  0.00     0.027 C 
HETATM    8  C   UNL     1     -42.107 -49.596  12.181  1.00  0.00     0.093 C 
HETATM    9  H   UNL     1     -44.012 -51.131  13.052  1.00  0.00     0.164 HD
ENDROOT
BRANCH   1  10
HETATM   10  C   UNL     1     -44.610 -53.098  12.639  1.00  0.00     0.133 C 
BRANCH  10  11
HETATM   11  C   UNL     1     -46.069 -52.766  13.014  1.00  0.00     0.032 C 
HETATM   12  C   UNL     1     -46.619 -51.598  12.185  1.00  0.00     0.017 C 
BRANCH  11  13
HETATM   13  C   UNL     1     -46.247 -52.588  14.515  1.00  0.00    -0.050 A 
HETATM   14  C   UNL     1     -46.919 -51.458  15.002  1.00  0.00     0.024 A 
HETATM   15  C   UNL     1     -47.098 -51.318  16.371  1.00  0.00     0.088 A 
HETATM   16  N   UNL     1     -46.665 -52.215  17.280  1.00  0.00    -0.375 N 
HETATM   17  C   UNL     1     -46.021 -53.295  16.800  1.00  0.00     0.088 A 
ATOM     18  HN  UNL     1     -46.818 -52.082  18.280  1.00  0.00     0.164 HD
HETATM   19  C   UNL     1     -45.789 -53.521  15.450  1.00  0.00     0.024 A 
ENDBRANCH  11  13
ENDBRANCH  10  11
ENDBRANCH   1  10
BRANCH   8  20
HETATM   20  C   UNL     1     -42.007 -48.841  13.510  1.00  0.00     0.009 C 
HETATM   21  C   UNL     1     -43.080 -49.079  14.606  1.00  0.00     0.007 C 
HETATM   22  C   UNL     1     -42.993 -47.575  14.926  1.00  0.00     0.001 C 
HETATM   23  C   UNL     1     -42.506 -47.369  13.479  1.00  0.00     0.007 C 
ENDBRANCH   8  20
TORSDOF 4
ENDMDL
MODEL 5
REMARK VINA RESULT:      -5.7      2.397      4.233
REMARK  4 active torsions:
REMARK  status: ('A' for Active; 'I' for Inactive)
REMARK    1  A    between atoms: C_2  and  C_3 
REMARK    2  A    between atoms: C_2  and  C_16 
REMARK    3  A    between atoms: C_3  and  N_4 
REMARK       I    between atoms: N_4  and  C_5 
REMARK       I    between atoms: C_5  and  N_7 
REMARK    4  A    between atoms: C_11  and  C_12 
ROOT
HETATM    1  N   UNL     1     -42.308 -50.382  12.703  1.00  0.00    -0.342 N 
HETATM    2  C   UNL     1     -42.103 -51.723  12.485  1.00  0.00     0.318 C 
HETATM    3  O   UNL     1     -41.378 -52.132  11.585  1.00  0.00    -0.247 OA
HETATM    4  N   UNL     1     -42.741 -52.564  13.373  1.00  0.00    -0.329 N 
HETATM    5  C   UNL     1     -42.458 -53.991  13.316  1.00  0.00     0.128 C 
HETATM    6  C   UNL     1     -42.775 -54.536  14.706  1.00  0.00     0.022 C 
HETATM    7  C   UNL     1     -42.925 -53.294  15.582  1.00  0.00     0.027 C 
HETATM    8  C   UNL     1     -43.423 -52.219  14.615  1.00  0.00     0.093 C 
HETATM    9  H   UNL     1     -43.238 -50.175  13.024  1.00  0.00     0.164 HD
ENDROOT
BRANCH   1  10
HETATM   10  C   UNL     1     -41.725 -49.416  11.788  1.00  0.00     0.133 C 
BRANCH  10  11
HETATM   11  C   UNL     1     -40.557 -48.600  12.380  1.00  0.00     0.032 C 
HETATM   12  C   UNL     1     -40.329 -47.291  11.614  1.00  0.00     0.017 C 
BRANCH  11  13
HETATM   13  C   UNL     1     -39.298 -49.441  12.544  1.00  0.00    -0.050 A 
HETATM   14  C   UNL     1     -38.953 -49.928  13.812  1.00  0.00     0.024 A 
HETATM   15  C   UNL     1     -37.818 -50.715  13.946  1.00  0.00     0.088 A 
HETATM   16  N   UNL     1     -37.014 -51.054  12.918  1.00  0.00    -0.375 N 
HETATM   17  C   UNL     1     -37.357 -50.580  11.705  1.00  0.00     0.088 A 
ATOM     18  HN  UNL     1     -36.189 -51.638  13.052  1.00  0.00     0.164 HD
HETATM   19  C   UNL     1     -38.468 -49.782  11.471  1.00  0.00     0.024 A 
ENDBRANCH  11  13
ENDBRANCH  10  11
ENDBRANCH   1  10
BRANCH   8  20
HETATM   20  C   UNL     1     -44.929 -52.362  14.377  1.00  0.00     0.009 C 
HETATM   21  C   UNL     1     -45.614 -51.504  13.280  1.00  0.00     0.007 C 
HETATM   22  C   UNL     1     -46.819 -51.368  14.230  1.00  0.00     0.001 C 
HETATM   23  C   UNL     1     -45.838 -51.613  15.393  1.00  0.00     0.007 C 
ENDBRANCH   8  20
TORSDOF 4
ENDMDL
MODEL 6
REMARK VINA RESULT:      -5.7      3.432      5.754
REMARK  4 active torsions:
REMARK  status: ('A' for Active; 'I' for Inactive)
REMARK    1  A    between atoms: C_2  and  C_3 
REMARK    2  A    between atoms: C_2  and  C_16 
REMARK    3  A    between atoms: C_3  and  N_4 
REMARK       I    between atoms: N_4  and  C_5 
REMARK       I    between atoms: C_5  and  N_7 
REMARK    4  A    between atoms: C_11  and  C_12 
ROOT
HETATM    1  N   UNL     1     -43.081 -53.844  15.586  1.00  0.00    -0.342 N 
HETATM    2  C   UNL     1     -44.379 -54.023  15.172  1.00  0.00     0.318 C 
HETATM    3  O   UNL     1     -44.807 -55.119  14.827  1.00  0.00    -0.247 OA
HETATM    4  N   UNL     1     -45.165 -52.890  15.209  1.00  0.00    -0.329 N 
HETATM    5  C   UNL     1     -46.590 -53.016  14.938  1.00  0.00     0.128 C 
HETATM    6  C   UNL     1     -47.253 -51.825  15.627  1.00  0.00     0.022 C 
HETATM    7  C   UNL     1     -46.168 -51.253  16.536  1.00  0.00     0.027 C 
HETATM    8  C   UNL     1     -44.864 -51.599  15.817  1.00  0.00     0.093 C 
HETATM    9  H   UNL     1     -42.703 -52.952  15.320  1.00  0.00     0.164 HD
ENDROOT
BRANCH   1  10
HETATM   10  C   UNL     1     -42.157 -54.965  15.531  1.00  0.00     0.133 C 
BRANCH  10  11
HETATM   11  C   UNL     1     -40.697 -54.573  15.220  1.00  0.00     0.032 C 
HETATM   12  C   UNL     1     -39.939 -54.151  16.485  1.00  0.00     0.017 C 
BRANCH  11  13
HETATM   13  C   UNL     1     -40.607 -53.561  14.086  1.00  0.00    -0.050 A 
HETATM   14  C   UNL     1     -39.900 -52.367  14.282  1.00  0.00     0.024 A 
HETATM   15  C   UNL     1     -39.801 -51.462  13.233  1.00  0.00     0.088 A 
HETATM   16  N   UNL     1     -40.345 -51.663  12.015  1.00  0.00    -0.375 N 
HETATM   17  C   UNL     1     -41.021 -52.815  11.841  1.00  0.00     0.088 A 
ATOM     18  HN  UNL     1     -40.249 -50.978  11.265  1.00  0.00     0.164 HD
HETATM   19  C   UNL     1     -41.179 -53.777  12.828  1.00  0.00     0.024 A 
ENDBRANCH  11  13
ENDBRANCH  10  11
ENDBRANCH   1  10
BRANCH   8  20
HETATM   20  C   UNL     1     -44.590 -50.603  14.686  1.00  0.00     0.009 C 
HETATM   21  C   UNL     1     -43.974 -51.110  13.355  1.00  0.00     0.007 C 
HETATM   22  C   UNL     1     -43.154 -49.807  13.313  1.00  0.00     0.001 C 
HETATM   23  C   UNL     1     -43.297 -49.753  14.847  1.00  0.00     0.007 C 
ENDBRANCH   8  20
TORSDOF 4
ENDMDL
MODEL 7
REMARK VINA RESULT:      -5.7      2.389      3.002
REMARK  4 active torsions:
REMARK  status: ('A' for Active; 'I' for Inactive)
REMARK    1  A    between atoms: C_2  and  C_3 
REMARK    2  A    between atoms: C_2  and  C_16 
REMARK    3  A    between atoms: C_3  and  N_4 
REMARK       I    between atoms: N_4  and  C_5 
REMARK       I    between atoms: C_5  and  N_7 
REMARK    4  A    between atoms: C_11  and  C_12 
ROOT
HETATM    1  N   UNL     1     -40.005 -50.859  12.898  1.00  0.00    -0.342 N 
HETATM    2  C   UNL     1     -39.281 -51.977  13.232  1.00  0.00     0.318 C 
HETATM    3  O   UNL     1     -38.076 -52.059  13.021  1.00  0.00    -0.247 OA
HETATM    4  N   UNL     1     -40.002 -52.977  13.851  1.00  0.00    -0.329 N 
HETATM    5  C   UNL     1     -39.290 -54.132  14.380  1.00  0.00     0.128 C 
HETATM    6  C   UNL     1     -40.181 -54.704  15.480  1.00  0.00     0.022 C 
HETATM    7  C   UNL     1     -41.230 -53.622  15.728  1.00  0.00     0.027 C 
HETATM    8  C   UNL     1     -41.362 -52.919  14.376  1.00  0.00     0.093 C 
HETATM    9  H   UNL     1     -40.941 -51.071  12.601  1.00  0.00     0.164 HD
ENDROOT
BRANCH   1  10
HETATM   10  C   UNL     1     -39.348 -49.771  12.191  1.00  0.00     0.133 C 
BRANCH  10  11
HETATM   11  C   UNL     1     -39.798 -48.362  12.628  1.00  0.00     0.032 C 
HETATM   12  C   UNL     1     -40.456 -48.379  14.013  1.00  0.00     0.017 C 
BRANCH  11  13
HETATM   13  C   UNL     1     -40.635 -47.673  11.561  1.00  0.00    -0.050 A 
HETATM   14  C   UNL     1     -41.587 -48.412  10.845  1.00  0.00     0.024 A 
HETATM   15  C   UNL     1     -42.363 -47.768   9.891  1.00  0.00     0.088 A 
HETATM   16  N   UNL     1     -42.265 -46.454   9.606  1.00  0.00    -0.375 N 
HETATM   17  C   UNL     1     -41.347 -45.755  10.301  1.00  0.00     0.088 A 
ATOM     18  HN  UNL     1     -42.856 -46.013   8.901  1.00  0.00     0.164 HD
HETATM   19  C   UNL     1     -40.522 -46.310  11.269  1.00  0.00     0.024 A 
ENDBRANCH  11  13
ENDBRANCH  10  11
ENDBRANCH   1  10
BRANCH   8  20
HETATM   20  C   UNL     1     -42.261 -53.725  13.434  1.00  0.00     0.009 C 
HETATM   21  C   UNL     1     -43.210 -52.977  12.460  1.00  0.00     0.007 C 
HETATM   22  C   UNL     1     -44.251 -54.080  12.729  1.00  0.00     0.001 C 
HETATM   23  C   UNL     1     -43.548 -54.312  14.081  1.00  0.00     0.007 C 
ENDBRANCH   8  20
TORSDOF 4
ENDMDL
MODEL 8
REMARK VINA RESULT:      -5.5      3.587      7.328
REMARK  4 active torsions:
REMARK  status: ('A' for Active; 'I' for Inactive)
REMARK    1  A    between atoms: C_2  and  C_3 
REMARK    2  A    between atoms: C_2  and  C_16 
REMARK    3  A    between atoms: C_3  and  N_4 
REMARK       I    between atoms: N_4  and  C_5 
REMARK       I    between atoms: C_5  and  N_7 
REMARK    4  A    between atoms: C_11  and  C_12 
ROOT
HETATM    1  N   UNL     1     -39.124 -48.031  12.871  1.00  0.00    -0.342 N 
HETATM    2  C   UNL     1     -39.201 -46.711  13.243  1.00  0.00     0.318 C 
HETATM    3  O   UNL     1     -38.645 -46.286  14.250  1.00  0.00    -0.247 OA
HETATM    4  N   UNL     1     -39.915 -45.903  12.384  1.00  0.00    -0.329 N 
HETATM    5  C   UNL     1     -39.919 -44.465  12.613  1.00  0.00     0.128 C 
HETATM    6  C   UNL     1     -40.221 -43.826  11.260  1.00  0.00     0.022 C 
HETATM    7  C   UNL     1     -40.055 -44.962  10.252  1.00  0.00     0.027 C 
HETATM    8  C   UNL     1     -40.413 -46.217  11.049  1.00  0.00     0.093 C 
HETATM    9  H   UNL     1     -39.966 -48.366  12.436  1.00  0.00     0.164 HD
ENDROOT
BRANCH   1  10
HETATM   10  C   UNL     1     -38.441 -48.976  13.739  1.00  0.00     0.133 C 
BRANCH  10  11
HETATM   11  C   UNL     1     -37.966 -50.263  13.033  1.00  0.00     0.032 C 
HETATM   12  C   UNL     1     -37.506 -49.988  11.597  1.00  0.00     0.017 C 
BRANCH  11  13
HETATM   13  C   UNL     1     -38.988 -51.386  13.145  1.00  0.00    -0.050 A 
HETATM   14  C   UNL     1     -40.095 -51.399  12.285  1.00  0.00     0.024 A 
HETATM   15  C   UNL     1     -41.007 -52.441  12.378  1.00  0.00     0.088 A 
HETATM   16  N   UNL     1     -40.895 -53.462  13.251  1.00  0.00    -0.375 N 
HETATM   17  C   UNL     1     -39.827 -53.438  14.070  1.00  0.00     0.088 A 
ATOM     18  HN  UNL     1     -41.583 -54.215  13.288  1.00  0.00     0.164 HD
HETATM   19  C   UNL     1     -38.864 -52.438  14.058  1.00  0.00     0.024 A 
ENDBRANCH  11  13
ENDBRANCH  10  11
ENDBRANCH   1  10
BRANCH   8  20
HETATM   20  C   UNL     1     -41.932 -46.382  11.144  1.00  0.00     0.009 C 
HETATM   21  C   UNL     1     -42.536 -47.799  11.331  1.00  0.00     0.007 C 
HETATM   22  C   UNL     1     -43.675 -47.367  10.388  1.00  0.00     0.001 C 
HETATM   23  C   UNL     1     -42.693 -46.343   9.788  1.00  0.00     0.007 C 
ENDBRANCH   8  20
TORSDOF 4
ENDMDL
MODEL 9
REMARK VINA RESULT:      -5.5      4.318      6.252
REMARK  4 active torsions:
REMARK  status: ('A' for Active; 'I' for Inactive)
REMARK    1  A    between atoms: C_2  and  C_3 
REMARK    2  A    between atoms: C_2  and  C_16 
REMARK    3  A    between atoms: C_3  and  N_4 
REMARK       I    between atoms: N_4  and  C_5 
REMARK       I    between atoms: C_5  and  N_7 
REMARK    4  A    between atoms: C_11  and  C_12 
ROOT
HETATM    1  N   UNL     1     -44.755 -53.728  14.591  1.00  0.00    -0.342 N 
HETATM    2  C   UNL     1     -43.878 -54.023  13.576  1.00  0.00     0.318 C 
HETATM    3  O   UNL     1     -44.253 -54.176  12.418  1.00  0.00    -0.247 OA
HETATM    4  N   UNL     1     -42.553 -54.098  13.950  1.00  0.00    -0.329 N 
HETATM    5  C   UNL     1     -41.539 -54.251  12.917  1.00  0.00     0.128 C 
HETATM    6  C   UNL     1     -40.247 -53.699  13.514  1.00  0.00     0.022 C 
HETATM    7  C   UNL     1     -40.691 -52.958  14.773  1.00  0.00     0.027 C 
HETATM    8  C   UNL     1     -41.948 -53.706  15.218  1.00  0.00     0.093 C 
HETATM    9  H   UNL     1     -44.495 -54.146  15.468  1.00  0.00     0.164 HD
ENDROOT
BRANCH   1  10
HETATM   10  C   UNL     1     -46.180 -53.683  14.310  1.00  0.00     0.133 C 
BRANCH  10  11
HETATM   11  C   UNL     1     -46.766 -52.259  14.213  1.00  0.00     0.032 C 
HETATM   12  C   UNL     1     -46.311 -51.541  12.936  1.00  0.00     0.017 C 
BRANCH  11  13
HETATM   13  C   UNL     1     -46.530 -51.456  15.484  1.00  0.00    -0.050 A 
HETATM   14  C   UNL     1     -47.532 -51.402  16.463  1.00  0.00     0.024 A 
HETATM   15  C   UNL     1     -47.297 -50.688  17.630  1.00  0.00     0.088 A 
HETATM   16  N   UNL     1     -46.146 -50.037  17.892  1.00  0.00    -0.375 N 
HETATM   17  C   UNL     1     -45.192 -50.097  16.944  1.00  0.00     0.088 A 
ATOM     18  HN  UNL     1     -46.006 -49.525  18.764  1.00  0.00     0.164 HD
HETATM   19  C   UNL     1     -45.334 -50.779  15.744  1.00  0.00     0.024 A 
ENDBRANCH  11  13
ENDBRANCH  10  11
ENDBRANCH   1  10
BRANCH   8  20
HETATM   20  C   UNL     1     -41.577 -54.984  15.974  1.00  0.00     0.009 C 
HETATM   21  C   UNL     1     -42.598 -55.612  16.960  1.00  0.00     0.007 C 
HETATM   22  C   UNL     1     -41.407 -55.953  17.875  1.00  0.00     0.001 C 
HETATM   23  C   UNL     1     -40.655 -54.784  17.210  1.00  0.00     0.007 C 
ENDBRANCH   8  20
TORSDOF 4
ENDMDL
