MODEL 1
REMARK VINA RESULT:      -6.5      0.000      0.000
REMARK  4 active torsions:
REMARK  status: ('A' for Active; 'I' for Inactive)
REMARK    1  A    between atoms: O_1  and  C_2 
REMARK    2  A    between atoms: C_2  and  C_3 
REMARK    3  A    between atoms: C_2  and  C_14 
REMARK    4  A    between atoms: C_3  and  N_4 
ROOT
HETATM    1  C   UNL     1     -40.358 -51.950  13.477  1.00  0.00     0.166 C 
ENDROOT
BRANCH   1   2
HETATM    2  C   UNL     1     -40.776 -53.307  12.880  1.00  0.00     0.169 C 
BRANCH   2   3
HETATM    3  O   UNL     1     -40.597 -53.338  11.462  1.00  0.00    -0.389 OA
HETATM    4  H   UNL     1     -41.477 -53.362  11.049  1.00  0.00     0.210 HD
ENDBRANCH   2   3
BRANCH   2   5
HETATM    5  C   UNL     1     -42.179 -53.745  13.244  1.00  0.00    -0.028 A 
HETATM    6  C   UNL     1     -42.385 -54.576  14.359  1.00  0.00     0.013 A 
HETATM    7  C   UNL     1     -43.667 -55.024  14.685  1.00  0.00     0.043 A 
HETATM    8  C   UNL     1     -44.748 -54.634  13.904  1.00  0.00     0.116 A 
HETATM    9  F   UNL     1     -45.974 -55.080  14.208  1.00  0.00    -0.206 F 
HETATM   10  C   UNL     1     -44.575 -53.796  12.812  1.00  0.00     0.043 A 
HETATM   11  C   UNL     1     -43.293 -53.348  12.484  1.00  0.00     0.013 A 
ENDBRANCH   2   5
ENDBRANCH   1   2
BRANCH   1  12
HETATM   12  N   UNL     1     -40.263 -50.848  12.539  1.00  0.00    -0.338 N 
HETATM   13  C   UNL     1     -39.119 -50.459  11.896  1.00  0.00     0.184 A 
HETATM   14  N   UNL     1     -39.305 -49.377  11.176  1.00  0.00    -0.350 N 
HETATM   15  C   UNL     1     -40.616 -49.035  11.377  1.00  0.00     0.060 A 
ATOM     16  HN  UNL     1     -38.621 -48.895  10.593  1.00  0.00     0.166 HD
HETATM   17  C   UNL     1     -41.335 -47.946  10.862  1.00  0.00     0.032 A 
HETATM   18  C   UNL     1     -41.248 -49.934  12.236  1.00  0.00     0.062 A 
HETATM   19  C   UNL     1     -42.673 -47.784  11.234  1.00  0.00     0.002 A 
HETATM   20  C   UNL     1     -43.286 -48.692  12.098  1.00  0.00     0.002 A 
HETATM   21  C   UNL     1     -42.589 -49.791  12.616  1.00  0.00     0.032 A 
ENDBRANCH   1  12
TORSDOF 4
ENDMDL
MODEL 2
REMARK VINA RESULT:      -6.1      2.252      2.431
REMARK  4 active torsions:
REMARK  status: ('A' for Active; 'I' for Inactive)
REMARK    1  A    between atoms: O_1  and  C_2 
REMARK    2  A    between atoms: C_2  and  C_3 
REMARK    3  A    between atoms: C_2  and  C_14 
REMARK    4  A    between atoms: C_3  and  N_4 
ROOT
HETATM    1  C   UNL     1     -41.712 -51.736  13.392  1.00  0.00     0.166 C 
ENDROOT
BRANCH   1   2
HETATM    2  C   UNL     1     -42.936 -52.636  13.139  1.00  0.00     0.169 C 
BRANCH   2   3
HETATM    3  O   UNL     1     -43.151 -52.856  11.743  1.00  0.00    -0.389 OA
HETATM    4  H   UNL     1     -43.762 -53.606  11.647  1.00  0.00     0.210 HD
ENDBRANCH   2   3
BRANCH   2   5
HETATM    5  C   UNL     1     -44.212 -52.156  13.798  1.00  0.00    -0.028 A 
HETATM    6  C   UNL     1     -44.204 -51.794  15.157  1.00  0.00     0.013 A 
HETATM    7  C   UNL     1     -45.380 -51.389  15.792  1.00  0.00     0.043 A 
HETATM    8  C   UNL     1     -46.565 -51.335  15.070  1.00  0.00     0.116 A 
HETATM    9  F   UNL     1     -47.695 -50.964  15.686  1.00  0.00    -0.206 F 
HETATM   10  C   UNL     1     -46.596 -51.664  13.722  1.00  0.00     0.043 A 
HETATM   11  C   UNL     1     -45.420 -52.071  13.085  1.00  0.00     0.013 A 
ENDBRANCH   2   5
ENDBRANCH   1   2
BRANCH   1  12
HETATM   12  N   UNL     1     -41.383 -50.802  12.332  1.00  0.00    -0.338 N 
HETATM   13  C   UNL     1     -40.349 -50.949  11.447  1.00  0.00     0.184 A 
HETATM   14  N   UNL     1     -40.229 -49.909  10.655  1.00  0.00    -0.350 N 
HETATM   15  C   UNL     1     -41.210 -49.040  11.055  1.00  0.00     0.060 A 
ATOM     16  HN  UNL     1     -39.553 -49.776   9.904  1.00  0.00     0.166 HD
HETATM   17  C   UNL     1     -41.517 -47.764  10.562  1.00  0.00     0.032 A 
HETATM   18  C   UNL     1     -41.950 -49.566  12.114  1.00  0.00     0.062 A 
HETATM   19  C   UNL     1     -42.557 -47.043  11.154  1.00  0.00     0.002 A 
HETATM   20  C   UNL     1     -43.283 -47.584  12.216  1.00  0.00     0.002 A 
HETATM   21  C   UNL     1     -43.000 -48.860  12.719  1.00  0.00     0.032 A 
ENDBRANCH   1  12
TORSDOF 4
ENDMDL
MODEL 3
REMARK VINA RESULT:      -6.1      2.853      5.337
REMARK  4 active torsions:
REMARK  status: ('A' for Active; 'I' for Inactive)
REMARK    1  A    between atoms: O_1  and  C_2 
REMARK    2  A    between atoms: C_2  and  C_3 
REMARK    3  A    between atoms: C_2  and  C_14 
REMARK    4  A    between atoms: C_3  and  N_4 
ROOT
HETATM    1  C   UNL     1     -40.646 -52.536  13.498  1.00  0.00     0.166 C 
ENDROOT
BRANCH   1   2
HETATM    2  C   UNL     1     -41.694 -52.959  12.451  1.00  0.00     0.169 C 
BRANCH   2   3
HETATM    3  O   UNL     1     -41.311 -52.566  11.131  1.00  0.00    -0.389 OA
HETATM    4  H   UNL     1     -40.789 -53.289  10.742  1.00  0.00     0.210 HD
ENDBRANCH   2   3
BRANCH   2   5
HETATM    5  C   UNL     1     -43.103 -52.493  12.752  1.00  0.00    -0.028 A 
HETATM    6  C   UNL     1     -44.198 -53.299  12.394  1.00  0.00     0.013 A 
HETATM    7  C   UNL     1     -45.505 -52.867  12.626  1.00  0.00     0.043 A 
HETATM    8  C   UNL     1     -45.723 -51.632  13.224  1.00  0.00     0.116 A 
HETATM    9  F   UNL     1     -46.978 -51.211  13.427  1.00  0.00    -0.206 F 
HETATM   10  C   UNL     1     -44.659 -50.827  13.607  1.00  0.00     0.043 A 
HETATM   11  C   UNL     1     -43.351 -51.257  13.375  1.00  0.00     0.013 A 
ENDBRANCH   2   5
ENDBRANCH   1   2
BRANCH   1  12
HETATM   12  N   UNL     1     -40.101 -53.603  14.315  1.00  0.00    -0.338 N 
HETATM   13  C   UNL     1     -38.834 -54.109  14.204  1.00  0.00     0.184 A 
HETATM   14  N   UNL     1     -38.641 -55.129  15.007  1.00  0.00    -0.350 N 
HETATM   15  C   UNL     1     -39.837 -55.309  15.650  1.00  0.00     0.060 A 
ATOM     16  HN  UNL     1     -37.785 -55.670  15.127  1.00  0.00     0.166 HD
HETATM   17  C   UNL     1     -40.194 -56.276  16.601  1.00  0.00     0.032 A 
HETATM   18  C   UNL     1     -40.782 -54.371  15.233  1.00  0.00     0.062 A 
HETATM   19  C   UNL     1     -41.498 -56.281  17.103  1.00  0.00     0.002 A 
HETATM   20  C   UNL     1     -42.430 -55.338  16.670  1.00  0.00     0.002 A 
HETATM   21  C   UNL     1     -42.093 -54.358  15.728  1.00  0.00     0.032 A 
ENDBRANCH   1  12
TORSDOF 4
ENDMDL
MODEL 4
REMARK VINA RESULT:      -6.0      2.471      3.884
REMARK  4 active torsions:
REMARK  status: ('A' for Active; 'I' for Inactive)
REMARK    1  A    between atoms: O_1  and  C_2 
REMARK    2  A    between atoms: C_2  and  C_3 
REMARK    3  A    between atoms: C_2  and  C_14 
REMARK    4  A    between atoms: C_3  and  N_4 
ROOT
HETATM    1  C   UNL     1     -41.221 -48.650  12.069  1.00  0.00     0.166 C 
ENDROOT
BRANCH   1   2
HETATM    2  C   UNL     1     -40.302 -49.771  11.549  1.00  0.00     0.169 C 
BRANCH   2   3
HETATM    3  O   UNL     1     -40.450 -49.964  10.140  1.00  0.00    -0.389 OA
HETATM    4  H   UNL     1     -39.954 -50.763   9.893  1.00  0.00     0.210 HD
ENDBRANCH   2   3
BRANCH   2   5
HETATM    5  C   UNL     1     -40.448 -51.089  12.279  1.00  0.00    -0.028 A 
HETATM    6  C   UNL     1     -41.586 -51.887  12.061  1.00  0.00     0.013 A 
HETATM    7  C   UNL     1     -41.757 -53.085  12.757  1.00  0.00     0.043 A 
HETATM    8  C   UNL     1     -40.789 -53.495  13.665  1.00  0.00     0.116 A 
HETATM    9  F   UNL     1     -40.965 -54.636  14.346  1.00  0.00    -0.206 F 
HETATM   10  C   UNL     1     -39.647 -52.738  13.882  1.00  0.00     0.043 A 
HETATM   11  C   UNL     1     -39.474 -51.538  13.188  1.00  0.00     0.013 A 
ENDBRANCH   2   5
ENDBRANCH   1   2
BRANCH   1  12
HETATM   12  N   UNL     1     -41.516 -47.585  11.129  1.00  0.00    -0.338 N 
HETATM   13  C   UNL     1     -40.667 -46.559  10.812  1.00  0.00     0.184 A 
HETATM   14  N   UNL     1     -41.228 -45.690  10.004  1.00  0.00    -0.350 N 
HETATM   15  C   UNL     1     -42.500 -46.157   9.804  1.00  0.00     0.060 A 
ATOM     16  HN  UNL     1     -40.808 -44.849   9.609  1.00  0.00     0.166 HD
HETATM   17  C   UNL     1     -43.538 -45.602   9.041  1.00  0.00     0.032 A 
HETATM   18  C   UNL     1     -42.719 -47.344  10.504  1.00  0.00     0.062 A 
HETATM   19  C   UNL     1     -44.775 -46.251   9.009  1.00  0.00     0.002 A 
HETATM   20  C   UNL     1     -44.975 -47.435   9.719  1.00  0.00     0.002 A 
HETATM   21  C   UNL     1     -43.951 -48.012  10.481  1.00  0.00     0.032 A 
ENDBRANCH   1  12
TORSDOF 4
ENDMDL
MODEL 5
REMARK VINA RESULT:      -5.9      1.675      3.209
REMARK  4 active torsions:
REMARK  status: ('A' for Active; 'I' for Inactive)
REMARK    1  A    between atoms: O_1  and  C_2 
REMARK    2  A    between atoms: C_2  and  C_3 
REMARK    3  A    between atoms: C_2  and  C_14 
REMARK    4  A    between atoms: C_3  and  N_4 
ROOT
HETATM    1  C   UNL     1     -42.417 -50.616  13.030  1.00  0.00     0.166 C 
ENDROOT
BRANCH   1   2
HETATM    2  C   UNL     1     -42.726 -52.113  12.841  1.00  0.00     0.169 C 
BRANCH   2   3
HETATM    3  O   UNL     1     -42.517 -52.529  11.489  1.00  0.00    -0.389 OA
HETATM    4  H   UNL     1     -42.785 -53.461  11.417  1.00  0.00     0.210 HD
ENDBRANCH   2   3
BRANCH   2   5
HETATM    5  C   UNL     1     -44.103 -52.532  13.313  1.00  0.00    -0.028 A 
HETATM    6  C   UNL     1     -45.078 -51.555  13.581  1.00  0.00     0.013 A 
HETATM    7  C   UNL     1     -46.338 -51.920  14.057  1.00  0.00     0.043 A 
HETATM    8  C   UNL     1     -46.633 -53.263  14.258  1.00  0.00     0.116 A 
HETATM    9  F   UNL     1     -47.836 -53.610  14.733  1.00  0.00    -0.206 F 
HETATM   10  C   UNL     1     -45.696 -54.248  13.980  1.00  0.00     0.043 A 
HETATM   11  C   UNL     1     -44.433 -53.884  13.505  1.00  0.00     0.013 A 
ENDBRANCH   2   5
ENDBRANCH   1   2
BRANCH   1  12
HETATM   12  N   UNL     1     -41.231 -50.124  12.356  1.00  0.00    -0.338 N 
HETATM   13  C   UNL     1     -41.232 -49.299  11.264  1.00  0.00     0.184 A 
HETATM   14  N   UNL     1     -40.020 -49.089  10.807  1.00  0.00    -0.350 N 
HETATM   15  C   UNL     1     -39.199 -49.824  11.619  1.00  0.00     0.060 A 
ATOM     16  HN  UNL     1     -39.748 -48.504  10.017  1.00  0.00     0.166 HD
HETATM   17  C   UNL     1     -37.805 -49.978  11.564  1.00  0.00     0.032 A 
HETATM   18  C   UNL     1     -39.927 -50.496  12.601  1.00  0.00     0.062 A 
HETATM   19  C   UNL     1     -37.180 -50.813  12.494  1.00  0.00     0.002 A 
HETATM   20  C   UNL     1     -37.928 -51.480  13.466  1.00  0.00     0.002 A 
HETATM   21  C   UNL     1     -39.318 -51.334  13.545  1.00  0.00     0.032 A 
ENDBRANCH   1  12
TORSDOF 4
ENDMDL
MODEL 6
REMARK VINA RESULT:      -5.9      3.603      5.903
REMARK  4 active torsions:
REMARK  status: ('A' for Active; 'I' for Inactive)
REMARK    1  A    between atoms: O_1  and  C_2 
REMARK    2  A    between atoms: C_2  and  C_3 
REMARK    3  A    between atoms: C_2  and  C_14 
REMARK    4  A    between atoms: C_3  and  N_4 
ROOT
HETATM    1  C   UNL     1     -41.988 -52.938  13.353  1.00  0.00     0.166 C 
ENDROOT
BRANCH   1   2
HETATM    2  C   UNL     1     -41.178 -52.399  12.159  1.00  0.00     0.169 C 
BRANCH   2   3
HETATM    3  O   UNL     1     -40.559 -53.454  11.420  1.00  0.00    -0.389 OA
HETATM    4  H   UNL     1     -39.596 -53.366  11.519  1.00  0.00     0.210 HD
ENDBRANCH   2   3
BRANCH   2   5
HETATM    5  C   UNL     1     -40.157 -51.342  12.523  1.00  0.00    -0.028 A 
HETATM    6  C   UNL     1     -40.060 -50.169  11.753  1.00  0.00     0.013 A 
HETATM    7  C   UNL     1     -39.096 -49.203  12.049  1.00  0.00     0.043 A 
HETATM    8  C   UNL     1     -38.233 -49.399  13.120  1.00  0.00     0.116 A 
HETATM    9  F   UNL     1     -37.298 -48.479  13.389  1.00  0.00    -0.206 F 
HETATM   10  C   UNL     1     -38.324 -50.537  13.909  1.00  0.00     0.043 A 
HETATM   11  C   UNL     1     -39.286 -51.506  13.614  1.00  0.00     0.013 A 
ENDBRANCH   2   5
ENDBRANCH   1   2
BRANCH   1  12
HETATM   12  N   UNL     1     -43.428 -52.788  13.260  1.00  0.00    -0.338 N 
HETATM   13  C   UNL     1     -44.180 -53.083  12.156  1.00  0.00     0.184 A 
HETATM   14  N   UNL     1     -45.443 -52.764  12.322  1.00  0.00    -0.350 N 
HETATM   15  C   UNL     1     -45.511 -52.217  13.576  1.00  0.00     0.060 A 
ATOM     16  HN  UNL     1     -46.207 -52.894  11.661  1.00  0.00     0.166 HD
HETATM   17  C   UNL     1     -46.620 -51.688  14.252  1.00  0.00     0.032 A 
HETATM   18  C   UNL     1     -44.260 -52.209  14.193  1.00  0.00     0.062 A 
HETATM   19  C   UNL     1     -46.440 -51.153  15.531  1.00  0.00     0.002 A 
HETATM   20  C   UNL     1     -45.179 -51.150  16.129  1.00  0.00     0.002 A 
HETATM   21  C   UNL     1     -44.060 -51.681  15.476  1.00  0.00     0.032 A 
ENDBRANCH   1  12
TORSDOF 4
ENDMDL
MODEL 7
REMARK VINA RESULT:      -5.7      3.739      6.554
REMARK  4 active torsions:
REMARK  status: ('A' for Active; 'I' for Inactive)
REMARK    1  A    between atoms: O_1  and  C_2 
REMARK    2  A    between atoms: C_2  and  C_3 
REMARK    3  A    between atoms: C_2  and  C_14 
REMARK    4  A    between atoms: C_3  and  N_4 
ROOT
HETATM    1  C   UNL     1     -39.612 -52.244  13.485  1.00  0.00     0.166 C 
ENDROOT
BRANCH   1   2
HETATM    2  C   UNL     1     -39.046 -50.950  12.871  1.00  0.00     0.169 C 
BRANCH   2   3
HETATM    3  O   UNL     1     -38.215 -51.220  11.739  1.00  0.00    -0.389 OA
HETATM    4  H   UNL     1     -38.758 -51.670  11.069  1.00  0.00     0.210 HD
ENDBRANCH   2   3
BRANCH   2   5
HETATM    5  C   UNL     1     -38.320 -50.056  13.854  1.00  0.00    -0.028 A 
HETATM    6  C   UNL     1     -38.097 -50.500  15.170  1.00  0.00     0.013 A 
HETATM    7  C   UNL     1     -37.467 -49.673  16.102  1.00  0.00     0.043 A 
HETATM    8  C   UNL     1     -37.049 -48.404  15.721  1.00  0.00     0.116 A 
HETATM    9  F   UNL     1     -36.462 -47.605  16.622  1.00  0.00    -0.206 F 
HETATM   10  C   UNL     1     -37.237 -47.951  14.423  1.00  0.00     0.043 A 
HETATM   11  C   UNL     1     -37.869 -48.776  13.489  1.00  0.00     0.013 A 
ENDBRANCH   2   5
ENDBRANCH   1   2
BRANCH   1  12
HETATM   12  N   UNL     1     -40.926 -52.643  13.020  1.00  0.00    -0.338 N 
HETATM   13  C   UNL     1     -41.556 -52.139  11.914  1.00  0.00     0.184 A 
HETATM   14  N   UNL     1     -42.772 -52.614  11.783  1.00  0.00    -0.350 N 
HETATM   15  C   UNL     1     -42.950 -53.443  12.859  1.00  0.00     0.060 A 
ATOM     16  HN  UNL     1     -43.440 -52.410  11.040  1.00  0.00     0.166 HD
HETATM   17  C   UNL     1     -44.079 -54.192  13.222  1.00  0.00     0.032 A 
HETATM   18  C   UNL     1     -41.811 -53.479  13.663  1.00  0.00     0.062 A 
HETATM   19  C   UNL     1     -44.037 -54.953  14.393  1.00  0.00     0.002 A 
HETATM   20  C   UNL     1     -42.890 -54.973  15.187  1.00  0.00     0.002 A 
HETATM   21  C   UNL     1     -41.748 -54.240  14.839  1.00  0.00     0.032 A 
ENDBRANCH   1  12
TORSDOF 4
ENDMDL
MODEL 8
REMARK VINA RESULT:      -5.6      1.787      2.766
REMARK  4 active torsions:
REMARK  status: ('A' for Active; 'I' for Inactive)
REMARK    1  A    between atoms: O_1  and  C_2 
REMARK    2  A    between atoms: C_2  and  C_3 
REMARK    3  A    between atoms: C_2  and  C_14 
REMARK    4  A    between atoms: C_3  and  N_4 
ROOT
HETATM    1  C   UNL     1     -41.335 -51.405  12.047  1.00  0.00     0.166 C 
ENDROOT
BRANCH   1   2
HETATM    2  C   UNL     1     -41.195 -52.848  12.567  1.00  0.00     0.169 C 
BRANCH   2   3
HETATM    3  O   UNL     1     -40.548 -53.694  11.613  1.00  0.00    -0.389 OA
HETATM    4  H   UNL     1     -41.167 -54.404  11.373  1.00  0.00     0.210 HD
ENDBRANCH   2   3
BRANCH   2   5
HETATM    5  C   UNL     1     -42.494 -53.475  13.031  1.00  0.00    -0.028 A 
HETATM    6  C   UNL     1     -42.486 -54.389  14.100  1.00  0.00     0.013 A 
HETATM    7  C   UNL     1     -43.668 -55.008  14.513  1.00  0.00     0.043 A 
HETATM    8  C   UNL     1     -44.861 -54.709  13.869  1.00  0.00     0.116 A 
HETATM    9  F   UNL     1     -45.990 -55.318  14.256  1.00  0.00    -0.206 F 
HETATM   10  C   UNL     1     -44.899 -53.793  12.827  1.00  0.00     0.043 A 
HETATM   11  C   UNL     1     -43.718 -53.174  12.410  1.00  0.00     0.013 A 
ENDBRANCH   2   5
ENDBRANCH   1   2
BRANCH   1  12
HETATM   12  N   UNL     1     -41.124 -50.357  13.027  1.00  0.00    -0.338 N 
HETATM   13  C   UNL     1     -42.111 -49.758  13.763  1.00  0.00     0.184 A 
HETATM   14  N   UNL     1     -41.645 -48.780  14.504  1.00  0.00    -0.350 N 
HETATM   15  C   UNL     1     -40.306 -48.723  14.221  1.00  0.00     0.060 A 
ATOM     16  HN  UNL     1     -42.168 -48.189  15.150  1.00  0.00     0.166 HD
HETATM   17  C   UNL     1     -39.332 -47.845  14.719  1.00  0.00     0.032 A 
HETATM   18  C   UNL     1     -39.944 -49.696  13.289  1.00  0.00     0.062 A 
HETATM   19  C   UNL     1     -38.018 -47.962  14.258  1.00  0.00     0.002 A 
HETATM   20  C   UNL     1     -37.677 -48.939  13.322  1.00  0.00     0.002 A 
HETATM   21  C   UNL     1     -38.631 -49.832  12.818  1.00  0.00     0.032 A 
ENDBRANCH   1  12
TORSDOF 4
ENDMDL
MODEL 9
REMARK VINA RESULT:      -5.6      2.505      3.676
REMARK  4 active torsions:
REMARK  status: ('A' for Active; 'I' for Inactive)
REMARK    1  A    between atoms: O_1  and  C_2 
REMARK    2  A    between atoms: C_2  and  C_3 
REMARK    3  A    between atoms: C_2  and  C_14 
REMARK    4  A    between atoms: C_3  and  N_4 
ROOT
HETATM    1  C   UNL     1     -42.288 -48.985  11.754  1.00  0.00     0.166 C 
ENDROOT
BRANCH   1   2
HETATM    2  C   UNL     1     -41.146 -50.019  11.772  1.00  0.00     0.169 C 
BRANCH   2   3
HETATM    3  O   UNL     1     -40.574 -50.197  10.474  1.00  0.00    -0.389 OA
HETATM    4  H   UNL     1     -41.086 -49.663   9.844  1.00  0.00     0.210 HD
ENDBRANCH   2   3
BRANCH   2   5
HETATM    5  C   UNL     1     -41.524 -51.358  12.369  1.00  0.00    -0.028 A 
HETATM    6  C   UNL     1     -42.698 -51.476  13.134  1.00  0.00     0.013 A 
HETATM    7  C   UNL     1     -43.040 -52.694  13.727  1.00  0.00     0.043 A 
HETATM    8  C   UNL     1     -42.217 -53.799  13.549  1.00  0.00     0.116 A 
HETATM    9  F   UNL     1     -42.538 -54.960  14.134  1.00  0.00    -0.206 F 
HETATM   10  C   UNL     1     -41.066 -53.714  12.779  1.00  0.00     0.043 A 
HETATM   11  C   UNL     1     -40.721 -52.497  12.186  1.00  0.00     0.013 A 
ENDBRANCH   2   5
ENDBRANCH   1   2
BRANCH   1  12
HETATM   12  N   UNL     1     -41.979 -47.711  11.134  1.00  0.00    -0.338 N 
HETATM   13  C   UNL     1     -42.424 -47.305   9.905  1.00  0.00     0.184 A 
HETATM   14  N   UNL     1     -41.915 -46.147   9.556  1.00  0.00    -0.350 N 
HETATM   15  C   UNL     1     -41.087 -45.795  10.589  1.00  0.00     0.060 A 
ATOM     16  HN  UNL     1     -42.097 -45.622   8.701  1.00  0.00     0.166 HD
HETATM   17  C   UNL     1     -40.276 -44.659  10.726  1.00  0.00     0.032 A 
HETATM   18  C   UNL     1     -41.096 -46.760  11.596  1.00  0.00     0.062 A 
HETATM   19  C   UNL     1     -39.486 -44.526  11.870  1.00  0.00     0.002 A 
HETATM   20  C   UNL     1     -39.505 -45.505  12.865  1.00  0.00     0.002 A 
HETATM   21  C   UNL     1     -40.314 -46.643  12.754  1.00  0.00     0.032 A 
ENDBRANCH   1  12
TORSDOF 4
ENDMDL
