MODEL 1
REMARK VINA RESULT:      -6.2      0.000      0.000
REMARK  4 active torsions:
REMARK  status: ('A' for Active; 'I' for Inactive)
REMARK    1  A    between atoms: C_2  and  C_3 
REMARK       I    between atoms: N_6  and  C_10 
REMARK       I    between atoms: C_10  and  N_12 
REMARK    2  A    between atoms: N_12  and  C_13 
REMARK    3  A    between atoms: C_13  and  C_14 
REMARK    4  A    between atoms: C_14  and  C_15 
ROOT
HETATM    1  C   UNL     1     -45.861 -52.380  14.480  1.00  0.00     0.073 C 
HETATM    2  C   UNL     1     -46.982 -51.733  15.310  1.00  0.00     0.047 C 
HETATM    3  C   UNL     1     -44.557 -52.380  15.329  1.00  0.00     0.165 C 
HETATM    4  N   UNL     1     -43.538 -53.246  14.729  1.00  0.00    -0.329 N 
HETATM    5  C   UNL     1     -44.027 -54.615  14.542  1.00  0.00     0.153 C 
HETATM    6  C   UNL     1     -45.291 -54.592  13.676  1.00  0.00     0.189 C 
HETATM    7  O   UNL     1     -46.302 -53.735  14.230  1.00  0.00    -0.377 OA
HETATM    8  C   UNL     1     -42.383 -52.881  14.073  1.00  0.00     0.318 C 
HETATM    9  O   UNL     1     -41.659 -53.694  13.509  1.00  0.00    -0.247 OA
HETATM   10  N   UNL     1     -42.093 -51.538  14.046  1.00  0.00    -0.343 N 
HETATM   11  H   UNL     1     -42.495 -50.960  14.761  1.00  0.00     0.164 HD
ENDROOT
BRANCH  10  12
HETATM   12  C   UNL     1     -40.836 -51.095  13.455  1.00  0.00     0.129 C 
BRANCH  12  13
HETATM   13  C   UNL     1     -40.718 -49.573  13.450  1.00  0.00     0.060 C 
BRANCH  13  14
HETATM   14  C   UNL     1     -41.441 -48.917  12.301  1.00  0.00    -0.041 A 
HETATM   15  C   UNL     1     -42.670 -48.278  12.475  1.00  0.00     0.010 A 
HETATM   16  C   UNL     1     -43.344 -47.758  11.371  1.00  0.00     0.025 A 
HETATM   17  C   UNL     1     -42.769 -47.881  10.111  1.00  0.00     0.005 A 
HETATM   18  C   UNL     1     -43.501 -47.436   8.880  1.00  0.00     0.068 C 
HETATM   19  N   UNL     1     -41.558 -48.456   9.922  1.00  0.00    -0.369 N 
HETATM   20  C   UNL     1     -40.925 -48.950  11.010  1.00  0.00     0.095 A 
ATOM     21  HN  UNL     1     -41.139 -48.516   8.994  1.00  0.00     0.165 HD
ENDBRANCH  13  14
ENDBRANCH  12  13
ENDBRANCH  10  12
BRANCH   1  22
HETATM   22  C   UNL     1     -45.637 -51.595  13.165  1.00  0.00     0.035 C 
HETATM   23  C   UNL     1     -46.800 -51.641  12.183  1.00  0.00     0.008 C 
ENDBRANCH   1  22
TORSDOF 4
ENDMDL
MODEL 2
REMARK VINA RESULT:      -5.9      2.285      6.169
REMARK  4 active torsions:
REMARK  status: ('A' for Active; 'I' for Inactive)
REMARK    1  A    between atoms: C_2  and  C_3 
REMARK       I    between atoms: N_6  and  C_10 
REMARK       I    between atoms: C_10  and  N_12 
REMARK    2  A    between atoms: N_12  and  C_13 
REMARK    3  A    between atoms: C_13  and  C_14 
REMARK    4  A    between atoms: C_14  and  C_15 
ROOT
HETATM    1  C   UNL     1     -41.693 -48.397  13.066  1.00  0.00     0.073 C 
HETATM    2  C   UNL     1     -42.516 -47.110  12.893  1.00  0.00     0.047 C 
HETATM    3  C   UNL     1     -42.061 -49.377  11.914  1.00  0.00     0.165 C 
HETATM    4  N   UNL     1     -41.105 -50.485  11.839  1.00  0.00    -0.329 N 
HETATM    5  C   UNL     1     -39.728 -50.008  11.686  1.00  0.00     0.153 C 
HETATM    6  C   UNL     1     -39.377 -49.074  12.848  1.00  0.00     0.189 C 
HETATM    7  O   UNL     1     -40.310 -47.986  12.958  1.00  0.00    -0.377 OA
HETATM    8  C   UNL     1     -41.293 -51.803  12.195  1.00  0.00     0.318 C 
HETATM    9  O   UNL     1     -40.381 -52.623  12.197  1.00  0.00    -0.247 OA
HETATM   10  N   UNL     1     -42.561 -52.155  12.591  1.00  0.00    -0.343 N 
HETATM   11  H   UNL     1     -43.323 -51.583  12.277  1.00  0.00     0.164 HD
ENDROOT
BRANCH  10  12
HETATM   12  C   UNL     1     -42.850 -53.553  12.885  1.00  0.00     0.129 C 
BRANCH  12  13
HETATM   13  C   UNL     1     -44.315 -53.895  12.629  1.00  0.00     0.060 C 
BRANCH  13  14
HETATM   14  C   UNL     1     -45.266 -53.230  13.592  1.00  0.00    -0.041 A 
HETATM   15  C   UNL     1     -45.967 -52.073  13.251  1.00  0.00     0.010 A 
HETATM   16  C   UNL     1     -46.771 -51.443  14.201  1.00  0.00     0.025 A 
HETATM   17  C   UNL     1     -46.864 -51.992  15.475  1.00  0.00     0.005 A 
HETATM   18  C   UNL     1     -47.627 -51.297  16.562  1.00  0.00     0.068 C 
HETATM   19  N   UNL     1     -46.229 -53.139  15.817  1.00  0.00    -0.369 N 
HETATM   20  C   UNL     1     -45.458 -53.729  14.876  1.00  0.00     0.095 A 
ATOM     21  HN  UNL     1     -46.328 -53.541  16.749  1.00  0.00     0.165 HD
ENDBRANCH  13  14
ENDBRANCH  12  13
ENDBRANCH  10  12
BRANCH   1  22
HETATM   22  C   UNL     1     -41.994 -49.054  14.435  1.00  0.00     0.035 C 
HETATM   23  C   UNL     1     -43.435 -49.508  14.627  1.00  0.00     0.008 C 
ENDBRANCH   1  22
TORSDOF 4
ENDMDL
MODEL 3
REMARK VINA RESULT:      -5.8      2.267      6.026
REMARK  4 active torsions:
REMARK  status: ('A' for Active; 'I' for Inactive)
REMARK    1  A    between atoms: C_2  and  C_3 
REMARK       I    between atoms: N_6  and  C_10 
REMARK       I    between atoms: C_10  and  N_12 
REMARK    2  A    between atoms: N_12  and  C_13 
REMARK    3  A    between atoms: C_13  and  C_14 
REMARK    4  A    between atoms: C_14  and  C_15 
ROOT
HETATM    1  C   UNL     1     -40.524 -50.981  12.600  1.00  0.00     0.073 C 
HETATM    2  C   UNL     1     -39.744 -50.062  11.646  1.00  0.00     0.047 C 
HETATM    3  C   UNL     1     -41.249 -52.067  11.754  1.00  0.00     0.165 C 
HETATM    4  N   UNL     1     -41.754 -53.148  12.607  1.00  0.00    -0.329 N 
HETATM    5  C   UNL     1     -40.689 -53.751  13.412  1.00  0.00     0.153 C 
HETATM    6  C   UNL     1     -40.013 -52.669  14.260  1.00  0.00     0.189 C 
HETATM    7  O   UNL     1     -39.523 -51.587  13.452  1.00  0.00    -0.377 OA
HETATM    8  C   UNL     1     -43.058 -53.423  12.956  1.00  0.00     0.318 C 
HETATM    9  O   UNL     1     -43.355 -54.289  13.771  1.00  0.00    -0.247 OA
HETATM   10  N   UNL     1     -44.027 -52.646  12.366  1.00  0.00    -0.343 N 
HETATM   11  H   UNL     1     -43.800 -52.197  11.498  1.00  0.00     0.164 HD
ENDROOT
BRANCH  10  12
HETATM   12  C   UNL     1     -45.430 -52.950  12.616  1.00  0.00     0.129 C 
BRANCH  12  13
HETATM   13  C   UNL     1     -46.223 -51.700  12.988  1.00  0.00     0.060 C 
BRANCH  13  14
HETATM   14  C   UNL     1     -46.129 -51.341  14.450  1.00  0.00    -0.041 A 
HETATM   15  C   UNL     1     -44.964 -50.804  15.001  1.00  0.00     0.010 A 
HETATM   16  C   UNL     1     -44.891 -50.565  16.372  1.00  0.00     0.025 A 
HETATM   17  C   UNL     1     -45.993 -50.861  17.167  1.00  0.00     0.005 A 
HETATM   18  C   UNL     1     -45.930 -50.725  18.659  1.00  0.00     0.068 C 
HETATM   19  N   UNL     1     -47.150 -51.341  16.650  1.00  0.00    -0.369 N 
HETATM   20  C   UNL     1     -47.194 -51.561  15.317  1.00  0.00     0.095 A 
ATOM     21  HN  UNL     1     -47.957 -51.529  17.244  1.00  0.00     0.165 HD
ENDBRANCH  13  14
ENDBRANCH  12  13
ENDBRANCH  10  12
BRANCH   1  22
HETATM   22  C   UNL     1     -41.558 -50.166  13.414  1.00  0.00     0.035 C 
HETATM   23  C   UNL     1     -42.560 -49.382  12.577  1.00  0.00     0.008 C 
ENDBRANCH   1  22
TORSDOF 4
ENDMDL
MODEL 4
REMARK VINA RESULT:      -5.7      2.672      5.954
REMARK  4 active torsions:
REMARK  status: ('A' for Active; 'I' for Inactive)
REMARK    1  A    between atoms: C_2  and  C_3 
REMARK       I    between atoms: N_6  and  C_10 
REMARK       I    between atoms: C_10  and  N_12 
REMARK    2  A    between atoms: N_12  and  C_13 
REMARK    3  A    between atoms: C_13  and  C_14 
REMARK    4  A    between atoms: C_14  and  C_15 
ROOT
HETATM    1  C   UNL     1     -40.506 -48.371  12.070  1.00  0.00     0.073 C 
HETATM    2  C   UNL     1     -41.113 -47.396  11.048  1.00  0.00     0.047 C 
HETATM    3  C   UNL     1     -39.898 -49.578  11.299  1.00  0.00     0.165 C 
HETATM    4  N   UNL     1     -39.042 -50.385  12.175  1.00  0.00    -0.329 N 
HETATM    5  C   UNL     1     -37.982 -49.584  12.791  1.00  0.00     0.153 C 
HETATM    6  C   UNL     1     -38.607 -48.423  13.572  1.00  0.00     0.189 C 
HETATM    7  O   UNL     1     -39.466 -47.624  12.743  1.00  0.00    -0.377 OA
HETATM    8  C   UNL     1     -39.293 -51.634  12.700  1.00  0.00     0.318 C 
HETATM    9  O   UNL     1     -38.550 -52.168  13.518  1.00  0.00    -0.247 OA
HETATM   10  N   UNL     1     -40.450 -52.251  12.289  1.00  0.00    -0.343 N 
HETATM   11  H   UNL     1     -40.848 -51.960  11.415  1.00  0.00     0.164 HD
ENDROOT
BRANCH  10  12
HETATM   12  C   UNL     1     -40.725 -53.612  12.730  1.00  0.00     0.129 C 
BRANCH  12  13
HETATM   13  C   UNL     1     -41.684 -53.641  13.917  1.00  0.00     0.060 C 
BRANCH  13  14
HETATM   14  C   UNL     1     -43.010 -52.979  13.635  1.00  0.00    -0.041 A 
HETATM   15  C   UNL     1     -43.583 -52.074  14.530  1.00  0.00     0.010 A 
HETATM   16  C   UNL     1     -44.849 -51.550  14.271  1.00  0.00     0.025 A 
HETATM   17  C   UNL     1     -45.514 -51.938  13.113  1.00  0.00     0.005 A 
HETATM   18  C   UNL     1     -46.918 -51.488  12.841  1.00  0.00     0.068 C 
HETATM   19  N   UNL     1     -44.960 -52.779  12.207  1.00  0.00    -0.369 N 
HETATM   20  C   UNL     1     -43.731 -53.271  12.483  1.00  0.00     0.095 A 
ATOM     21  HN  UNL     1     -45.452 -53.034  11.351  1.00  0.00     0.165 HD
ENDBRANCH  13  14
ENDBRANCH  12  13
ENDBRANCH  10  12
BRANCH   1  22
HETATM   22  C   UNL     1     -41.591 -48.867  13.057  1.00  0.00     0.035 C 
HETATM   23  C   UNL     1     -42.995 -48.963  12.474  1.00  0.00     0.008 C 
ENDBRANCH   1  22
TORSDOF 4
ENDMDL
MODEL 5
REMARK VINA RESULT:      -5.6      1.793      3.007
REMARK  4 active torsions:
REMARK  status: ('A' for Active; 'I' for Inactive)
REMARK    1  A    between atoms: C_2  and  C_3 
REMARK       I    between atoms: N_6  and  C_10 
REMARK       I    between atoms: C_10  and  N_12 
REMARK    2  A    between atoms: N_12  and  C_13 
REMARK    3  A    between atoms: C_13  and  C_14 
REMARK    4  A    between atoms: C_14  and  C_15 
ROOT
HETATM    1  C   UNL     1     -45.709 -51.327  15.520  1.00  0.00     0.073 C 
HETATM    2  C   UNL     1     -46.326 -50.885  16.857  1.00  0.00     0.047 C 
HETATM    3  C   UNL     1     -45.377 -52.845  15.609  1.00  0.00     0.165 C 
HETATM    4  N   UNL     1     -45.075 -53.396  14.284  1.00  0.00    -0.329 N 
HETATM    5  C   UNL     1     -46.166 -53.164  13.335  1.00  0.00     0.153 C 
HETATM    6  C   UNL     1     -46.451 -51.661  13.239  1.00  0.00     0.189 C 
HETATM    7  O   UNL     1     -46.733 -51.090  14.527  1.00  0.00    -0.377 OA
HETATM    8  C   UNL     1     -43.854 -53.784  13.777  1.00  0.00     0.318 C 
HETATM    9  O   UNL     1     -43.702 -54.126  12.609  1.00  0.00    -0.247 OA
HETATM   10  N   UNL     1     -42.788 -53.736  14.644  1.00  0.00    -0.343 N 
HETATM   11  H   UNL     1     -42.985 -53.776  15.627  1.00  0.00     0.164 HD
ENDROOT
BRANCH  10  12
HETATM   12  C   UNL     1     -41.489 -54.227  14.200  1.00  0.00     0.129 C 
BRANCH  12  13
HETATM   13  C   UNL     1     -40.392 -53.185  14.398  1.00  0.00     0.060 C 
BRANCH  13  14
HETATM   14  C   UNL     1     -40.529 -51.986  13.494  1.00  0.00    -0.041 A 
HETATM   15  C   UNL     1     -40.461 -50.683  13.987  1.00  0.00     0.010 A 
HETATM   16  C   UNL     1     -40.678 -49.604  13.131  1.00  0.00     0.025 A 
HETATM   17  C   UNL     1     -40.950 -49.853  11.791  1.00  0.00     0.005 A 
HETATM   18  C   UNL     1     -41.296 -48.736  10.852  1.00  0.00     0.068 C 
HETATM   19  N   UNL     1     -40.978 -51.107  11.278  1.00  0.00    -0.369 N 
HETATM   20  C   UNL     1     -40.762 -52.134  12.131  1.00  0.00     0.095 A 
ATOM     21  HN  UNL     1     -41.155 -51.270  10.287  1.00  0.00     0.165 HD
ENDBRANCH  13  14
ENDBRANCH  12  13
ENDBRANCH  10  12
BRANCH   1  22
HETATM   22  C   UNL     1     -44.421 -50.521  15.224  1.00  0.00     0.035 C 
HETATM   23  C   UNL     1     -43.372 -50.557  16.328  1.00  0.00     0.008 C 
ENDBRANCH   1  22
TORSDOF 4
ENDMDL
MODEL 6
REMARK VINA RESULT:      -5.3      2.803      3.709
REMARK  4 active torsions:
REMARK  status: ('A' for Active; 'I' for Inactive)
REMARK    1  A    between atoms: C_2  and  C_3 
REMARK       I    between atoms: N_6  and  C_10 
REMARK       I    between atoms: C_10  and  N_12 
REMARK    2  A    between atoms: N_12  and  C_13 
REMARK    3  A    between atoms: C_13  and  C_14 
REMARK    4  A    between atoms: C_14  and  C_15 
ROOT
HETATM    1  C   UNL     1     -45.868 -52.731  13.930  1.00  0.00     0.073 C 
HETATM    2  C   UNL     1     -46.412 -51.496  13.193  1.00  0.00     0.047 C 
HETATM    3  C   UNL     1     -44.937 -52.248  15.080  1.00  0.00     0.165 C 
HETATM    4  N   UNL     1     -44.632 -53.344  16.006  1.00  0.00    -0.329 N 
HETATM    5  C   UNL     1     -45.848 -53.951  16.552  1.00  0.00     0.153 C 
HETATM    6  C   UNL     1     -46.732 -54.449  15.403  1.00  0.00     0.189 C 
HETATM    7  O   UNL     1     -47.033 -53.400  14.469  1.00  0.00    -0.377 OA
HETATM    8  C   UNL     1     -43.447 -54.029  16.159  1.00  0.00     0.318 C 
HETATM    9  O   UNL     1     -43.339 -55.008  16.889  1.00  0.00    -0.247 OA
HETATM   10  N   UNL     1     -42.380 -53.580  15.417  1.00  0.00    -0.343 N 
HETATM   11  H   UNL     1     -42.399 -52.627  15.103  1.00  0.00     0.164 HD
ENDROOT
BRANCH  10  12
HETATM   12  C   UNL     1     -41.074 -54.198  15.607  1.00  0.00     0.129 C 
BRANCH  12  13
HETATM   13  C   UNL     1     -40.345 -54.400  14.282  1.00  0.00     0.060 C 
BRANCH  13  14
HETATM   14  C   UNL     1     -39.888 -53.112  13.643  1.00  0.00    -0.041 A 
HETATM   15  C   UNL     1     -38.890 -52.322  14.216  1.00  0.00     0.010 A 
HETATM   16  C   UNL     1     -38.557 -51.097  13.638  1.00  0.00     0.025 A 
HETATM   17  C   UNL     1     -39.226 -50.692  12.488  1.00  0.00     0.005 A 
HETATM   18  C   UNL     1     -38.983 -49.339  11.889  1.00  0.00     0.068 C 
HETATM   19  N   UNL     1     -40.165 -51.461  11.888  1.00  0.00    -0.369 N 
HETATM   20  C   UNL     1     -40.467 -52.644  12.469  1.00  0.00     0.095 A 
ATOM     21  HN  UNL     1     -40.628 -51.159  11.031  1.00  0.00     0.165 HD
ENDBRANCH  13  14
ENDBRANCH  12  13
ENDBRANCH  10  12
BRANCH   1  22
HETATM   22  C   UNL     1     -45.080 -53.641  12.958  1.00  0.00     0.035 C 
HETATM   23  C   UNL     1     -43.888 -52.977  12.280  1.00  0.00     0.008 C 
ENDBRANCH   1  22
TORSDOF 4
ENDMDL
MODEL 7
REMARK VINA RESULT:      -5.3      1.997      2.509
REMARK  4 active torsions:
REMARK  status: ('A' for Active; 'I' for Inactive)
REMARK    1  A    between atoms: C_2  and  C_3 
REMARK       I    between atoms: N_6  and  C_10 
REMARK       I    between atoms: C_10  and  N_12 
REMARK    2  A    between atoms: N_12  and  C_13 
REMARK    3  A    between atoms: C_13  and  C_14 
REMARK    4  A    between atoms: C_14  and  C_15 
ROOT
HETATM    1  C   UNL     1     -44.087 -51.479  14.179  1.00  0.00     0.073 C 
HETATM    2  C   UNL     1     -45.006 -51.024  15.324  1.00  0.00     0.047 C 
HETATM    3  C   UNL     1     -42.767 -52.029  14.794  1.00  0.00     0.165 C 
HETATM    4  N   UNL     1     -41.982 -52.755  13.791  1.00  0.00    -0.329 N 
HETATM    5  C   UNL     1     -42.751 -53.839  13.175  1.00  0.00     0.153 C 
HETATM    6  C   UNL     1     -44.027 -53.269  12.548  1.00  0.00     0.189 C 
HETATM    7  O   UNL     1     -44.810 -52.535  13.504  1.00  0.00    -0.377 OA
HETATM    8  C   UNL     1     -40.813 -52.366  13.175  1.00  0.00     0.318 C 
HETATM    9  O   UNL     1     -40.301 -53.007  12.263  1.00  0.00    -0.247 OA
HETATM   10  N   UNL     1     -40.254 -51.188  13.610  1.00  0.00    -0.343 N 
HETATM   11  H   UNL     1     -40.491 -50.872  14.533  1.00  0.00     0.164 HD
ENDROOT
BRANCH  10  12
HETATM   12  C   UNL     1     -38.966 -50.770  13.069  1.00  0.00     0.129 C 
BRANCH  12  13
HETATM   13  C   UNL     1     -39.120 -50.048  11.734  1.00  0.00     0.060 C 
BRANCH  13  14
HETATM   14  C   UNL     1     -39.849 -48.732  11.841  1.00  0.00    -0.041 A 
HETATM   15  C   UNL     1     -39.501 -47.776  12.797  1.00  0.00     0.010 A 
HETATM   16  C   UNL     1     -40.255 -46.609  12.917  1.00  0.00     0.025 A 
HETATM   17  C   UNL     1     -41.340 -46.418  12.069  1.00  0.00     0.005 A 
HETATM   18  C   UNL     1     -42.246 -45.234  12.227  1.00  0.00     0.068 C 
HETATM   19  N   UNL     1     -41.670 -47.310  11.104  1.00  0.00    -0.369 N 
HETATM   20  C   UNL     1     -40.921 -48.431  11.008  1.00  0.00     0.095 A 
ATOM     21  HN  UNL     1     -42.454 -47.142  10.474  1.00  0.00     0.165 HD
ENDBRANCH  13  14
ENDBRANCH  12  13
ENDBRANCH  10  12
BRANCH   1  22
HETATM   22  C   UNL     1     -43.776 -50.296  13.230  1.00  0.00     0.035 C 
HETATM   23  C   UNL     1     -43.144 -49.084  13.901  1.00  0.00     0.008 C 
ENDBRANCH   1  22
TORSDOF 4
ENDMDL
MODEL 8
REMARK VINA RESULT:      -5.1      2.315      3.216
REMARK  4 active torsions:
REMARK  status: ('A' for Active; 'I' for Inactive)
REMARK    1  A    between atoms: C_2  and  C_3 
REMARK       I    between atoms: N_6  and  C_10 
REMARK       I    between atoms: C_10  and  N_12 
REMARK    2  A    between atoms: N_12  and  C_13 
REMARK    3  A    between atoms: C_13  and  C_14 
REMARK    4  A    between atoms: C_14  and  C_15 
ROOT
HETATM    1  C   UNL     1     -43.065 -52.643  14.441  1.00  0.00     0.073 C 
HETATM    2  C   UNL     1     -44.119 -52.623  15.560  1.00  0.00     0.047 C 
HETATM    3  C   UNL     1     -41.810 -51.865  14.933  1.00  0.00     0.165 C 
HETATM    4  N   UNL     1     -40.664 -52.103  14.050  1.00  0.00    -0.329 N 
HETATM    5  C   UNL     1     -40.363 -53.531  13.919  1.00  0.00     0.153 C 
HETATM    6  C   UNL     1     -41.602 -54.269  13.401  1.00  0.00     0.189 C 
HETATM    7  O   UNL     1     -42.747 -54.039  14.238  1.00  0.00    -0.377 OA
HETATM    8  C   UNL     1     -40.088 -51.239  13.144  1.00  0.00     0.318 C 
HETATM    9  O   UNL     1     -39.200 -51.585  12.373  1.00  0.00    -0.247 OA
HETATM   10  N   UNL     1     -40.586 -49.958  13.118  1.00  0.00    -0.343 N 
HETATM   11  H   UNL     1     -41.052 -49.622  13.941  1.00  0.00     0.164 HD
ENDROOT
BRANCH  10  12
HETATM   12  C   UNL     1     -39.955 -48.968  12.254  1.00  0.00     0.129 C 
BRANCH  12  13
HETATM   13  C   UNL     1     -40.818 -48.648  11.036  1.00  0.00     0.060 C 
BRANCH  13  14
HETATM   14  C   UNL     1     -41.275 -47.211  10.983  1.00  0.00    -0.041 A 
HETATM   15  C   UNL     1     -40.370 -46.157  10.851  1.00  0.00     0.010 A 
HETATM   16  C   UNL     1     -40.827 -44.841  10.892  1.00  0.00     0.025 A 
HETATM   17  C   UNL     1     -42.188 -44.606  11.055  1.00  0.00     0.005 A 
HETATM   18  C   UNL     1     -42.718 -43.212  11.213  1.00  0.00     0.068 C 
HETATM   19  N   UNL     1     -43.091 -45.611  11.141  1.00  0.00    -0.369 N 
HETATM   20  C   UNL     1     -42.620 -46.878  11.096  1.00  0.00     0.095 A 
ATOM     21  HN  UNL     1     -44.088 -45.421  11.236  1.00  0.00     0.165 HD
ENDBRANCH  13  14
ENDBRANCH  12  13
ENDBRANCH  10  12
BRANCH   1  22
HETATM   22  C   UNL     1     -43.624 -51.985  13.156  1.00  0.00     0.035 C 
HETATM   23  C   UNL     1     -44.100 -50.548  13.324  1.00  0.00     0.008 C 
ENDBRANCH   1  22
TORSDOF 4
ENDMDL
MODEL 9
REMARK VINA RESULT:      -5.1      2.090      3.103
REMARK  4 active torsions:
REMARK  status: ('A' for Active; 'I' for Inactive)
REMARK    1  A    between atoms: C_2  and  C_3 
REMARK       I    between atoms: N_6  and  C_10 
REMARK       I    between atoms: C_10  and  N_12 
REMARK    2  A    between atoms: N_12  and  C_13 
REMARK    3  A    between atoms: C_13  and  C_14 
REMARK    4  A    between atoms: C_14  and  C_15 
ROOT
HETATM    1  C   UNL     1     -44.855 -53.927  14.199  1.00  0.00     0.073 C 
HETATM    2  C   UNL     1     -45.289 -55.324  13.727  1.00  0.00     0.047 C 
HETATM    3  C   UNL     1     -44.645 -53.026  12.947  1.00  0.00     0.165 C 
HETATM    4  N   UNL     1     -44.532 -51.615  13.327  1.00  0.00    -0.329 N 
HETATM    5  C   UNL     1     -45.694 -51.161  14.096  1.00  0.00     0.153 C 
HETATM    6  C   UNL     1     -45.859 -52.041  15.340  1.00  0.00     0.189 C 
HETATM    7  O   UNL     1     -45.955 -53.433  14.999  1.00  0.00    -0.377 OA
HETATM    8  C   UNL     1     -43.408 -50.817  13.330  1.00  0.00     0.318 C 
HETATM    9  O   UNL     1     -43.409 -49.676  13.779  1.00  0.00    -0.247 OA
HETATM   10  N   UNL     1     -42.257 -51.380  12.833  1.00  0.00    -0.343 N 
HETATM   11  H   UNL     1     -42.351 -52.151  12.197  1.00  0.00     0.164 HD
ENDROOT
BRANCH  10  12
HETATM   12  C   UNL     1     -41.058 -50.559  12.716  1.00  0.00     0.129 C 
BRANCH  12  13
HETATM   13  C   UNL     1     -40.879 -50.017  11.301  1.00  0.00     0.060 C 
BRANCH  13  14
HETATM   14  C   UNL     1     -40.870 -48.510  11.230  1.00  0.00    -0.041 A 
HETATM   15  C   UNL     1     -41.780 -47.807  10.439  1.00  0.00     0.010 A 
HETATM   16  C   UNL     1     -41.684 -46.420  10.336  1.00  0.00     0.025 A 
HETATM   17  C   UNL     1     -40.680 -45.762  11.036  1.00  0.00     0.005 A 
HETATM   18  C   UNL     1     -40.465 -44.286  10.876  1.00  0.00     0.068 C 
HETATM   19  N   UNL     1     -39.812 -46.416  11.845  1.00  0.00    -0.369 N 
HETATM   20  C   UNL     1     -39.930 -47.760  11.929  1.00  0.00     0.095 A 
ATOM     21  HN  UNL     1     -39.097 -45.914  12.372  1.00  0.00     0.165 HD
ENDBRANCH  13  14
ENDBRANCH  12  13
ENDBRANCH  10  12
BRANCH   1  22
HETATM   22  C   UNL     1     -43.542 -54.013  15.014  1.00  0.00     0.035 C 
HETATM   23  C   UNL     1     -43.037 -55.427  15.272  1.00  0.00     0.008 C 
ENDBRANCH   1  22
TORSDOF 4
ENDMDL
