MODEL 1
REMARK VINA RESULT:      -6.9      0.000      0.000
REMARK  5 active torsions:
REMARK  status: ('A' for Active; 'I' for Inactive)
REMARK    1  A    between atoms: C_2  and  N_5 
REMARK       I    between atoms: N_5  and  C_6 
REMARK    2  A    between atoms: C_6  and  C_8 
REMARK    3  A    between atoms: C_8  and  N_9 
REMARK    4  A    between atoms: C_12  and  C_21 
REMARK    5  A    between atoms: C_14  and  C_17 
ROOT
HETATM    1  N   UNL     1     -42.288 -50.461  12.519  1.00  0.00    -0.248 N 
HETATM    2  N   UNL     1     -43.631 -50.325  12.803  1.00  0.00    -0.299 N 
ATOM      3  HN  UNL     1     -44.132 -49.455  12.621  1.00  0.00     0.187 HD
HETATM    4  C   UNL     1     -44.223 -51.354  13.311  1.00  0.00     0.031 A 
HETATM    5  C   UNL     1     -43.584 -52.635  13.620  1.00  0.00     0.049 A 
HETATM    6  C   UNL     1     -42.275 -52.752  13.353  1.00  0.00     0.119 A 
HETATM    7  C   UNL     1     -41.540 -51.611  12.773  1.00  0.00     0.277 A 
HETATM    8  O   UNL     1     -40.342 -51.687  12.526  1.00  0.00    -0.266 OA
ENDROOT
BRANCH   1   9
HETATM    9  C   UNL     1     -41.636 -49.324  11.870  1.00  0.00     0.255 C 
BRANCH   9  10
HETATM   10  C   UNL     1     -42.632 -48.318  11.297  1.00  0.00     0.238 C 
HETATM   11  N   UNL     1     -42.756 -48.339   9.919  1.00  0.00    -0.352 N 
HETATM   12  H   UNL     1     -42.177 -49.022   9.436  1.00  0.00     0.163 HD
HETATM   13  O   UNL     1     -43.155 -47.466  12.011  1.00  0.00    -0.272 OA
BRANCH  11  14
HETATM   14  C   UNL     1     -43.590 -47.414   9.139  1.00  0.00     0.022 C 
HETATM   15  C   UNL     1     -43.095 -45.966   9.288  1.00  0.00     0.037 C 
HETATM   16  C   UNL     1     -45.062 -47.518   9.570  1.00  0.00     0.037 C 
HETATM   17  C   UNL     1     -43.494 -47.800   7.651  1.00  0.00     0.037 C 
ENDBRANCH  11  14
ENDBRANCH   9  10
ENDBRANCH   1   9
BRANCH   4  18
HETATM   18  C   UNL     1     -45.675 -51.278  13.584  1.00  0.00     0.037 A 
HETATM   19  C   UNL     1     -46.516 -52.524  13.730  1.00  0.00     0.011 A 
HETATM   20  C   UNL     1     -46.667 -51.665  12.511  1.00  0.00     0.011 A 
ENDBRANCH   4  18
BRANCH   6  21
HETATM   21  C   UNL     1     -41.536 -54.013  13.602  1.00  0.00     0.422 C 
HETATM   22  F   UNL     1     -40.953 -54.609  12.537  1.00  0.00    -0.166 F 
HETATM   23  F   UNL     1     -40.544 -53.810  14.513  1.00  0.00    -0.166 F 
HETATM   24  F   UNL     1     -42.358 -54.945  14.161  1.00  0.00    -0.166 F 
ENDBRANCH   6  21
TORSDOF 5
ENDMDL
MODEL 2
REMARK VINA RESULT:      -6.2      2.053      3.872
REMARK  5 active torsions:
REMARK  status: ('A' for Active; 'I' for Inactive)
REMARK    1  A    between atoms: C_2  and  N_5 
REMARK       I    between atoms: N_5  and  C_6 
REMARK    2  A    between atoms: C_6  and  C_8 
REMARK    3  A    between atoms: C_8  and  N_9 
REMARK    4  A    between atoms: C_12  and  C_21 
REMARK    5  A    between atoms: C_14  and  C_17 
ROOT
HETATM    1  N   UNL     1     -42.101 -49.637  12.268  1.00  0.00    -0.248 N 
HETATM    2  N   UNL     1     -40.806 -49.343  11.896  1.00  0.00    -0.299 N 
ATOM      3  HN  UNL     1     -40.537 -48.410  11.582  1.00  0.00     0.187 HD
HETATM    4  C   UNL     1     -39.950 -50.307  11.963  1.00  0.00     0.031 A 
HETATM    5  C   UNL     1     -40.246 -51.678  12.384  1.00  0.00     0.049 A 
HETATM    6  C   UNL     1     -41.511 -51.957  12.731  1.00  0.00     0.119 A 
HETATM    7  C   UNL     1     -42.538 -50.898  12.674  1.00  0.00     0.277 A 
HETATM    8  O   UNL     1     -43.703 -51.127  12.978  1.00  0.00    -0.266 OA
ENDROOT
BRANCH   1   9
HETATM    9  C   UNL     1     -43.052 -48.526  12.269  1.00  0.00     0.255 C 
BRANCH   9  10
HETATM   10  C   UNL     1     -43.153 -47.833  10.912  1.00  0.00     0.238 C 
HETATM   11  N   UNL     1     -44.373 -47.968  10.276  1.00  0.00    -0.352 N 
HETATM   12  H   UNL     1     -45.073 -48.508  10.778  1.00  0.00     0.163 HD
HETATM   13  O   UNL     1     -42.164 -47.331  10.382  1.00  0.00    -0.272 OA
BRANCH  11  14
HETATM   14  C   UNL     1     -44.678 -47.457   8.932  1.00  0.00     0.022 C 
HETATM   15  C   UNL     1     -43.610 -47.898   7.918  1.00  0.00     0.037 C 
HETATM   16  C   UNL     1     -44.790 -45.923   8.948  1.00  0.00     0.037 C 
HETATM   17  C   UNL     1     -46.033 -48.035   8.481  1.00  0.00     0.037 C 
ENDBRANCH  11  14
ENDBRANCH   9  10
ENDBRANCH   1   9
BRANCH   4  18
HETATM   18  C   UNL     1     -38.536 -50.030  11.626  1.00  0.00     0.037 A 
HETATM   19  C   UNL     1     -37.407 -50.802  12.267  1.00  0.00     0.011 A 
HETATM   20  C   UNL     1     -37.633 -49.367  12.641  1.00  0.00     0.011 A 
ENDBRANCH   4  18
BRANCH   6  21
HETATM   21  C   UNL     1     -41.914 -53.306  13.198  1.00  0.00     0.422 C 
HETATM   22  F   UNL     1     -43.009 -53.856  12.625  1.00  0.00    -0.166 F 
HETATM   23  F   UNL     1     -40.900 -54.196  13.012  1.00  0.00    -0.166 F 
HETATM   24  F   UNL     1     -42.148 -53.294  14.540  1.00  0.00    -0.166 F 
ENDBRANCH   6  21
TORSDOF 5
ENDMDL
MODEL 3
REMARK VINA RESULT:      -6.2      4.163      6.908
REMARK  5 active torsions:
REMARK  status: ('A' for Active; 'I' for Inactive)
REMARK    1  A    between atoms: C_2  and  N_5 
REMARK       I    between atoms: N_5  and  C_6 
REMARK    2  A    between atoms: C_6  and  C_8 
REMARK    3  A    between atoms: C_8  and  N_9 
REMARK    4  A    between atoms: C_12  and  C_21 
REMARK    5  A    between atoms: C_14  and  C_17 
ROOT
HETATM    1  N   UNL     1     -41.168 -48.413  10.752  1.00  0.00    -0.248 N 
HETATM    2  N   UNL     1     -42.300 -48.481   9.966  1.00  0.00    -0.299 N 
ATOM      3  HN  UNL     1     -42.686 -49.374   9.660  1.00  0.00     0.187 HD
HETATM    4  C   UNL     1     -42.846 -47.359   9.637  1.00  0.00     0.031 A 
HETATM    5  C   UNL     1     -42.355 -46.032  10.015  1.00  0.00     0.049 A 
HETATM    6  C   UNL     1     -41.247 -45.975  10.768  1.00  0.00     0.119 A 
HETATM    7  C   UNL     1     -40.573 -47.224  11.176  1.00  0.00     0.277 A 
HETATM    8  O   UNL     1     -39.554 -47.202  11.856  1.00  0.00    -0.266 OA
ENDROOT
BRANCH   1   9
HETATM    9  C   UNL     1     -40.595 -49.685  11.191  1.00  0.00     0.255 C 
BRANCH   9  10
HETATM   10  C   UNL     1     -41.525 -50.463  12.119  1.00  0.00     0.238 C 
HETATM   11  N   UNL     1     -41.206 -51.800  12.278  1.00  0.00    -0.352 N 
HETATM   12  H   UNL     1     -40.388 -52.120  11.767  1.00  0.00     0.163 HD
HETATM   13  O   UNL     1     -42.556 -49.956  12.556  1.00  0.00    -0.272 OA
BRANCH  11  14
HETATM   14  C   UNL     1     -41.998 -52.763  13.056  1.00  0.00     0.022 C 
HETATM   15  C   UNL     1     -43.394 -52.956  12.440  1.00  0.00     0.037 C 
HETATM   16  C   UNL     1     -42.124 -52.304  14.518  1.00  0.00     0.037 C 
HETATM   17  C   UNL     1     -41.276 -54.123  13.038  1.00  0.00     0.037 C 
ENDBRANCH  11  14
ENDBRANCH   9  10
ENDBRANCH   1   9
BRANCH   4  18
HETATM   18  C   UNL     1     -44.093 -47.379   8.840  1.00  0.00     0.037 A 
HETATM   19  C   UNL     1     -45.078 -46.235   8.888  1.00  0.00     0.011 A 
HETATM   20  C   UNL     1     -45.428 -47.544   9.530  1.00  0.00     0.011 A 
ENDBRANCH   4  18
BRANCH   6  21
HETATM   21  C   UNL     1     -40.679 -44.685  11.229  1.00  0.00     0.422 C 
HETATM   22  F   UNL     1     -40.450 -44.549  12.554  1.00  0.00    -0.166 F 
HETATM   23  F   UNL     1     -39.489 -44.443  10.611  1.00  0.00    -0.166 F 
HETATM   24  F   UNL     1     -41.492 -43.653  10.871  1.00  0.00    -0.166 F 
ENDBRANCH   6  21
TORSDOF 5
ENDMDL
MODEL 4
REMARK VINA RESULT:      -6.1      4.016      5.442
REMARK  5 active torsions:
REMARK  status: ('A' for Active; 'I' for Inactive)
REMARK    1  A    between atoms: C_2  and  N_5 
REMARK       I    between atoms: N_5  and  C_6 
REMARK    2  A    between atoms: C_6  and  C_8 
REMARK    3  A    between atoms: C_8  and  N_9 
REMARK    4  A    between atoms: C_12  and  C_21 
REMARK    5  A    between atoms: C_14  and  C_17 
ROOT
HETATM    1  N   UNL     1     -41.892 -53.606  13.226  1.00  0.00    -0.248 N 
HETATM    2  N   UNL     1     -41.153 -54.061  14.298  1.00  0.00    -0.299 N 
ATOM      3  HN  UNL     1     -40.141 -53.944  14.339  1.00  0.00     0.187 HD
HETATM    4  C   UNL     1     -41.807 -54.643  15.246  1.00  0.00     0.031 A 
HETATM    5  C   UNL     1     -43.254 -54.869  15.267  1.00  0.00     0.049 A 
HETATM    6  C   UNL     1     -43.961 -54.435  14.214  1.00  0.00     0.119 A 
HETATM    7  C   UNL     1     -43.272 -53.763  13.094  1.00  0.00     0.277 A 
HETATM    8  O   UNL     1     -43.892 -53.364  12.116  1.00  0.00    -0.266 OA
ENDROOT
BRANCH   1   9
HETATM    9  C   UNL     1     -41.163 -52.876  12.188  1.00  0.00     0.255 C 
BRANCH   9  10
HETATM   10  C   UNL     1     -40.427 -51.654  12.731  1.00  0.00     0.238 C 
HETATM   11  N   UNL     1     -39.372 -51.213  11.952  1.00  0.00    -0.352 N 
HETATM   12  H   UNL     1     -39.203 -51.743  11.101  1.00  0.00     0.163 HD
HETATM   13  O   UNL     1     -40.674 -51.209  13.850  1.00  0.00    -0.272 OA
BRANCH  11  14
HETATM   14  C   UNL     1     -38.471 -50.108  12.309  1.00  0.00     0.022 C 
HETATM   15  C   UNL     1     -37.735 -50.400  13.627  1.00  0.00     0.037 C 
HETATM   16  C   UNL     1     -39.252 -48.787  12.421  1.00  0.00     0.037 C 
HETATM   17  C   UNL     1     -37.417 -49.953  11.197  1.00  0.00     0.037 C 
ENDBRANCH  11  14
ENDBRANCH   9  10
ENDBRANCH   1   9
BRANCH   4  18
HETATM   18  C   UNL     1     -41.068 -55.101  16.444  1.00  0.00     0.037 A 
HETATM   19  C   UNL     1     -39.695 -55.720  16.335  1.00  0.00     0.011 A 
HETATM   20  C   UNL     1     -40.871 -56.579  16.691  1.00  0.00     0.011 A 
ENDBRANCH   4  18
BRANCH   6  21
HETATM   21  C   UNL     1     -45.435 -54.589  14.143  1.00  0.00     0.422 C 
HETATM   22  F   UNL     1     -46.128 -53.612  13.516  1.00  0.00    -0.166 F 
HETATM   23  F   UNL     1     -45.761 -55.752  13.513  1.00  0.00    -0.166 F 
HETATM   24  F   UNL     1     -45.962 -54.692  15.395  1.00  0.00    -0.166 F 
ENDBRANCH   6  21
TORSDOF 5
ENDMDL
MODEL 5
REMARK VINA RESULT:      -6.1      2.759      5.378
REMARK  5 active torsions:
REMARK  status: ('A' for Active; 'I' for Inactive)
REMARK    1  A    between atoms: C_2  and  N_5 
REMARK       I    between atoms: N_5  and  C_6 
REMARK    2  A    between atoms: C_6  and  C_8 
REMARK    3  A    between atoms: C_8  and  N_9 
REMARK    4  A    between atoms: C_12  and  C_21 
REMARK    5  A    between atoms: C_14  and  C_17 
ROOT
HETATM    1  N   UNL     1     -41.247 -51.308  12.027  1.00  0.00    -0.248 N 
HETATM    2  N   UNL     1     -41.935 -50.173  11.651  1.00  0.00    -0.299 N 
ATOM      3  HN  UNL     1     -42.900 -50.215  11.326  1.00  0.00     0.187 HD
HETATM    4  C   UNL     1     -41.295 -49.055  11.732  1.00  0.00     0.031 A 
HETATM    5  C   UNL     1     -39.906 -48.900  12.172  1.00  0.00     0.049 A 
HETATM    6  C   UNL     1     -39.242 -50.011  12.522  1.00  0.00     0.119 A 
HETATM    7  C   UNL     1     -39.917 -51.322  12.450  1.00  0.00     0.277 A 
HETATM    8  O   UNL     1     -39.331 -52.354  12.755  1.00  0.00    -0.266 OA
ENDROOT
BRANCH   1   9
HETATM    9  C   UNL     1     -41.995 -52.565  12.012  1.00  0.00     0.255 C 
BRANCH   9  10
HETATM   10  C   UNL     1     -43.158 -52.573  13.001  1.00  0.00     0.238 C 
HETATM   11  N   UNL     1     -44.408 -52.395  12.435  1.00  0.00    -0.352 N 
HETATM   12  H   UNL     1     -44.420 -52.284  11.424  1.00  0.00     0.163 HD
HETATM   13  O   UNL     1     -42.960 -52.584  14.214  1.00  0.00    -0.272 OA
BRANCH  11  14
HETATM   14  C   UNL     1     -45.663 -52.288  13.192  1.00  0.00     0.022 C 
HETATM   15  C   UNL     1     -45.564 -51.199  14.273  1.00  0.00     0.037 C 
HETATM   16  C   UNL     1     -46.025 -53.638  13.833  1.00  0.00     0.037 C 
HETATM   17  C   UNL     1     -46.792 -51.896  12.221  1.00  0.00     0.037 C 
ENDBRANCH  11  14
ENDBRANCH   9  10
ENDBRANCH   1   9
BRANCH   4  18
HETATM   18  C   UNL     1     -42.005 -47.802  11.393  1.00  0.00     0.037 A 
HETATM   19  C   UNL     1     -43.464 -47.803  11.001  1.00  0.00     0.011 A 
HETATM   20  C   UNL     1     -42.416 -47.528   9.964  1.00  0.00     0.011 A 
ENDBRANCH   4  18
BRANCH   6  21
HETATM   21  C   UNL     1     -37.841 -49.965  13.006  1.00  0.00     0.422 C 
HETATM   22  F   UNL     1     -37.583 -50.536  14.204  1.00  0.00    -0.166 F 
HETATM   23  F   UNL     1     -37.010 -50.567  12.111  1.00  0.00    -0.166 F 
HETATM   24  F   UNL     1     -37.410 -48.675  13.093  1.00  0.00    -0.166 F 
ENDBRANCH   6  21
TORSDOF 5
ENDMDL
MODEL 6
REMARK VINA RESULT:      -5.9      3.095      3.890
REMARK  5 active torsions:
REMARK  status: ('A' for Active; 'I' for Inactive)
REMARK    1  A    between atoms: C_2  and  N_5 
REMARK       I    between atoms: N_5  and  C_6 
REMARK    2  A    between atoms: C_6  and  C_8 
REMARK    3  A    between atoms: C_8  and  N_9 
REMARK    4  A    between atoms: C_12  and  C_21 
REMARK    5  A    between atoms: C_14  and  C_17 
ROOT
HETATM    1  N   UNL     1     -42.447 -52.912  12.890  1.00  0.00    -0.248 N 
HETATM    2  N   UNL     1     -43.762 -52.548  12.689  1.00  0.00    -0.299 N 
ATOM      3  HN  UNL     1     -44.039 -51.944  11.915  1.00  0.00     0.187 HD
HETATM    4  C   UNL     1     -44.626 -53.011  13.529  1.00  0.00     0.031 A 
HETATM    5  C   UNL     1     -44.321 -53.869  14.676  1.00  0.00     0.049 A 
HETATM    6  C   UNL     1     -43.037 -54.205  14.871  1.00  0.00     0.119 A 
HETATM    7  C   UNL     1     -42.000 -53.707  13.945  1.00  0.00     0.277 A 
HETATM    8  O   UNL     1     -40.819 -53.991  14.104  1.00  0.00    -0.266 OA
ENDROOT
BRANCH   1   9
HETATM    9  C   UNL     1     -41.479 -52.454  11.893  1.00  0.00     0.255 C 
BRANCH   9  10
HETATM   10  C   UNL     1     -40.803 -51.142  12.284  1.00  0.00     0.238 C 
HETATM   11  N   UNL     1     -39.527 -50.969  11.779  1.00  0.00    -0.352 N 
HETATM   12  H   UNL     1     -39.178 -51.728  11.198  1.00  0.00     0.163 HD
HETATM   13  O   UNL     1     -41.312 -50.386  13.109  1.00  0.00    -0.272 OA
BRANCH  11  14
HETATM   14  C   UNL     1     -38.653 -49.827  12.083  1.00  0.00     0.022 C 
HETATM   15  C   UNL     1     -38.184 -49.866  13.547  1.00  0.00     0.037 C 
HETATM   16  C   UNL     1     -39.374 -48.501  11.793  1.00  0.00     0.037 C 
HETATM   17  C   UNL     1     -37.407 -49.907  11.181  1.00  0.00     0.037 C 
ENDBRANCH  11  14
ENDBRANCH   9  10
ENDBRANCH   1   9
BRANCH   4  18
HETATM   18  C   UNL     1     -46.058 -52.695  13.326  1.00  0.00     0.037 A 
HETATM   19  C   UNL     1     -46.496 -51.563  12.427  1.00  0.00     0.011 A 
HETATM   20  C   UNL     1     -46.644 -51.432  13.914  1.00  0.00     0.011 A 
ENDBRANCH   4  18
BRANCH   6  21
HETATM   21  C   UNL     1     -42.621 -55.090  15.985  1.00  0.00     0.422 C 
HETATM   22  F   UNL     1     -41.410 -54.857  16.540  1.00  0.00    -0.166 F 
HETATM   23  F   UNL     1     -43.524 -55.028  17.003  1.00  0.00    -0.166 F 
HETATM   24  F   UNL     1     -42.615 -56.392  15.582  1.00  0.00    -0.166 F 
ENDBRANCH   6  21
TORSDOF 5
ENDMDL
MODEL 7
REMARK VINA RESULT:      -5.9      1.924      2.417
REMARK  5 active torsions:
REMARK  status: ('A' for Active; 'I' for Inactive)
REMARK    1  A    between atoms: C_2  and  N_5 
REMARK       I    between atoms: N_5  and  C_6 
REMARK    2  A    between atoms: C_6  and  C_8 
REMARK    3  A    between atoms: C_8  and  N_9 
REMARK    4  A    between atoms: C_12  and  C_21 
REMARK    5  A    between atoms: C_14  and  C_17 
ROOT
HETATM    1  N   UNL     1     -41.759 -50.712  12.159  1.00  0.00    -0.248 N 
HETATM    2  N   UNL     1     -43.054 -50.369  12.489  1.00  0.00    -0.299 N 
ATOM      3  HN  UNL     1     -43.461 -49.478  12.207  1.00  0.00     0.187 HD
HETATM    4  C   UNL     1     -43.726 -51.234  13.173  1.00  0.00     0.031 A 
HETATM    5  C   UNL     1     -43.222 -52.530  13.635  1.00  0.00     0.049 A 
HETATM    6  C   UNL     1     -41.958 -52.847  13.321  1.00  0.00     0.119 A 
HETATM    7  C   UNL     1     -41.136 -51.900  12.541  1.00  0.00     0.277 A 
HETATM    8  O   UNL     1     -39.975 -52.161  12.248  1.00  0.00    -0.266 OA
ENDROOT
BRANCH   1   9
HETATM    9  C   UNL     1     -41.025 -49.769  11.317  1.00  0.00     0.255 C 
BRANCH   9  10
HETATM   10  C   UNL     1     -41.077 -48.338  11.847  1.00  0.00     0.238 C 
HETATM   11  N   UNL     1     -40.512 -47.386  11.018  1.00  0.00    -0.352 N 
HETATM   12  H   UNL     1     -40.128 -47.738  10.143  1.00  0.00     0.163 HD
HETATM   13  O   UNL     1     -41.457 -48.099  12.991  1.00  0.00    -0.272 OA
BRANCH  11  14
HETATM   14  C   UNL     1     -40.374 -45.961  11.349  1.00  0.00     0.022 C 
HETATM   15  C   UNL     1     -39.640 -45.203  10.230  1.00  0.00     0.037 C 
HETATM   16  C   UNL     1     -39.632 -45.784  12.683  1.00  0.00     0.037 C 
HETATM   17  C   UNL     1     -41.781 -45.351  11.494  1.00  0.00     0.037 C 
ENDBRANCH  11  14
ENDBRANCH   9  10
ENDBRANCH   1   9
BRANCH   4  18
HETATM   18  C   UNL     1     -45.137 -50.938  13.507  1.00  0.00     0.037 A 
HETATM   19  C   UNL     1     -46.029 -51.974  14.149  1.00  0.00     0.011 A 
HETATM   20  C   UNL     1     -46.252 -51.586  12.718  1.00  0.00     0.011 A 
ENDBRANCH   4  18
BRANCH   6  21
HETATM   21  C   UNL     1     -41.356 -54.144  13.715  1.00  0.00     0.422 C 
HETATM   22  F   UNL     1     -40.285 -54.102  14.539  1.00  0.00    -0.166 F 
HETATM   23  F   UNL     1     -42.282 -54.928  14.335  1.00  0.00    -0.166 F 
HETATM   24  F   UNL     1     -40.966 -54.842  12.612  1.00  0.00    -0.166 F 
ENDBRANCH   6  21
TORSDOF 5
ENDMDL
MODEL 8
REMARK VINA RESULT:      -5.6      2.991      6.076
REMARK  5 active torsions:
REMARK  status: ('A' for Active; 'I' for Inactive)
REMARK    1  A    between atoms: C_2  and  N_5 
REMARK       I    between atoms: N_5  and  C_6 
REMARK    2  A    between atoms: C_6  and  C_8 
REMARK    3  A    between atoms: C_8  and  N_9 
REMARK    4  A    between atoms: C_12  and  C_21 
REMARK    5  A    between atoms: C_14  and  C_17 
ROOT
HETATM    1  N   UNL     1     -41.194 -51.240  11.992  1.00  0.00    -0.248 N 
HETATM    2  N   UNL     1     -41.916 -50.108  11.677  1.00  0.00    -0.299 N 
ATOM      3  HN  UNL     1     -42.858 -50.163  11.290  1.00  0.00     0.187 HD
HETATM    4  C   UNL     1     -41.340 -48.974  11.898  1.00  0.00     0.031 A 
HETATM    5  C   UNL     1     -39.988 -48.797  12.436  1.00  0.00     0.049 A 
HETATM    6  C   UNL     1     -39.290 -49.905  12.725  1.00  0.00     0.119 A 
HETATM    7  C   UNL     1     -39.892 -51.233  12.493  1.00  0.00     0.277 A 
HETATM    8  O   UNL     1     -39.274 -52.261  12.741  1.00  0.00    -0.266 OA
ENDROOT
BRANCH   1   9
HETATM    9  C   UNL     1     -41.875 -52.523  11.817  1.00  0.00     0.255 C 
BRANCH   9  10
HETATM   10  C   UNL     1     -42.928 -52.784  12.891  1.00  0.00     0.238 C 
HETATM   11  N   UNL     1     -42.689 -53.890  13.687  1.00  0.00    -0.352 N 
HETATM   12  H   UNL     1     -41.838 -54.407  13.477  1.00  0.00     0.163 HD
HETATM   13  O   UNL     1     -43.974 -52.139  12.926  1.00  0.00    -0.272 OA
BRANCH  11  14
HETATM   14  C   UNL     1     -43.598 -54.384  14.731  1.00  0.00     0.022 C 
HETATM   15  C   UNL     1     -44.878 -54.974  14.114  1.00  0.00     0.037 C 
HETATM   16  C   UNL     1     -43.956 -53.259  15.715  1.00  0.00     0.037 C 
HETATM   17  C   UNL     1     -42.887 -55.503  15.514  1.00  0.00     0.037 C 
ENDBRANCH  11  14
ENDBRANCH   9  10
ENDBRANCH   1   9
BRANCH   4  18
HETATM   18  C   UNL     1     -42.091 -47.728  11.629  1.00  0.00     0.037 A 
HETATM   19  C   UNL     1     -43.446 -47.753  10.961  1.00  0.00     0.011 A 
HETATM   20  C   UNL     1     -42.255 -47.235  10.210  1.00  0.00     0.011 A 
ENDBRANCH   4  18
BRANCH   6  21
HETATM   21  C   UNL     1     -37.924 -49.841  13.298  1.00  0.00     0.422 C 
HETATM   22  F   UNL     1     -36.968 -50.588  12.702  1.00  0.00    -0.166 F 
HETATM   23  F   UNL     1     -37.465 -48.558  13.288  1.00  0.00    -0.166 F 
HETATM   24  F   UNL     1     -37.940 -50.212  14.609  1.00  0.00    -0.166 F 
ENDBRANCH   6  21
TORSDOF 5
ENDMDL
MODEL 9
REMARK VINA RESULT:      -5.4      4.066      5.814
REMARK  5 active torsions:
REMARK  status: ('A' for Active; 'I' for Inactive)
REMARK    1  A    between atoms: C_2  and  N_5 
REMARK       I    between atoms: N_5  and  C_6 
REMARK    2  A    between atoms: C_6  and  C_8 
REMARK    3  A    between atoms: C_8  and  N_9 
REMARK    4  A    between atoms: C_12  and  C_21 
REMARK    5  A    between atoms: C_14  and  C_17 
ROOT
HETATM    1  N   UNL     1     -40.815 -52.378  12.802  1.00  0.00    -0.248 N 
HETATM    2  N   UNL     1     -40.481 -53.421  13.642  1.00  0.00    -0.299 N 
ATOM      3  HN  UNL     1     -41.103 -54.217  13.781  1.00  0.00     0.187 HD
HETATM    4  C   UNL     1     -39.342 -53.339  14.242  1.00  0.00     0.031 A 
HETATM    5  C   UNL     1     -38.392 -52.230  14.116  1.00  0.00     0.049 A 
HETATM    6  C   UNL     1     -38.733 -51.215  13.309  1.00  0.00     0.119 A 
HETATM    7  C   UNL     1     -40.024 -51.248  12.594  1.00  0.00     0.277 A 
HETATM    8  O   UNL     1     -40.364 -50.331  11.857  1.00  0.00    -0.266 OA
ENDROOT
BRANCH   1   9
HETATM    9  C   UNL     1     -42.069 -52.508  12.061  1.00  0.00     0.255 C 
BRANCH   9  10
HETATM   10  C   UNL     1     -43.288 -52.617  12.974  1.00  0.00     0.238 C 
HETATM   11  N   UNL     1     -44.497 -52.314  12.374  1.00  0.00    -0.352 N 
HETATM   12  H   UNL     1     -44.447 -52.056  11.391  1.00  0.00     0.163 HD
HETATM   13  O   UNL     1     -43.161 -52.812  14.181  1.00  0.00    -0.272 OA
BRANCH  11  14
HETATM   14  C   UNL     1     -45.791 -52.272  13.070  1.00  0.00     0.022 C 
HETATM   15  C   UNL     1     -45.769 -51.244  14.214  1.00  0.00     0.037 C 
HETATM   16  C   UNL     1     -46.157 -53.662  13.615  1.00  0.00     0.037 C 
HETATM   17  C   UNL     1     -46.877 -51.845  12.066  1.00  0.00     0.037 C 
ENDBRANCH  11  14
ENDBRANCH   9  10
ENDBRANCH   1   9
BRANCH   4  18
HETATM   18  C   UNL     1     -38.911 -54.457  15.111  1.00  0.00     0.037 A 
HETATM   19  C   UNL     1     -39.914 -55.311  15.850  1.00  0.00     0.011 A 
HETATM   20  C   UNL     1     -39.055 -54.346  16.612  1.00  0.00     0.011 A 
ENDBRANCH   4  18
BRANCH   6  21
HETATM   21  C   UNL     1     -37.835 -50.056  13.088  1.00  0.00     0.422 C 
HETATM   22  F   UNL     1     -37.329 -49.894  11.845  1.00  0.00    -0.166 F 
HETATM   23  F   UNL     1     -38.477 -48.894  13.392  1.00  0.00    -0.166 F 
HETATM   24  F   UNL     1     -36.767 -50.114  13.933  1.00  0.00    -0.166 F 
ENDBRANCH   6  21
TORSDOF 5
ENDMDL
