MODEL 1
REMARK VINA RESULT:      -7.1      0.000      0.000
REMARK  4 active torsions:
REMARK  status: ('A' for Active; 'I' for Inactive)
REMARK    1  A    between atoms: C_2  and  C_3 
REMARK       I    between atoms: C_2  and  N_21 
REMARK    2  A    between atoms: C_3  and  N_4 
REMARK       I    between atoms: N_4  and  C_5 
REMARK       I    between atoms: C_5  and  N_7 
REMARK    3  A    between atoms: N_7  and  C_8 
REMARK    4  A    between atoms: C_11  and  N_15 
ROOT
HETATM    1  N   UNL     1     -42.626 -52.663  11.990  1.00  0.00    -0.334 N 
HETATM    2  C   UNL     1     -42.168 -51.426  12.391  1.00  0.00     0.321 C 
HETATM    3  O   UNL     1     -42.303 -51.045  13.550  1.00  0.00    -0.247 OA
HETATM    4  N   UNL     1     -41.539 -50.734  11.384  1.00  0.00    -0.308 N 
HETATM    5  H   UNL     1     -42.911 -52.795  11.030  1.00  0.00     0.164 HD
HETATM    6  H   UNL     1     -41.286 -51.269  10.566  1.00  0.00     0.170 HD
ENDROOT
BRANCH   4   7
HETATM    7  C   UNL     1     -41.017 -49.422  11.501  1.00  0.00     0.051 A 
HETATM    8  C   UNL     1     -39.795 -49.130  12.087  1.00  0.00     0.035 A 
HETATM    9  C   UNL     1     -39.351 -47.806  12.167  1.00  0.00     0.051 A 
HETATM   10  C   UNL     1     -40.127 -46.760  11.676  1.00  0.00     0.103 A 
HETATM   11  N   UNL     1     -41.329 -47.036  11.119  1.00  0.00    -0.350 N 
HETATM   12  C   UNL     1     -41.739 -48.332  11.037  1.00  0.00     0.119 A 
ATOM     13  HN  UNL     1     -41.920 -46.283  10.766  1.00  0.00     0.166 HD
BRANCH  10  14
HETATM   14  N   UNL     1     -39.721 -45.449  11.782  1.00  0.00    -0.367 N 
HETATM   15  C   UNL     1     -39.098 -44.873  12.971  1.00  0.00     0.124 C 
HETATM   16  C   UNL     1     -39.919 -43.668  13.430  1.00  0.00     0.020 C 
HETATM   17  C   UNL     1     -40.112 -42.666  12.290  1.00  0.00     0.003 C 
HETATM   18  C   UNL     1     -40.673 -43.347  11.040  1.00  0.00     0.020 C 
HETATM   19  C   UNL     1     -39.830 -44.560  10.631  1.00  0.00     0.124 C 
ENDBRANCH  10  14
ENDBRANCH   4   7
BRANCH   1  20
HETATM   20  C   UNL     1     -43.336 -53.446  12.990  1.00  0.00     0.227 C 
BRANCH  20  21
HETATM   21  C   UNL     1     -44.836 -53.166  13.101  1.00  0.00     0.237 C 
HETATM   22  O   UNL     1     -45.562 -53.202  12.106  1.00  0.00    -0.272 OA
HETATM   23  N   UNL     1     -45.312 -52.879  14.381  1.00  0.00    -0.351 N 
HETATM   24  C   UNL     1     -46.750 -52.809  14.627  1.00  0.00     0.126 C 
HETATM   25  C   UNL     1     -44.471 -52.600  15.549  1.00  0.00     0.126 C 
HETATM   26  C   UNL     1     -47.146 -51.463  15.230  1.00  0.00     0.020 C 
HETATM   27  C   UNL     1     -46.289 -51.119  16.449  1.00  0.00     0.003 C 
HETATM   28  C   UNL     1     -44.803 -51.220  16.113  1.00  0.00     0.020 C 
ENDBRANCH  20  21
ENDBRANCH   1  20
TORSDOF 4
ENDMDL
MODEL 2
REMARK VINA RESULT:      -6.9      2.821      3.703
REMARK  4 active torsions:
REMARK  status: ('A' for Active; 'I' for Inactive)
REMARK    1  A    between atoms: C_2  and  C_3 
REMARK       I    between atoms: C_2  and  N_21 
REMARK    2  A    between atoms: C_3  and  N_4 
REMARK       I    between atoms: N_4  and  C_5 
REMARK       I    between atoms: C_5  and  N_7 
REMARK    3  A    between atoms: N_7  and  C_8 
REMARK    4  A    between atoms: C_11  and  N_15 
ROOT
HETATM    1  N   UNL     1     -40.892 -52.704  11.730  1.00  0.00    -0.334 N 
HETATM    2  C   UNL     1     -41.037 -51.366  12.026  1.00  0.00     0.321 C 
HETATM    3  O   UNL     1     -41.487 -51.001  13.109  1.00  0.00    -0.247 OA
HETATM    4  N   UNL     1     -40.598 -50.541  11.018  1.00  0.00    -0.308 N 
HETATM    5  H   UNL     1     -40.952 -53.004  10.767  1.00  0.00     0.164 HD
HETATM    6  H   UNL     1     -40.030 -50.974  10.304  1.00  0.00     0.170 HD
ENDROOT
BRANCH   4   7
HETATM    7  C   UNL     1     -40.673 -49.127  11.033  1.00  0.00     0.051 A 
HETATM    8  C   UNL     1     -39.807 -48.317  11.752  1.00  0.00     0.035 A 
HETATM    9  C   UNL     1     -39.949 -46.926  11.717  1.00  0.00     0.051 A 
HETATM   10  C   UNL     1     -40.965 -46.330  10.976  1.00  0.00     0.103 A 
HETATM   11  N   UNL     1     -41.826 -47.114  10.286  1.00  0.00    -0.350 N 
HETATM   12  C   UNL     1     -41.663 -48.466  10.320  1.00  0.00     0.119 A 
ATOM     13  HN  UNL     1     -42.586 -46.699   9.747  1.00  0.00     0.166 HD
BRANCH  10  14
HETATM   14  N   UNL     1     -41.142 -44.965  10.962  1.00  0.00    -0.367 N 
HETATM   15  C   UNL     1     -40.056 -43.995  10.856  1.00  0.00     0.124 C 
HETATM   16  C   UNL     1     -40.120 -43.042  12.051  1.00  0.00     0.020 C 
HETATM   17  C   UNL     1     -41.505 -42.404  12.174  1.00  0.00     0.003 C 
HETATM   18  C   UNL     1     -42.608 -43.465  12.179  1.00  0.00     0.020 C 
HETATM   19  C   UNL     1     -42.490 -44.408  10.976  1.00  0.00     0.124 C 
ENDBRANCH  10  14
ENDBRANCH   4   7
BRANCH   1  20
HETATM   20  C   UNL     1     -41.368 -53.645  12.733  1.00  0.00     0.227 C 
BRANCH  20  21
HETATM   21  C   UNL     1     -40.316 -54.133  13.729  1.00  0.00     0.237 C 
HETATM   22  O   UNL     1     -39.135 -54.250  13.397  1.00  0.00    -0.272 OA
HETATM   23  N   UNL     1     -40.777 -54.425  15.013  1.00  0.00    -0.351 N 
HETATM   24  C   UNL     1     -39.826 -54.690  16.089  1.00  0.00     0.126 C 
HETATM   25  C   UNL     1     -42.189 -54.523  15.398  1.00  0.00     0.126 C 
HETATM   26  C   UNL     1     -40.083 -56.049  16.736  1.00  0.00     0.020 C 
HETATM   27  C   UNL     1     -41.547 -56.208  17.149  1.00  0.00     0.003 C 
HETATM   28  C   UNL     1     -42.477 -55.909  15.974  1.00  0.00     0.020 C 
ENDBRANCH  20  21
ENDBRANCH   1  20
TORSDOF 4
ENDMDL
MODEL 3
REMARK VINA RESULT:      -6.4      3.517      8.870
REMARK  4 active torsions:
REMARK  status: ('A' for Active; 'I' for Inactive)
REMARK    1  A    between atoms: C_2  and  C_3 
REMARK       I    between atoms: C_2  and  N_21 
REMARK    2  A    between atoms: C_3  and  N_4 
REMARK       I    between atoms: N_4  and  C_5 
REMARK       I    between atoms: C_5  and  N_7 
REMARK    3  A    between atoms: N_7  and  C_8 
REMARK    4  A    between atoms: C_11  and  N_15 
ROOT
HETATM    1  N   UNL     1     -40.446 -45.653  10.228  1.00  0.00    -0.334 N 
HETATM    2  C   UNL     1     -40.401 -46.698  11.125  1.00  0.00     0.321 C 
HETATM    3  O   UNL     1     -40.156 -46.505  12.312  1.00  0.00    -0.247 OA
HETATM    4  N   UNL     1     -40.691 -47.912  10.550  1.00  0.00    -0.308 N 
HETATM    5  H   UNL     1     -40.212 -45.824   9.260  1.00  0.00     0.164 HD
HETATM    6  H   UNL     1     -41.112 -47.882   9.633  1.00  0.00     0.170 HD
ENDROOT
BRANCH   4   7
HETATM    7  C   UNL     1     -40.670 -49.158  11.224  1.00  0.00     0.051 A 
HETATM    8  C   UNL     1     -41.789 -49.741  11.799  1.00  0.00     0.035 A 
HETATM    9  C   UNL     1     -41.685 -50.974  12.451  1.00  0.00     0.051 A 
HETATM   10  C   UNL     1     -40.461 -51.630  12.549  1.00  0.00     0.103 A 
HETATM   11  N   UNL     1     -39.361 -51.058  12.007  1.00  0.00    -0.350 N 
HETATM   12  C   UNL     1     -39.484 -49.865  11.363  1.00  0.00     0.119 A 
ATOM     13  HN  UNL     1     -38.452 -51.515  12.079  1.00  0.00     0.166 HD
BRANCH  10  14
HETATM   14  N   UNL     1     -40.335 -52.825  13.221  1.00  0.00    -0.367 N 
HETATM   15  C   UNL     1     -41.206 -53.979  13.019  1.00  0.00     0.124 C 
HETATM   16  C   UNL     1     -41.828 -54.376  14.359  1.00  0.00     0.020 C 
HETATM   17  C   UNL     1     -40.751 -54.596  15.423  1.00  0.00     0.003 C 
HETATM   18  C   UNL     1     -39.809 -53.394  15.518  1.00  0.00     0.020 C 
HETATM   19  C   UNL     1     -39.227 -53.022  14.150  1.00  0.00     0.124 C 
ENDBRANCH  10  14
ENDBRANCH   4   7
BRANCH   1  20
HETATM   20  C   UNL     1     -40.115 -44.336  10.751  1.00  0.00     0.227 C 
BRANCH  20  21
HETATM   21  C   UNL     1     -41.306 -43.487  11.200  1.00  0.00     0.237 C 
HETATM   22  O   UNL     1     -42.356 -43.480  10.555  1.00  0.00    -0.272 OA
HETATM   23  N   UNL     1     -41.124 -42.745  12.366  1.00  0.00    -0.351 N 
HETATM   24  C   UNL     1     -42.261 -42.075  12.992  1.00  0.00     0.126 C 
HETATM   25  C   UNL     1     -39.838 -42.538  13.040  1.00  0.00     0.126 C 
HETATM   26  C   UNL     1     -42.005 -40.578  13.153  1.00  0.00     0.020 C 
HETATM   27  C   UNL     1     -40.668 -40.307  13.844  1.00  0.00     0.003 C 
HETATM   28  C   UNL     1     -39.533 -41.044  13.135  1.00  0.00     0.020 C 
ENDBRANCH  20  21
ENDBRANCH   1  20
TORSDOF 4
ENDMDL
MODEL 4
REMARK VINA RESULT:      -6.3      3.274      8.494
REMARK  4 active torsions:
REMARK  status: ('A' for Active; 'I' for Inactive)
REMARK    1  A    between atoms: C_2  and  C_3 
REMARK       I    between atoms: C_2  and  N_21 
REMARK    2  A    between atoms: C_3  and  N_4 
REMARK       I    between atoms: N_4  and  C_5 
REMARK       I    between atoms: C_5  and  N_7 
REMARK    3  A    between atoms: N_7  and  C_8 
REMARK    4  A    between atoms: C_11  and  N_15 
ROOT
HETATM    1  N   UNL     1     -41.274 -47.631  10.072  1.00  0.00    -0.334 N 
HETATM    2  C   UNL     1     -41.346 -48.536  11.109  1.00  0.00     0.321 C 
HETATM    3  O   UNL     1     -41.984 -48.285  12.126  1.00  0.00    -0.247 OA
HETATM    4  N   UNL     1     -40.678 -49.708  10.846  1.00  0.00    -0.308 N 
HETATM    5  H   UNL     1     -40.456 -47.626   9.478  1.00  0.00     0.164 HD
HETATM    6  H   UNL     1     -40.416 -49.867   9.884  1.00  0.00     0.170 HD
ENDROOT
BRANCH   4   7
HETATM    7  C   UNL     1     -40.546 -50.790  11.751  1.00  0.00     0.051 A 
HETATM    8  C   UNL     1     -39.498 -50.919  12.651  1.00  0.00     0.035 A 
HETATM    9  C   UNL     1     -39.439 -52.020  13.510  1.00  0.00     0.051 A 
HETATM   10  C   UNL     1     -40.415 -53.012  13.471  1.00  0.00     0.103 A 
HETATM   11  N   UNL     1     -41.431 -52.903  12.584  1.00  0.00    -0.350 N 
HETATM   12  C   UNL     1     -41.481 -51.816  11.765  1.00  0.00     0.119 A 
ATOM     13  HN  UNL     1     -42.149 -53.625  12.529  1.00  0.00     0.166 HD
BRANCH  10  14
HETATM   14  N   UNL     1     -40.349 -54.121  14.284  1.00  0.00    -0.367 N 
HETATM   15  C   UNL     1     -41.473 -54.647  15.053  1.00  0.00     0.124 C 
HETATM   16  C   UNL     1     -41.081 -54.709  16.530  1.00  0.00     0.020 C 
HETATM   17  C   UNL     1     -39.783 -55.495  16.723  1.00  0.00     0.003 C 
HETATM   18  C   UNL     1     -38.670 -54.962  15.818  1.00  0.00     0.020 C 
HETATM   19  C   UNL     1     -39.116 -54.898  14.352  1.00  0.00     0.124 C 
ENDBRANCH  10  14
ENDBRANCH   4   7
BRANCH   1  20
HETATM   20  C   UNL     1     -41.926 -46.348  10.285  1.00  0.00     0.227 C 
BRANCH  20  21
HETATM   21  C   UNL     1     -40.988 -45.157  10.479  1.00  0.00     0.237 C 
HETATM   22  O   UNL     1     -40.108 -44.902   9.654  1.00  0.00    -0.272 OA
HETATM   23  N   UNL     1     -41.196 -44.394  11.628  1.00  0.00    -0.351 N 
HETATM   24  C   UNL     1     -40.500 -43.121  11.797  1.00  0.00     0.126 C 
HETATM   25  C   UNL     1     -42.065 -44.776  12.746  1.00  0.00     0.126 C 
HETATM   26  C   UNL     1     -39.698 -43.094  13.097  1.00  0.00     0.020 C 
HETATM   27  C   UNL     1     -40.558 -43.496  14.296  1.00  0.00     0.003 C 
HETATM   28  C   UNL     1     -41.255 -44.830  14.041  1.00  0.00     0.020 C 
ENDBRANCH  20  21
ENDBRANCH   1  20
TORSDOF 4
ENDMDL
MODEL 5
REMARK VINA RESULT:      -6.3      2.411      3.506
REMARK  4 active torsions:
REMARK  status: ('A' for Active; 'I' for Inactive)
REMARK    1  A    between atoms: C_2  and  C_3 
REMARK       I    between atoms: C_2  and  N_21 
REMARK    2  A    between atoms: C_3  and  N_4 
REMARK       I    between atoms: N_4  and  C_5 
REMARK       I    between atoms: C_5  and  N_7 
REMARK    3  A    between atoms: N_7  and  C_8 
REMARK    4  A    between atoms: C_11  and  N_15 
ROOT
HETATM    1  N   UNL     1     -40.287 -50.884  11.383  1.00  0.00    -0.334 N 
HETATM    2  C   UNL     1     -40.867 -49.659  11.633  1.00  0.00     0.321 C 
HETATM    3  O   UNL     1     -42.046 -49.572  11.965  1.00  0.00    -0.247 OA
HETATM    4  N   UNL     1     -39.987 -48.612  11.506  1.00  0.00    -0.308 N 
HETATM    5  H   UNL     1     -39.522 -50.942  10.725  1.00  0.00     0.164 HD
HETATM    6  H   UNL     1     -39.007 -48.854  11.475  1.00  0.00     0.170 HD
ENDROOT
BRANCH   4   7
HETATM    7  C   UNL     1     -40.323 -47.244  11.656  1.00  0.00     0.051 A 
HETATM    8  C   UNL     1     -40.190 -46.303  10.647  1.00  0.00     0.035 A 
HETATM    9  C   UNL     1     -40.541 -44.968  10.876  1.00  0.00     0.051 A 
HETATM   10  C   UNL     1     -41.014 -44.557  12.119  1.00  0.00     0.103 A 
HETATM   11  N   UNL     1     -41.129 -45.466  13.115  1.00  0.00    -0.350 N 
HETATM   12  C   UNL     1     -40.796 -46.763  12.869  1.00  0.00     0.119 A 
ATOM     13  HN  UNL     1     -41.460 -45.183  14.038  1.00  0.00     0.166 HD
BRANCH  10  14
HETATM   14  N   UNL     1     -41.327 -43.241  12.371  1.00  0.00    -0.367 N 
HETATM   15  C   UNL     1     -42.499 -42.555  11.836  1.00  0.00     0.124 C 
HETATM   16  C   UNL     1     -42.045 -41.315  11.066  1.00  0.00     0.020 C 
HETATM   17  C   UNL     1     -41.153 -40.423  11.932  1.00  0.00     0.003 C 
HETATM   18  C   UNL     1     -39.999 -41.219  12.546  1.00  0.00     0.020 C 
HETATM   19  C   UNL     1     -40.502 -42.462  13.289  1.00  0.00     0.124 C 
ENDBRANCH  10  14
ENDBRANCH   4   7
BRANCH   1  20
HETATM   20  C   UNL     1     -41.162 -52.044  11.462  1.00  0.00     0.227 C 
BRANCH  20  21
HETATM   21  C   UNL     1     -40.999 -52.908  12.713  1.00  0.00     0.237 C 
HETATM   22  O   UNL     1     -39.896 -53.353  13.036  1.00  0.00    -0.272 OA
HETATM   23  N   UNL     1     -42.160 -53.147  13.448  1.00  0.00    -0.351 N 
HETATM   24  C   UNL     1     -42.077 -53.775  14.764  1.00  0.00     0.126 C 
HETATM   25  C   UNL     1     -43.521 -52.840  12.995  1.00  0.00     0.126 C 
HETATM   26  C   UNL     1     -42.933 -55.037  14.833  1.00  0.00     0.020 C 
HETATM   27  C   UNL     1     -44.364 -54.773  14.360  1.00  0.00     0.003 C 
HETATM   28  C   UNL     1     -44.366 -54.112  12.984  1.00  0.00     0.020 C 
ENDBRANCH  20  21
ENDBRANCH   1  20
TORSDOF 4
ENDMDL
MODEL 6
REMARK VINA RESULT:      -6.3      3.128      4.397
REMARK  4 active torsions:
REMARK  status: ('A' for Active; 'I' for Inactive)
REMARK    1  A    between atoms: C_2  and  C_3 
REMARK       I    between atoms: C_2  and  N_21 
REMARK    2  A    between atoms: C_3  and  N_4 
REMARK       I    between atoms: N_4  and  C_5 
REMARK       I    between atoms: C_5  and  N_7 
REMARK    3  A    between atoms: N_7  and  C_8 
REMARK    4  A    between atoms: C_11  and  N_15 
ROOT
HETATM    1  N   UNL     1     -40.025 -49.842  11.108  1.00  0.00    -0.334 N 
HETATM    2  C   UNL     1     -40.223 -48.560  11.574  1.00  0.00     0.321 C 
HETATM    3  O   UNL     1     -40.068 -48.286  12.760  1.00  0.00    -0.247 OA
HETATM    4  N   UNL     1     -40.559 -47.673  10.580  1.00  0.00    -0.308 N 
HETATM    5  H   UNL     1     -40.544 -50.159  10.301  1.00  0.00     0.164 HD
HETATM    6  H   UNL     1     -40.405 -47.986   9.632  1.00  0.00     0.170 HD
ENDROOT
BRANCH   4   7
HETATM    7  C   UNL     1     -40.865 -46.304  10.779  1.00  0.00     0.051 A 
HETATM    8  C   UNL     1     -39.923 -45.288  10.726  1.00  0.00     0.035 A 
HETATM    9  C   UNL     1     -40.307 -43.960  10.938  1.00  0.00     0.051 A 
HETATM   10  C   UNL     1     -41.630 -43.634  11.220  1.00  0.00     0.103 A 
HETATM   11  N   UNL     1     -42.552 -44.622  11.292  1.00  0.00    -0.350 N 
HETATM   12  C   UNL     1     -42.163 -45.908  11.068  1.00  0.00     0.119 A 
ATOM     13  HN  UNL     1     -43.525 -44.407  11.510  1.00  0.00     0.166 HD
BRANCH  10  14
HETATM   14  N   UNL     1     -42.015 -42.336  11.469  1.00  0.00    -0.367 N 
HETATM   15  C   UNL     1     -41.089 -41.235  11.715  1.00  0.00     0.124 C 
HETATM   16  C   UNL     1     -41.423 -40.594  13.063  1.00  0.00     0.020 C 
HETATM   17  C   UNL     1     -42.896 -40.186  13.130  1.00  0.00     0.003 C 
HETATM   18  C   UNL     1     -43.814 -41.354  12.765  1.00  0.00     0.020 C 
HETATM   19  C   UNL     1     -43.428 -41.976  11.417  1.00  0.00     0.124 C 
ENDBRANCH  10  14
ENDBRANCH   4   7
BRANCH   1  20
HETATM   20  C   UNL     1     -39.701 -50.851  12.106  1.00  0.00     0.227 C 
BRANCH  20  21
HETATM   21  C   UNL     1     -40.791 -51.893  12.366  1.00  0.00     0.237 C 
HETATM   22  O   UNL     1     -41.922 -51.757  11.895  1.00  0.00    -0.272 OA
HETATM   23  N   UNL     1     -40.420 -52.984  13.151  1.00  0.00    -0.351 N 
HETATM   24  C   UNL     1     -41.315 -54.131  13.279  1.00  0.00     0.126 C 
HETATM   25  C   UNL     1     -39.174 -53.085  13.918  1.00  0.00     0.126 C 
HETATM   26  C   UNL     1     -41.640 -54.422  14.742  1.00  0.00     0.020 C 
HETATM   27  C   UNL     1     -40.372 -54.527  15.590  1.00  0.00     0.003 C 
HETATM   28  C   UNL     1     -39.488 -53.296  15.398  1.00  0.00     0.020 C 
ENDBRANCH  20  21
ENDBRANCH   1  20
TORSDOF 4
ENDMDL
MODEL 7
REMARK VINA RESULT:      -6.1      3.807      5.010
REMARK  4 active torsions:
REMARK  status: ('A' for Active; 'I' for Inactive)
REMARK    1  A    between atoms: C_2  and  C_3 
REMARK       I    between atoms: C_2  and  N_21 
REMARK    2  A    between atoms: C_3  and  N_4 
REMARK       I    between atoms: N_4  and  C_5 
REMARK       I    between atoms: C_5  and  N_7 
REMARK    3  A    between atoms: N_7  and  C_8 
REMARK    4  A    between atoms: C_11  and  N_15 
ROOT
HETATM    1  N   UNL     1     -39.032 -53.070  14.260  1.00  0.00    -0.334 N 
HETATM    2  C   UNL     1     -39.818 -52.397  13.349  1.00  0.00     0.321 C 
HETATM    3  O   UNL     1     -40.525 -53.004  12.551  1.00  0.00    -0.247 OA
HETATM    4  N   UNL     1     -39.737 -51.031  13.477  1.00  0.00    -0.308 N 
HETATM    5  H   UNL     1     -38.177 -52.641  14.585  1.00  0.00     0.164 HD
HETATM    6  H   UNL     1     -39.317 -50.686  14.328  1.00  0.00     0.170 HD
ENDROOT
BRANCH   4   7
HETATM    7  C   UNL     1     -40.399 -50.095  12.644  1.00  0.00     0.051 A 
HETATM    8  C   UNL     1     -41.760 -49.837  12.704  1.00  0.00     0.035 A 
HETATM    9  C   UNL     1     -42.338 -48.899  11.843  1.00  0.00     0.051 A 
HETATM   10  C   UNL     1     -41.568 -48.221  10.903  1.00  0.00     0.103 A 
HETATM   11  N   UNL     1     -40.242 -48.481  10.825  1.00  0.00    -0.350 N 
HETATM   12  C   UNL     1     -39.693 -49.387  11.681  1.00  0.00     0.119 A 
ATOM     13  HN  UNL     1     -39.661 -48.005  10.134  1.00  0.00     0.166 HD
BRANCH  10  14
HETATM   14  N   UNL     1     -42.129 -47.324  10.023  1.00  0.00    -0.367 N 
HETATM   15  C   UNL     1     -41.865 -45.888  10.029  1.00  0.00     0.124 C 
HETATM   16  C   UNL     1     -43.189 -45.137  10.168  1.00  0.00     0.020 C 
HETATM   17  C   UNL     1     -44.186 -45.574   9.093  1.00  0.00     0.003 C 
HETATM   18  C   UNL     1     -44.346 -47.095   9.068  1.00  0.00     0.020 C 
HETATM   19  C   UNL     1     -42.992 -47.804   8.949  1.00  0.00     0.124 C 
ENDBRANCH  10  14
ENDBRANCH   4   7
BRANCH   1  20
HETATM   20  C   UNL     1     -39.033 -54.522  14.167  1.00  0.00     0.227 C 
BRANCH  20  21
HETATM   21  C   UNL     1     -38.868 -55.266  15.493  1.00  0.00     0.237 C 
HETATM   22  O   UNL     1     -37.834 -55.888  15.746  1.00  0.00    -0.272 OA
HETATM   23  N   UNL     1     -39.944 -55.188  16.378  1.00  0.00    -0.351 N 
HETATM   24  C   UNL     1     -39.803 -55.680  17.746  1.00  0.00     0.126 C 
HETATM   25  C   UNL     1     -41.272 -54.662  16.044  1.00  0.00     0.126 C 
HETATM   26  C   UNL     1     -40.864 -56.729  18.071  1.00  0.00     0.020 C 
HETATM   27  C   UNL     1     -42.270 -56.233  17.731  1.00  0.00     0.003 C 
HETATM   28  C   UNL     1     -42.334 -55.732  16.289  1.00  0.00     0.020 C 
ENDBRANCH  20  21
ENDBRANCH   1  20
TORSDOF 4
ENDMDL
MODEL 8
REMARK VINA RESULT:      -5.9      7.188     10.235
REMARK  4 active torsions:
REMARK  status: ('A' for Active; 'I' for Inactive)
REMARK    1  A    between atoms: C_2  and  C_3 
REMARK       I    between atoms: C_2  and  N_21 
REMARK    2  A    between atoms: C_3  and  N_4 
REMARK       I    between atoms: N_4  and  C_5 
REMARK       I    between atoms: C_5  and  N_7 
REMARK    3  A    between atoms: N_7  and  C_8 
REMARK    4  A    between atoms: C_11  and  N_15 
ROOT
HETATM    1  N   UNL     1     -37.414 -55.733  16.540  1.00  0.00    -0.334 N 
HETATM    2  C   UNL     1     -38.660 -55.161  16.678  1.00  0.00     0.321 C 
HETATM    3  O   UNL     1     -38.977 -54.573  17.708  1.00  0.00    -0.247 OA
HETATM    4  N   UNL     1     -39.440 -55.295  15.555  1.00  0.00    -0.308 N 
HETATM    5  H   UNL     1     -37.306 -56.540  15.942  1.00  0.00     0.164 HD
HETATM    6  H   UNL     1     -38.963 -55.577  14.711  1.00  0.00     0.170 HD
ENDROOT
BRANCH   4   7
HETATM    7  C   UNL     1     -40.779 -54.846  15.435  1.00  0.00     0.051 A 
HETATM    8  C   UNL     1     -41.862 -55.493  16.010  1.00  0.00     0.035 A 
HETATM    9  C   UNL     1     -43.155 -54.987  15.843  1.00  0.00     0.051 A 
HETATM   10  C   UNL     1     -43.382 -53.840  15.087  1.00  0.00     0.103 A 
HETATM   11  N   UNL     1     -42.332 -53.214  14.507  1.00  0.00    -0.350 N 
HETATM   12  C   UNL     1     -41.079 -53.712  14.693  1.00  0.00     0.119 A 
ATOM     13  HN  UNL     1     -42.478 -52.380  13.938  1.00  0.00     0.166 HD
BRANCH  10  14
HETATM   14  N   UNL     1     -44.653 -53.353  14.881  1.00  0.00    -0.367 N 
HETATM   15  C   UNL     1     -45.550 -53.810  13.824  1.00  0.00     0.124 C 
HETATM   16  C   UNL     1     -45.971 -52.612  12.973  1.00  0.00     0.020 C 
HETATM   17  C   UNL     1     -46.562 -51.499  13.842  1.00  0.00     0.003 C 
HETATM   18  C   UNL     1     -45.621 -51.132  14.992  1.00  0.00     0.020 C 
HETATM   19  C   UNL     1     -45.210 -52.367  15.802  1.00  0.00     0.124 C 
ENDBRANCH  10  14
ENDBRANCH   4   7
BRANCH   1  20
HETATM   20  C   UNL     1     -36.538 -55.666  17.700  1.00  0.00     0.227 C 
BRANCH  20  21
HETATM   21  C   UNL     1     -35.310 -56.576  17.651  1.00  0.00     0.237 C 
HETATM   22  O   UNL     1     -34.387 -56.353  16.866  1.00  0.00    -0.272 OA
HETATM   23  N   UNL     1     -35.308 -57.650  18.542  1.00  0.00    -0.351 N 
HETATM   24  C   UNL     1     -34.097 -58.447  18.723  1.00  0.00     0.126 C 
HETATM   25  C   UNL     1     -36.463 -58.094  19.329  1.00  0.00     0.126 C 
HETATM   26  C   UNL     1     -34.360 -59.927  18.452  1.00  0.00     0.020 C 
HETATM   27  C   UNL     1     -35.565 -60.438  19.243  1.00  0.00     0.003 C 
HETATM   28  C   UNL     1     -36.786 -59.551  19.005  1.00  0.00     0.020 C 
ENDBRANCH  20  21
ENDBRANCH   1  20
TORSDOF 4
ENDMDL
MODEL 9
REMARK VINA RESULT:      -5.8      7.080     10.003
REMARK  4 active torsions:
REMARK  status: ('A' for Active; 'I' for Inactive)
REMARK    1  A    between atoms: C_2  and  C_3 
REMARK       I    between atoms: C_2  and  N_21 
REMARK    2  A    between atoms: C_3  and  N_4 
REMARK       I    between atoms: N_4  and  C_5 
REMARK       I    between atoms: C_5  and  N_7 
REMARK    3  A    between atoms: N_7  and  C_8 
REMARK    4  A    between atoms: C_11  and  N_15 
ROOT
HETATM    1  N   UNL     1     -37.409 -56.120  17.215  1.00  0.00    -0.334 N 
HETATM    2  C   UNL     1     -38.200 -55.157  16.627  1.00  0.00     0.321 C 
HETATM    3  O   UNL     1     -37.980 -53.962  16.803  1.00  0.00    -0.247 OA
HETATM    4  N   UNL     1     -39.186 -55.686  15.830  1.00  0.00    -0.308 N 
HETATM    5  H   UNL     1     -37.811 -57.020  17.437  1.00  0.00     0.164 HD
HETATM    6  H   UNL     1     -39.088 -56.661  15.586  1.00  0.00     0.170 HD
ENDROOT
BRANCH   4   7
HETATM    7  C   UNL     1     -40.171 -54.932  15.145  1.00  0.00     0.051 A 
HETATM    8  C   UNL     1     -39.936 -54.263  13.953  1.00  0.00     0.035 A 
HETATM    9  C   UNL     1     -40.962 -53.536  13.339  1.00  0.00     0.051 A 
HETATM   10  C   UNL     1     -42.226 -53.457  13.916  1.00  0.00     0.103 A 
HETATM   11  N   UNL     1     -42.457 -54.092  15.089  1.00  0.00    -0.350 N 
HETATM   12  C   UNL     1     -41.451 -54.807  15.664  1.00  0.00     0.119 A 
ATOM     13  HN  UNL     1     -43.373 -54.036  15.536  1.00  0.00     0.166 HD
BRANCH  10  14
HETATM   14  N   UNL     1     -43.234 -52.714  13.344  1.00  0.00    -0.367 N 
HETATM   15  C   UNL     1     -43.376 -51.269  13.490  1.00  0.00     0.124 C 
HETATM   16  C   UNL     1     -44.759 -50.958  14.064  1.00  0.00     0.020 C 
HETATM   17  C   UNL     1     -45.863 -51.603  13.224  1.00  0.00     0.003 C 
HETATM   18  C   UNL     1     -45.607 -53.098  13.022  1.00  0.00     0.020 C 
HETATM   19  C   UNL     1     -44.203 -53.361  12.465  1.00  0.00     0.124 C 
ENDBRANCH  10  14
ENDBRANCH   4   7
BRANCH   1  20
HETATM   20  C   UNL     1     -36.361 -55.643  18.106  1.00  0.00     0.227 C 
BRANCH  20  21
HETATM   21  C   UNL     1     -34.934 -55.773  17.572  1.00  0.00     0.237 C 
HETATM   22  O   UNL     1     -34.603 -56.738  16.880  1.00  0.00    -0.272 OA
HETATM   23  N   UNL     1     -34.055 -54.745  17.912  1.00  0.00    -0.351 N 
HETATM   24  C   UNL     1     -32.741 -54.666  17.281  1.00  0.00     0.126 C 
HETATM   25  C   UNL     1     -34.325 -53.703  18.909  1.00  0.00     0.126 C 
HETATM   26  C   UNL     1     -31.624 -54.656  18.322  1.00  0.00     0.020 C 
HETATM   27  C   UNL     1     -31.862 -53.591  19.393  1.00  0.00     0.003 C 
HETATM   28  C   UNL     1     -33.256 -53.736  20.000  1.00  0.00     0.020 C 
ENDBRANCH  20  21
ENDBRANCH   1  20
TORSDOF 4
ENDMDL
