MODEL 1
REMARK VINA RESULT:      -6.0      0.000      0.000
REMARK  6 active torsions:
REMARK  status: ('A' for Active; 'I' for Inactive)
REMARK    1  A    between atoms: C_4  and  O_5 
REMARK    2  A    between atoms: N_9  and  C_10 
REMARK    3  A    between atoms: C_10  and  C_11 
REMARK       I    between atoms: C_11  and  N_13 
REMARK    4  A    between atoms: N_13  and  C_14 
REMARK    5  A    between atoms: C_14  and  C_15 
REMARK    6  A    between atoms: C_15  and  C_19 
ROOT
HETATM    1  C   UNL     1     -41.323 -50.063  11.946  1.00  0.00     0.235 C 
HETATM    2  O   UNL     1     -40.255 -50.258  11.363  1.00  0.00    -0.272 OA
HETATM    3  N   UNL     1     -42.268 -49.161  11.451  1.00  0.00    -0.359 N 
HETATM    4  H   UNL     1     -43.202 -49.106  11.852  1.00  0.00     0.162 HD
ENDROOT
BRANCH   1   5
HETATM    5  C   UNL     1     -41.627 -50.811  13.253  1.00  0.00     0.234 C 
BRANCH   5   6
HETATM    6  N   UNL     1     -42.659 -51.851  13.156  1.00  0.00    -0.310 N 
HETATM    7  C   UNL     1     -42.370 -53.211  12.938  1.00  0.00     0.014 A 
HETATM    8  C   UNL     1     -40.959 -53.687  12.718  1.00  0.00     0.068 C 
HETATM    9  C   UNL     1     -43.369 -54.116  12.930  1.00  0.00     0.061 A 
HETATM   10  C   UNL     1     -44.729 -53.713  13.157  1.00  0.00     0.072 A 
HETATM   11  C   UNL     1     -45.040 -52.432  13.353  1.00  0.00     0.111 A 
HETATM   12  C   UNL     1     -43.972 -51.403  13.343  1.00  0.00     0.250 A 
HETATM   13  O   UNL     1     -44.274 -50.222  13.513  1.00  0.00    -0.268 OA
BRANCH  10  14
HETATM   14  O   UNL     1     -45.700 -54.686  13.164  1.00  0.00    -0.360 OA
HETATM   15  H   UNL     1     -46.121 -54.731  12.291  1.00  0.00     0.217 HD
ENDBRANCH  10  14
ENDBRANCH   5   6
ENDBRANCH   1   5
BRANCH   3  16
HETATM   16  C   UNL     1     -41.867 -48.390  10.277  1.00  0.00     0.132 C 
BRANCH  16  17
HETATM   17  C   UNL     1     -42.365 -46.922  10.180  1.00  0.00    -0.021 C 
HETATM   18  C   UNL     1     -41.334 -45.744  10.367  1.00  0.00     0.011 C 
HETATM   19  C   UNL     1     -42.223 -45.179  11.498  1.00  0.00     0.002 C 
HETATM   20  C   UNL     1     -42.810 -46.578  11.664  1.00  0.00     0.011 C 
BRANCH  17  21
HETATM   21  C   UNL     1     -43.414 -46.732   9.053  1.00  0.00    -0.004 A 
HETATM   22  C   UNL     1     -44.680 -47.534   8.853  1.00  0.00     0.006 A 
HETATM   23  C   UNL     1     -43.552 -47.677   7.879  1.00  0.00     0.006 A 
ENDBRANCH  17  21
ENDBRANCH  16  17
ENDBRANCH   3  16
TORSDOF 6
ENDMDL
MODEL 2
REMARK VINA RESULT:      -5.9      4.334      6.610
REMARK  6 active torsions:
REMARK  status: ('A' for Active; 'I' for Inactive)
REMARK    1  A    between atoms: C_4  and  O_5 
REMARK    2  A    between atoms: N_9  and  C_10 
REMARK    3  A    between atoms: C_10  and  C_11 
REMARK       I    between atoms: C_11  and  N_13 
REMARK    4  A    between atoms: N_13  and  C_14 
REMARK    5  A    between atoms: C_14  and  C_15 
REMARK    6  A    between atoms: C_15  and  C_19 
ROOT
HETATM    1  C   UNL     1     -43.414 -53.648  12.951  1.00  0.00     0.235 C 
HETATM    2  O   UNL     1     -43.106 -52.681  12.254  1.00  0.00    -0.272 OA
HETATM    3  N   UNL     1     -42.442 -54.454  13.550  1.00  0.00    -0.359 N 
HETATM    4  H   UNL     1     -42.696 -55.161  14.237  1.00  0.00     0.162 HD
ENDROOT
BRANCH   1   5
HETATM    5  C   UNL     1     -44.896 -53.996  13.164  1.00  0.00     0.234 C 
BRANCH   5   6
HETATM    6  N   UNL     1     -45.580 -53.220  14.207  1.00  0.00    -0.310 N 
HETATM    7  C   UNL     1     -46.371 -52.089  13.938  1.00  0.00     0.014 A 
HETATM    8  C   UNL     1     -46.516 -51.548  12.540  1.00  0.00     0.068 C 
HETATM    9  C   UNL     1     -47.023 -51.471  14.943  1.00  0.00     0.061 A 
HETATM   10  C   UNL     1     -46.932 -51.963  16.290  1.00  0.00     0.072 A 
HETATM   11  C   UNL     1     -46.181 -53.024  16.583  1.00  0.00     0.111 A 
HETATM   12  C   UNL     1     -45.428 -53.715  15.508  1.00  0.00     0.250 A 
HETATM   13  O   UNL     1     -44.727 -54.686  15.793  1.00  0.00    -0.268 OA
BRANCH  10  14
HETATM   14  O   UNL     1     -47.642 -51.307  17.268  1.00  0.00    -0.360 OA
HETATM   15  H   UNL     1     -47.223 -51.460  18.130  1.00  0.00     0.217 HD
ENDBRANCH  10  14
ENDBRANCH   5   6
ENDBRANCH   1   5
BRANCH   3  16
HETATM   16  C   UNL     1     -41.056 -54.148  13.208  1.00  0.00     0.132 C 
BRANCH  16  17
HETATM   17  C   UNL     1     -40.070 -53.885  14.378  1.00  0.00    -0.021 C 
HETATM   18  C   UNL     1     -38.902 -54.909  14.649  1.00  0.00     0.011 C 
HETATM   19  C   UNL     1     -39.408 -55.063  16.102  1.00  0.00     0.002 C 
HETATM   20  C   UNL     1     -40.772 -54.577  15.623  1.00  0.00     0.011 C 
BRANCH  17  21
HETATM   21  C   UNL     1     -39.699 -52.384  14.506  1.00  0.00    -0.004 A 
HETATM   22  C   UNL     1     -39.950 -51.301  13.482  1.00  0.00     0.006 A 
HETATM   23  C   UNL     1     -38.547 -51.747  13.759  1.00  0.00     0.006 A 
ENDBRANCH  17  21
ENDBRANCH  16  17
ENDBRANCH   3  16
TORSDOF 6
ENDMDL
MODEL 3
REMARK VINA RESULT:      -5.9      3.868      5.085
REMARK  6 active torsions:
REMARK  status: ('A' for Active; 'I' for Inactive)
REMARK    1  A    between atoms: C_4  and  O_5 
REMARK    2  A    between atoms: N_9  and  C_10 
REMARK    3  A    between atoms: C_10  and  C_11 
REMARK       I    between atoms: C_11  and  N_13 
REMARK    4  A    between atoms: N_13  and  C_14 
REMARK    5  A    between atoms: C_14  and  C_15 
REMARK    6  A    between atoms: C_15  and  C_19 
ROOT
HETATM    1  C   UNL     1     -40.028 -52.682  14.730  1.00  0.00     0.235 C 
HETATM    2  O   UNL     1     -40.371 -52.247  15.830  1.00  0.00    -0.272 OA
HETATM    3  N   UNL     1     -39.207 -51.939  13.877  1.00  0.00    -0.359 N 
HETATM    4  H   UNL     1     -38.810 -52.354  13.037  1.00  0.00     0.162 HD
ENDROOT
BRANCH   1   5
HETATM    5  C   UNL     1     -40.518 -54.062  14.267  1.00  0.00     0.234 C 
BRANCH   5   6
HETATM    6  N   UNL     1     -41.949 -54.146  13.945  1.00  0.00    -0.310 N 
HETATM    7  C   UNL     1     -42.881 -54.840  14.738  1.00  0.00     0.014 A 
HETATM    8  C   UNL     1     -42.452 -55.615  15.955  1.00  0.00     0.068 C 
HETATM    9  C   UNL     1     -44.189 -54.812  14.414  1.00  0.00     0.061 A 
HETATM   10  C   UNL     1     -44.649 -54.068  13.274  1.00  0.00     0.072 A 
HETATM   11  C   UNL     1     -43.792 -53.410  12.494  1.00  0.00     0.111 A 
HETATM   12  C   UNL     1     -42.341 -53.439  12.803  1.00  0.00     0.250 A 
HETATM   13  O   UNL     1     -41.558 -52.837  12.068  1.00  0.00    -0.268 OA
BRANCH  10  14
HETATM   14  O   UNL     1     -45.999 -54.055  13.011  1.00  0.00    -0.360 OA
HETATM   15  H   UNL     1     -46.155 -54.372  12.108  1.00  0.00     0.217 HD
ENDBRANCH  10  14
ENDBRANCH   5   6
ENDBRANCH   1   5
BRANCH   3  16
HETATM   16  C   UNL     1     -38.879 -50.586  14.320  1.00  0.00     0.132 C 
BRANCH  16  17
HETATM   17  C   UNL     1     -38.139 -49.662  13.314  1.00  0.00    -0.021 C 
HETATM   18  C   UNL     1     -38.802 -49.356  11.917  1.00  0.00     0.011 C 
HETATM   19  C   UNL     1     -37.523 -49.877  11.224  1.00  0.00     0.002 C 
HETATM   20  C   UNL     1     -37.217 -50.663  12.496  1.00  0.00     0.011 C 
BRANCH  17  21
HETATM   21  C   UNL     1     -37.452 -48.463  14.016  1.00  0.00    -0.004 A 
HETATM   22  C   UNL     1     -37.647 -48.021  15.449  1.00  0.00     0.006 A 
HETATM   23  C   UNL     1     -38.164 -47.165  14.333  1.00  0.00     0.006 A 
ENDBRANCH  17  21
ENDBRANCH  16  17
ENDBRANCH   3  16
TORSDOF 6
ENDMDL
MODEL 4
REMARK VINA RESULT:      -5.9      2.166      7.065
REMARK  6 active torsions:
REMARK  status: ('A' for Active; 'I' for Inactive)
REMARK    1  A    between atoms: C_4  and  O_5 
REMARK    2  A    between atoms: N_9  and  C_10 
REMARK    3  A    between atoms: C_10  and  C_11 
REMARK       I    between atoms: C_11  and  N_13 
REMARK    4  A    between atoms: N_13  and  C_14 
REMARK    5  A    between atoms: C_14  and  C_15 
REMARK    6  A    between atoms: C_15  and  C_19 
ROOT
HETATM    1  C   UNL     1     -42.051 -49.563  12.469  1.00  0.00     0.235 C 
HETATM    2  O   UNL     1     -41.245 -49.547  13.401  1.00  0.00    -0.272 OA
HETATM    3  N   UNL     1     -43.355 -50.036  12.641  1.00  0.00    -0.359 N 
HETATM    4  H   UNL     1     -44.057 -49.917  11.914  1.00  0.00     0.162 HD
ENDROOT
BRANCH   1   5
HETATM    5  C   UNL     1     -41.620 -49.071  11.078  1.00  0.00     0.234 C 
BRANCH   5   6
HETATM    6  N   UNL     1     -41.564 -47.612  10.919  1.00  0.00    -0.310 N 
HETATM    7  C   UNL     1     -42.667 -46.833  10.525  1.00  0.00     0.014 A 
HETATM    8  C   UNL     1     -43.987 -47.464  10.169  1.00  0.00     0.068 C 
HETATM    9  C   UNL     1     -42.555 -45.491  10.468  1.00  0.00     0.061 A 
HETATM   10  C   UNL     1     -41.323 -44.840  10.820  1.00  0.00     0.072 A 
HETATM   11  C   UNL     1     -40.254 -45.548  11.183  1.00  0.00     0.111 A 
HETATM   12  C   UNL     1     -40.331 -47.029  11.233  1.00  0.00     0.250 A 
HETATM   13  O   UNL     1     -39.333 -47.672  11.558  1.00  0.00    -0.268 OA
BRANCH  10  14
HETATM   14  O   UNL     1     -41.278 -43.467  10.769  1.00  0.00    -0.360 OA
HETATM   15  H   UNL     1     -42.112 -43.129  10.407  1.00  0.00     0.217 HD
ENDBRANCH  10  14
ENDBRANCH   5   6
ENDBRANCH   1   5
BRANCH   3  16
HETATM   16  C   UNL     1     -43.663 -50.606  13.950  1.00  0.00     0.132 C 
BRANCH  16  17
HETATM   17  C   UNL     1     -44.824 -51.635  14.027  1.00  0.00    -0.021 C 
HETATM   18  C   UNL     1     -46.169 -51.340  13.260  1.00  0.00     0.011 C 
HETATM   19  C   UNL     1     -46.935 -51.504  14.592  1.00  0.00     0.002 C 
HETATM   20  C   UNL     1     -45.631 -51.192  15.320  1.00  0.00     0.011 C 
BRANCH  17  21
HETATM   21  C   UNL     1     -44.314 -53.099  13.965  1.00  0.00    -0.004 A 
HETATM   22  C   UNL     1     -42.923 -53.557  13.591  1.00  0.00     0.006 A 
HETATM   23  C   UNL     1     -44.069 -53.839  12.668  1.00  0.00     0.006 A 
ENDBRANCH  17  21
ENDBRANCH  16  17
ENDBRANCH   3  16
TORSDOF 6
ENDMDL
MODEL 5
REMARK VINA RESULT:      -5.9      4.204      6.750
REMARK  6 active torsions:
REMARK  status: ('A' for Active; 'I' for Inactive)
REMARK    1  A    between atoms: C_4  and  O_5 
REMARK    2  A    between atoms: N_9  and  C_10 
REMARK    3  A    between atoms: C_10  and  C_11 
REMARK       I    between atoms: C_11  and  N_13 
REMARK    4  A    between atoms: N_13  and  C_14 
REMARK    5  A    between atoms: C_14  and  C_15 
REMARK    6  A    between atoms: C_15  and  C_19 
ROOT
HETATM    1  C   UNL     1     -43.673 -54.030  16.030  1.00  0.00     0.235 C 
HETATM    2  O   UNL     1     -44.447 -54.848  16.529  1.00  0.00    -0.272 OA
HETATM    3  N   UNL     1     -43.896 -52.655  16.142  1.00  0.00    -0.359 N 
HETATM    4  H   UNL     1     -43.188 -51.982  15.856  1.00  0.00     0.162 HD
ENDROOT
BRANCH   1   5
HETATM    5  C   UNL     1     -42.440 -54.518  15.254  1.00  0.00     0.234 C 
BRANCH   5   6
HETATM    6  N   UNL     1     -42.021 -53.660  14.137  1.00  0.00    -0.310 N 
HETATM    7  C   UNL     1     -42.803 -53.451  12.986  1.00  0.00     0.014 A 
HETATM    8  C   UNL     1     -44.116 -54.161  12.790  1.00  0.00     0.068 C 
HETATM    9  C   UNL     1     -42.381 -52.594  12.035  1.00  0.00     0.061 A 
HETATM   10  C   UNL     1     -41.145 -51.876  12.188  1.00  0.00     0.072 A 
HETATM   11  C   UNL     1     -40.374 -52.060  13.258  1.00  0.00     0.111 A 
HETATM   12  C   UNL     1     -40.792 -53.014  14.314  1.00  0.00     0.250 A 
HETATM   13  O   UNL     1     -40.065 -53.185  15.293  1.00  0.00    -0.268 OA
BRANCH  10  14
HETATM   14  O   UNL     1     -40.782 -50.995  11.196  1.00  0.00    -0.360 OA
HETATM   15  H   UNL     1     -40.523 -50.149  11.595  1.00  0.00     0.217 HD
ENDBRANCH  10  14
ENDBRANCH   5   6
ENDBRANCH   1   5
BRANCH   3  16
HETATM   16  C   UNL     1     -45.149 -52.258  16.781  1.00  0.00     0.132 C 
BRANCH  16  17
HETATM   17  C   UNL     1     -46.270 -51.690  15.869  1.00  0.00    -0.021 C 
HETATM   18  C   UNL     1     -46.922 -52.622  14.777  1.00  0.00     0.011 C 
HETATM   19  C   UNL     1     -46.552 -51.575  13.700  1.00  0.00     0.002 C 
HETATM   20  C   UNL     1     -45.475 -51.057  14.649  1.00  0.00     0.011 C 
BRANCH  17  21
HETATM   21  C   UNL     1     -47.246 -50.768  16.645  1.00  0.00    -0.004 A 
HETATM   22  C   UNL     1     -47.087 -50.275  18.065  1.00  0.00     0.006 A 
HETATM   23  C   UNL     1     -48.163 -51.266  17.742  1.00  0.00     0.006 A 
ENDBRANCH  17  21
ENDBRANCH  16  17
ENDBRANCH   3  16
TORSDOF 6
ENDMDL
MODEL 6
REMARK VINA RESULT:      -5.9      3.290      6.526
REMARK  6 active torsions:
REMARK  status: ('A' for Active; 'I' for Inactive)
REMARK    1  A    between atoms: C_4  and  O_5 
REMARK    2  A    between atoms: N_9  and  C_10 
REMARK    3  A    between atoms: C_10  and  C_11 
REMARK       I    between atoms: C_11  and  N_13 
REMARK    4  A    between atoms: N_13  and  C_14 
REMARK    5  A    between atoms: C_14  and  C_15 
REMARK    6  A    between atoms: C_15  and  C_19 
ROOT
HETATM    1  C   UNL     1     -41.131 -51.540  11.942  1.00  0.00     0.235 C 
HETATM    2  O   UNL     1     -40.444 -52.544  12.133  1.00  0.00    -0.272 OA
HETATM    3  N   UNL     1     -42.516 -51.557  12.133  1.00  0.00    -0.359 N 
HETATM    4  H   UNL     1     -43.060 -50.697  12.113  1.00  0.00     0.162 HD
ENDROOT
BRANCH   1   5
HETATM    5  C   UNL     1     -40.467 -50.237  11.468  1.00  0.00     0.234 C 
BRANCH   5   6
HETATM    6  N   UNL     1     -39.769 -49.473  12.510  1.00  0.00    -0.310 N 
HETATM    7  C   UNL     1     -38.375 -49.506  12.691  1.00  0.00     0.014 A 
HETATM    8  C   UNL     1     -37.496 -50.397  11.854  1.00  0.00     0.068 C 
HETATM    9  C   UNL     1     -37.800 -48.723  13.626  1.00  0.00     0.061 A 
HETATM   10  C   UNL     1     -38.595 -47.840  14.434  1.00  0.00     0.072 A 
HETATM   11  C   UNL     1     -39.920 -47.793  14.299  1.00  0.00     0.111 A 
HETATM   12  C   UNL     1     -40.591 -48.659  13.299  1.00  0.00     0.250 A 
HETATM   13  O   UNL     1     -41.816 -48.617  13.192  1.00  0.00    -0.268 OA
BRANCH  10  14
HETATM   14  O   UNL     1     -37.949 -47.045  15.352  1.00  0.00    -0.360 OA
HETATM   15  H   UNL     1     -37.109 -47.459  15.604  1.00  0.00     0.217 HD
ENDBRANCH  10  14
ENDBRANCH   5   6
ENDBRANCH   1   5
BRANCH   3  16
HETATM   16  C   UNL     1     -43.102 -52.855  12.460  1.00  0.00     0.132 C 
BRANCH  16  17
HETATM   17  C   UNL     1     -44.252 -52.879  13.503  1.00  0.00    -0.021 C 
HETATM   18  C   UNL     1     -43.956 -53.390  14.965  1.00  0.00     0.011 C 
HETATM   19  C   UNL     1     -45.090 -54.428  14.804  1.00  0.00     0.002 C 
HETATM   20  C   UNL     1     -44.918 -54.305  13.293  1.00  0.00     0.011 C 
BRANCH  17  21
HETATM   21  C   UNL     1     -45.171 -51.634  13.392  1.00  0.00    -0.004 A 
HETATM   22  C   UNL     1     -46.467 -51.398  14.133  1.00  0.00     0.006 A 
HETATM   23  C   UNL     1     -46.493 -51.640  12.655  1.00  0.00     0.006 A 
ENDBRANCH  17  21
ENDBRANCH  16  17
ENDBRANCH   3  16
TORSDOF 6
ENDMDL
MODEL 7
REMARK VINA RESULT:      -5.8      3.123      4.634
REMARK  6 active torsions:
REMARK  status: ('A' for Active; 'I' for Inactive)
REMARK    1  A    between atoms: C_4  and  O_5 
REMARK    2  A    between atoms: N_9  and  C_10 
REMARK    3  A    between atoms: C_10  and  C_11 
REMARK       I    between atoms: C_11  and  N_13 
REMARK    4  A    between atoms: N_13  and  C_14 
REMARK    5  A    between atoms: C_14  and  C_15 
REMARK    6  A    between atoms: C_15  and  C_19 
ROOT
HETATM    1  C   UNL     1     -43.248 -53.541  12.938  1.00  0.00     0.235 C 
HETATM    2  O   UNL     1     -42.360 -53.940  13.692  1.00  0.00    -0.272 OA
HETATM    3  N   UNL     1     -42.971 -52.660  11.889  1.00  0.00    -0.359 N 
HETATM    4  H   UNL     1     -43.673 -52.444  11.185  1.00  0.00     0.162 HD
ENDROOT
BRANCH   1   5
HETATM    5  C   UNL     1     -44.699 -54.000  13.154  1.00  0.00     0.234 C 
BRANCH   5   6
HETATM    6  N   UNL     1     -45.460 -53.231  14.147  1.00  0.00    -0.310 N 
HETATM    7  C   UNL     1     -46.233 -52.100  13.824  1.00  0.00     0.014 A 
HETATM    8  C   UNL     1     -46.277 -51.554  12.421  1.00  0.00     0.068 C 
HETATM    9  C   UNL     1     -46.959 -51.489  14.780  1.00  0.00     0.061 A 
HETATM   10  C   UNL     1     -46.967 -51.986  16.128  1.00  0.00     0.072 A 
HETATM   11  C   UNL     1     -46.236 -53.045  16.472  1.00  0.00     0.111 A 
HETATM   12  C   UNL     1     -45.403 -53.730  15.453  1.00  0.00     0.250 A 
HETATM   13  O   UNL     1     -44.723 -54.700  15.786  1.00  0.00    -0.268 OA
BRANCH  10  14
HETATM   14  O   UNL     1     -47.750 -51.335  17.054  1.00  0.00    -0.360 OA
HETATM   15  H   UNL     1     -48.648 -51.702  17.033  1.00  0.00     0.217 HD
ENDBRANCH  10  14
ENDBRANCH   5   6
ENDBRANCH   1   5
BRANCH   3  16
HETATM   16  C   UNL     1     -41.600 -52.162  11.814  1.00  0.00     0.132 C 
BRANCH  16  17
HETATM   17  C   UNL     1     -41.351 -50.683  12.219  1.00  0.00    -0.021 C 
HETATM   18  C   UNL     1     -40.270 -49.842  11.439  1.00  0.00     0.011 C 
HETATM   19  C   UNL     1     -39.571 -49.542  12.784  1.00  0.00     0.002 C 
HETATM   20  C   UNL     1     -40.246 -50.786  13.353  1.00  0.00     0.011 C 
BRANCH  17  21
HETATM   21  C   UNL     1     -42.668 -49.941  12.564  1.00  0.00    -0.004 A 
HETATM   22  C   UNL     1     -42.797 -48.568  13.183  1.00  0.00     0.006 A 
HETATM   23  C   UNL     1     -43.183 -49.776  13.978  1.00  0.00     0.006 A 
ENDBRANCH  17  21
ENDBRANCH  16  17
ENDBRANCH   3  16
TORSDOF 6
ENDMDL
MODEL 8
REMARK VINA RESULT:      -5.8      3.597      5.747
REMARK  6 active torsions:
REMARK  status: ('A' for Active; 'I' for Inactive)
REMARK    1  A    between atoms: C_4  and  O_5 
REMARK    2  A    between atoms: N_9  and  C_10 
REMARK    3  A    between atoms: C_10  and  C_11 
REMARK       I    between atoms: C_11  and  N_13 
REMARK    4  A    between atoms: N_13  and  C_14 
REMARK    5  A    between atoms: C_14  and  C_15 
REMARK    6  A    between atoms: C_15  and  C_19 
ROOT
HETATM    1  C   UNL     1     -41.649 -50.354  13.592  1.00  0.00     0.235 C 
HETATM    2  O   UNL     1     -41.940 -49.706  14.599  1.00  0.00    -0.272 OA
HETATM    3  N   UNL     1     -42.623 -50.733  12.664  1.00  0.00    -0.359 N 
HETATM    4  H   UNL     1     -42.364 -51.142  11.768  1.00  0.00     0.162 HD
ENDROOT
BRANCH   1   5
HETATM    5  C   UNL     1     -40.192 -50.775  13.348  1.00  0.00     0.234 C 
BRANCH   5   6
HETATM    6  N   UNL     1     -39.798 -52.055  13.951  1.00  0.00    -0.310 N 
HETATM    7  C   UNL     1     -39.212 -52.163  15.225  1.00  0.00     0.014 A 
HETATM    8  C   UNL     1     -38.882 -50.943  16.043  1.00  0.00     0.068 C 
HETATM    9  C   UNL     1     -38.943 -53.380  15.739  1.00  0.00     0.061 A 
HETATM   10  C   UNL     1     -39.260 -54.574  15.006  1.00  0.00     0.072 A 
HETATM   11  C   UNL     1     -39.802 -54.509  13.791  1.00  0.00     0.111 A 
HETATM   12  C   UNL     1     -40.090 -53.187  13.181  1.00  0.00     0.250 A 
HETATM   13  O   UNL     1     -40.580 -53.139  12.053  1.00  0.00    -0.268 OA
BRANCH  10  14
HETATM   14  O   UNL     1     -38.986 -55.787  15.594  1.00  0.00    -0.360 OA
HETATM   15  H   UNL     1     -38.976 -56.480  14.916  1.00  0.00     0.217 HD
ENDBRANCH  10  14
ENDBRANCH   5   6
ENDBRANCH   1   5
BRANCH   3  16
HETATM   16  C   UNL     1     -44.004 -50.414  13.016  1.00  0.00     0.132 C 
BRANCH  16  17
HETATM   17  C   UNL     1     -44.948 -51.598  13.361  1.00  0.00    -0.021 C 
HETATM   18  C   UNL     1     -46.485 -51.480  13.031  1.00  0.00     0.011 C 
HETATM   19  C   UNL     1     -46.800 -51.779  14.515  1.00  0.00     0.002 C 
HETATM   20  C   UNL     1     -45.391 -51.301  14.856  1.00  0.00     0.011 C 
BRANCH  17  21
HETATM   21  C   UNL     1     -44.294 -52.974  13.066  1.00  0.00    -0.004 A 
HETATM   22  C   UNL     1     -44.863 -54.335  13.397  1.00  0.00     0.006 A 
HETATM   23  C   UNL     1     -43.657 -53.837  14.133  1.00  0.00     0.006 A 
ENDBRANCH  17  21
ENDBRANCH  16  17
ENDBRANCH   3  16
TORSDOF 6
ENDMDL
MODEL 9
REMARK VINA RESULT:      -5.7      3.143      7.127
REMARK  6 active torsions:
REMARK  status: ('A' for Active; 'I' for Inactive)
REMARK    1  A    between atoms: C_4  and  O_5 
REMARK    2  A    between atoms: N_9  and  C_10 
REMARK    3  A    between atoms: C_10  and  C_11 
REMARK       I    between atoms: C_11  and  N_13 
REMARK    4  A    between atoms: N_13  and  C_14 
REMARK    5  A    between atoms: C_14  and  C_15 
REMARK    6  A    between atoms: C_15  and  C_19 
ROOT
HETATM    1  C   UNL     1     -41.118 -50.515  11.811  1.00  0.00     0.235 C 
HETATM    2  O   UNL     1     -42.075 -49.930  12.319  1.00  0.00    -0.272 OA
HETATM    3  N   UNL     1     -41.141 -51.896  11.592  1.00  0.00    -0.359 N 
HETATM    4  H   UNL     1     -40.414 -52.354  11.046  1.00  0.00     0.162 HD
ENDROOT
BRANCH   1   5
HETATM    5  C   UNL     1     -39.859 -49.726  11.418  1.00  0.00     0.234 C 
BRANCH   5   6
HETATM    6  N   UNL     1     -38.978 -49.354  12.533  1.00  0.00    -0.310 N 
HETATM    7  C   UNL     1     -38.932 -48.062  13.085  1.00  0.00     0.014 A 
HETATM    8  C   UNL     1     -39.751 -46.935  12.515  1.00  0.00     0.068 C 
HETATM    9  C   UNL     1     -38.147 -47.816  14.153  1.00  0.00     0.061 A 
HETATM   10  C   UNL     1     -37.363 -48.864  14.747  1.00  0.00     0.072 A 
HETATM   11  C   UNL     1     -37.372 -50.097  14.240  1.00  0.00     0.111 A 
HETATM   12  C   UNL     1     -38.204 -50.400  13.050  1.00  0.00     0.250 A 
HETATM   13  O   UNL     1     -38.194 -51.539  12.584  1.00  0.00    -0.268 OA
BRANCH  10  14
HETATM   14  O   UNL     1     -36.603 -48.559  15.851  1.00  0.00    -0.360 OA
HETATM   15  H   UNL     1     -37.087 -47.933  16.413  1.00  0.00     0.217 HD
ENDBRANCH  10  14
ENDBRANCH   5   6
ENDBRANCH   1   5
BRANCH   3  16
HETATM   16  C   UNL     1     -42.311 -52.606  12.101  1.00  0.00     0.132 C 
BRANCH  16  17
HETATM   17  C   UNL     1     -42.122 -53.479  13.372  1.00  0.00    -0.021 C 
HETATM   18  C   UNL     1     -41.365 -52.875  14.617  1.00  0.00     0.011 C 
HETATM   19  C   UNL     1     -40.383 -54.068  14.566  1.00  0.00     0.002 C 
HETATM   20  C   UNL     1     -40.761 -54.250  13.099  1.00  0.00     0.011 C 
BRANCH  17  21
HETATM   21  C   UNL     1     -43.378 -54.331  13.690  1.00  0.00    -0.004 A 
HETATM   22  C   UNL     1     -44.759 -54.160  13.100  1.00  0.00     0.006 A 
HETATM   23  C   UNL     1     -44.526 -53.833  14.542  1.00  0.00     0.006 A 
ENDBRANCH  17  21
ENDBRANCH  16  17
ENDBRANCH   3  16
TORSDOF 6
ENDMDL
