MODEL 1
REMARK VINA RESULT:      -6.3      0.000      0.000
REMARK  3 active torsions:
REMARK  status: ('A' for Active; 'I' for Inactive)
REMARK    1  A    between atoms: C_2  and  N_4 
REMARK       I    between atoms: N_4  and  C_5 
REMARK    2  A    between atoms: C_5  and  C_7 
REMARK    3  A    between atoms: C_10  and  N_16 
ROOT
HETATM    1  C   UNL     1     -42.392 -47.623  10.250  1.00  0.00     0.139 A 
HETATM    2  N   UNL     1     -41.868 -48.845  10.565  1.00  0.00    -0.184 N 
ATOM      3  HN  UNL     1     -42.258 -49.704  10.177  1.00  0.00     0.184 HD
HETATM    4  C   UNL     1     -40.822 -48.873  11.403  1.00  0.00     0.680 A 
HETATM    5  N   UNL     1     -40.320 -47.760  11.958  1.00  0.00    -0.200 N 
ATOM      6  HN  UNL     1     -39.524 -47.806  12.594  1.00  0.00     0.183 HD
HETATM    7  C   UNL     1     -40.895 -46.576  11.653  1.00  0.00     0.132 A 
HETATM    8  C   UNL     1     -41.951 -46.435  10.791  1.00  0.00     0.082 A 
HETATM    9 CL   UNL     1     -42.627 -44.879  10.544  1.00  0.00    -0.080 Cl
ENDROOT
BRANCH   1  10
HETATM   10  C   UNL     1     -43.493 -47.660   9.234  1.00  0.00     0.270 C 
HETATM   11  N   UNL     1     -44.769 -47.815   9.747  1.00  0.00    -0.352 N 
HETATM   12  H   UNL     1     -44.842 -48.052  10.731  1.00  0.00     0.163 HD
HETATM   13  O   UNL     1     -43.266 -47.571   8.032  1.00  0.00    -0.266 OA
BRANCH  11  14
HETATM   14  C   UNL     1     -45.934 -47.903   8.879  1.00  0.00     0.076 C 
HETATM   15  C   UNL     1     -46.772 -49.135   9.207  1.00  0.00     0.032 C 
HETATM   16  C   UNL     1     -46.770 -46.631   8.975  1.00  0.00     0.032 C 
ENDBRANCH  11  14
ENDBRANCH   1  10
BRANCH   4  17
HETATM   17  N   UNL     1     -40.214 -50.066  11.675  1.00  0.00    -0.214 N 
HETATM   18  C   UNL     1     -40.970 -51.310  11.827  1.00  0.00     0.167 C 
HETATM   19  C   UNL     1     -40.475 -52.058  13.079  1.00  0.00     0.188 C 
HETATM   20  O   UNL     1     -39.047 -52.237  13.071  1.00  0.00    -0.388 OA
HETATM   21  C   UNL     1     -38.382 -50.964  13.003  1.00  0.00     0.188 C 
HETATM   22  C   UNL     1     -38.764 -50.208  11.722  1.00  0.00     0.167 C 
ENDBRANCH   4  17
TORSDOF 3
ENDMDL
MODEL 2
REMARK VINA RESULT:      -6.1      3.350      5.853
REMARK  3 active torsions:
REMARK  status: ('A' for Active; 'I' for Inactive)
REMARK    1  A    between atoms: C_2  and  N_4 
REMARK       I    between atoms: N_4  and  C_5 
REMARK    2  A    between atoms: C_5  and  C_7 
REMARK    3  A    between atoms: C_10  and  N_16 
ROOT
HETATM    1  C   UNL     1     -42.343 -50.168  12.295  1.00  0.00     0.139 A 
HETATM    2  N   UNL     1     -42.790 -49.118  11.544  1.00  0.00    -0.184 N 
ATOM      3  HN  UNL     1     -43.750 -48.782  11.622  1.00  0.00     0.184 HD
HETATM    4  C   UNL     1     -41.919 -48.545  10.700  1.00  0.00     0.680 A 
HETATM    5  N   UNL     1     -40.666 -48.998  10.550  1.00  0.00    -0.200 N 
ATOM      6  HN  UNL     1     -40.022 -48.546   9.901  1.00  0.00     0.183 HD
HETATM    7  C   UNL     1     -40.278 -50.066  11.280  1.00  0.00     0.132 A 
HETATM    8  C   UNL     1     -41.080 -50.708  12.187  1.00  0.00     0.082 A 
HETATM    9 CL   UNL     1     -40.482 -52.094  12.999  1.00  0.00    -0.080 Cl
ENDROOT
BRANCH   1  10
HETATM   10  C   UNL     1     -43.338 -50.694  13.284  1.00  0.00     0.270 C 
HETATM   11  N   UNL     1     -44.184 -51.681  12.808  1.00  0.00    -0.352 N 
HETATM   12  H   UNL     1     -44.176 -51.849  11.807  1.00  0.00     0.163 HD
HETATM   13  O   UNL     1     -43.398 -50.264  14.430  1.00  0.00    -0.266 OA
BRANCH  11  14
HETATM   14  C   UNL     1     -45.224 -52.262  13.645  1.00  0.00     0.076 C 
HETATM   15  C   UNL     1     -46.544 -51.518  13.475  1.00  0.00     0.032 C 
HETATM   16  C   UNL     1     -45.389 -53.747  13.338  1.00  0.00     0.032 C 
ENDBRANCH  11  14
ENDBRANCH   1  10
BRANCH   4  17
HETATM   17  N   UNL     1     -42.300 -47.439   9.995  1.00  0.00    -0.214 N 
HETATM   18  C   UNL     1     -41.723 -46.117  10.244  1.00  0.00     0.167 C 
HETATM   19  C   UNL     1     -42.853 -45.073  10.319  1.00  0.00     0.188 C 
HETATM   20  O   UNL     1     -43.715 -45.128   9.168  1.00  0.00    -0.388 OA
HETATM   21  C   UNL     1     -44.304 -46.434   9.044  1.00  0.00     0.188 C 
HETATM   22  C   UNL     1     -43.225 -47.514   8.870  1.00  0.00     0.167 C 
ENDBRANCH   4  17
TORSDOF 3
ENDMDL
MODEL 3
REMARK VINA RESULT:      -6.0      3.792      5.498
REMARK  3 active torsions:
REMARK  status: ('A' for Active; 'I' for Inactive)
REMARK    1  A    between atoms: C_2  and  N_4 
REMARK       I    between atoms: N_4  and  C_5 
REMARK    2  A    between atoms: C_5  and  C_7 
REMARK    3  A    between atoms: C_10  and  N_16 
ROOT
HETATM    1  C   UNL     1     -42.446 -52.202  12.567  1.00  0.00     0.139 A 
HETATM    2  N   UNL     1     -42.221 -51.003  11.951  1.00  0.00    -0.184 N 
ATOM      3  HN  UNL     1     -42.972 -50.507  11.470  1.00  0.00     0.184 HD
HETATM    4  C   UNL     1     -40.978 -50.503  12.003  1.00  0.00     0.680 A 
HETATM    5  N   UNL     1     -39.968 -51.159  12.593  1.00  0.00    -0.200 N 
ATOM      6  HN  UNL     1     -39.030 -50.759  12.618  1.00  0.00     0.183 HD
HETATM    7  C   UNL     1     -40.223 -52.361  13.152  1.00  0.00     0.132 A 
HETATM    8  C   UNL     1     -41.461 -52.949  13.175  1.00  0.00     0.082 A 
HETATM    9 CL   UNL     1     -41.632 -54.511  13.862  1.00  0.00    -0.080 Cl
ENDROOT
BRANCH   1  10
HETATM   10  C   UNL     1     -43.875 -52.651  12.554  1.00  0.00     0.270 C 
HETATM   11  N   UNL     1     -44.794 -51.720  13.007  1.00  0.00    -0.352 N 
HETATM   12  H   UNL     1     -44.422 -50.889  13.456  1.00  0.00     0.163 HD
HETATM   13  O   UNL     1     -44.196 -53.774  12.180  1.00  0.00    -0.266 OA
BRANCH  11  14
HETATM   14  C   UNL     1     -46.215 -52.027  13.085  1.00  0.00     0.076 C 
HETATM   15  C   UNL     1     -46.842 -51.412  14.332  1.00  0.00     0.032 C 
HETATM   16  C   UNL     1     -46.933 -51.560  11.824  1.00  0.00     0.032 C 
ENDBRANCH  11  14
ENDBRANCH   1  10
BRANCH   4  17
HETATM   17  N   UNL     1     -40.732 -49.268  11.475  1.00  0.00    -0.214 N 
HETATM   18  C   UNL     1     -39.490 -48.540  11.737  1.00  0.00     0.167 C 
HETATM   19  C   UNL     1     -39.821 -47.079  12.097  1.00  0.00     0.188 C 
HETATM   20  O   UNL     1     -40.666 -46.459  11.111  1.00  0.00    -0.388 OA
HETATM   21  C   UNL     1     -41.897 -47.189  10.975  1.00  0.00     0.188 C 
HETATM   22  C   UNL     1     -41.637 -48.634  10.523  1.00  0.00     0.167 C 
ENDBRANCH   4  17
TORSDOF 3
ENDMDL
MODEL 4
REMARK VINA RESULT:      -5.8      2.822      3.747
REMARK  3 active torsions:
REMARK  status: ('A' for Active; 'I' for Inactive)
REMARK    1  A    between atoms: C_2  and  N_4 
REMARK       I    between atoms: N_4  and  C_5 
REMARK    2  A    between atoms: C_5  and  C_7 
REMARK    3  A    between atoms: C_10  and  N_16 
ROOT
HETATM    1  C   UNL     1     -41.959 -49.375  11.802  1.00  0.00     0.139 A 
HETATM    2  N   UNL     1     -42.614 -50.521  12.157  1.00  0.00    -0.184 N 
ATOM      3  HN  UNL     1     -43.631 -50.545  12.236  1.00  0.00     0.184 HD
HETATM    4  C   UNL     1     -41.871 -51.610  12.398  1.00  0.00     0.680 A 
HETATM    5  N   UNL     1     -40.531 -51.589  12.341  1.00  0.00    -0.200 N 
ATOM      6  HN  UNL     1     -39.987 -52.430  12.529  1.00  0.00     0.183 HD
HETATM    7  C   UNL     1     -39.921 -50.425  12.028  1.00  0.00     0.132 A 
HETATM    8  C   UNL     1     -40.587 -49.262  11.741  1.00  0.00     0.082 A 
HETATM    9 CL   UNL     1     -39.687 -47.838  11.424  1.00  0.00    -0.080 Cl
ENDROOT
BRANCH   1  10
HETATM   10  C   UNL     1     -42.856 -48.227  11.453  1.00  0.00     0.270 C 
HETATM   11  N   UNL     1     -43.329 -48.218  10.152  1.00  0.00    -0.352 N 
HETATM   12  H   UNL     1     -42.910 -48.879   9.506  1.00  0.00     0.163 HD
HETATM   13  O   UNL     1     -43.135 -47.354  12.267  1.00  0.00    -0.266 OA
BRANCH  11  14
HETATM   14  C   UNL     1     -44.182 -47.145   9.659  1.00  0.00     0.076 C 
HETATM   15  C   UNL     1     -43.461 -46.311   8.605  1.00  0.00     0.032 C 
HETATM   16  C   UNL     1     -45.488 -47.710   9.111  1.00  0.00     0.032 C 
ENDBRANCH  11  14
ENDBRANCH   1  10
BRANCH   4  17
HETATM   17  N   UNL     1     -42.492 -52.796  12.671  1.00  0.00    -0.214 N 
HETATM   18  C   UNL     1     -43.904 -53.027  12.364  1.00  0.00     0.167 C 
HETATM   19  C   UNL     1     -44.589 -53.682  13.579  1.00  0.00     0.188 C 
HETATM   20  O   UNL     1     -43.886 -54.856  14.025  1.00  0.00    -0.388 OA
HETATM   21  C   UNL     1     -42.533 -54.526  14.383  1.00  0.00     0.188 C 
HETATM   22  C   UNL     1     -41.766 -53.954  13.182  1.00  0.00     0.167 C 
ENDBRANCH   4  17
TORSDOF 3
ENDMDL
MODEL 5
REMARK VINA RESULT:      -5.8      2.317      4.178
REMARK  3 active torsions:
REMARK  status: ('A' for Active; 'I' for Inactive)
REMARK    1  A    between atoms: C_2  and  N_4 
REMARK       I    between atoms: N_4  and  C_5 
REMARK    2  A    between atoms: C_5  and  C_7 
REMARK    3  A    between atoms: C_10  and  N_16 
ROOT
HETATM    1  C   UNL     1     -41.138 -46.433  10.549  1.00  0.00     0.139 A 
HETATM    2  N   UNL     1     -40.316 -47.466  10.904  1.00  0.00    -0.184 N 
ATOM      3  HN  UNL     1     -39.323 -47.313  11.084  1.00  0.00     0.184 HD
HETATM    4  C   UNL     1     -40.861 -48.686  11.006  1.00  0.00     0.680 A 
HETATM    5  N   UNL     1     -42.154 -48.916  10.731  1.00  0.00    -0.200 N 
ATOM      6  HN  UNL     1     -42.546 -49.854  10.815  1.00  0.00     0.183 HD
HETATM    7  C   UNL     1     -42.922 -47.876  10.343  1.00  0.00     0.132 A 
HETATM    8  C   UNL     1     -42.469 -46.587  10.230  1.00  0.00     0.082 A 
HETATM    9 CL   UNL     1     -43.537 -45.371   9.662  1.00  0.00    -0.080 Cl
ENDROOT
BRANCH   1  10
HETATM   10  C   UNL     1     -40.483 -45.086  10.551  1.00  0.00     0.270 C 
HETATM   11  N   UNL     1     -40.871 -44.239  11.576  1.00  0.00    -0.352 N 
HETATM   12  H   UNL     1     -41.669 -44.528  12.132  1.00  0.00     0.163 HD
HETATM   13  O   UNL     1     -39.671 -44.761   9.692  1.00  0.00    -0.266 OA
BRANCH  11  14
HETATM   14  C   UNL     1     -40.346 -42.886  11.686  1.00  0.00     0.076 C 
HETATM   15  C   UNL     1     -41.431 -41.851  11.405  1.00  0.00     0.032 C 
HETATM   16  C   UNL     1     -39.721 -42.665  13.059  1.00  0.00     0.032 C 
ENDBRANCH  11  14
ENDBRANCH   1  10
BRANCH   4  17
HETATM   17  N   UNL     1     -40.093 -49.728  11.441  1.00  0.00    -0.214 N 
HETATM   18  C   UNL     1     -40.667 -51.027  11.795  1.00  0.00     0.167 C 
HETATM   19  C   UNL     1     -40.071 -51.499  13.135  1.00  0.00     0.188 C 
HETATM   20  O   UNL     1     -38.632 -51.478  13.122  1.00  0.00    -0.388 OA
HETATM   21  C   UNL     1     -38.152 -50.151  12.848  1.00  0.00     0.188 C 
HETATM   22  C   UNL     1     -38.636 -49.659  11.476  1.00  0.00     0.167 C 
ENDBRANCH   4  17
TORSDOF 3
ENDMDL
MODEL 6
REMARK VINA RESULT:      -5.6      3.170      4.067
REMARK  3 active torsions:
REMARK  status: ('A' for Active; 'I' for Inactive)
REMARK    1  A    between atoms: C_2  and  N_4 
REMARK       I    between atoms: N_4  and  C_5 
REMARK    2  A    between atoms: C_5  and  C_7 
REMARK    3  A    between atoms: C_10  and  N_16 
ROOT
HETATM    1  C   UNL     1     -41.839 -49.027  11.749  1.00  0.00     0.139 A 
HETATM    2  N   UNL     1     -42.871 -49.864  12.068  1.00  0.00    -0.184 N 
ATOM      3  HN  UNL     1     -43.797 -49.743  11.656  1.00  0.00     0.184 HD
HETATM    4  C   UNL     1     -42.622 -50.851  12.942  1.00  0.00     0.680 A 
HETATM    5  N   UNL     1     -41.425 -51.002  13.527  1.00  0.00    -0.200 N 
ATOM      6  HN  UNL     1     -41.260 -51.759  14.190  1.00  0.00     0.183 HD
HETATM    7  C   UNL     1     -40.444 -50.127  13.217  1.00  0.00     0.132 A 
HETATM    8  C   UNL     1     -40.587 -49.100  12.320  1.00  0.00     0.082 A 
HETATM    9 CL   UNL     1     -39.279 -48.021  12.068  1.00  0.00    -0.080 Cl
ENDROOT
BRANCH   1  10
HETATM   10  C   UNL     1     -42.162 -48.013  10.696  1.00  0.00     0.270 C 
HETATM   11  N   UNL     1     -43.356 -48.214  10.024  1.00  0.00    -0.352 N 
HETATM   12  H   UNL     1     -43.824 -49.101  10.177  1.00  0.00     0.163 HD
HETATM   13  O   UNL     1     -41.408 -47.079  10.445  1.00  0.00    -0.266 OA
BRANCH  11  14
HETATM   14  C   UNL     1     -43.784 -47.329   8.950  1.00  0.00     0.076 C 
HETATM   15  C   UNL     1     -43.470 -47.931   7.584  1.00  0.00     0.032 C 
HETATM   16  C   UNL     1     -45.269 -47.011   9.080  1.00  0.00     0.032 C 
ENDBRANCH  11  14
ENDBRANCH   1  10
BRANCH   4  17
HETATM   17  N   UNL     1     -43.603 -51.760  13.221  1.00  0.00    -0.214 N 
HETATM   18  C   UNL     1     -43.306 -53.163  13.514  1.00  0.00     0.167 C 
HETATM   19  C   UNL     1     -44.262 -54.065  12.711  1.00  0.00     0.188 C 
HETATM   20  O   UNL     1     -45.640 -53.703  12.911  1.00  0.00    -0.388 OA
HETATM   21  C   UNL     1     -45.862 -52.337  12.522  1.00  0.00     0.188 C 
HETATM   22  C   UNL     1     -45.003 -51.377  13.357  1.00  0.00     0.167 C 
ENDBRANCH   4  17
TORSDOF 3
ENDMDL
MODEL 7
REMARK VINA RESULT:      -5.5      2.118      2.798
REMARK  3 active torsions:
REMARK  status: ('A' for Active; 'I' for Inactive)
REMARK    1  A    between atoms: C_2  and  N_4 
REMARK       I    between atoms: N_4  and  C_5 
REMARK    2  A    between atoms: C_5  and  C_7 
REMARK    3  A    between atoms: C_10  and  N_16 
ROOT
HETATM    1  C   UNL     1     -41.503 -48.451  11.541  1.00  0.00     0.139 A 
HETATM    2  N   UNL     1     -41.983 -49.728  11.614  1.00  0.00    -0.184 N 
ATOM      3  HN  UNL     1     -42.744 -50.043  11.012  1.00  0.00     0.184 HD
HETATM    4  C   UNL     1     -41.417 -50.553  12.507  1.00  0.00     0.680 A 
HETATM    5  N   UNL     1     -40.445 -50.149  13.338  1.00  0.00    -0.200 N 
ATOM      6  HN  UNL     1     -40.030 -50.795  14.009  1.00  0.00     0.183 HD
HETATM    7  C   UNL     1     -40.028 -48.867  13.262  1.00  0.00     0.132 A 
HETATM    8  C   UNL     1     -40.523 -47.951  12.371  1.00  0.00     0.082 A 
HETATM    9 CL   UNL     1     -39.951 -46.335  12.426  1.00  0.00    -0.080 Cl
ENDROOT
BRANCH   1  10
HETATM   10  C   UNL     1     -42.113 -47.617  10.457  1.00  0.00     0.270 C 
HETATM   11  N   UNL     1     -43.261 -48.136   9.884  1.00  0.00    -0.352 N 
HETATM   12  H   UNL     1     -43.499 -49.094  10.120  1.00  0.00     0.163 HD
HETATM   13  O   UNL     1     -41.614 -46.555  10.101  1.00  0.00    -0.266 OA
BRANCH  11  14
HETATM   14  C   UNL     1     -43.945 -47.454   8.794  1.00  0.00     0.076 C 
HETATM   15  C   UNL     1     -43.508 -48.005   7.441  1.00  0.00     0.032 C 
HETATM   16  C   UNL     1     -45.456 -47.556   8.965  1.00  0.00     0.032 C 
ENDBRANCH  11  14
ENDBRANCH   1  10
BRANCH   4  17
HETATM   17  N   UNL     1     -41.809 -51.861  12.552  1.00  0.00    -0.214 N 
HETATM   18  C   UNL     1     -43.187 -52.254  12.852  1.00  0.00     0.167 C 
HETATM   19  C   UNL     1     -43.178 -53.394  13.888  1.00  0.00     0.188 C 
HETATM   20  O   UNL     1     -42.333 -54.485  13.481  1.00  0.00    -0.388 OA
HETATM   21  C   UNL     1     -40.983 -54.030  13.288  1.00  0.00     0.188 C 
HETATM   22  C   UNL     1     -40.913 -52.955  12.194  1.00  0.00     0.167 C 
ENDBRANCH   4  17
TORSDOF 3
ENDMDL
MODEL 8
REMARK VINA RESULT:      -5.2      2.963      7.375
REMARK  3 active torsions:
REMARK  status: ('A' for Active; 'I' for Inactive)
REMARK    1  A    between atoms: C_2  and  N_4 
REMARK       I    between atoms: N_4  and  C_5 
REMARK    2  A    between atoms: C_5  and  C_7 
REMARK    3  A    between atoms: C_10  and  N_16 
ROOT
HETATM    1  C   UNL     1     -39.513 -50.245  12.828  1.00  0.00     0.139 A 
HETATM    2  N   UNL     1     -39.798 -49.063  12.206  1.00  0.00    -0.184 N 
ATOM      3  HN  UNL     1     -39.160 -48.269  12.260  1.00  0.00     0.184 HD
HETATM    4  C   UNL     1     -40.949 -48.984  11.522  1.00  0.00     0.680 A 
HETATM    5  N   UNL     1     -41.822 -50.000  11.474  1.00  0.00    -0.200 N 
ATOM      6  HN  UNL     1     -42.692 -49.916  10.948  1.00  0.00     0.183 HD
HETATM    7  C   UNL     1     -41.522 -51.137  12.138  1.00  0.00     0.132 A 
HETATM    8  C   UNL     1     -40.364 -51.329  12.845  1.00  0.00     0.082 A 
HETATM    9 CL   UNL     1     -40.138 -52.799  13.698  1.00  0.00    -0.080 Cl
ENDROOT
BRANCH   1  10
HETATM   10  C   UNL     1     -38.169 -50.293  13.489  1.00  0.00     0.270 C 
HETATM   11  N   UNL     1     -38.054 -49.554  14.654  1.00  0.00    -0.352 N 
HETATM   12  H   UNL     1     -38.816 -48.921  14.872  1.00  0.00     0.163 HD
HETATM   13  O   UNL     1     -37.239 -50.937  13.015  1.00  0.00    -0.266 OA
BRANCH  11  14
HETATM   14  C   UNL     1     -36.798 -49.478  15.386  1.00  0.00     0.076 C 
HETATM   15  C   UNL     1     -36.464 -48.036  15.754  1.00  0.00     0.032 C 
HETATM   16  C   UNL     1     -36.848 -50.362  16.627  1.00  0.00     0.032 C 
ENDBRANCH  11  14
ENDBRANCH   1  10
BRANCH   4  17
HETATM   17  N   UNL     1     -41.230 -47.849  10.815  1.00  0.00    -0.214 N 
HETATM   18  C   UNL     1     -40.394 -46.651  10.896  1.00  0.00     0.167 C 
HETATM   19  C   UNL     1     -41.293 -45.412  11.072  1.00  0.00     0.188 C 
HETATM   20  O   UNL     1     -42.319 -45.344  10.066  1.00  0.00    -0.388 OA
HETATM   21  C   UNL     1     -43.145 -46.520  10.111  1.00  0.00     0.188 C 
HETATM   22  C   UNL     1     -42.318 -47.787   9.845  1.00  0.00     0.167 C 
ENDBRANCH   4  17
TORSDOF 3
ENDMDL
MODEL 9
REMARK VINA RESULT:      -5.1      3.385      5.138
REMARK  3 active torsions:
REMARK  status: ('A' for Active; 'I' for Inactive)
REMARK    1  A    between atoms: C_2  and  N_4 
REMARK       I    between atoms: N_4  and  C_5 
REMARK    2  A    between atoms: C_5  and  C_7 
REMARK    3  A    between atoms: C_10  and  N_16 
ROOT
HETATM    1  C   UNL     1     -41.356 -49.660  11.717  1.00  0.00     0.139 A 
HETATM    2  N   UNL     1     -42.520 -50.150  12.237  1.00  0.00    -0.184 N 
ATOM      3  HN  UNL     1     -43.391 -49.623  12.172  1.00  0.00     0.184 HD
HETATM    4  C   UNL     1     -42.476 -51.349  12.836  1.00  0.00     0.680 A 
HETATM    5  N   UNL     1     -41.334 -52.039  12.970  1.00  0.00    -0.200 N 
ATOM      6  HN  UNL     1     -41.325 -52.949  13.431  1.00  0.00     0.183 HD
HETATM    7  C   UNL     1     -40.197 -51.499  12.480  1.00  0.00     0.132 A 
HETATM    8  C   UNL     1     -40.137 -50.294  11.830  1.00  0.00     0.082 A 
HETATM    9 CL   UNL     1     -38.616 -49.696  11.315  1.00  0.00    -0.080 Cl
ENDROOT
BRANCH   1  10
HETATM   10  C   UNL     1     -41.499 -48.365  10.977  1.00  0.00     0.270 C 
HETATM   11  N   UNL     1     -41.082 -47.239  11.667  1.00  0.00    -0.352 N 
HETATM   12  H   UNL     1     -40.874 -47.356  12.653  1.00  0.00     0.163 HD
HETATM   13  O   UNL     1     -41.966 -48.316   9.845  1.00  0.00    -0.266 OA
BRANCH  11  14
HETATM   14  C   UNL     1     -41.193 -45.907  11.089  1.00  0.00     0.076 C 
HETATM   15  C   UNL     1     -41.702 -44.903  12.118  1.00  0.00     0.032 C 
HETATM   16  C   UNL     1     -39.856 -45.465  10.505  1.00  0.00     0.032 C 
ENDBRANCH  11  14
ENDBRANCH   1  10
BRANCH   4  17
HETATM   17  N   UNL     1     -43.634 -51.912  13.292  1.00  0.00    -0.214 N 
HETATM   18  C   UNL     1     -43.689 -53.284  13.798  1.00  0.00     0.167 C 
HETATM   19  C   UNL     1     -44.905 -54.005  13.184  1.00  0.00     0.188 C 
HETATM   20  O   UNL     1     -46.122 -53.262  13.372  1.00  0.00    -0.388 OA
HETATM   21  C   UNL     1     -46.013 -51.959  12.775  1.00  0.00     0.188 C 
HETATM   22  C   UNL     1     -44.873 -51.152  13.414  1.00  0.00     0.167 C 
ENDBRANCH   4  17
TORSDOF 3
ENDMDL
