MODEL 1
REMARK VINA RESULT:      -6.2      0.000      0.000
REMARK  5 active torsions:
REMARK  status: ('A' for Active; 'I' for Inactive)
REMARK    1  A    between atoms: O_2  and  C_3 
REMARK    2  A    between atoms: C_5  and  N_6 
REMARK       I    between atoms: N_6  and  C_7 
REMARK       I    between atoms: C_7  and  N_9 
REMARK    3  A    between atoms: N_9  and  C_10 
REMARK    4  A    between atoms: C_10  and  C_11 
REMARK    5  A    between atoms: C_11  and  C_14 
ROOT
HETATM    1  N   UNL     1     -41.874 -49.433  11.419  1.00  0.00    -0.299 N 
HETATM    2  C   UNL     1     -42.511 -50.348  12.179  1.00  0.00     0.299 C 
HETATM    3  O   UNL     1     -41.935 -51.414  12.409  1.00  0.00    -0.254 OA
HETATM    4  N   UNL     1     -43.697 -49.987  12.794  1.00  0.00    -0.243 NA
HETATM    5  H   UNL     1     -40.870 -49.542  11.432  1.00  0.00     0.171 HD
HETATM    6  H   UNL     1     -43.802 -48.995  12.978  1.00  0.00     0.132 HD
ENDROOT
BRANCH   1   7
HETATM    7  C   UNL     1     -42.338 -48.241  10.904  1.00  0.00     0.113 A 
HETATM    8  C   UNL     1     -41.520 -47.146  10.791  1.00  0.00     0.104 A 
HETATM    9  C   UNL     1     -42.113 -46.040  10.240  1.00  0.00     0.146 A 
HETATM   10  N   UNL     1     -43.385 -46.008   9.808  1.00  0.00    -0.333 N 
HETATM   11  C   UNL     1     -44.091 -47.124  10.007  1.00  0.00     0.183 A 
ATOM     12  HN  UNL     1     -43.786 -45.186   9.357  1.00  0.00     0.168 HD
HETATM   13  N   UNL     1     -43.638 -48.243  10.577  1.00  0.00    -0.338 N 
ATOM     14  HN  UNL     1     -44.240 -49.047  10.752  1.00  0.00     0.168 HD
BRANCH   9  15
HETATM   15  O   UNL     1     -41.331 -44.905  10.161  1.00  0.00    -0.341 OA
HETATM   16  C   UNL     1     -39.957 -45.166  10.419  1.00  0.00     0.211 C 
ENDBRANCH   9  15
ENDBRANCH   1   7
BRANCH   4  17
HETATM   17  C   UNL     1     -44.022 -50.869  13.886  1.00  0.00     0.106 C 
BRANCH  17  18
HETATM   18  C   UNL     1     -45.195 -51.830  13.843  1.00  0.00    -0.025 A 
HETATM   19  C   UNL     1     -46.327 -51.485  12.889  1.00  0.00     0.012 A 
HETATM   20  C   UNL     1     -46.599 -51.531  14.360  1.00  0.00     0.012 A 
BRANCH  18  21
HETATM   21  C   UNL     1     -44.650 -53.261  14.026  1.00  0.00    -0.005 A 
HETATM   22  C   UNL     1     -44.193 -54.021  12.789  1.00  0.00     0.006 A 
HETATM   23  C   UNL     1     -45.289 -54.567  13.644  1.00  0.00     0.006 A 
ENDBRANCH  18  21
ENDBRANCH  17  18
ENDBRANCH   4  17
TORSDOF 5
ENDMDL
MODEL 2
REMARK VINA RESULT:      -6.1      1.056      1.937
REMARK  5 active torsions:
REMARK  status: ('A' for Active; 'I' for Inactive)
REMARK    1  A    between atoms: O_2  and  C_3 
REMARK    2  A    between atoms: C_5  and  N_6 
REMARK       I    between atoms: N_6  and  C_7 
REMARK       I    between atoms: C_7  and  N_9 
REMARK    3  A    between atoms: N_9  and  C_10 
REMARK    4  A    between atoms: C_10  and  C_11 
REMARK    5  A    between atoms: C_11  and  C_14 
ROOT
HETATM    1  N   UNL     1     -40.835 -49.652  11.109  1.00  0.00    -0.299 N 
HETATM    2  C   UNL     1     -41.459 -50.633  11.795  1.00  0.00     0.299 C 
HETATM    3  O   UNL     1     -40.867 -51.705  11.942  1.00  0.00    -0.254 OA
HETATM    4  N   UNL     1     -42.651 -50.339  12.434  1.00  0.00    -0.243 NA
HETATM    5  H   UNL     1     -39.830 -49.747  11.115  1.00  0.00     0.171 HD
HETATM    6  H   UNL     1     -42.770 -49.365  12.694  1.00  0.00     0.132 HD
ENDROOT
BRANCH   1   7
HETATM    7  C   UNL     1     -41.316 -48.431  10.688  1.00  0.00     0.113 A 
HETATM    8  C   UNL     1     -40.674 -47.262  11.010  1.00  0.00     0.104 A 
HETATM    9  C   UNL     1     -41.255 -46.129  10.502  1.00  0.00     0.146 A 
HETATM   10  N   UNL     1     -42.350 -46.133   9.722  1.00  0.00    -0.333 N 
HETATM   11  C   UNL     1     -42.905 -47.329   9.511  1.00  0.00     0.183 A 
ATOM     12  HN  UNL     1     -42.732 -45.278   9.317  1.00  0.00     0.168 HD
HETATM   13  N   UNL     1     -42.461 -48.492   9.993  1.00  0.00    -0.338 N 
ATOM     14  HN  UNL     1     -42.959 -49.368   9.843  1.00  0.00     0.168 HD
BRANCH   9  15
HETATM   15  O   UNL     1     -40.664 -44.932  10.851  1.00  0.00    -0.341 OA
HETATM   16  C   UNL     1     -39.477 -44.670  10.111  1.00  0.00     0.211 C 
ENDBRANCH   9  15
ENDBRANCH   1   7
BRANCH   4  17
HETATM   17  C   UNL     1     -42.964 -51.307  13.453  1.00  0.00     0.106 C 
BRANCH  17  18
HETATM   18  C   UNL     1     -44.170 -52.224  13.372  1.00  0.00    -0.025 A 
HETATM   19  C   UNL     1     -43.984 -53.645  13.878  1.00  0.00     0.012 A 
HETATM   20  C   UNL     1     -44.305 -53.421  12.434  1.00  0.00     0.012 A 
BRANCH  18  21
HETATM   21  C   UNL     1     -45.431 -51.384  13.654  1.00  0.00    -0.005 A 
HETATM   22  C   UNL     1     -45.817 -51.129  15.104  1.00  0.00     0.006 A 
HETATM   23  C   UNL     1     -46.762 -51.836  14.187  1.00  0.00     0.006 A 
ENDBRANCH  18  21
ENDBRANCH  17  18
ENDBRANCH   4  17
TORSDOF 5
ENDMDL
MODEL 3
REMARK VINA RESULT:      -5.8      3.391      7.204
REMARK  5 active torsions:
REMARK  status: ('A' for Active; 'I' for Inactive)
REMARK    1  A    between atoms: O_2  and  C_3 
REMARK    2  A    between atoms: C_5  and  N_6 
REMARK       I    between atoms: N_6  and  C_7 
REMARK       I    between atoms: C_7  and  N_9 
REMARK    3  A    between atoms: N_9  and  C_10 
REMARK    4  A    between atoms: C_10  and  C_11 
REMARK    5  A    between atoms: C_11  and  C_14 
ROOT
HETATM    1  N   UNL     1     -42.442 -53.822  12.581  1.00  0.00    -0.299 N 
HETATM    2  C   UNL     1     -41.473 -52.894  12.439  1.00  0.00     0.299 C 
HETATM    3  O   UNL     1     -40.321 -53.283  12.236  1.00  0.00    -0.254 OA
HETATM    4  N   UNL     1     -41.839 -51.561  12.365  1.00  0.00    -0.243 NA
HETATM    5  H   UNL     1     -42.211 -54.701  12.139  1.00  0.00     0.171 HD
HETATM    6  H   UNL     1     -42.777 -51.392  12.017  1.00  0.00     0.132 HD
ENDROOT
BRANCH   1   7
HETATM    7  C   UNL     1     -43.762 -53.667  12.947  1.00  0.00     0.113 A 
HETATM    8  C   UNL     1     -44.271 -54.281  14.064  1.00  0.00     0.104 A 
HETATM    9  C   UNL     1     -45.592 -54.016  14.314  1.00  0.00     0.146 A 
HETATM   10  N   UNL     1     -46.348 -53.198  13.561  1.00  0.00    -0.333 N 
HETATM   11  C   UNL     1     -45.750 -52.689  12.481  1.00  0.00     0.183 A 
ATOM     12  HN  UNL     1     -47.315 -52.979  13.800  1.00  0.00     0.168 HD
HETATM   13  N   UNL     1     -44.488 -52.916  12.107  1.00  0.00    -0.338 N 
ATOM     14  HN  UNL     1     -44.103 -52.543  11.241  1.00  0.00     0.168 HD
BRANCH   9  15
HETATM   15  O   UNL     1     -46.148 -54.660  15.400  1.00  0.00    -0.341 OA
HETATM   16  C   UNL     1     -45.858 -54.009  16.632  1.00  0.00     0.211 C 
ENDBRANCH   9  15
ENDBRANCH   1   7
BRANCH   4  17
HETATM   17  C   UNL     1     -40.797 -50.752  11.789  1.00  0.00     0.106 C 
BRANCH  17  18
HETATM   18  C   UNL     1     -40.307 -49.467  12.430  1.00  0.00    -0.025 A 
HETATM   19  C   UNL     1     -41.304 -48.710  13.292  1.00  0.00     0.012 A 
HETATM   20  C   UNL     1     -40.770 -48.062  12.053  1.00  0.00     0.012 A 
BRANCH  18  21
HETATM   21  C   UNL     1     -38.827 -49.657  12.819  1.00  0.00    -0.005 A 
HETATM   22  C   UNL     1     -37.774 -49.531  11.727  1.00  0.00     0.006 A 
HETATM   23  C   UNL     1     -37.911 -50.805  12.497  1.00  0.00     0.006 A 
ENDBRANCH  18  21
ENDBRANCH  17  18
ENDBRANCH   4  17
TORSDOF 5
ENDMDL
MODEL 4
REMARK VINA RESULT:      -5.8      1.521      2.169
REMARK  5 active torsions:
REMARK  status: ('A' for Active; 'I' for Inactive)
REMARK    1  A    between atoms: O_2  and  C_3 
REMARK    2  A    between atoms: C_5  and  N_6 
REMARK       I    between atoms: N_6  and  C_7 
REMARK       I    between atoms: C_7  and  N_9 
REMARK    3  A    between atoms: N_9  and  C_10 
REMARK    4  A    between atoms: C_10  and  C_11 
REMARK    5  A    between atoms: C_11  and  C_14 
ROOT
HETATM    1  N   UNL     1     -40.572 -50.357  11.430  1.00  0.00    -0.299 N 
HETATM    2  C   UNL     1     -41.401 -51.346  11.822  1.00  0.00     0.299 C 
HETATM    3  O   UNL     1     -40.932 -52.478  11.957  1.00  0.00    -0.254 OA
HETATM    4  N   UNL     1     -42.690 -51.016  12.207  1.00  0.00    -0.243 NA
HETATM    5  H   UNL     1     -39.604 -50.545  11.652  1.00  0.00     0.171 HD
HETATM    6  H   UNL     1     -42.804 -50.071  12.559  1.00  0.00     0.132 HD
ENDROOT
BRANCH   1   7
HETATM    7  C   UNL     1     -40.860 -49.056  11.075  1.00  0.00     0.113 A 
HETATM    8  C   UNL     1     -40.080 -48.010  11.501  1.00  0.00     0.104 A 
HETATM    9  C   UNL     1     -40.475 -46.778  11.050  1.00  0.00     0.146 A 
HETATM   10  N   UNL     1     -41.521 -46.580  10.228  1.00  0.00    -0.333 N 
HETATM   11  C   UNL     1     -42.223 -47.671   9.914  1.00  0.00     0.183 A 
ATOM     12  HN  UNL     1     -41.762 -45.657   9.868  1.00  0.00     0.168 HD
HETATM   13  N   UNL     1     -41.966 -48.913  10.333  1.00  0.00    -0.338 N 
ATOM     14  HN  UNL     1     -42.572 -49.700  10.103  1.00  0.00     0.168 HD
BRANCH   9  15
HETATM   15  O   UNL     1     -39.743 -45.699  11.503  1.00  0.00    -0.341 OA
HETATM   16  C   UNL     1     -39.673 -44.645  10.550  1.00  0.00     0.211 C 
ENDBRANCH   9  15
ENDBRANCH   1   7
BRANCH   4  17
HETATM   17  C   UNL     1     -43.296 -52.059  12.993  1.00  0.00     0.106 C 
BRANCH  17  18
HETATM   18  C   UNL     1     -44.069 -51.782  14.269  1.00  0.00    -0.025 A 
HETATM   19  C   UNL     1     -43.687 -50.529  15.040  1.00  0.00     0.012 A 
HETATM   20  C   UNL     1     -43.496 -51.868  15.681  1.00  0.00     0.012 A 
BRANCH  18  21
HETATM   21  C   UNL     1     -45.528 -52.231  14.054  1.00  0.00    -0.005 A 
HETATM   22  C   UNL     1     -46.355 -51.510  12.998  1.00  0.00     0.006 A 
HETATM   23  C   UNL     1     -46.796 -51.515  14.426  1.00  0.00     0.006 A 
ENDBRANCH  18  21
ENDBRANCH  17  18
ENDBRANCH   4  17
TORSDOF 5
ENDMDL
MODEL 5
REMARK VINA RESULT:      -5.8      3.176      3.679
REMARK  5 active torsions:
REMARK  status: ('A' for Active; 'I' for Inactive)
REMARK    1  A    between atoms: O_2  and  C_3 
REMARK    2  A    between atoms: C_5  and  N_6 
REMARK       I    between atoms: N_6  and  C_7 
REMARK       I    between atoms: C_7  and  N_9 
REMARK    3  A    between atoms: N_9  and  C_10 
REMARK    4  A    between atoms: C_10  and  C_11 
REMARK    5  A    between atoms: C_11  and  C_14 
ROOT
HETATM    1  N   UNL     1     -40.585 -52.731  12.708  1.00  0.00    -0.299 N 
HETATM    2  C   UNL     1     -41.818 -53.108  13.106  1.00  0.00     0.299 C 
HETATM    3  O   UNL     1     -42.037 -54.312  13.258  1.00  0.00    -0.254 OA
HETATM    4  N   UNL     1     -42.722 -52.127  13.477  1.00  0.00    -0.243 NA
HETATM    5  H   UNL     1     -39.874 -53.411  12.939  1.00  0.00     0.171 HD
HETATM    6  H   UNL     1     -42.306 -51.266  13.817  1.00  0.00     0.132 HD
ENDROOT
BRANCH   1   7
HETATM    7  C   UNL     1     -40.123 -51.487  12.335  1.00  0.00     0.113 A 
HETATM    8  C   UNL     1     -39.035 -50.917  12.946  1.00  0.00     0.104 A 
HETATM    9  C   UNL     1     -38.678 -49.689  12.455  1.00  0.00     0.146 A 
HETATM   10  N   UNL     1     -39.304 -49.079  11.434  1.00  0.00    -0.333 N 
HETATM   11  C   UNL     1     -40.372 -49.716  10.947  1.00  0.00     0.183 A 
ATOM     12  HN  UNL     1     -38.986 -48.186  11.056  1.00  0.00     0.168 HD
HETATM   13  N   UNL     1     -40.844 -50.889  11.377  1.00  0.00    -0.338 N 
ATOM     14  HN  UNL     1     -41.697 -51.301  11.002  1.00  0.00     0.168 HD
BRANCH   9  15
HETATM   15  O   UNL     1     -37.619 -49.065  13.083  1.00  0.00    -0.341 OA
HETATM   16  C   UNL     1     -38.040 -48.044  13.982  1.00  0.00     0.211 C 
ENDBRANCH   9  15
ENDBRANCH   1   7
BRANCH   4  17
HETATM   17  C   UNL     1     -43.797 -52.665  14.271  1.00  0.00     0.106 C 
BRANCH  17  18
HETATM   18  C   UNL     1     -45.258 -52.464  13.917  1.00  0.00    -0.025 A 
HETATM   19  C   UNL     1     -45.611 -51.188  13.169  1.00  0.00     0.012 A 
HETATM   20  C   UNL     1     -46.178 -51.414  14.536  1.00  0.00     0.012 A 
BRANCH  18  21
HETATM   21  C   UNL     1     -45.863 -53.840  13.574  1.00  0.00    -0.005 A 
HETATM   22  C   UNL     1     -46.471 -54.661  14.702  1.00  0.00     0.006 A 
HETATM   23  C   UNL     1     -45.334 -55.208  13.902  1.00  0.00     0.006 A 
ENDBRANCH  18  21
ENDBRANCH  17  18
ENDBRANCH   4  17
TORSDOF 5
ENDMDL
MODEL 6
REMARK VINA RESULT:      -5.7      2.994      7.133
REMARK  5 active torsions:
REMARK  status: ('A' for Active; 'I' for Inactive)
REMARK    1  A    between atoms: O_2  and  C_3 
REMARK    2  A    between atoms: C_5  and  N_6 
REMARK       I    between atoms: N_6  and  C_7 
REMARK       I    between atoms: C_7  and  N_9 
REMARK    3  A    between atoms: N_9  and  C_10 
REMARK    4  A    between atoms: C_10  and  C_11 
REMARK    5  A    between atoms: C_11  and  C_14 
ROOT
HETATM    1  N   UNL     1     -42.578 -53.562  12.457  1.00  0.00    -0.299 N 
HETATM    2  C   UNL     1     -41.673 -52.572  12.309  1.00  0.00     0.299 C 
HETATM    3  O   UNL     1     -40.505 -52.884  12.065  1.00  0.00    -0.254 OA
HETATM    4  N   UNL     1     -42.123 -51.263  12.277  1.00  0.00    -0.243 NA
HETATM    5  H   UNL     1     -42.306 -54.415  11.989  1.00  0.00     0.171 HD
HETATM    6  H   UNL     1     -43.080 -51.146  11.959  1.00  0.00     0.132 HD
ENDROOT
BRANCH   1   7
HETATM    7  C   UNL     1     -43.894 -53.498  12.864  1.00  0.00     0.113 A 
HETATM    8  C   UNL     1     -44.333 -54.182  13.968  1.00  0.00     0.104 A 
HETATM    9  C   UNL     1     -45.660 -54.004  14.264  1.00  0.00     0.146 A 
HETATM   10  N   UNL     1     -46.483 -53.204  13.565  1.00  0.00    -0.333 N 
HETATM   11  C   UNL     1     -45.946 -52.620  12.490  1.00  0.00     0.183 A 
ATOM     12  HN  UNL     1     -47.454 -53.051  13.837  1.00  0.00     0.168 HD
HETATM   13  N   UNL     1     -44.685 -52.759  12.074  1.00  0.00    -0.338 N 
ATOM     14  HN  UNL     1     -44.347 -52.332  11.213  1.00  0.00     0.168 HD
BRANCH   9  15
HETATM   15  O   UNL     1     -46.147 -54.721  15.338  1.00  0.00    -0.341 OA
HETATM   16  C   UNL     1     -45.881 -54.088  16.585  1.00  0.00     0.211 C 
ENDBRANCH   9  15
ENDBRANCH   1   7
BRANCH   4  17
HETATM   17  C   UNL     1     -41.151 -50.378  11.690  1.00  0.00     0.106 C 
BRANCH  17  18
HETATM   18  C   UNL     1     -41.166 -48.878  11.915  1.00  0.00    -0.025 A 
HETATM   19  C   UNL     1     -39.850 -48.144  11.718  1.00  0.00     0.012 A 
HETATM   20  C   UNL     1     -40.484 -48.154  13.073  1.00  0.00     0.012 A 
BRANCH  18  21
HETATM   21  C   UNL     1     -42.521 -48.332  11.422  1.00  0.00    -0.005 A 
HETATM   22  C   UNL     1     -42.609 -47.806   9.996  1.00  0.00     0.006 A 
HETATM   23  C   UNL     1     -42.918 -46.908  11.149  1.00  0.00     0.006 A 
ENDBRANCH  18  21
ENDBRANCH  17  18
ENDBRANCH   4  17
TORSDOF 5
ENDMDL
MODEL 7
REMARK VINA RESULT:      -5.7      2.046      2.469
REMARK  5 active torsions:
REMARK  status: ('A' for Active; 'I' for Inactive)
REMARK    1  A    between atoms: O_2  and  C_3 
REMARK    2  A    between atoms: C_5  and  N_6 
REMARK       I    between atoms: N_6  and  C_7 
REMARK       I    between atoms: C_7  and  N_9 
REMARK    3  A    between atoms: N_9  and  C_10 
REMARK    4  A    between atoms: C_10  and  C_11 
REMARK    5  A    between atoms: C_11  and  C_14 
ROOT
HETATM    1  N   UNL     1     -42.999 -48.216  13.622  1.00  0.00    -0.299 N 
HETATM    2  C   UNL     1     -43.253 -49.235  14.469  1.00  0.00     0.299 C 
HETATM    3  O   UNL     1     -43.427 -48.970  15.661  1.00  0.00    -0.254 OA
HETATM    4  N   UNL     1     -43.465 -50.497  13.941  1.00  0.00    -0.243 NA
HETATM    5  H   UNL     1     -43.347 -47.330  13.960  1.00  0.00     0.171 HD
HETATM    6  H   UNL     1     -43.818 -50.511  12.990  1.00  0.00     0.132 HD
ENDROOT
BRANCH   1   7
HETATM    7  C   UNL     1     -42.636 -48.247  12.293  1.00  0.00     0.113 A 
HETATM    8  C   UNL     1     -43.403 -47.643  11.329  1.00  0.00     0.104 A 
HETATM    9  C   UNL     1     -42.904 -47.736  10.056  1.00  0.00     0.146 A 
HETATM   10  N   UNL     1     -41.742 -48.338   9.748  1.00  0.00    -0.333 N 
HETATM   11  C   UNL     1     -41.105 -48.921  10.767  1.00  0.00     0.183 A 
ATOM     12  HN  UNL     1     -41.370 -48.349   8.798  1.00  0.00     0.168 HD
HETATM   13  N   UNL     1     -41.518 -48.941  12.037  1.00  0.00    -0.338 N 
ATOM     14  HN  UNL     1     -41.016 -49.450  12.763  1.00  0.00     0.168 HD
BRANCH   9  15
HETATM   15  O   UNL     1     -43.678 -47.184   9.056  1.00  0.00    -0.341 OA
HETATM   16  C   UNL     1     -43.500 -47.834   7.802  1.00  0.00     0.211 C 
ENDBRANCH   9  15
ENDBRANCH   1   7
BRANCH   4  17
HETATM   17  C   UNL     1     -44.138 -51.361  14.877  1.00  0.00     0.106 C 
BRANCH  17  18
HETATM   18  C   UNL     1     -45.430 -52.083  14.544  1.00  0.00    -0.025 A 
HETATM   19  C   UNL     1     -46.248 -51.522  13.392  1.00  0.00     0.012 A 
HETATM   20  C   UNL     1     -46.833 -51.526  14.770  1.00  0.00     0.012 A 
BRANCH  18  21
HETATM   21  C   UNL     1     -45.209 -53.592  14.768  1.00  0.00    -0.005 A 
HETATM   22  C   UNL     1     -44.258 -54.327  13.835  1.00  0.00     0.006 A 
HETATM   23  C   UNL     1     -45.688 -54.747  13.933  1.00  0.00     0.006 A 
ENDBRANCH  18  21
ENDBRANCH  17  18
ENDBRANCH   4  17
TORSDOF 5
ENDMDL
MODEL 8
REMARK VINA RESULT:      -5.5      3.352      5.130
REMARK  5 active torsions:
REMARK  status: ('A' for Active; 'I' for Inactive)
REMARK    1  A    between atoms: O_2  and  C_3 
REMARK    2  A    between atoms: C_5  and  N_6 
REMARK       I    between atoms: N_6  and  C_7 
REMARK       I    between atoms: C_7  and  N_9 
REMARK    3  A    between atoms: N_9  and  C_10 
REMARK    4  A    between atoms: C_10  and  C_11 
REMARK    5  A    between atoms: C_11  and  C_14 
ROOT
HETATM    1  N   UNL     1     -43.010 -48.716  11.551  1.00  0.00    -0.299 N 
HETATM    2  C   UNL     1     -41.924 -49.307  12.091  1.00  0.00     0.299 C 
HETATM    3  O   UNL     1     -42.086 -50.029  13.078  1.00  0.00    -0.254 OA
HETATM    4  N   UNL     1     -40.716 -49.210  11.423  1.00  0.00    -0.243 NA
HETATM    5  H   UNL     1     -43.868 -49.207  11.757  1.00  0.00     0.171 HD
HETATM    6  H   UNL     1     -40.789 -49.074  10.420  1.00  0.00     0.132 HD
ENDROOT
BRANCH   1   7
HETATM    7  C   UNL     1     -43.090 -47.769  10.551  1.00  0.00     0.113 A 
HETATM    8  C   UNL     1     -42.976 -46.430  10.826  1.00  0.00     0.104 A 
HETATM    9  C   UNL     1     -43.052 -45.610   9.730  1.00  0.00     0.146 A 
HETATM   10  N   UNL     1     -43.195 -46.055   8.470  1.00  0.00    -0.333 N 
HETATM   11  C   UNL     1     -43.332 -47.377   8.335  1.00  0.00     0.183 A 
ATOM     12  HN  UNL     1     -43.199 -45.425   7.668  1.00  0.00     0.168 HD
HETATM   13  N   UNL     1     -43.326 -48.268   9.330  1.00  0.00    -0.338 N 
ATOM     14  HN  UNL     1     -43.490 -49.261   9.171  1.00  0.00     0.168 HD
BRANCH   9  15
HETATM   15  O   UNL     1     -42.994 -44.254   9.978  1.00  0.00    -0.341 OA
HETATM   16  C   UNL     1     -42.483 -43.954  11.272  1.00  0.00     0.211 C 
ENDBRANCH   9  15
ENDBRANCH   1   7
BRANCH   4  17
HETATM   17  C   UNL     1     -39.783 -50.218  11.856  1.00  0.00     0.106 C 
BRANCH  17  18
HETATM   18  C   UNL     1     -38.333 -49.909  12.181  1.00  0.00    -0.025 A 
HETATM   19  C   UNL     1     -37.348 -49.962  11.025  1.00  0.00     0.012 A 
HETATM   20  C   UNL     1     -37.191 -50.922  12.163  1.00  0.00     0.012 A 
BRANCH  18  21
HETATM   21  C   UNL     1     -38.307 -48.812  13.264  1.00  0.00    -0.005 A 
HETATM   22  C   UNL     1     -37.681 -49.144  14.611  1.00  0.00     0.006 A 
HETATM   23  C   UNL     1     -39.112 -48.722  14.531  1.00  0.00     0.006 A 
ENDBRANCH  18  21
ENDBRANCH  17  18
ENDBRANCH   4  17
TORSDOF 5
ENDMDL
MODEL 9
REMARK VINA RESULT:      -5.4      2.027      3.094
REMARK  5 active torsions:
REMARK  status: ('A' for Active; 'I' for Inactive)
REMARK    1  A    between atoms: O_2  and  C_3 
REMARK    2  A    between atoms: C_5  and  N_6 
REMARK       I    between atoms: N_6  and  C_7 
REMARK       I    between atoms: C_7  and  N_9 
REMARK    3  A    between atoms: N_9  and  C_10 
REMARK    4  A    between atoms: C_10  and  C_11 
REMARK    5  A    between atoms: C_11  and  C_14 
ROOT
HETATM    1  N   UNL     1     -43.316 -48.780  12.763  1.00  0.00    -0.299 N 
HETATM    2  C   UNL     1     -43.235 -50.079  13.118  1.00  0.00     0.299 C 
HETATM    3  O   UNL     1     -43.977 -50.484  14.016  1.00  0.00    -0.254 OA
HETATM    4  N   UNL     1     -42.449 -50.926  12.355  1.00  0.00    -0.243 NA
HETATM    5  H   UNL     1     -44.210 -48.368  12.986  1.00  0.00     0.171 HD
HETATM    6  H   UNL     1     -42.324 -50.642  11.389  1.00  0.00     0.132 HD
ENDROOT
BRANCH   1   7
HETATM    7  C   UNL     1     -42.521 -48.052  11.903  1.00  0.00     0.113 A 
HETATM    8  C   UNL     1     -43.067 -47.239  10.942  1.00  0.00     0.104 A 
HETATM    9  C   UNL     1     -42.154 -46.560  10.178  1.00  0.00     0.146 A 
HETATM   10  N   UNL     1     -40.824 -46.639  10.353  1.00  0.00    -0.333 N 
HETATM   11  C   UNL     1     -40.414 -47.492  11.295  1.00  0.00     0.183 A 
ATOM     12  HN  UNL     1     -40.169 -46.084   9.801  1.00  0.00     0.168 HD
HETATM   13  N   UNL     1     -41.205 -48.243  12.065  1.00  0.00    -0.338 N 
ATOM     14  HN  UNL     1     -40.832 -48.918  12.732  1.00  0.00     0.168 HD
BRANCH   9  15
HETATM   15  O   UNL     1     -42.670 -45.774   9.168  1.00  0.00    -0.341 OA
HETATM   16  C   UNL     1     -44.050 -46.024   8.929  1.00  0.00     0.211 C 
ENDBRANCH   9  15
ENDBRANCH   1   7
BRANCH   4  17
HETATM   17  C   UNL     1     -42.793 -52.309  12.566  1.00  0.00     0.106 C 
BRANCH  17  18
HETATM   18  C   UNL     1     -41.968 -53.235  13.441  1.00  0.00    -0.025 A 
HETATM   19  C   UNL     1     -40.482 -52.935  13.542  1.00  0.00     0.012 A 
HETATM   20  C   UNL     1     -40.926 -54.229  12.934  1.00  0.00     0.012 A 
BRANCH  18  21
HETATM   21  C   UNL     1     -42.832 -53.648  14.649  1.00  0.00    -0.005 A 
HETATM   22  C   UNL     1     -43.281 -55.099  14.751  1.00  0.00     0.006 A 
HETATM   23  C   UNL     1     -44.293 -54.002  14.684  1.00  0.00     0.006 A 
ENDBRANCH  18  21
ENDBRANCH  17  18
ENDBRANCH   4  17
TORSDOF 5
ENDMDL
