MODEL 1
REMARK VINA RESULT:      -6.0      0.000      0.000
REMARK  6 active torsions:
REMARK  status: ('A' for Active; 'I' for Inactive)
REMARK    1  A    between atoms: O_2  and  C_3 
REMARK    2  A    between atoms: C_3  and  C_4 
REMARK    3  A    between atoms: C_4  and  N_5 
REMARK    4  A    between atoms: C_6  and  C_15 
REMARK    5  A    between atoms: C_15  and  N_17 
REMARK       I    between atoms: N_17  and  C_18 
REMARK    6  A    between atoms: C_18  and  C_20 
ROOT
HETATM    1  N   UNL     1     -39.615 -47.357  13.126  1.00  0.00    -0.331 N 
HETATM    2  C   UNL     1     -39.869 -47.219  11.770  1.00  0.00     0.107 A 
HETATM    3  N   UNL     1     -39.355 -48.239  11.105  1.00  0.00    -0.342 N 
ATOM      4  HN  UNL     1     -39.420 -48.407  10.101  1.00  0.00     0.167 HD
HETATM    5  C   UNL     1     -38.720 -49.024  12.024  1.00  0.00     0.060 A 
HETATM    6  C   UNL     1     -37.950 -50.179  11.822  1.00  0.00     0.032 A 
HETATM    7  C   UNL     1     -37.410 -50.834  12.934  1.00  0.00     0.002 A 
HETATM    8  C   UNL     1     -37.643 -50.352  14.221  1.00  0.00     0.002 A 
HETATM    9  C   UNL     1     -38.393 -49.188  14.439  1.00  0.00     0.032 A 
HETATM   10  C   UNL     1     -38.909 -48.532  13.310  1.00  0.00     0.062 A 
ENDROOT
BRANCH   2  11
HETATM   11  C   UNL     1     -40.604 -46.076  11.107  1.00  0.00     0.148 C 
HETATM   12  C   UNL     1     -39.615 -45.201  10.329  1.00  0.00     0.040 C 
BRANCH  11  13
HETATM   13  N   UNL     1     -41.609 -46.642  10.221  1.00  0.00    -0.344 N 
HETATM   14  C   UNL     1     -42.849 -47.045  10.673  1.00  0.00     0.276 C 
HETATM   15  O   UNL     1     -43.148 -47.038  11.863  1.00  0.00    -0.265 OA
HETATM   16  H   UNL     1     -41.506 -46.507   9.221  1.00  0.00     0.163 HD
BRANCH  14  17
HETATM   17  C   UNL     1     -43.762 -47.473   9.632  1.00  0.00     0.142 A 
HETATM   18  C   UNL     1     -43.542 -47.794   8.303  1.00  0.00     0.045 A 
HETATM   19  C   UNL     1     -44.805 -48.088   7.735  1.00  0.00     0.027 A 
HETATM   20  C   UNL     1     -45.719 -47.939   8.751  1.00  0.00     0.143 A 
HETATM   21  O   UNL     1     -45.103 -47.578   9.907  1.00  0.00    -0.317 OA
ENDBRANCH  14  17
ENDBRANCH  11  13
ENDBRANCH   2  11
BRANCH   1  22
HETATM   22  C   UNL     1     -39.894 -46.402  14.180  1.00  0.00     0.156 C 
BRANCH  22  23
HETATM   23  C   UNL     1     -38.881 -45.273  14.295  1.00  0.00     0.187 C 
BRANCH  23  24
HETATM   24  O   UNL     1     -39.543 -44.119  14.822  1.00  0.00    -0.394 OA
HETATM   25  C   UNL     1     -40.349 -43.489  13.835  1.00  0.00     0.201 C 
ENDBRANCH  23  24
ENDBRANCH  22  23
ENDBRANCH   1  22
TORSDOF 6
ENDMDL
MODEL 2
REMARK VINA RESULT:      -5.9      4.309      5.185
REMARK  6 active torsions:
REMARK  status: ('A' for Active; 'I' for Inactive)
REMARK    1  A    between atoms: O_2  and  C_3 
REMARK    2  A    between atoms: C_3  and  C_4 
REMARK    3  A    between atoms: C_4  and  N_5 
REMARK    4  A    between atoms: C_6  and  C_15 
REMARK    5  A    between atoms: C_15  and  N_17 
REMARK       I    between atoms: N_17  and  C_18 
REMARK    6  A    between atoms: C_18  and  C_20 
ROOT
HETATM    1  N   UNL     1     -41.412 -51.786  13.690  1.00  0.00    -0.331 N 
HETATM    2  C   UNL     1     -41.891 -51.047  12.619  1.00  0.00     0.107 A 
HETATM    3  N   UNL     1     -43.007 -51.585  12.158  1.00  0.00    -0.342 N 
ATOM      4  HN  UNL     1     -43.586 -51.230  11.397  1.00  0.00     0.167 HD
HETATM    5  C   UNL     1     -43.234 -52.709  12.900  1.00  0.00     0.060 A 
HETATM    6  C   UNL     1     -44.239 -53.677  12.759  1.00  0.00     0.032 A 
HETATM    7  C   UNL     1     -44.283 -54.744  13.663  1.00  0.00     0.002 A 
HETATM    8  C   UNL     1     -43.349 -54.836  14.693  1.00  0.00     0.002 A 
HETATM    9  C   UNL     1     -42.325 -53.889  14.836  1.00  0.00     0.032 A 
HETATM   10  C   UNL     1     -42.284 -52.837  13.907  1.00  0.00     0.062 A 
ENDROOT
BRANCH   2  11
HETATM   11  C   UNL     1     -41.253 -49.813  12.023  1.00  0.00     0.148 C 
HETATM   12  C   UNL     1     -40.103 -50.219  11.093  1.00  0.00     0.040 C 
BRANCH  11  13
HETATM   13  N   UNL     1     -42.279 -49.082  11.297  1.00  0.00    -0.344 N 
HETATM   14  C   UNL     1     -42.239 -47.711  11.145  1.00  0.00     0.276 C 
HETATM   15  O   UNL     1     -41.389 -47.014  11.689  1.00  0.00    -0.265 OA
HETATM   16  H   UNL     1     -42.893 -49.596  10.676  1.00  0.00     0.163 HD
BRANCH  14  17
HETATM   17  C   UNL     1     -43.279 -47.168  10.293  1.00  0.00     0.142 A 
HETATM   18  C   UNL     1     -44.538 -47.649   9.973  1.00  0.00     0.045 A 
HETATM   19  C   UNL     1     -45.103 -46.738   9.048  1.00  0.00     0.027 A 
HETATM   20  C   UNL     1     -44.163 -45.752   8.865  1.00  0.00     0.143 A 
HETATM   21  O   UNL     1     -43.058 -45.992   9.620  1.00  0.00    -0.317 OA
ENDBRANCH  14  17
ENDBRANCH  11  13
ENDBRANCH   2  11
BRANCH   1  22
HETATM   22  C   UNL     1     -40.157 -51.612  14.394  1.00  0.00     0.156 C 
BRANCH  22  23
HETATM   23  C   UNL     1     -39.060 -52.582  13.983  1.00  0.00     0.187 C 
BRANCH  23  24
HETATM   24  O   UNL     1     -38.057 -51.857  13.264  1.00  0.00    -0.394 OA
HETATM   25  C   UNL     1     -37.706 -50.654  13.937  1.00  0.00     0.201 C 
ENDBRANCH  23  24
ENDBRANCH  22  23
ENDBRANCH   1  22
TORSDOF 6
ENDMDL
MODEL 3
REMARK VINA RESULT:      -5.7      3.190      6.233
REMARK  6 active torsions:
REMARK  status: ('A' for Active; 'I' for Inactive)
REMARK    1  A    between atoms: O_2  and  C_3 
REMARK    2  A    between atoms: C_3  and  C_4 
REMARK    3  A    between atoms: C_4  and  N_5 
REMARK    4  A    between atoms: C_6  and  C_15 
REMARK    5  A    between atoms: C_15  and  N_17 
REMARK       I    between atoms: N_17  and  C_18 
REMARK    6  A    between atoms: C_18  and  C_20 
ROOT
HETATM    1  N   UNL     1     -41.421 -46.833  10.649  1.00  0.00    -0.331 N 
HETATM    2  C   UNL     1     -41.511 -47.988  11.412  1.00  0.00     0.107 A 
HETATM    3  N   UNL     1     -42.712 -48.525  11.284  1.00  0.00    -0.342 N 
ATOM      4  HN  UNL     1     -43.040 -49.392  11.709  1.00  0.00     0.167 HD
HETATM    5  C   UNL     1     -43.427 -47.692  10.473  1.00  0.00     0.060 A 
HETATM    6  C   UNL     1     -44.776 -47.766  10.093  1.00  0.00     0.032 A 
HETATM    7  C   UNL     1     -45.288 -46.798   9.223  1.00  0.00     0.002 A 
HETATM    8  C   UNL     1     -44.468 -45.782   8.735  1.00  0.00     0.002 A 
HETATM    9  C   UNL     1     -43.124 -45.681   9.120  1.00  0.00     0.032 A 
HETATM   10  C   UNL     1     -42.633 -46.650  10.010  1.00  0.00     0.062 A 
ENDROOT
BRANCH   2  11
HETATM   11  C   UNL     1     -40.426 -48.571  12.289  1.00  0.00     0.148 C 
HETATM   12  C   UNL     1     -40.379 -47.824  13.627  1.00  0.00     0.040 C 
BRANCH  11  13
HETATM   13  N   UNL     1     -40.718 -49.981  12.488  1.00  0.00    -0.344 N 
HETATM   14  C   UNL     1     -39.736 -50.950  12.461  1.00  0.00     0.276 C 
HETATM   15  O   UNL     1     -38.571 -50.695  12.175  1.00  0.00    -0.265 OA
HETATM   16  H   UNL     1     -41.606 -50.238  12.907  1.00  0.00     0.163 HD
BRANCH  14  17
HETATM   17  C   UNL     1     -40.193 -52.284  12.796  1.00  0.00     0.142 A 
HETATM   18  C   UNL     1     -41.426 -52.893  12.631  1.00  0.00     0.045 A 
HETATM   19  C   UNL     1     -41.324 -54.188  13.194  1.00  0.00     0.027 A 
HETATM   20  C   UNL     1     -40.036 -54.297  13.661  1.00  0.00     0.143 A 
HETATM   21  O   UNL     1     -39.336 -53.157  13.418  1.00  0.00    -0.317 OA
ENDBRANCH  14  17
ENDBRANCH  11  13
ENDBRANCH   2  11
BRANCH   1  22
HETATM   22  C   UNL     1     -40.327 -45.883  10.609  1.00  0.00     0.156 C 
BRANCH  22  23
HETATM   23  C   UNL     1     -40.536 -44.641  11.461  1.00  0.00     0.187 C 
BRANCH  23  24
HETATM   24  O   UNL     1     -40.703 -43.515  10.593  1.00  0.00    -0.394 OA
HETATM   25  C   UNL     1     -41.469 -42.491  11.214  1.00  0.00     0.201 C 
ENDBRANCH  23  24
ENDBRANCH  22  23
ENDBRANCH   1  22
TORSDOF 6
ENDMDL
MODEL 4
REMARK VINA RESULT:      -5.6      3.426      7.609
REMARK  6 active torsions:
REMARK  status: ('A' for Active; 'I' for Inactive)
REMARK    1  A    between atoms: O_2  and  C_3 
REMARK    2  A    between atoms: C_3  and  C_4 
REMARK    3  A    between atoms: C_4  and  N_5 
REMARK    4  A    between atoms: C_6  and  C_15 
REMARK    5  A    between atoms: C_15  and  N_17 
REMARK       I    between atoms: N_17  and  C_18 
REMARK    6  A    between atoms: C_18  and  C_20 
ROOT
HETATM    1  N   UNL     1     -40.772 -49.715  12.303  1.00  0.00    -0.331 N 
HETATM    2  C   UNL     1     -39.487 -49.339  11.939  1.00  0.00     0.107 A 
HETATM    3  N   UNL     1     -39.518 -48.189  11.289  1.00  0.00    -0.342 N 
ATOM      4  HN  UNL     1     -38.717 -47.668  10.934  1.00  0.00     0.167 HD
HETATM    5  C   UNL     1     -40.833 -47.834  11.184  1.00  0.00     0.060 A 
HETATM    6  C   UNL     1     -41.407 -46.744  10.514  1.00  0.00     0.032 A 
HETATM    7  C   UNL     1     -42.794 -46.572  10.566  1.00  0.00     0.002 A 
HETATM    8  C   UNL     1     -43.591 -47.465  11.280  1.00  0.00     0.002 A 
HETATM    9  C   UNL     1     -43.036 -48.571  11.938  1.00  0.00     0.032 A 
HETATM   10  C   UNL     1     -41.644 -48.740  11.858  1.00  0.00     0.062 A 
ENDROOT
BRANCH   2  11
HETATM   11  C   UNL     1     -38.216 -50.110  12.209  1.00  0.00     0.148 C 
HETATM   12  C   UNL     1     -37.286 -50.026  10.993  1.00  0.00     0.040 C 
BRANCH  11  13
HETATM   13  N   UNL     1     -37.586 -49.540  13.389  1.00  0.00    -0.344 N 
HETATM   14  C   UNL     1     -37.587 -50.182  14.610  1.00  0.00     0.276 C 
HETATM   15  O   UNL     1     -38.197 -51.229  14.800  1.00  0.00    -0.265 OA
HETATM   16  H   UNL     1     -36.917 -48.788  13.265  1.00  0.00     0.163 HD
BRANCH  14  17
HETATM   17  C   UNL     1     -36.811 -49.521  15.640  1.00  0.00     0.142 A 
HETATM   18  C   UNL     1     -36.433 -48.197  15.788  1.00  0.00     0.045 A 
HETATM   19  C   UNL     1     -35.630 -48.125  16.952  1.00  0.00     0.027 A 
HETATM   20  C   UNL     1     -35.572 -49.405  17.451  1.00  0.00     0.143 A 
HETATM   21  O   UNL     1     -36.291 -50.259  16.675  1.00  0.00    -0.317 OA
ENDBRANCH  14  17
ENDBRANCH  11  13
ENDBRANCH   2  11
BRANCH   1  22
HETATM   22  C   UNL     1     -41.188 -50.962  12.914  1.00  0.00     0.156 C 
BRANCH  22  23
HETATM   23  C   UNL     1     -41.351 -52.121  11.941  1.00  0.00     0.187 C 
BRANCH  23  24
HETATM   24  O   UNL     1     -40.340 -53.095  12.221  1.00  0.00    -0.394 OA
HETATM   25  C   UNL     1     -40.640 -53.827  13.403  1.00  0.00     0.201 C 
ENDBRANCH  23  24
ENDBRANCH  22  23
ENDBRANCH   1  22
TORSDOF 6
ENDMDL
MODEL 5
REMARK VINA RESULT:      -5.5      4.679      7.428
REMARK  6 active torsions:
REMARK  status: ('A' for Active; 'I' for Inactive)
REMARK    1  A    between atoms: O_2  and  C_3 
REMARK    2  A    between atoms: C_3  and  C_4 
REMARK    3  A    between atoms: C_4  and  N_5 
REMARK    4  A    between atoms: C_6  and  C_15 
REMARK    5  A    between atoms: C_15  and  N_17 
REMARK       I    between atoms: N_17  and  C_18 
REMARK    6  A    between atoms: C_18  and  C_20 
ROOT
HETATM    1  N   UNL     1     -41.999 -52.223  12.537  1.00  0.00    -0.331 N 
HETATM    2  C   UNL     1     -41.947 -50.856  12.307  1.00  0.00     0.107 A 
HETATM    3  N   UNL     1     -43.096 -50.295  12.638  1.00  0.00    -0.342 N 
ATOM      4  HN  UNL     1     -43.322 -49.301  12.600  1.00  0.00     0.167 HD
HETATM    5  C   UNL     1     -43.922 -51.305  13.041  1.00  0.00     0.060 A 
HETATM    6  C   UNL     1     -45.273 -51.250  13.415  1.00  0.00     0.032 A 
HETATM    7  C   UNL     1     -45.912 -52.428  13.816  1.00  0.00     0.002 A 
HETATM    8  C   UNL     1     -45.214 -53.634  13.853  1.00  0.00     0.002 A 
HETATM    9  C   UNL     1     -43.870 -53.710  13.463  1.00  0.00     0.032 A 
HETATM   10  C   UNL     1     -43.250 -52.521  13.044  1.00  0.00     0.062 A 
ENDROOT
BRANCH   2  11
HETATM   11  C   UNL     1     -40.774 -50.086  11.744  1.00  0.00     0.148 C 
HETATM   12  C   UNL     1     -41.272 -48.815  11.045  1.00  0.00     0.040 C 
BRANCH  11  13
HETATM   13  N   UNL     1     -39.880 -49.761  12.844  1.00  0.00    -0.344 N 
HETATM   14  C   UNL     1     -38.521 -49.598  12.667  1.00  0.00     0.276 C 
HETATM   15  O   UNL     1     -37.969 -49.807  11.592  1.00  0.00    -0.265 OA
HETATM   16  H   UNL     1     -40.279 -49.397  13.702  1.00  0.00     0.163 HD
BRANCH  14  17
HETATM   17  C   UNL     1     -37.807 -49.161  13.850  1.00  0.00     0.142 A 
HETATM   18  C   UNL     1     -37.546 -47.892  14.341  1.00  0.00     0.045 A 
HETATM   19  C   UNL     1     -36.753 -48.055  15.503  1.00  0.00     0.027 A 
HETATM   20  C   UNL     1     -36.585 -49.410  15.659  1.00  0.00     0.143 A 
HETATM   21  O   UNL     1     -37.225 -50.094  14.673  1.00  0.00    -0.317 OA
ENDBRANCH  14  17
ENDBRANCH  11  13
ENDBRANCH   2  11
BRANCH   1  22
HETATM   22  C   UNL     1     -41.003 -53.217  12.191  1.00  0.00     0.156 C 
BRANCH  22  23
HETATM   23  C   UNL     1     -40.224 -53.770  13.375  1.00  0.00     0.187 C 
BRANCH  23  24
HETATM   24  O   UNL     1     -39.351 -52.747  13.864  1.00  0.00    -0.394 OA
HETATM   25  C   UNL     1     -39.553 -52.514  15.253  1.00  0.00     0.201 C 
ENDBRANCH  23  24
ENDBRANCH  22  23
ENDBRANCH   1  22
TORSDOF 6
ENDMDL
MODEL 6
REMARK VINA RESULT:      -5.4      4.949      6.307
REMARK  6 active torsions:
REMARK  status: ('A' for Active; 'I' for Inactive)
REMARK    1  A    between atoms: O_2  and  C_3 
REMARK    2  A    between atoms: C_3  and  C_4 
REMARK    3  A    between atoms: C_4  and  N_5 
REMARK    4  A    between atoms: C_6  and  C_15 
REMARK    5  A    between atoms: C_15  and  N_17 
REMARK       I    between atoms: N_17  and  C_18 
REMARK    6  A    between atoms: C_18  and  C_20 
ROOT
HETATM    1  N   UNL     1     -43.069 -51.105  14.703  1.00  0.00    -0.331 N 
HETATM    2  C   UNL     1     -43.138 -50.718  13.373  1.00  0.00     0.107 A 
HETATM    3  N   UNL     1     -44.392 -50.741  12.956  1.00  0.00    -0.342 N 
ATOM      4  HN  UNL     1     -44.732 -50.475  12.033  1.00  0.00     0.167 HD
HETATM    5  C   UNL     1     -45.142 -51.193  14.004  1.00  0.00     0.060 A 
HETATM    6  C   UNL     1     -46.515 -51.476  14.054  1.00  0.00     0.032 A 
HETATM    7  C   UNL     1     -47.073 -51.912  15.261  1.00  0.00     0.002 A 
HETATM    8  C   UNL     1     -46.277 -52.053  16.397  1.00  0.00     0.002 A 
HETATM    9  C   UNL     1     -44.900 -51.795  16.358  1.00  0.00     0.032 A 
HETATM   10  C   UNL     1     -44.354 -51.378  15.133  1.00  0.00     0.062 A 
ENDROOT
BRANCH   2  11
HETATM   11  C   UNL     1     -41.972 -50.335  12.489  1.00  0.00     0.148 C 
HETATM   12  C   UNL     1     -41.352 -51.594  11.870  1.00  0.00     0.040 C 
BRANCH  11  13
HETATM   13  N   UNL     1     -42.466 -49.435  11.459  1.00  0.00    -0.344 N 
HETATM   14  C   UNL     1     -42.438 -48.064  11.602  1.00  0.00     0.276 C 
HETATM   15  O   UNL     1     -42.082 -47.519  12.642  1.00  0.00    -0.265 OA
HETATM   16  H   UNL     1     -42.595 -49.797  10.520  1.00  0.00     0.163 HD
BRANCH  14  17
HETATM   17  C   UNL     1     -42.860 -47.325  10.429  1.00  0.00     0.142 A 
HETATM   18  C   UNL     1     -43.105 -47.740   9.130  1.00  0.00     0.045 A 
HETATM   19  C   UNL     1     -43.434 -46.583   8.383  1.00  0.00     0.027 A 
HETATM   20  C   UNL     1     -43.380 -45.533   9.269  1.00  0.00     0.143 A 
HETATM   21  O   UNL     1     -43.045 -45.967  10.513  1.00  0.00    -0.317 OA
ENDBRANCH  14  17
ENDBRANCH  11  13
ENDBRANCH   2  11
BRANCH   1  22
HETATM   22  C   UNL     1     -41.879 -51.335  15.497  1.00  0.00     0.156 C 
BRANCH  22  23
HETATM   23  C   UNL     1     -41.646 -52.787  15.884  1.00  0.00     0.187 C 
BRANCH  23  24
HETATM   24  O   UNL     1     -41.250 -53.512  14.715  1.00  0.00    -0.394 OA
HETATM   25  C   UNL     1     -42.233 -54.468  14.340  1.00  0.00     0.201 C 
ENDBRANCH  23  24
ENDBRANCH  22  23
ENDBRANCH   1  22
TORSDOF 6
ENDMDL
MODEL 7
REMARK VINA RESULT:      -5.4      3.528      5.556
REMARK  6 active torsions:
REMARK  status: ('A' for Active; 'I' for Inactive)
REMARK    1  A    between atoms: O_2  and  C_3 
REMARK    2  A    between atoms: C_3  and  C_4 
REMARK    3  A    between atoms: C_4  and  N_5 
REMARK    4  A    between atoms: C_6  and  C_15 
REMARK    5  A    between atoms: C_15  and  N_17 
REMARK       I    between atoms: N_17  and  C_18 
REMARK    6  A    between atoms: C_18  and  C_20 
ROOT
HETATM    1  N   UNL     1     -41.022 -47.791  11.604  1.00  0.00    -0.331 N 
HETATM    2  C   UNL     1     -40.665 -48.646  12.635  1.00  0.00     0.107 A 
HETATM    3  N   UNL     1     -39.941 -47.999  13.532  1.00  0.00    -0.342 N 
ATOM      4  HN  UNL     1     -39.573 -48.377  14.405  1.00  0.00     0.167 HD
HETATM    5  C   UNL     1     -39.783 -46.728  13.062  1.00  0.00     0.060 A 
HETATM    6  C   UNL     1     -39.029 -45.672  13.597  1.00  0.00     0.032 A 
HETATM    7  C   UNL     1     -39.037 -44.435  12.941  1.00  0.00     0.002 A 
HETATM    8  C   UNL     1     -39.788 -44.255  11.781  1.00  0.00     0.002 A 
HETATM    9  C   UNL     1     -40.529 -45.305  11.222  1.00  0.00     0.032 A 
HETATM   10  C   UNL     1     -40.493 -46.544  11.882  1.00  0.00     0.062 A 
ENDROOT
BRANCH   2  11
HETATM   11  C   UNL     1     -41.016 -50.113  12.747  1.00  0.00     0.148 C 
HETATM   12  C   UNL     1     -40.035 -50.812  13.696  1.00  0.00     0.040 C 
BRANCH  11  13
HETATM   13  N   UNL     1     -42.380 -50.212  13.238  1.00  0.00    -0.344 N 
HETATM   14  C   UNL     1     -43.159 -51.332  13.032  1.00  0.00     0.276 C 
HETATM   15  O   UNL     1     -42.784 -52.275  12.343  1.00  0.00    -0.265 OA
HETATM   16  H   UNL     1     -42.684 -49.568  13.960  1.00  0.00     0.163 HD
BRANCH  14  17
HETATM   17  C   UNL     1     -44.448 -51.302  13.694  1.00  0.00     0.142 A 
HETATM   18  C   UNL     1     -44.784 -51.134  15.027  1.00  0.00     0.045 A 
HETATM   19  C   UNL     1     -46.193 -51.250  15.114  1.00  0.00     0.027 A 
HETATM   20  C   UNL     1     -46.634 -51.472  13.831  1.00  0.00     0.143 A 
HETATM   21  O   UNL     1     -45.592 -51.496  12.959  1.00  0.00    -0.317 OA
ENDBRANCH  14  17
ENDBRANCH  11  13
ENDBRANCH   2  11
BRANCH   1  22
HETATM   22  C   UNL     1     -41.702 -48.130  10.369  1.00  0.00     0.156 C 
BRANCH  22  23
HETATM   23  C   UNL     1     -43.161 -47.701  10.312  1.00  0.00     0.187 C 
BRANCH  23  24
HETATM   24  O   UNL     1     -43.353 -46.892   9.147  1.00  0.00    -0.394 OA
HETATM   25  C   UNL     1     -43.590 -47.691   7.995  1.00  0.00     0.201 C 
ENDBRANCH  23  24
ENDBRANCH  22  23
ENDBRANCH   1  22
TORSDOF 6
ENDMDL
MODEL 8
REMARK VINA RESULT:      -5.4      3.030      6.132
REMARK  6 active torsions:
REMARK  status: ('A' for Active; 'I' for Inactive)
REMARK    1  A    between atoms: O_2  and  C_3 
REMARK    2  A    between atoms: C_3  and  C_4 
REMARK    3  A    between atoms: C_4  and  N_5 
REMARK    4  A    between atoms: C_6  and  C_15 
REMARK    5  A    between atoms: C_15  and  N_17 
REMARK       I    between atoms: N_17  and  C_18 
REMARK    6  A    between atoms: C_18  and  C_20 
ROOT
HETATM    1  N   UNL     1     -40.338 -47.824  12.006  1.00  0.00    -0.331 N 
HETATM    2  C   UNL     1     -39.268 -48.649  12.319  1.00  0.00     0.107 A 
HETATM    3  N   UNL     1     -38.589 -48.146  13.336  1.00  0.00    -0.342 N 
ATOM      4  HN  UNL     1     -37.776 -48.561  13.790  1.00  0.00     0.167 HD
HETATM    5  C   UNL     1     -39.189 -46.962  13.658  1.00  0.00     0.060 A 
HETATM    6  C   UNL     1     -38.806 -46.004  14.609  1.00  0.00     0.032 A 
HETATM    7  C   UNL     1     -39.600 -44.865  14.779  1.00  0.00     0.002 A 
HETATM    8  C   UNL     1     -40.757 -44.690  14.022  1.00  0.00     0.002 A 
HETATM    9  C   UNL     1     -41.142 -45.627  13.053  1.00  0.00     0.032 A 
HETATM   10  C   UNL     1     -40.322 -46.755  12.882  1.00  0.00     0.062 A 
ENDROOT
BRANCH   2  11
HETATM   11  C   UNL     1     -38.888 -49.932  11.616  1.00  0.00     0.148 C 
HETATM   12  C   UNL     1     -37.428 -49.860  11.155  1.00  0.00     0.040 C 
BRANCH  11  13
HETATM   13  N   UNL     1     -39.089 -51.031  12.546  1.00  0.00    -0.344 N 
HETATM   14  C   UNL     1     -40.231 -51.806  12.537  1.00  0.00     0.276 C 
HETATM   15  O   UNL     1     -41.186 -51.559  11.808  1.00  0.00    -0.265 OA
HETATM   16  H   UNL     1     -38.284 -51.404  13.038  1.00  0.00     0.163 HD
BRANCH  14  17
HETATM   17  C   UNL     1     -40.206 -52.928  13.454  1.00  0.00     0.142 A 
HETATM   18  C   UNL     1     -41.152 -53.391  14.353  1.00  0.00     0.045 A 
HETATM   19  C   UNL     1     -40.572 -54.489  15.033  1.00  0.00     0.027 A 
HETATM   20  C   UNL     1     -39.311 -54.637  14.505  1.00  0.00     0.143 A 
HETATM   21  O   UNL     1     -39.079 -53.708  13.541  1.00  0.00    -0.317 OA
ENDBRANCH  14  17
ENDBRANCH  11  13
ENDBRANCH   2  11
BRANCH   1  22
HETATM   22  C   UNL     1     -41.249 -47.945  10.885  1.00  0.00     0.156 C 
BRANCH  22  23
HETATM   23  C   UNL     1     -42.666 -48.353  11.261  1.00  0.00     0.187 C 
BRANCH  23  24
HETATM   24  O   UNL     1     -43.583 -47.491  10.580  1.00  0.00    -0.394 OA
HETATM   25  C   UNL     1     -42.900 -46.530   9.786  1.00  0.00     0.201 C 
ENDBRANCH  23  24
ENDBRANCH  22  23
ENDBRANCH   1  22
TORSDOF 6
ENDMDL
MODEL 9
REMARK VINA RESULT:      -5.3      5.286      6.823
REMARK  6 active torsions:
REMARK  status: ('A' for Active; 'I' for Inactive)
REMARK    1  A    between atoms: O_2  and  C_3 
REMARK    2  A    between atoms: C_3  and  C_4 
REMARK    3  A    between atoms: C_4  and  N_5 
REMARK    4  A    between atoms: C_6  and  C_15 
REMARK    5  A    between atoms: C_15  and  N_17 
REMARK       I    between atoms: N_17  and  C_18 
REMARK    6  A    between atoms: C_18  and  C_20 
ROOT
HETATM    1  N   UNL     1     -43.077 -52.153  14.658  1.00  0.00    -0.331 N 
HETATM    2  C   UNL     1     -43.052 -51.484  13.444  1.00  0.00     0.107 A 
HETATM    3  N   UNL     1     -44.271 -51.092  13.116  1.00  0.00    -0.342 N 
ATOM      4  HN  UNL     1     -44.537 -50.553  12.292  1.00  0.00     0.167 HD
HETATM    5  C   UNL     1     -45.104 -51.549  14.096  1.00  0.00     0.060 A 
HETATM    6  C   UNL     1     -46.503 -51.471  14.178  1.00  0.00     0.032 A 
HETATM    7  C   UNL     1     -47.145 -51.998  15.304  1.00  0.00     0.002 A 
HETATM    8  C   UNL     1     -46.405 -52.582  16.331  1.00  0.00     0.002 A 
HETATM    9  C   UNL     1     -45.009 -52.687  16.255  1.00  0.00     0.032 A 
HETATM   10  C   UNL     1     -44.384 -52.171  15.108  1.00  0.00     0.062 A 
ENDROOT
BRANCH   2  11
HETATM   11  C   UNL     1     -41.835 -51.234  12.582  1.00  0.00     0.148 C 
HETATM   12  C   UNL     1     -41.570 -52.452  11.690  1.00  0.00     0.040 C 
BRANCH  11  13
HETATM   13  N   UNL     1     -42.087 -50.046  11.782  1.00  0.00    -0.344 N 
HETATM   14  C   UNL     1     -41.640 -48.796  12.157  1.00  0.00     0.276 C 
HETATM   15  O   UNL     1     -41.085 -48.592  13.231  1.00  0.00    -0.265 OA
HETATM   16  H   UNL     1     -42.368 -50.163  10.815  1.00  0.00     0.163 HD
BRANCH  14  17
HETATM   17  C   UNL     1     -41.880 -47.751  11.181  1.00  0.00     0.142 A 
HETATM   18  C   UNL     1     -41.202 -46.571  10.924  1.00  0.00     0.045 A 
HETATM   19  C   UNL     1     -41.913 -45.903   9.897  1.00  0.00     0.027 A 
HETATM   20  C   UNL     1     -42.975 -46.717   9.581  1.00  0.00     0.143 A 
HETATM   21  O   UNL     1     -42.963 -47.844  10.342  1.00  0.00    -0.317 OA
ENDBRANCH  14  17
ENDBRANCH  11  13
ENDBRANCH   2  11
BRANCH   1  22
HETATM   22  C   UNL     1     -41.983 -52.848  15.308  1.00  0.00     0.156 C 
BRANCH  22  23
HETATM   23  C   UNL     1     -41.798 -54.292  14.865  1.00  0.00     0.187 C 
BRANCH  23  24
HETATM   24  O   UNL     1     -40.467 -54.702  15.193  1.00  0.00    -0.394 OA
HETATM   25  C   UNL     1     -39.559 -54.406  14.140  1.00  0.00     0.201 C 
ENDBRANCH  23  24
ENDBRANCH  22  23
ENDBRANCH   1  22
TORSDOF 6
ENDMDL
