MODEL 1
REMARK VINA RESULT:      -6.3      0.000      0.000
REMARK  6 active torsions:
REMARK  status: ('A' for Active; 'I' for Inactive)
REMARK    1  A    between atoms: C_2  and  C_3 
REMARK    2  A    between atoms: C_3  and  C_4 
REMARK       I    between atoms: C_4  and  N_6 
REMARK    3  A    between atoms: C_11  and  C_12 
REMARK       I    between atoms: C_12  and  N_14 
REMARK    4  A    between atoms: N_14  and  C_15 
REMARK    5  A    between atoms: C_15  and  C_16 
REMARK    6  A    between atoms: C_16  and  C_17 
ROOT
HETATM    1  C   UNL     1     -41.491 -50.107  12.324  1.00  0.00     0.240 C 
HETATM    2  O   UNL     1     -40.600 -49.611  13.011  1.00  0.00    -0.271 OA
HETATM    3  N   UNL     1     -42.132 -49.426  11.295  1.00  0.00    -0.359 N 
HETATM    4  H   UNL     1     -43.051 -49.767  11.045  1.00  0.00     0.162 HD
ENDROOT
BRANCH   1   5
HETATM    5  C   UNL     1     -41.967 -51.573  12.471  1.00  0.00     0.179 C 
HETATM    6  N   UNL     1     -42.899 -51.914  13.568  1.00  0.00    -0.339 N 
HETATM    7  C   UNL     1     -43.910 -50.984  13.867  1.00  0.00     0.220 C 
HETATM    8  C   UNL     1     -43.151 -53.352  13.727  1.00  0.00     0.127 C 
HETATM    9  O   UNL     1     -43.801 -49.781  13.643  1.00  0.00    -0.273 OA
HETATM   10  C   UNL     1     -41.879 -54.177  13.839  1.00  0.00     0.020 C 
HETATM   11  C   UNL     1     -40.949 -53.902  12.670  1.00  0.00     0.004 C 
HETATM   12  C   UNL     1     -40.671 -52.408  12.560  1.00  0.00     0.035 C 
BRANCH   7  13
HETATM   13  C   UNL     1     -45.203 -51.558  14.425  1.00  0.00     0.103 C 
BRANCH  13  14
HETATM   14  C   UNL     1     -46.424 -51.316  13.547  1.00  0.00     0.005 C 
HETATM   15  C   UNL     1     -46.399 -52.273  12.363  1.00  0.00     0.005 C 
ENDBRANCH  13  14
ENDBRANCH   7  13
ENDBRANCH   1   5
BRANCH   3  16
HETATM   16  C   UNL     1     -41.880 -48.017  11.052  1.00  0.00     0.127 C 
BRANCH  16  17
HETATM   17  C   UNL     1     -43.172 -47.195  10.953  1.00  0.00     0.059 C 
BRANCH  17  18
HETATM   18  C   UNL     1     -43.994 -47.587   9.760  1.00  0.00    -0.041 A 
HETATM   19  C   UNL     1     -45.366 -47.813   9.878  1.00  0.00     0.010 A 
HETATM   20  C   UNL     1     -46.102 -48.176   8.756  1.00  0.00     0.018 A 
HETATM   21  C   UNL     1     -45.435 -48.310   7.549  1.00  0.00     0.087 A 
HETATM   22  N   UNL     1     -44.108 -48.110   7.397  1.00  0.00    -0.375 N 
HETATM   23  C   UNL     1     -43.419 -47.754   8.504  1.00  0.00     0.094 A 
ATOM     24  HN  UNL     1     -43.649 -48.223   6.494  1.00  0.00     0.164 HD
ENDBRANCH  17  18
ENDBRANCH  16  17
ENDBRANCH   3  16
TORSDOF 6
ENDMDL
MODEL 2
REMARK VINA RESULT:      -5.8      2.429      5.411
REMARK  6 active torsions:
REMARK  status: ('A' for Active; 'I' for Inactive)
REMARK    1  A    between atoms: C_2  and  C_3 
REMARK    2  A    between atoms: C_3  and  C_4 
REMARK       I    between atoms: C_4  and  N_6 
REMARK    3  A    between atoms: C_11  and  C_12 
REMARK       I    between atoms: C_12  and  N_14 
REMARK    4  A    between atoms: N_14  and  C_15 
REMARK    5  A    between atoms: C_15  and  C_16 
REMARK    6  A    between atoms: C_16  and  C_17 
ROOT
HETATM    1  C   UNL     1     -40.690 -52.516  13.232  1.00  0.00     0.240 C 
HETATM    2  O   UNL     1     -40.434 -53.113  12.189  1.00  0.00    -0.271 OA
HETATM    3  N   UNL     1     -41.557 -53.006  14.202  1.00  0.00    -0.359 N 
HETATM    4  H   UNL     1     -41.968 -52.316  14.818  1.00  0.00     0.162 HD
ENDROOT
BRANCH   1   5
HETATM    5  C   UNL     1     -40.029 -51.174  13.632  1.00  0.00     0.179 C 
HETATM    6  N   UNL     1     -40.478 -49.930  12.968  1.00  0.00    -0.339 N 
HETATM    7  C   UNL     1     -41.853 -49.800  12.708  1.00  0.00     0.220 C 
HETATM    8  C   UNL     1     -39.674 -48.744  13.288  1.00  0.00     0.127 C 
HETATM    9  O   UNL     1     -42.601 -50.763  12.552  1.00  0.00    -0.273 OA
HETATM   10  C   UNL     1     -38.184 -48.951  13.069  1.00  0.00     0.020 C 
HETATM   11  C   UNL     1     -37.690 -50.176  13.819  1.00  0.00     0.004 C 
HETATM   12  C   UNL     1     -38.515 -51.397  13.431  1.00  0.00     0.035 C 
BRANCH   7  13
HETATM   13  C   UNL     1     -42.402 -48.381  12.703  1.00  0.00     0.103 C 
BRANCH  13  14
HETATM   14  C   UNL     1     -43.044 -47.966  11.385  1.00  0.00     0.005 C 
HETATM   15  C   UNL     1     -42.003 -48.005  10.275  1.00  0.00     0.005 C 
ENDBRANCH  13  14
ENDBRANCH   7  13
ENDBRANCH   1   5
BRANCH   3  16
HETATM   16  C   UNL     1     -42.334 -54.212  13.978  1.00  0.00     0.127 C 
BRANCH  16  17
HETATM   17  C   UNL     1     -43.684 -54.188  14.707  1.00  0.00     0.059 C 
BRANCH  17  18
HETATM   18  C   UNL     1     -44.656 -53.251  14.051  1.00  0.00    -0.041 A 
HETATM   19  C   UNL     1     -45.369 -52.315  14.803  1.00  0.00     0.010 A 
HETATM   20  C   UNL     1     -46.263 -51.461  14.169  1.00  0.00     0.018 A 
HETATM   21  C   UNL     1     -46.422 -51.578  12.798  1.00  0.00     0.087 A 
HETATM   22  N   UNL     1     -45.759 -52.476  12.038  1.00  0.00    -0.375 N 
HETATM   23  C   UNL     1     -44.893 -53.290  12.680  1.00  0.00     0.094 A 
ATOM     24  HN  UNL     1     -45.905 -52.537  11.030  1.00  0.00     0.164 HD
ENDBRANCH  17  18
ENDBRANCH  16  17
ENDBRANCH   3  16
TORSDOF 6
ENDMDL
MODEL 3
REMARK VINA RESULT:      -5.8      2.486      6.561
REMARK  6 active torsions:
REMARK  status: ('A' for Active; 'I' for Inactive)
REMARK    1  A    between atoms: C_2  and  C_3 
REMARK    2  A    between atoms: C_3  and  C_4 
REMARK       I    between atoms: C_4  and  N_6 
REMARK    3  A    between atoms: C_11  and  C_12 
REMARK       I    between atoms: C_12  and  N_14 
REMARK    4  A    between atoms: N_14  and  C_15 
REMARK    5  A    between atoms: C_15  and  C_16 
REMARK    6  A    between atoms: C_16  and  C_17 
ROOT
HETATM    1  C   UNL     1     -42.457 -50.480  12.641  1.00  0.00     0.240 C 
HETATM    2  O   UNL     1     -43.036 -50.230  13.696  1.00  0.00    -0.271 OA
HETATM    3  N   UNL     1     -42.443 -51.742  12.056  1.00  0.00    -0.359 N 
HETATM    4  H   UNL     1     -41.678 -51.927  11.421  1.00  0.00     0.162 HD
ENDROOT
BRANCH   1   5
HETATM    5  C   UNL     1     -41.726 -49.411  11.793  1.00  0.00     0.179 C 
HETATM    6  N   UNL     1     -40.455 -48.844  12.298  1.00  0.00    -0.339 N 
HETATM    7  C   UNL     1     -39.568 -49.725  12.941  1.00  0.00     0.220 C 
HETATM    8  C   UNL     1     -39.935 -47.719  11.512  1.00  0.00     0.127 C 
HETATM    9  O   UNL     1     -39.936 -50.748  13.513  1.00  0.00    -0.273 OA
HETATM   10  C   UNL     1     -40.956 -46.615  11.293  1.00  0.00     0.020 C 
HETATM   11  C   UNL     1     -42.236 -47.169  10.690  1.00  0.00     0.004 C 
HETATM   12  C   UNL     1     -42.774 -48.303  11.554  1.00  0.00     0.035 C 
BRANCH   7  13
HETATM   13  C   UNL     1     -38.090 -49.385  12.831  1.00  0.00     0.103 C 
BRANCH  13  14
HETATM   14  C   UNL     1     -37.258 -50.440  12.113  1.00  0.00     0.005 C 
HETATM   15  C   UNL     1     -37.119 -50.068  10.643  1.00  0.00     0.005 C 
ENDBRANCH  13  14
ENDBRANCH   7  13
ENDBRANCH   1   5
BRANCH   3  16
HETATM   16  C   UNL     1     -43.008 -52.894  12.737  1.00  0.00     0.127 C 
BRANCH  16  17
HETATM   17  C   UNL     1     -44.485 -53.119  12.388  1.00  0.00     0.059 C 
BRANCH  17  18
HETATM   18  C   UNL     1     -45.385 -52.819  13.551  1.00  0.00    -0.041 A 
HETATM   19  C   UNL     1     -46.113 -51.628  13.604  1.00  0.00     0.010 A 
HETATM   20  C   UNL     1     -46.938 -51.376  14.694  1.00  0.00     0.018 A 
HETATM   21  C   UNL     1     -47.001 -52.323  15.703  1.00  0.00     0.087 A 
HETATM   22  N   UNL     1     -46.306 -53.481  15.692  1.00  0.00    -0.375 N 
HETATM   23  C   UNL     1     -45.515 -53.702  14.618  1.00  0.00     0.094 A 
ATOM     24  HN  UNL     1     -46.373 -54.154  16.455  1.00  0.00     0.164 HD
ENDBRANCH  17  18
ENDBRANCH  16  17
ENDBRANCH   3  16
TORSDOF 6
ENDMDL
MODEL 4
REMARK VINA RESULT:      -5.6      2.036      3.043
REMARK  6 active torsions:
REMARK  status: ('A' for Active; 'I' for Inactive)
REMARK    1  A    between atoms: C_2  and  C_3 
REMARK    2  A    between atoms: C_3  and  C_4 
REMARK       I    between atoms: C_4  and  N_6 
REMARK    3  A    between atoms: C_11  and  C_12 
REMARK       I    between atoms: C_12  and  N_14 
REMARK    4  A    between atoms: N_14  and  C_15 
REMARK    5  A    between atoms: C_15  and  C_16 
REMARK    6  A    between atoms: C_16  and  C_17 
ROOT
HETATM    1  C   UNL     1     -41.651 -50.533  12.692  1.00  0.00     0.240 C 
HETATM    2  O   UNL     1     -41.240 -49.869  13.642  1.00  0.00    -0.271 OA
HETATM    3  N   UNL     1     -41.714 -50.049  11.390  1.00  0.00    -0.359 N 
HETATM    4  H   UNL     1     -42.373 -50.511  10.777  1.00  0.00     0.162 HD
ENDROOT
BRANCH   1   5
HETATM    5  C   UNL     1     -42.088 -52.014  12.810  1.00  0.00     0.179 C 
HETATM    6  N   UNL     1     -43.359 -52.331  13.499  1.00  0.00    -0.339 N 
HETATM    7  C   UNL     1     -44.442 -51.462  13.282  1.00  0.00     0.220 C 
HETATM    8  C   UNL     1     -43.594 -53.764  13.711  1.00  0.00     0.127 C 
HETATM    9  O   UNL     1     -44.304 -50.279  12.982  1.00  0.00    -0.273 OA
HETATM   10  C   UNL     1     -42.434 -54.470  14.392  1.00  0.00     0.020 C 
HETATM   11  C   UNL     1     -41.135 -54.226  13.644  1.00  0.00     0.004 C 
HETATM   12  C   UNL     1     -40.897 -52.730  13.481  1.00  0.00     0.035 C 
BRANCH   7  13
HETATM   13  C   UNL     1     -45.827 -52.086  13.365  1.00  0.00     0.103 C 
BRANCH  13  14
HETATM   14  C   UNL     1     -46.768 -51.391  14.341  1.00  0.00     0.005 C 
HETATM   15  C   UNL     1     -46.191 -51.468  15.748  1.00  0.00     0.005 C 
ENDBRANCH  13  14
ENDBRANCH   7  13
ENDBRANCH   1   5
BRANCH   3  16
HETATM   16  C   UNL     1     -41.421 -48.659  11.088  1.00  0.00     0.127 C 
BRANCH  16  17
HETATM   17  C   UNL     1     -42.690 -47.812  10.916  1.00  0.00     0.059 C 
BRANCH  17  18
HETATM   18  C   UNL     1     -42.688 -46.614  11.819  1.00  0.00    -0.041 A 
HETATM   19  C   UNL     1     -43.040 -46.729  13.165  1.00  0.00     0.010 A 
HETATM   20  C   UNL     1     -43.030 -45.602  13.977  1.00  0.00     0.018 A 
HETATM   21  C   UNL     1     -42.676 -44.388  13.411  1.00  0.00     0.087 A 
HETATM   22  N   UNL     1     -42.339 -44.234  12.113  1.00  0.00    -0.375 N 
HETATM   23  C   UNL     1     -42.352 -45.348  11.348  1.00  0.00     0.094 A 
ATOM     24  HN  UNL     1     -42.087 -43.323  11.729  1.00  0.00     0.164 HD
ENDBRANCH  17  18
ENDBRANCH  16  17
ENDBRANCH   3  16
TORSDOF 6
ENDMDL
MODEL 5
REMARK VINA RESULT:      -5.6      3.793      6.756
REMARK  6 active torsions:
REMARK  status: ('A' for Active; 'I' for Inactive)
REMARK    1  A    between atoms: C_2  and  C_3 
REMARK    2  A    between atoms: C_3  and  C_4 
REMARK       I    between atoms: C_4  and  N_6 
REMARK    3  A    between atoms: C_11  and  C_12 
REMARK       I    between atoms: C_12  and  N_14 
REMARK    4  A    between atoms: N_14  and  C_15 
REMARK    5  A    between atoms: C_15  and  C_16 
REMARK    6  A    between atoms: C_16  and  C_17 
ROOT
HETATM    1  C   UNL     1     -39.067 -50.870  12.905  1.00  0.00     0.240 C 
HETATM    2  O   UNL     1     -38.236 -51.375  12.153  1.00  0.00    -0.271 OA
HETATM    3  N   UNL     1     -40.358 -51.362  13.060  1.00  0.00    -0.359 N 
HETATM    4  H   UNL     1     -41.045 -50.701  13.399  1.00  0.00     0.162 HD
ENDROOT
BRANCH   1   5
HETATM    5  C   UNL     1     -38.763 -49.662  13.825  1.00  0.00     0.179 C 
HETATM    6  N   UNL     1     -38.702 -48.308  13.230  1.00  0.00    -0.339 N 
HETATM    7  C   UNL     1     -39.639 -48.003  12.228  1.00  0.00     0.220 C 
HETATM    8  C   UNL     1     -38.237 -47.261  14.148  1.00  0.00     0.127 C 
HETATM    9  O   UNL     1     -40.154 -48.856  11.509  1.00  0.00    -0.273 OA
HETATM   10  C   UNL     1     -36.922 -47.598  14.830  1.00  0.00     0.020 C 
HETATM   11  C   UNL     1     -36.998 -48.948  15.521  1.00  0.00     0.004 C 
HETATM   12  C   UNL     1     -37.438 -50.020  14.532  1.00  0.00     0.035 C 
BRANCH   7  13
HETATM   13  C   UNL     1     -40.053 -46.543  12.122  1.00  0.00     0.103 C 
BRANCH  13  14
HETATM   14  C   UNL     1     -39.890 -45.948  10.728  1.00  0.00     0.005 C 
HETATM   15  C   UNL     1     -40.171 -44.453  10.775  1.00  0.00     0.005 C 
ENDBRANCH  13  14
ENDBRANCH   7  13
ENDBRANCH   1   5
BRANCH   3  16
HETATM   16  C   UNL     1     -40.858 -52.441  12.228  1.00  0.00     0.127 C 
BRANCH  16  17
HETATM   17  C   UNL     1     -41.192 -53.703  13.035  1.00  0.00     0.059 C 
BRANCH  17  18
HETATM   18  C   UNL     1     -42.669 -53.853  13.251  1.00  0.00    -0.041 A 
HETATM   19  C   UNL     1     -43.166 -54.703  14.241  1.00  0.00     0.010 A 
HETATM   20  C   UNL     1     -44.539 -54.823  14.417  1.00  0.00     0.018 A 
HETATM   21  C   UNL     1     -45.374 -54.093  13.588  1.00  0.00     0.087 A 
HETATM   22  N   UNL     1     -44.932 -53.269  12.613  1.00  0.00    -0.375 N 
HETATM   23  C   UNL     1     -43.593 -53.168  12.467  1.00  0.00     0.094 A 
ATOM     24  HN  UNL     1     -45.577 -52.750  12.017  1.00  0.00     0.164 HD
ENDBRANCH  17  18
ENDBRANCH  16  17
ENDBRANCH   3  16
TORSDOF 6
ENDMDL
MODEL 6
REMARK VINA RESULT:      -5.4      2.275      4.325
REMARK  6 active torsions:
REMARK  status: ('A' for Active; 'I' for Inactive)
REMARK    1  A    between atoms: C_2  and  C_3 
REMARK    2  A    between atoms: C_3  and  C_4 
REMARK       I    between atoms: C_4  and  N_6 
REMARK    3  A    between atoms: C_11  and  C_12 
REMARK       I    between atoms: C_12  and  N_14 
REMARK    4  A    between atoms: N_14  and  C_15 
REMARK    5  A    between atoms: C_15  and  C_16 
REMARK    6  A    between atoms: C_16  and  C_17 
ROOT
HETATM    1  C   UNL     1     -42.121 -52.061  13.095  1.00  0.00     0.240 C 
HETATM    2  O   UNL     1     -41.728 -52.274  11.950  1.00  0.00    -0.271 OA
HETATM    3  N   UNL     1     -41.633 -51.032  13.892  1.00  0.00    -0.359 N 
HETATM    4  H   UNL     1     -41.742 -51.155  14.891  1.00  0.00     0.162 HD
ENDROOT
BRANCH   1   5
HETATM    5  C   UNL     1     -43.256 -52.867  13.773  1.00  0.00     0.179 C 
HETATM    6  N   UNL     1     -42.963 -54.227  14.277  1.00  0.00    -0.339 N 
HETATM    7  C   UNL     1     -41.714 -54.432  14.888  1.00  0.00     0.220 C 
HETATM    8  C   UNL     1     -44.141 -54.971  14.742  1.00  0.00     0.127 C 
HETATM    9  O   UNL     1     -40.721 -53.758  14.626  1.00  0.00    -0.273 OA
HETATM   10  C   UNL     1     -45.265 -55.016  13.720  1.00  0.00     0.020 C 
HETATM   11  C   UNL     1     -45.638 -53.618  13.259  1.00  0.00     0.004 C 
HETATM   12  C   UNL     1     -44.403 -52.890  12.741  1.00  0.00     0.035 C 
BRANCH   7  13
HETATM   13  C   UNL     1     -41.665 -55.503  15.967  1.00  0.00     0.103 C 
BRANCH  13  14
HETATM   14  C   UNL     1     -40.332 -55.588  16.701  1.00  0.00     0.005 C 
HETATM   15  C   UNL     1     -40.065 -57.030  17.108  1.00  0.00     0.005 C 
ENDBRANCH  13  14
ENDBRANCH   7  13
ENDBRANCH   1   5
BRANCH   3  16
HETATM   16  C   UNL     1     -40.512 -50.214  13.464  1.00  0.00     0.127 C 
BRANCH  16  17
HETATM   17  C   UNL     1     -40.855 -48.719  13.420  1.00  0.00     0.059 C 
BRANCH  17  18
HETATM   18  C   UNL     1     -41.603 -48.354  12.170  1.00  0.00    -0.041 A 
HETATM   19  C   UNL     1     -42.835 -47.702  12.237  1.00  0.00     0.010 A 
HETATM   20  C   UNL     1     -43.505 -47.377  11.063  1.00  0.00     0.018 A 
HETATM   21  C   UNL     1     -42.921 -47.726   9.856  1.00  0.00     0.087 A 
HETATM   22  N   UNL     1     -41.736 -48.366   9.751  1.00  0.00    -0.375 N 
HETATM   23  C   UNL     1     -41.105 -48.665  10.908  1.00  0.00     0.094 A 
ATOM     24  HN  UNL     1     -41.339 -48.612   8.845  1.00  0.00     0.164 HD
ENDBRANCH  17  18
ENDBRANCH  16  17
ENDBRANCH   3  16
TORSDOF 6
ENDMDL
MODEL 7
REMARK VINA RESULT:      -5.1      4.887      7.077
REMARK  6 active torsions:
REMARK  status: ('A' for Active; 'I' for Inactive)
REMARK    1  A    between atoms: C_2  and  C_3 
REMARK    2  A    between atoms: C_3  and  C_4 
REMARK       I    between atoms: C_4  and  N_6 
REMARK    3  A    between atoms: C_11  and  C_12 
REMARK       I    between atoms: C_12  and  N_14 
REMARK    4  A    between atoms: N_14  and  C_15 
REMARK    5  A    between atoms: C_15  and  C_16 
REMARK    6  A    between atoms: C_16  and  C_17 
ROOT
HETATM    1  C   UNL     1     -42.803 -54.864  16.505  1.00  0.00     0.240 C 
HETATM    2  O   UNL     1     -43.031 -55.898  17.129  1.00  0.00    -0.271 OA
HETATM    3  N   UNL     1     -43.482 -53.671  16.727  1.00  0.00    -0.359 N 
HETATM    4  H   UNL     1     -43.483 -53.013  15.958  1.00  0.00     0.162 HD
ENDROOT
BRANCH   1   5
HETATM    5  C   UNL     1     -41.686 -54.738  15.440  1.00  0.00     0.179 C 
HETATM    6  N   UNL     1     -40.526 -53.863  15.723  1.00  0.00    -0.339 N 
HETATM    7  C   UNL     1     -40.025 -53.863  17.036  1.00  0.00     0.220 C 
HETATM    8  C   UNL     1     -39.615 -53.675  14.587  1.00  0.00     0.127 C 
HETATM    9  O   UNL     1     -40.714 -54.132  18.017  1.00  0.00    -0.273 OA
HETATM   10  C   UNL     1     -40.320 -53.224  13.318  1.00  0.00     0.020 C 
HETATM   11  C   UNL     1     -41.460 -54.165  12.966  1.00  0.00     0.004 C 
HETATM   12  C   UNL     1     -42.411 -54.302  14.149  1.00  0.00     0.035 C 
BRANCH   7  13
HETATM   13  C   UNL     1     -38.538 -53.580  17.185  1.00  0.00     0.103 C 
BRANCH  13  14
HETATM   14  C   UNL     1     -37.752 -54.704  17.848  1.00  0.00     0.005 C 
HETATM   15  C   UNL     1     -37.563 -55.847  16.862  1.00  0.00     0.005 C 
ENDBRANCH  13  14
ENDBRANCH   7  13
ENDBRANCH   1   5
BRANCH   3  16
HETATM   16  C   UNL     1     -44.616 -53.606  17.631  1.00  0.00     0.127 C 
BRANCH  16  17
HETATM   17  C   UNL     1     -45.929 -54.038  16.963  1.00  0.00     0.059 C 
BRANCH  17  18
HETATM   18  C   UNL     1     -46.141 -53.344  15.649  1.00  0.00    -0.041 A 
HETATM   19  C   UNL     1     -46.420 -51.977  15.597  1.00  0.00     0.010 A 
HETATM   20  C   UNL     1     -46.612 -51.361  14.366  1.00  0.00     0.018 A 
HETATM   21  C   UNL     1     -46.529 -52.138  13.223  1.00  0.00     0.087 A 
HETATM   22  N   UNL     1     -46.271 -53.464  13.233  1.00  0.00    -0.375 N 
HETATM   23  C   UNL     1     -46.083 -54.036  14.443  1.00  0.00     0.094 A 
ATOM     24  HN  UNL     1     -46.221 -54.007  12.371  1.00  0.00     0.164 HD
ENDBRANCH  17  18
ENDBRANCH  16  17
ENDBRANCH   3  16
TORSDOF 6
ENDMDL
MODEL 8
REMARK VINA RESULT:      -5.1      3.774      6.846
REMARK  6 active torsions:
REMARK  status: ('A' for Active; 'I' for Inactive)
REMARK    1  A    between atoms: C_2  and  C_3 
REMARK    2  A    between atoms: C_3  and  C_4 
REMARK       I    between atoms: C_4  and  N_6 
REMARK    3  A    between atoms: C_11  and  C_12 
REMARK       I    between atoms: C_12  and  N_14 
REMARK    4  A    between atoms: N_14  and  C_15 
REMARK    5  A    between atoms: C_15  and  C_16 
REMARK    6  A    between atoms: C_16  and  C_17 
ROOT
HETATM    1  C   UNL     1     -41.838 -51.397  12.538  1.00  0.00     0.240 C 
HETATM    2  O   UNL     1     -42.537 -50.417  12.788  1.00  0.00    -0.271 OA
HETATM    3  N   UNL     1     -42.357 -52.650  12.232  1.00  0.00    -0.359 N 
HETATM    4  H   UNL     1     -41.742 -53.436  12.395  1.00  0.00     0.162 HD
ENDROOT
BRANCH   1   5
HETATM    5  C   UNL     1     -40.292 -51.347  12.465  1.00  0.00     0.179 C 
HETATM    6  N   UNL     1     -39.517 -51.338  13.727  1.00  0.00    -0.339 N 
HETATM    7  C   UNL     1     -39.984 -52.151  14.774  1.00  0.00     0.220 C 
HETATM    8  C   UNL     1     -38.077 -51.114  13.554  1.00  0.00     0.127 C 
HETATM    9  O   UNL     1     -41.164 -52.472  14.899  1.00  0.00    -0.273 OA
HETATM   10  C   UNL     1     -37.755 -49.880  12.728  1.00  0.00     0.020 C 
HETATM   11  C   UNL     1     -38.474 -49.918  11.391  1.00  0.00     0.004 C 
HETATM   12  C   UNL     1     -39.971 -50.106  11.606  1.00  0.00     0.035 C 
BRANCH   7  13
HETATM   13  C   UNL     1     -38.927 -52.689  15.726  1.00  0.00     0.103 C 
BRANCH  13  14
HETATM   14  C   UNL     1     -39.302 -54.005  16.396  1.00  0.00     0.005 C 
HETATM   15  C   UNL     1     -38.742 -55.167  15.588  1.00  0.00     0.005 C 
ENDBRANCH  13  14
ENDBRANCH   7  13
ENDBRANCH   1   5
BRANCH   3  16
HETATM   16  C   UNL     1     -43.781 -52.918  12.323  1.00  0.00     0.127 C 
BRANCH  16  17
HETATM   17  C   UNL     1     -44.084 -54.305  12.904  1.00  0.00     0.059 C 
BRANCH  17  18
HETATM   18  C   UNL     1     -43.886 -54.343  14.391  1.00  0.00    -0.041 A 
HETATM   19  C   UNL     1     -42.996 -55.247  14.973  1.00  0.00     0.010 A 
HETATM   20  C   UNL     1     -42.833 -55.260  16.353  1.00  0.00     0.018 A 
HETATM   21  C   UNL     1     -43.578 -54.371  17.110  1.00  0.00     0.087 A 
HETATM   22  N   UNL     1     -44.456 -53.489  16.586  1.00  0.00    -0.375 N 
HETATM   23  C   UNL     1     -44.590 -53.495  15.241  1.00  0.00     0.094 A 
ATOM     24  HN  UNL     1     -44.992 -52.852  17.175  1.00  0.00     0.164 HD
ENDBRANCH  17  18
ENDBRANCH  16  17
ENDBRANCH   3  16
TORSDOF 6
ENDMDL
MODEL 9
REMARK VINA RESULT:      -5.1      4.307      7.441
REMARK  6 active torsions:
REMARK  status: ('A' for Active; 'I' for Inactive)
REMARK    1  A    between atoms: C_2  and  C_3 
REMARK    2  A    between atoms: C_3  and  C_4 
REMARK       I    between atoms: C_4  and  N_6 
REMARK    3  A    between atoms: C_11  and  C_12 
REMARK       I    between atoms: C_12  and  N_14 
REMARK    4  A    between atoms: N_14  and  C_15 
REMARK    5  A    between atoms: C_15  and  C_16 
REMARK    6  A    between atoms: C_16  and  C_17 
ROOT
HETATM    1  C   UNL     1     -45.852 -52.206  15.939  1.00  0.00     0.240 C 
HETATM    2  O   UNL     1     -44.791 -51.746  15.522  1.00  0.00    -0.271 OA
HETATM    3  N   UNL     1     -46.622 -53.120  15.229  1.00  0.00    -0.359 N 
HETATM    4  H   UNL     1     -47.603 -53.157  15.473  1.00  0.00     0.162 HD
ENDROOT
BRANCH   1   5
HETATM    5  C   UNL     1     -46.434 -51.879  17.337  1.00  0.00     0.179 C 
HETATM    6  N   UNL     1     -46.743 -52.993  18.260  1.00  0.00    -0.339 N 
HETATM    7  C   UNL     1     -45.845 -54.074  18.287  1.00  0.00     0.220 C 
HETATM    8  C   UNL     1     -47.449 -52.592  19.483  1.00  0.00     0.127 C 
HETATM    9  O   UNL     1     -45.138 -54.383  17.331  1.00  0.00    -0.273 OA
HETATM   10  C   UNL     1     -48.697 -51.767  19.214  1.00  0.00     0.020 C 
HETATM   11  C   UNL     1     -48.378 -50.568  18.338  1.00  0.00     0.004 C 
HETATM   12  C   UNL     1     -47.688 -51.022  17.058  1.00  0.00     0.035 C 
BRANCH   7  13
HETATM   13  C   UNL     1     -45.732 -54.817  19.609  1.00  0.00     0.103 C 
BRANCH  13  14
HETATM   14  C   UNL     1     -46.291 -56.235  19.579  1.00  0.00     0.005 C 
HETATM   15  C   UNL     1     -47.761 -56.213  19.972  1.00  0.00     0.005 C 
ENDBRANCH  13  14
ENDBRANCH   7  13
ENDBRANCH   1   5
BRANCH   3  16
HETATM   16  C   UNL     1     -46.283 -53.492  13.867  1.00  0.00     0.127 C 
BRANCH  16  17
HETATM   17  C   UNL     1     -45.231 -54.607  13.804  1.00  0.00     0.059 C 
BRANCH  17  18
HETATM   18  C   UNL     1     -43.897 -54.091  13.351  1.00  0.00    -0.041 A 
HETATM   19  C   UNL     1     -42.723 -54.463  14.009  1.00  0.00     0.010 A 
HETATM   20  C   UNL     1     -41.501 -53.968  13.568  1.00  0.00     0.018 A 
HETATM   21  C   UNL     1     -41.495 -53.106  12.484  1.00  0.00     0.087 A 
HETATM   22  N   UNL     1     -42.609 -52.715  11.828  1.00  0.00    -0.375 N 
HETATM   23  C   UNL     1     -43.782 -53.215  12.275  1.00  0.00     0.094 A 
ATOM     24  HN  UNL     1     -42.568 -52.074  11.036  1.00  0.00     0.164 HD
ENDBRANCH  17  18
ENDBRANCH  16  17
ENDBRANCH   3  16
TORSDOF 6
ENDMDL
