MODEL 1
REMARK VINA RESULT:      -6.1      0.000      0.000
REMARK  8 active torsions:
REMARK  status: ('A' for Active; 'I' for Inactive)
REMARK    1  A    between atoms: C_7  and  O_8 
REMARK    2  A    between atoms: O_8  and  C_9 
REMARK    3  A    between atoms: C_9  and  C_10 
REMARK    4  A    between atoms: C_10  and  O_11 
REMARK    5  A    between atoms: C_10  and  C_12 
REMARK    6  A    between atoms: C_12  and  N_13 
REMARK    7  A    between atoms: C_14  and  C_15 
REMARK    8  A    between atoms: C_15  and  O_16 
ROOT
HETATM    1  C   UNL     1     -40.904 -52.618  11.963  1.00  0.00     0.164 C 
ENDROOT
BRANCH   1   2
HETATM    2  C   UNL     1     -41.344 -51.146  12.024  1.00  0.00     0.160 C 
BRANCH   2   3
HETATM    3  C   UNL     1     -40.966 -50.406  13.324  1.00  0.00     0.209 C 
BRANCH   3   4
HETATM    4  O   UNL     1     -42.143 -49.765  13.833  1.00  0.00    -0.349 OA
BRANCH   4   5
HETATM    5  C   UNL     1     -42.945 -50.486  14.675  1.00  0.00     0.069 A 
HETATM    6  C   UNL     1     -42.542 -51.127  15.846  1.00  0.00     0.043 A 
HETATM    7  C   UNL     1     -43.468 -51.837  16.627  1.00  0.00    -0.059 A 
HETATM    8  C   UNL     1     -44.808 -51.899  16.226  1.00  0.00     0.013 A 
HETATM    9  C   UNL     1     -43.011 -52.516  17.886  1.00  0.00     0.048 C 
HETATM   10  C   UNL     1     -45.229 -51.263  15.052  1.00  0.00    -0.059 A 
HETATM   11  C   UNL     1     -46.664 -51.319  14.616  1.00  0.00     0.048 C 
HETATM   12  C   UNL     1     -44.287 -50.562  14.285  1.00  0.00     0.043 A 
ENDBRANCH   4   5
ENDBRANCH   3   4
ENDBRANCH   2   3
BRANCH   2  13
HETATM   13  O   UNL     1     -40.832 -50.465  10.869  1.00  0.00    -0.392 OA
HETATM   14  H   UNL     1     -40.461 -51.132  10.262  1.00  0.00     0.210 HD
ENDBRANCH   2  13
ENDBRANCH   1   2
BRANCH   1  15
HETATM   15  N   UNL     1     -41.393 -53.441  13.057  1.00  0.00    -0.330 N 
HETATM   16  C   UNL     1     -40.671 -53.948  14.120  1.00  0.00     0.108 A 
HETATM   17  N   UNL     1     -41.451 -54.660  14.915  1.00  0.00    -0.342 N 
HETATM   18  C   UNL     1     -42.706 -54.595  14.370  1.00  0.00     0.060 A 
ATOM     19  HN  UNL     1     -41.174 -55.157  15.761  1.00  0.00     0.167 HD
HETATM   20  C   UNL     1     -43.910 -55.144  14.839  1.00  0.00     0.032 A 
HETATM   21  C   UNL     1     -42.703 -53.856  13.195  1.00  0.00     0.062 A 
HETATM   22  C   UNL     1     -45.085 -54.916  14.114  1.00  0.00     0.002 A 
HETATM   23  C   UNL     1     -45.057 -54.181  12.932  1.00  0.00     0.002 A 
HETATM   24  C   UNL     1     -43.863 -53.646  12.436  1.00  0.00     0.032 A 
BRANCH  16  25
HETATM   25  C   UNL     1     -39.217 -53.728  14.380  1.00  0.00     0.240 C 
BRANCH  25  26
HETATM   26  O   UNL     1     -38.496 -54.557  13.475  1.00  0.00    -0.393 OA
HETATM   27  H   UNL     1     -37.902 -55.094  14.035  1.00  0.00     0.209 HD
ENDBRANCH  25  26
ENDBRANCH  16  25
ENDBRANCH   1  15
TORSDOF 8
ENDMDL
MODEL 2
REMARK VINA RESULT:      -6.1      0.118      1.762
REMARK  8 active torsions:
REMARK  status: ('A' for Active; 'I' for Inactive)
REMARK    1  A    between atoms: C_7  and  O_8 
REMARK    2  A    between atoms: O_8  and  C_9 
REMARK    3  A    between atoms: C_9  and  C_10 
REMARK    4  A    between atoms: C_10  and  O_11 
REMARK    5  A    between atoms: C_10  and  C_12 
REMARK    6  A    between atoms: C_12  and  N_13 
REMARK    7  A    between atoms: C_14  and  C_15 
REMARK    8  A    between atoms: C_15  and  O_16 
ROOT
HETATM    1  C   UNL     1     -40.865 -52.714  12.009  1.00  0.00     0.164 C 
ENDROOT
BRANCH   1   2
HETATM    2  C   UNL     1     -41.290 -51.236  12.043  1.00  0.00     0.160 C 
BRANCH   2   3
HETATM    3  C   UNL     1     -40.948 -50.489  13.349  1.00  0.00     0.209 C 
BRANCH   3   4
HETATM    4  O   UNL     1     -42.108 -49.757  13.764  1.00  0.00    -0.349 OA
BRANCH   4   5
HETATM    5  C   UNL     1     -43.051 -50.422  14.499  1.00  0.00     0.069 A 
HETATM    6  C   UNL     1     -44.406 -50.536  14.187  1.00  0.00     0.043 A 
HETATM    7  C   UNL     1     -45.274 -51.251  15.028  1.00  0.00    -0.059 A 
HETATM    8  C   UNL     1     -44.773 -51.856  16.187  1.00  0.00     0.013 A 
HETATM    9  C   UNL     1     -46.728 -51.363  14.670  1.00  0.00     0.048 C 
HETATM   10  C   UNL     1     -43.417 -51.749  16.515  1.00  0.00    -0.059 A 
HETATM   11  C   UNL     1     -42.869 -52.398  17.752  1.00  0.00     0.048 C 
HETATM   12  C   UNL     1     -42.567 -51.028  15.664  1.00  0.00     0.043 A 
ENDBRANCH   4   5
ENDBRANCH   3   4
ENDBRANCH   2   3
BRANCH   2  13
HETATM   13  O   UNL     1     -40.732 -50.570  10.900  1.00  0.00    -0.392 OA
HETATM   14  H   UNL     1     -39.761 -50.593  10.979  1.00  0.00     0.210 HD
ENDBRANCH   2  13
ENDBRANCH   1   2
BRANCH   1  15
HETATM   15  N   UNL     1     -41.369 -53.513  13.113  1.00  0.00    -0.330 N 
HETATM   16  C   UNL     1     -40.660 -54.008  14.190  1.00  0.00     0.108 A 
HETATM   17  N   UNL     1     -41.452 -54.700  14.990  1.00  0.00    -0.342 N 
HETATM   18  C   UNL     1     -42.702 -54.635  14.435  1.00  0.00     0.060 A 
ATOM     19  HN  UNL     1     -41.186 -55.185  15.847  1.00  0.00     0.167 HD
HETATM   20  C   UNL     1     -43.914 -55.165  14.903  1.00  0.00     0.032 A 
HETATM   21  C   UNL     1     -42.683 -53.915  13.247  1.00  0.00     0.062 A 
HETATM   22  C   UNL     1     -45.082 -54.939  14.165  1.00  0.00     0.002 A 
HETATM   23  C   UNL     1     -45.038 -54.225  12.971  1.00  0.00     0.002 A 
HETATM   24  C   UNL     1     -43.836 -53.709  12.475  1.00  0.00     0.032 A 
BRANCH  16  25
HETATM   25  C   UNL     1     -39.206 -53.797  14.458  1.00  0.00     0.240 C 
BRANCH  25  26
HETATM   26  O   UNL     1     -38.484 -54.544  13.485  1.00  0.00    -0.393 OA
HETATM   27  H   UNL     1     -37.626 -54.086  13.395  1.00  0.00     0.209 HD
ENDBRANCH  25  26
ENDBRANCH  16  25
ENDBRANCH   1  15
TORSDOF 8
ENDMDL
MODEL 3
REMARK VINA RESULT:      -6.0      2.583      4.473
REMARK  8 active torsions:
REMARK  status: ('A' for Active; 'I' for Inactive)
REMARK    1  A    between atoms: C_7  and  O_8 
REMARK    2  A    between atoms: O_8  and  C_9 
REMARK    3  A    between atoms: C_9  and  C_10 
REMARK    4  A    between atoms: C_10  and  O_11 
REMARK    5  A    between atoms: C_10  and  C_12 
REMARK    6  A    between atoms: C_12  and  N_13 
REMARK    7  A    between atoms: C_14  and  C_15 
REMARK    8  A    between atoms: C_15  and  O_16 
ROOT
HETATM    1  C   UNL     1     -40.456 -51.801  13.514  1.00  0.00     0.164 C 
ENDROOT
BRANCH   1   2
HETATM    2  C   UNL     1     -40.983 -53.039  12.769  1.00  0.00     0.160 C 
BRANCH   2   3
HETATM    3  C   UNL     1     -42.510 -53.246  12.850  1.00  0.00     0.209 C 
BRANCH   3   4
HETATM    4  O   UNL     1     -42.955 -52.803  14.138  1.00  0.00    -0.349 OA
BRANCH   4   5
HETATM    5  C   UNL     1     -44.233 -52.324  14.239  1.00  0.00     0.069 A 
HETATM    6  C   UNL     1     -44.862 -51.903  15.411  1.00  0.00     0.043 A 
HETATM    7  C   UNL     1     -46.183 -51.428  15.381  1.00  0.00    -0.059 A 
HETATM    8  C   UNL     1     -46.872 -51.375  14.163  1.00  0.00     0.013 A 
HETATM    9  C   UNL     1     -46.838 -50.976  16.654  1.00  0.00     0.048 C 
HETATM   10  C   UNL     1     -46.257 -51.796  12.979  1.00  0.00    -0.059 A 
HETATM   11  C   UNL     1     -46.985 -51.740  11.668  1.00  0.00     0.048 C 
HETATM   12  C   UNL     1     -44.938 -52.270  13.031  1.00  0.00     0.043 A 
ENDBRANCH   4   5
ENDBRANCH   3   4
ENDBRANCH   2   3
BRANCH   2  13
HETATM   13  O   UNL     1     -40.536 -52.981  11.407  1.00  0.00    -0.392 OA
HETATM   14  H   UNL     1     -41.299 -52.751  10.846  1.00  0.00     0.210 HD
ENDBRANCH   2  13
ENDBRANCH   1   2
BRANCH   1  15
HETATM   15  N   UNL     1     -40.195 -50.651  12.666  1.00  0.00    -0.330 N 
HETATM   16  C   UNL     1     -38.990 -50.267  12.111  1.00  0.00     0.108 A 
HETATM   17  N   UNL     1     -39.135 -49.161  11.402  1.00  0.00    -0.342 N 
HETATM   18  C   UNL     1     -40.463 -48.833  11.479  1.00  0.00     0.060 A 
ATOM     19  HN  UNL     1     -38.407 -48.654  10.899  1.00  0.00     0.167 HD
HETATM   20  C   UNL     1     -41.155 -47.772  10.876  1.00  0.00     0.032 A 
HETATM   21  C   UNL     1     -41.153 -49.734  12.279  1.00  0.00     0.062 A 
HETATM   22  C   UNL     1     -42.535 -47.659  11.084  1.00  0.00     0.002 A 
HETATM   23  C   UNL     1     -43.205 -48.567  11.899  1.00  0.00     0.002 A 
HETATM   24  C   UNL     1     -42.528 -49.617  12.528  1.00  0.00     0.032 A 
BRANCH  16  25
HETATM   25  C   UNL     1     -37.688 -50.985  12.253  1.00  0.00     0.240 C 
BRANCH  25  26
HETATM   26  O   UNL     1     -37.210 -51.254  10.939  1.00  0.00    -0.393 OA
HETATM   27  H   UNL     1     -38.007 -51.287  10.377  1.00  0.00     0.209 HD
ENDBRANCH  25  26
ENDBRANCH  16  25
ENDBRANCH   1  15
TORSDOF 8
ENDMDL
MODEL 4
REMARK VINA RESULT:      -5.9      1.920      4.562
REMARK  8 active torsions:
REMARK  status: ('A' for Active; 'I' for Inactive)
REMARK    1  A    between atoms: C_7  and  O_8 
REMARK    2  A    between atoms: O_8  and  C_9 
REMARK    3  A    between atoms: C_9  and  C_10 
REMARK    4  A    between atoms: C_10  and  O_11 
REMARK    5  A    between atoms: C_10  and  C_12 
REMARK    6  A    between atoms: C_12  and  N_13 
REMARK    7  A    between atoms: C_14  and  C_15 
REMARK    8  A    between atoms: C_15  and  O_16 
ROOT
HETATM    1  C   UNL     1     -39.515 -49.940  13.794  1.00  0.00     0.164 C 
ENDROOT
BRANCH   1   2
HETATM    2  C   UNL     1     -38.743 -51.204  13.380  1.00  0.00     0.160 C 
BRANCH   2   3
HETATM    3  C   UNL     1     -39.048 -52.460  14.223  1.00  0.00     0.209 C 
BRANCH   3   4
HETATM    4  O   UNL     1     -39.704 -53.416  13.381  1.00  0.00    -0.349 OA
BRANCH   4   5
HETATM    5  C   UNL     1     -40.919 -53.895  13.789  1.00  0.00     0.069 A 
HETATM    6  C   UNL     1     -42.121 -53.790  13.088  1.00  0.00     0.043 A 
HETATM    7  C   UNL     1     -43.305 -54.327  13.618  1.00  0.00    -0.059 A 
HETATM    8  C   UNL     1     -43.277 -54.976  14.858  1.00  0.00     0.013 A 
HETATM    9  C   UNL     1     -44.586 -54.205  12.843  1.00  0.00     0.048 C 
HETATM   10  C   UNL     1     -42.080 -55.088  15.574  1.00  0.00    -0.059 A 
HETATM   11  C   UNL     1     -42.038 -55.786  16.903  1.00  0.00     0.048 C 
HETATM   12  C   UNL     1     -40.909 -54.542  15.030  1.00  0.00     0.043 A 
ENDBRANCH   4   5
ENDBRANCH   3   4
ENDBRANCH   2   3
BRANCH   2  13
HETATM   13  O   UNL     1     -38.970 -51.446  11.983  1.00  0.00    -0.392 OA
HETATM   14  H   UNL     1     -39.592 -50.771  11.655  1.00  0.00     0.210 HD
ENDBRANCH   2  13
ENDBRANCH   1   2
BRANCH   1  15
HETATM   15  N   UNL     1     -40.917 -49.937  13.414  1.00  0.00    -0.330 N 
HETATM   16  C   UNL     1     -41.470 -49.485  12.231  1.00  0.00     0.108 A 
HETATM   17  N   UNL     1     -42.783 -49.634  12.245  1.00  0.00    -0.342 N 
HETATM   18  C   UNL     1     -43.086 -50.214  13.448  1.00  0.00     0.060 A 
ATOM     19  HN  UNL     1     -43.438 -49.371  11.509  1.00  0.00     0.167 HD
HETATM   20  C   UNL     1     -44.331 -50.621  13.953  1.00  0.00     0.032 A 
HETATM   21  C   UNL     1     -41.942 -50.400  14.214  1.00  0.00     0.062 A 
HETATM   22  C   UNL     1     -44.384 -51.222  15.216  1.00  0.00     0.002 A 
HETATM   23  C   UNL     1     -43.227 -51.389  15.971  1.00  0.00     0.002 A 
HETATM   24  C   UNL     1     -41.981 -50.968  15.495  1.00  0.00     0.032 A 
BRANCH  16  25
HETATM   25  C   UNL     1     -40.721 -48.920  11.070  1.00  0.00     0.240 C 
BRANCH  25  26
HETATM   26  O   UNL     1     -40.512 -49.982  10.145  1.00  0.00    -0.393 OA
HETATM   27  H   UNL     1     -39.810 -50.533  10.540  1.00  0.00     0.209 HD
ENDBRANCH  25  26
ENDBRANCH  16  25
ENDBRANCH   1  15
TORSDOF 8
ENDMDL
MODEL 5
REMARK VINA RESULT:      -5.7      2.814      5.643
REMARK  8 active torsions:
REMARK  status: ('A' for Active; 'I' for Inactive)
REMARK    1  A    between atoms: C_7  and  O_8 
REMARK    2  A    between atoms: O_8  and  C_9 
REMARK    3  A    between atoms: C_9  and  C_10 
REMARK    4  A    between atoms: C_10  and  O_11 
REMARK    5  A    between atoms: C_10  and  C_12 
REMARK    6  A    between atoms: C_12  and  N_13 
REMARK    7  A    between atoms: C_14  and  C_15 
REMARK    8  A    between atoms: C_15  and  O_16 
ROOT
HETATM    1  C   UNL     1     -46.676 -52.744  15.074  1.00  0.00     0.164 C 
ENDROOT
BRANCH   1   2
HETATM    2  C   UNL     1     -46.400 -54.256  15.075  1.00  0.00     0.160 C 
BRANCH   2   3
HETATM    3  C   UNL     1     -45.406 -54.738  13.998  1.00  0.00     0.209 C 
BRANCH   3   4
HETATM    4  O   UNL     1     -44.404 -55.539  14.638  1.00  0.00    -0.349 OA
BRANCH   4   5
HETATM    5  C   UNL     1     -43.137 -55.029  14.718  1.00  0.00     0.069 A 
HETATM    6  C   UNL     1     -42.268 -55.154  15.802  1.00  0.00     0.043 A 
HETATM    7  C   UNL     1     -40.986 -54.583  15.759  1.00  0.00    -0.059 A 
HETATM    8  C   UNL     1     -40.578 -53.884  14.617  1.00  0.00     0.013 A 
HETATM    9  C   UNL     1     -40.067 -54.735  16.937  1.00  0.00     0.048 C 
HETATM   10  C   UNL     1     -41.438 -53.747  13.522  1.00  0.00    -0.059 A 
HETATM   11  C   UNL     1     -41.009 -53.004  12.291  1.00  0.00     0.048 C 
HETATM   12  C   UNL     1     -42.715 -54.322  13.586  1.00  0.00     0.043 A 
ENDBRANCH   4   5
ENDBRANCH   3   4
ENDBRANCH   2   3
BRANCH   2  13
HETATM   13  O   UNL     1     -45.973 -54.645  16.389  1.00  0.00    -0.392 OA
HETATM   14  H   UNL     1     -46.633 -55.264  16.753  1.00  0.00     0.210 HD
ENDBRANCH   2  13
ENDBRANCH   1   2
BRANCH   1  15
HETATM   15  N   UNL     1     -45.651 -51.942  14.430  1.00  0.00    -0.330 N 
HETATM   16  C   UNL     1     -45.678 -51.398  13.160  1.00  0.00     0.108 A 
HETATM   17  N   UNL     1     -44.561 -50.736  12.913  1.00  0.00    -0.342 N 
HETATM   18  C   UNL     1     -43.805 -50.832  14.050  1.00  0.00     0.060 A 
ATOM     19  HN  UNL     1     -44.313 -50.251  12.051  1.00  0.00     0.167 HD
HETATM   20  C   UNL     1     -42.548 -50.276  14.335  1.00  0.00     0.032 A 
HETATM   21  C   UNL     1     -44.448 -51.598  15.014  1.00  0.00     0.062 A 
HETATM   22  C   UNL     1     -41.980 -50.495  15.595  1.00  0.00     0.002 A 
HETATM   23  C   UNL     1     -42.638 -51.275  16.542  1.00  0.00     0.002 A 
HETATM   24  C   UNL     1     -43.880 -51.858  16.269  1.00  0.00     0.032 A 
BRANCH  16  25
HETATM   25  C   UNL     1     -46.802 -51.504  12.182  1.00  0.00     0.240 C 
BRANCH  25  26
HETATM   26  O   UNL     1     -46.594 -52.693  11.427  1.00  0.00    -0.393 OA
HETATM   27  H   UNL     1     -47.293 -53.309  11.720  1.00  0.00     0.209 HD
ENDBRANCH  25  26
ENDBRANCH  16  25
ENDBRANCH   1  15
TORSDOF 8
ENDMDL
MODEL 6
REMARK VINA RESULT:      -5.6      3.774      6.995
REMARK  8 active torsions:
REMARK  status: ('A' for Active; 'I' for Inactive)
REMARK    1  A    between atoms: C_7  and  O_8 
REMARK    2  A    between atoms: O_8  and  C_9 
REMARK    3  A    between atoms: C_9  and  C_10 
REMARK    4  A    between atoms: C_10  and  O_11 
REMARK    5  A    between atoms: C_10  and  C_12 
REMARK    6  A    between atoms: C_12  and  N_13 
REMARK    7  A    between atoms: C_14  and  C_15 
REMARK    8  A    between atoms: C_15  and  O_16 
ROOT
HETATM    1  C   UNL     1     -41.446 -48.947  12.185  1.00  0.00     0.164 C 
ENDROOT
BRANCH   1   2
HETATM    2  C   UNL     1     -40.389 -49.919  11.635  1.00  0.00     0.160 C 
BRANCH   2   3
HETATM    3  C   UNL     1     -40.389 -51.318  12.285  1.00  0.00     0.209 C 
BRANCH   3   4
HETATM    4  O   UNL     1     -41.569 -52.011  11.859  1.00  0.00    -0.349 OA
BRANCH   4   5
HETATM    5  C   UNL     1     -42.126 -52.912  12.725  1.00  0.00     0.069 A 
HETATM    6  C   UNL     1     -43.455 -53.336  12.727  1.00  0.00     0.043 A 
HETATM    7  C   UNL     1     -43.904 -54.272  13.673  1.00  0.00    -0.059 A 
HETATM    8  C   UNL     1     -43.008 -54.785  14.619  1.00  0.00     0.013 A 
HETATM    9  C   UNL     1     -45.338 -54.717  13.654  1.00  0.00     0.048 C 
HETATM   10  C   UNL     1     -41.672 -54.368  14.631  1.00  0.00    -0.059 A 
HETATM   11  C   UNL     1     -40.702 -54.915  15.638  1.00  0.00     0.048 C 
HETATM   12  C   UNL     1     -41.245 -53.431  13.680  1.00  0.00     0.043 A 
ENDBRANCH   4   5
ENDBRANCH   3   4
ENDBRANCH   2   3
BRANCH   2  13
HETATM   13  O   UNL     1     -40.543 -50.007  10.210  1.00  0.00    -0.392 OA
HETATM   14  H   UNL     1     -39.759 -49.603   9.795  1.00  0.00     0.210 HD
ENDBRANCH   2  13
ENDBRANCH   1   2
BRANCH   1  15
HETATM   15  N   UNL     1     -41.287 -47.571  11.749  1.00  0.00    -0.330 N 
HETATM   16  C   UNL     1     -41.963 -46.923  10.733  1.00  0.00     0.108 A 
HETATM   17  N   UNL     1     -41.546 -45.675  10.618  1.00  0.00    -0.342 N 
HETATM   18  C   UNL     1     -40.597 -45.501  11.590  1.00  0.00     0.060 A 
ATOM     19  HN  UNL     1     -41.865 -44.981   9.942  1.00  0.00     0.167 HD
HETATM   20  C   UNL     1     -39.867 -44.351  11.928  1.00  0.00     0.032 A 
HETATM   21  C   UNL     1     -40.395 -46.675  12.305  1.00  0.00     0.062 A 
HETATM   22  C   UNL     1     -38.962 -44.413  12.993  1.00  0.00     0.002 A 
HETATM   23  C   UNL     1     -38.767 -45.603  13.689  1.00  0.00     0.002 A 
HETATM   24  C   UNL     1     -39.467 -46.766  13.352  1.00  0.00     0.032 A 
BRANCH  16  25
HETATM   25  C   UNL     1     -43.036 -47.512   9.877  1.00  0.00     0.240 C 
BRANCH  25  26
HETATM   26  O   UNL     1     -42.394 -48.206   8.813  1.00  0.00    -0.393 OA
HETATM   27  H   UNL     1     -42.969 -48.072   8.035  1.00  0.00     0.209 HD
ENDBRANCH  25  26
ENDBRANCH  16  25
ENDBRANCH   1  15
TORSDOF 8
ENDMDL
MODEL 7
REMARK VINA RESULT:      -5.4      3.980      7.002
REMARK  8 active torsions:
REMARK  status: ('A' for Active; 'I' for Inactive)
REMARK    1  A    between atoms: C_7  and  O_8 
REMARK    2  A    between atoms: O_8  and  C_9 
REMARK    3  A    between atoms: C_9  and  C_10 
REMARK    4  A    between atoms: C_10  and  O_11 
REMARK    5  A    between atoms: C_10  and  C_12 
REMARK    6  A    between atoms: C_12  and  N_13 
REMARK    7  A    between atoms: C_14  and  C_15 
REMARK    8  A    between atoms: C_15  and  O_16 
ROOT
HETATM    1  C   UNL     1     -41.232 -48.685  12.105  1.00  0.00     0.164 C 
ENDROOT
BRANCH   1   2
HETATM    2  C   UNL     1     -40.052 -49.523  11.584  1.00  0.00     0.160 C 
BRANCH   2   3
HETATM    3  C   UNL     1     -39.551 -50.616  12.551  1.00  0.00     0.209 C 
BRANCH   3   4
HETATM    4  O   UNL     1     -39.909 -51.893  12.008  1.00  0.00    -0.349 OA
BRANCH   4   5
HETATM    5  C   UNL     1     -40.731 -52.694  12.753  1.00  0.00     0.069 A 
HETATM    6  C   UNL     1     -40.352 -53.457  13.858  1.00  0.00     0.043 A 
HETATM    7  C   UNL     1     -41.296 -54.240  14.541  1.00  0.00    -0.059 A 
HETATM    8  C   UNL     1     -42.628 -54.251  14.111  1.00  0.00     0.013 A 
HETATM    9  C   UNL     1     -40.866 -55.051  15.730  1.00  0.00     0.048 C 
HETATM   10  C   UNL     1     -43.024 -53.493  13.004  1.00  0.00    -0.059 A 
HETATM   11  C   UNL     1     -44.450 -53.494  12.537  1.00  0.00     0.048 C 
HETATM   12  C   UNL     1     -42.065 -52.720  12.333  1.00  0.00     0.043 A 
ENDBRANCH   4   5
ENDBRANCH   3   4
ENDBRANCH   2   3
BRANCH   2  13
HETATM   13  O   UNL     1     -40.410 -50.079  10.309  1.00  0.00    -0.392 OA
HETATM   14  H   UNL     1     -40.548 -51.037  10.423  1.00  0.00     0.210 HD
ENDBRANCH   2  13
ENDBRANCH   1   2
BRANCH   1  15
HETATM   15  N   UNL     1     -41.231 -47.301  11.664  1.00  0.00    -0.330 N 
HETATM   16  C   UNL     1     -42.006 -46.729  10.673  1.00  0.00     0.108 A 
HETATM   17  N   UNL     1     -41.724 -45.444  10.545  1.00  0.00    -0.342 N 
HETATM   18  C   UNL     1     -40.766 -45.171  11.484  1.00  0.00     0.060 A 
ATOM     19  HN  UNL     1     -42.137 -44.789   9.881  1.00  0.00     0.167 HD
HETATM   20  C   UNL     1     -40.147 -43.951  11.797  1.00  0.00     0.032 A 
HETATM   21  C   UNL     1     -40.418 -46.316  12.190  1.00  0.00     0.062 A 
HETATM   22  C   UNL     1     -39.203 -43.917  12.830  1.00  0.00     0.002 A 
HETATM   23  C   UNL     1     -38.862 -45.078  13.517  1.00  0.00     0.002 A 
HETATM   24  C   UNL     1     -39.450 -46.308  13.204  1.00  0.00     0.032 A 
BRANCH  16  25
HETATM   25  C   UNL     1     -43.041 -47.427   9.855  1.00  0.00     0.240 C 
BRANCH  25  26
HETATM   26  O   UNL     1     -42.355 -48.196   8.872  1.00  0.00    -0.393 OA
HETATM   27  H   UNL     1     -42.877 -49.016   8.777  1.00  0.00     0.209 HD
ENDBRANCH  25  26
ENDBRANCH  16  25
ENDBRANCH   1  15
TORSDOF 8
ENDMDL
MODEL 8
REMARK VINA RESULT:      -5.2      2.677      4.357
REMARK  8 active torsions:
REMARK  status: ('A' for Active; 'I' for Inactive)
REMARK    1  A    between atoms: C_7  and  O_8 
REMARK    2  A    between atoms: O_8  and  C_9 
REMARK    3  A    between atoms: C_9  and  C_10 
REMARK    4  A    between atoms: C_10  and  O_11 
REMARK    5  A    between atoms: C_10  and  C_12 
REMARK    6  A    between atoms: C_12  and  N_13 
REMARK    7  A    between atoms: C_14  and  C_15 
REMARK    8  A    between atoms: C_15  and  O_16 
ROOT
HETATM    1  C   UNL     1     -40.972 -52.677  11.837  1.00  0.00     0.164 C 
ENDROOT
BRANCH   1   2
HETATM    2  C   UNL     1     -41.208 -51.164  11.979  1.00  0.00     0.160 C 
BRANCH   2   3
HETATM    3  C   UNL     1     -40.619 -50.530  13.257  1.00  0.00     0.209 C 
BRANCH   3   4
HETATM    4  O   UNL     1     -39.189 -50.581  13.164  1.00  0.00    -0.349 OA
BRANCH   4   5
HETATM    5  C   UNL     1     -38.472 -49.667  13.886  1.00  0.00     0.069 A 
HETATM    6  C   UNL     1     -37.436 -49.953  14.776  1.00  0.00     0.043 A 
HETATM    7  C   UNL     1     -36.775 -48.919  15.457  1.00  0.00    -0.059 A 
HETATM    8  C   UNL     1     -37.158 -47.590  15.239  1.00  0.00     0.013 A 
HETATM    9  C   UNL     1     -35.660 -49.251  16.407  1.00  0.00     0.048 C 
HETATM   10  C   UNL     1     -38.196 -47.286  14.351  1.00  0.00    -0.059 A 
HETATM   11  C   UNL     1     -38.612 -45.865  14.107  1.00  0.00     0.048 C 
HETATM   12  C   UNL     1     -38.846 -48.334  13.683  1.00  0.00     0.043 A 
ENDBRANCH   4   5
ENDBRANCH   3   4
ENDBRANCH   2   3
BRANCH   2  13
HETATM   13  O   UNL     1     -40.719 -50.509  10.799  1.00  0.00    -0.392 OA
HETATM   14  H   UNL     1     -40.361 -49.641  11.059  1.00  0.00     0.210 HD
ENDBRANCH   2  13
ENDBRANCH   1   2
BRANCH   1  15
HETATM   15  N   UNL     1     -41.462 -53.472  12.950  1.00  0.00    -0.330 N 
HETATM   16  C   UNL     1     -40.724 -54.041  13.970  1.00  0.00     0.108 A 
HETATM   17  N   UNL     1     -41.512 -54.702  14.801  1.00  0.00    -0.342 N 
HETATM   18  C   UNL     1     -42.785 -54.541  14.325  1.00  0.00     0.060 A 
ATOM     19  HN  UNL     1     -41.228 -55.226  15.629  1.00  0.00     0.167 HD
HETATM   20  C   UNL     1     -44.000 -55.004  14.854  1.00  0.00     0.032 A 
HETATM   21  C   UNL     1     -42.790 -53.792  13.155  1.00  0.00     0.062 A 
HETATM   22  C   UNL     1     -45.191 -54.684  14.194  1.00  0.00     0.002 A 
HETATM   23  C   UNL     1     -45.172 -53.942  13.016  1.00  0.00     0.002 A 
HETATM   24  C   UNL     1     -43.970 -53.491  12.460  1.00  0.00     0.032 A 
BRANCH  16  25
HETATM   25  C   UNL     1     -39.247 -53.931  14.154  1.00  0.00     0.240 C 
BRANCH  25  26
HETATM   26  O   UNL     1     -38.646 -54.959  13.374  1.00  0.00    -0.393 OA
HETATM   27  H   UNL     1     -39.373 -55.335  12.840  1.00  0.00     0.209 HD
ENDBRANCH  25  26
ENDBRANCH  16  25
ENDBRANCH   1  15
TORSDOF 8
ENDMDL
MODEL 9
REMARK VINA RESULT:      -5.1      3.641      5.396
REMARK  8 active torsions:
REMARK  status: ('A' for Active; 'I' for Inactive)
REMARK    1  A    between atoms: C_7  and  O_8 
REMARK    2  A    between atoms: O_8  and  C_9 
REMARK    3  A    between atoms: C_9  and  C_10 
REMARK    4  A    between atoms: C_10  and  O_11 
REMARK    5  A    between atoms: C_10  and  C_12 
REMARK    6  A    between atoms: C_12  and  N_13 
REMARK    7  A    between atoms: C_14  and  C_15 
REMARK    8  A    between atoms: C_15  and  O_16 
ROOT
HETATM    1  C   UNL     1     -41.846 -50.748  13.157  1.00  0.00     0.164 C 
ENDROOT
BRANCH   1   2
HETATM    2  C   UNL     1     -41.768 -50.109  11.761  1.00  0.00     0.160 C 
BRANCH   2   3
HETATM    3  C   UNL     1     -41.918 -48.573  11.737  1.00  0.00     0.209 C 
BRANCH   3   4
HETATM    4  O   UNL     1     -40.966 -48.016  12.652  1.00  0.00    -0.349 OA
BRANCH   4   5
HETATM    5  C   UNL     1     -40.608 -46.707  12.479  1.00  0.00     0.069 A 
HETATM    6  C   UNL     1     -40.697 -45.697  13.437  1.00  0.00     0.043 A 
HETATM    7  C   UNL     1     -40.294 -44.387  13.133  1.00  0.00    -0.059 A 
HETATM    8  C   UNL     1     -39.796 -44.094  11.858  1.00  0.00     0.013 A 
HETATM    9  C   UNL     1     -40.395 -43.318  14.183  1.00  0.00     0.048 C 
HETATM   10  C   UNL     1     -39.702 -45.095  10.885  1.00  0.00    -0.059 A 
HETATM   11  C   UNL     1     -39.166 -44.793   9.516  1.00  0.00     0.048 C 
HETATM   12  C   UNL     1     -40.113 -46.396  11.207  1.00  0.00     0.043 A 
ENDBRANCH   4   5
ENDBRANCH   3   4
ENDBRANCH   2   3
BRANCH   2  13
HETATM   13  O   UNL     1     -40.545 -50.523  11.133  1.00  0.00    -0.392 OA
HETATM   14  H   UNL     1     -40.066 -51.101  11.753  1.00  0.00     0.210 HD
ENDBRANCH   2  13
ENDBRANCH   1   2
BRANCH   1  15
HETATM   15  N   UNL     1     -42.640 -51.962  13.223  1.00  0.00    -0.330 N 
HETATM   16  C   UNL     1     -42.209 -53.264  13.047  1.00  0.00     0.108 A 
HETATM   17  N   UNL     1     -43.218 -54.108  13.171  1.00  0.00    -0.342 N 
HETATM   18  C   UNL     1     -44.319 -53.345  13.454  1.00  0.00     0.060 A 
ATOM     19  HN  UNL     1     -43.184 -55.123  13.076  1.00  0.00     0.167 HD
HETATM   20  C   UNL     1     -45.638 -53.745  13.718  1.00  0.00     0.032 A 
HETATM   21  C   UNL     1     -43.998 -51.994  13.475  1.00  0.00     0.062 A 
HETATM   22  C   UNL     1     -46.596 -52.769  14.013  1.00  0.00     0.002 A 
HETATM   23  C   UNL     1     -46.254 -51.419  14.016  1.00  0.00     0.002 A 
HETATM   24  C   UNL     1     -44.951 -50.998  13.733  1.00  0.00     0.032 A 
BRANCH  16  25
HETATM   25  C   UNL     1     -40.807 -53.696  12.774  1.00  0.00     0.240 C 
BRANCH  25  26
HETATM   26  O   UNL     1     -40.564 -53.492  11.386  1.00  0.00    -0.393 OA
HETATM   27  H   UNL     1     -40.895 -52.593  11.197  1.00  0.00     0.209 HD
ENDBRANCH  25  26
ENDBRANCH  16  25
ENDBRANCH   1  15
TORSDOF 8
ENDMDL
