MODEL 1
REMARK VINA RESULT:      -6.4      0.000      0.000
REMARK  4 active torsions:
REMARK  status: ('A' for Active; 'I' for Inactive)
REMARK    1  A    between atoms: C_6  and  N_7 
REMARK       I    between atoms: N_7  and  C_8 
REMARK       I    between atoms: C_8  and  N_10 
REMARK    2  A    between atoms: N_10  and  C_11 
REMARK    3  A    between atoms: C_11  and  C_12 
REMARK    4  A    between atoms: C_12  and  N_13 
ROOT
HETATM    1  N   UNL     1     -41.930 -48.189   9.684  1.00  0.00    -0.295 N 
HETATM    2  C   UNL     1     -41.530 -48.604  10.932  1.00  0.00     0.321 C 
HETATM    3  O   UNL     1     -42.128 -48.465  11.990  1.00  0.00    -0.247 OA
HETATM    4  N   UNL     1     -40.294 -49.239  10.878  1.00  0.00    -0.341 N 
HETATM    5  H   UNL     1     -41.406 -48.516   8.892  1.00  0.00     0.172 HD
HETATM    6  H   UNL     1     -39.687 -48.937  10.134  1.00  0.00     0.164 HD
ENDROOT
BRANCH   1   7
HETATM    7  C   UNL     1     -43.104 -47.463   9.436  1.00  0.00     0.109 A 
HETATM    8  C   UNL     1     -43.010 -46.084   9.302  1.00  0.00     0.049 A 
HETATM    9  C   UNL     1     -44.166 -45.355   9.026  1.00  0.00     0.006 A 
HETATM   10  C   UNL     1     -45.381 -46.019   8.898  1.00  0.00     0.025 A 
HETATM   11  C   UNL     1     -45.399 -47.397   9.059  1.00  0.00     0.007 A 
HETATM   12  C   UNL     1     -46.666 -48.188   8.969  1.00  0.00     0.068 C 
HETATM   13  N   UNL     1     -44.282 -48.101   9.337  1.00  0.00    -0.346 N 
ATOM     14  HN  UNL     1     -44.332 -49.112   9.471  1.00  0.00     0.167 HD
ENDBRANCH   1   7
BRANCH   4  15
HETATM   15  C   UNL     1     -39.641 -49.537  12.145  1.00  0.00     0.143 C 
BRANCH  15  16
HETATM   16  C   UNL     1     -39.475 -51.046  12.413  1.00  0.00     0.136 C 
BRANCH  16  17
HETATM   17  N   UNL     1     -40.290 -51.631  13.484  1.00  0.00    -0.411 N 
HETATM   18  C   UNL     1     -39.757 -52.867  14.059  1.00  0.00     0.117 C 
HETATM   19  C   UNL     1     -40.305 -54.158  13.441  1.00  0.00     0.019 C 
HETATM   20  C   UNL     1     -41.825 -54.146  13.396  1.00  0.00     0.003 C 
HETATM   21  C   UNL     1     -42.315 -52.900  12.669  1.00  0.00     0.019 C 
HETATM   22  C   UNL     1     -41.734 -51.627  13.283  1.00  0.00     0.117 C 
ENDBRANCH  16  17
ENDBRANCH  15  16
ENDBRANCH   4  15
TORSDOF 4
ENDMDL
MODEL 2
REMARK VINA RESULT:      -6.2      2.873      6.505
REMARK  4 active torsions:
REMARK  status: ('A' for Active; 'I' for Inactive)
REMARK    1  A    between atoms: C_6  and  N_7 
REMARK       I    between atoms: N_7  and  C_8 
REMARK       I    between atoms: C_8  and  N_10 
REMARK    2  A    between atoms: N_10  and  C_11 
REMARK    3  A    between atoms: C_11  and  C_12 
REMARK    4  A    between atoms: C_12  and  N_13 
ROOT
HETATM    1  N   UNL     1     -43.085 -52.780  12.057  1.00  0.00    -0.295 N 
HETATM    2  C   UNL     1     -42.098 -51.918  12.472  1.00  0.00     0.321 C 
HETATM    3  O   UNL     1     -41.991 -51.376  13.564  1.00  0.00    -0.247 OA
HETATM    4  N   UNL     1     -41.165 -51.700  11.463  1.00  0.00    -0.341 N 
HETATM    5  H   UNL     1     -42.947 -53.265  11.189  1.00  0.00     0.172 HD
HETATM    6  H   UNL     1     -41.519 -51.785  10.525  1.00  0.00     0.164 HD
ENDROOT
BRANCH   1   7
HETATM    7  C   UNL     1     -44.194 -53.137  12.838  1.00  0.00     0.109 A 
HETATM    8  C   UNL     1     -44.452 -54.488  13.036  1.00  0.00     0.049 A 
HETATM    9  C   UNL     1     -45.536 -54.854  13.835  1.00  0.00     0.006 A 
HETATM   10  C   UNL     1     -46.330 -53.868  14.407  1.00  0.00     0.025 A 
HETATM   11  C   UNL     1     -46.019 -52.540  14.152  1.00  0.00     0.007 A 
HETATM   12  C   UNL     1     -46.839 -51.415  14.700  1.00  0.00     0.068 C 
HETATM   13  N   UNL     1     -44.978 -52.185  13.370  1.00  0.00    -0.346 N 
ATOM     14  HN  UNL     1     -44.788 -51.200  13.185  1.00  0.00     0.167 HD
ENDBRANCH   1   7
BRANCH   4  15
HETATM   15  C   UNL     1     -40.186 -50.643  11.676  1.00  0.00     0.143 C 
BRANCH  15  16
HETATM   16  C   UNL     1     -40.515 -49.338  10.925  1.00  0.00     0.136 C 
BRANCH  16  17
HETATM   17  N   UNL     1     -41.224 -48.293  11.673  1.00  0.00    -0.411 N 
HETATM   18  C   UNL     1     -42.683 -48.336  11.559  1.00  0.00     0.117 C 
HETATM   19  C   UNL     1     -43.273 -47.438  10.467  1.00  0.00     0.019 C 
HETATM   20  C   UNL     1     -42.740 -46.017  10.573  1.00  0.00     0.003 C 
HETATM   21  C   UNL     1     -41.216 -46.030  10.555  1.00  0.00     0.019 C 
HETATM   22  C   UNL     1     -40.649 -46.954  11.632  1.00  0.00     0.117 C 
ENDBRANCH  16  17
ENDBRANCH  15  16
ENDBRANCH   4  15
TORSDOF 4
ENDMDL
MODEL 3
REMARK VINA RESULT:      -6.2      3.730      6.144
REMARK  4 active torsions:
REMARK  status: ('A' for Active; 'I' for Inactive)
REMARK    1  A    between atoms: C_6  and  N_7 
REMARK       I    between atoms: N_7  and  C_8 
REMARK       I    between atoms: C_8  and  N_10 
REMARK    2  A    between atoms: N_10  and  C_11 
REMARK    3  A    between atoms: C_11  and  C_12 
REMARK    4  A    between atoms: C_12  and  N_13 
ROOT
HETATM    1  N   UNL     1     -41.868 -51.235  11.635  1.00  0.00    -0.295 N 
HETATM    2  C   UNL     1     -42.254 -52.199  12.535  1.00  0.00     0.321 C 
HETATM    3  O   UNL     1     -41.691 -52.517  13.573  1.00  0.00    -0.247 OA
HETATM    4  N   UNL     1     -43.428 -52.825  12.128  1.00  0.00    -0.341 N 
HETATM    5  H   UNL     1     -42.519 -50.980  10.914  1.00  0.00     0.172 HD
HETATM    6  H   UNL     1     -43.578 -52.853  11.133  1.00  0.00     0.164 HD
ENDROOT
BRANCH   1   7
HETATM    7  C   UNL     1     -40.690 -50.482  11.747  1.00  0.00     0.109 A 
HETATM    8  C   UNL     1     -40.766 -49.108  11.554  1.00  0.00     0.049 A 
HETATM    9  C   UNL     1     -39.607 -48.345  11.692  1.00  0.00     0.006 A 
HETATM   10  C   UNL     1     -38.408 -48.972  12.014  1.00  0.00     0.025 A 
HETATM   11  C   UNL     1     -38.408 -50.350  12.178  1.00  0.00     0.007 A 
HETATM   12  C   UNL     1     -37.157 -51.109  12.493  1.00  0.00     0.068 C 
HETATM   13  N   UNL     1     -39.527 -51.090  12.033  1.00  0.00    -0.346 N 
ATOM     14  HN  UNL     1     -39.489 -52.104  12.139  1.00  0.00     0.167 HD
ENDBRANCH   1   7
BRANCH   4  15
HETATM   15  C   UNL     1     -43.840 -54.013  12.863  1.00  0.00     0.143 C 
BRANCH  15  16
HETATM   16  C   UNL     1     -45.337 -54.022  13.230  1.00  0.00     0.136 C 
BRANCH  16  17
HETATM   17  N   UNL     1     -45.689 -53.702  14.618  1.00  0.00    -0.411 N 
HETATM   18  C   UNL     1     -46.970 -53.015  14.786  1.00  0.00     0.117 C 
HETATM   19  C   UNL     1     -46.881 -51.486  14.846  1.00  0.00     0.019 C 
HETATM   20  C   UNL     1     -45.841 -51.033  15.858  1.00  0.00     0.003 C 
HETATM   21  C   UNL     1     -44.497 -51.681  15.551  1.00  0.00     0.019 C 
HETATM   22  C   UNL     1     -44.614 -53.203  15.467  1.00  0.00     0.117 C 
ENDBRANCH  16  17
ENDBRANCH  15  16
ENDBRANCH   4  15
TORSDOF 4
ENDMDL
MODEL 4
REMARK VINA RESULT:      -6.2      1.663      2.418
REMARK  4 active torsions:
REMARK  status: ('A' for Active; 'I' for Inactive)
REMARK    1  A    between atoms: C_6  and  N_7 
REMARK       I    between atoms: N_7  and  C_8 
REMARK       I    between atoms: C_8  and  N_10 
REMARK    2  A    between atoms: N_10  and  C_11 
REMARK    3  A    between atoms: C_11  and  C_12 
REMARK    4  A    between atoms: C_12  and  N_13 
ROOT
HETATM    1  N   UNL     1     -40.927 -49.350  10.641  1.00  0.00    -0.295 N 
HETATM    2  C   UNL     1     -41.099 -50.150  11.746  1.00  0.00     0.321 C 
HETATM    3  O   UNL     1     -41.895 -49.995  12.661  1.00  0.00    -0.247 OA
HETATM    4  N   UNL     1     -40.220 -51.228  11.727  1.00  0.00    -0.341 N 
HETATM    5  H   UNL     1     -40.345 -49.696   9.899  1.00  0.00     0.172 HD
HETATM    6  H   UNL     1     -39.352 -51.067  11.244  1.00  0.00     0.164 HD
ENDROOT
BRANCH   1   7
HETATM    7  C   UNL     1     -41.629 -48.156  10.419  1.00  0.00     0.109 A 
HETATM    8  C   UNL     1     -40.973 -46.954  10.655  1.00  0.00     0.049 A 
HETATM    9  C   UNL     1     -41.651 -45.760  10.410  1.00  0.00     0.006 A 
HETATM   10  C   UNL     1     -42.960 -45.798   9.944  1.00  0.00     0.025 A 
HETATM   11  C   UNL     1     -43.553 -47.036   9.745  1.00  0.00     0.007 A 
HETATM   12  C   UNL     1     -44.968 -47.170   9.276  1.00  0.00     0.068 C 
HETATM   13  N   UNL     1     -42.902 -48.192   9.993  1.00  0.00    -0.346 N 
ATOM     14  HN  UNL     1     -43.374 -49.086   9.857  1.00  0.00     0.167 HD
ENDBRANCH   1   7
BRANCH   4  15
HETATM   15  C   UNL     1     -40.131 -52.038  12.934  1.00  0.00     0.143 C 
BRANCH  15  16
HETATM   16  C   UNL     1     -41.152 -53.193  12.977  1.00  0.00     0.136 C 
BRANCH  16  17
HETATM   17  N   UNL     1     -42.345 -53.003  13.810  1.00  0.00    -0.411 N 
HETATM   18  C   UNL     1     -42.379 -53.807  15.033  1.00  0.00     0.117 C 
HETATM   19  C   UNL     1     -43.128 -55.138  14.911  1.00  0.00     0.019 C 
HETATM   20  C   UNL     1     -44.510 -54.940  14.307  1.00  0.00     0.003 C 
HETATM   21  C   UNL     1     -44.396 -54.214  12.972  1.00  0.00     0.019 C 
HETATM   22  C   UNL     1     -43.621 -52.905  13.110  1.00  0.00     0.117 C 
ENDBRANCH  16  17
ENDBRANCH  15  16
ENDBRANCH   4  15
TORSDOF 4
ENDMDL
MODEL 5
REMARK VINA RESULT:      -6.1      1.976      3.262
REMARK  4 active torsions:
REMARK  status: ('A' for Active; 'I' for Inactive)
REMARK    1  A    between atoms: C_6  and  N_7 
REMARK       I    between atoms: N_7  and  C_8 
REMARK       I    between atoms: C_8  and  N_10 
REMARK    2  A    between atoms: N_10  and  C_11 
REMARK    3  A    between atoms: C_11  and  C_12 
REMARK    4  A    between atoms: C_12  and  N_13 
ROOT
HETATM    1  N   UNL     1     -40.871 -49.392  10.637  1.00  0.00    -0.295 N 
HETATM    2  C   UNL     1     -40.972 -50.148  11.780  1.00  0.00     0.321 C 
HETATM    3  O   UNL     1     -41.544 -49.854  12.821  1.00  0.00    -0.247 OA
HETATM    4  N   UNL     1     -40.316 -51.366  11.635  1.00  0.00    -0.341 N 
HETATM    5  H   UNL     1     -40.508 -49.835   9.813  1.00  0.00     0.172 HD
HETATM    6  H   UNL     1     -39.538 -51.363  10.996  1.00  0.00     0.164 HD
ENDROOT
BRANCH   1   7
HETATM    7  C   UNL     1     -41.381 -48.091  10.509  1.00  0.00     0.109 A 
HETATM    8  C   UNL     1     -42.745 -47.937  10.296  1.00  0.00     0.049 A 
HETATM    9  C   UNL     1     -43.268 -46.647  10.197  1.00  0.00     0.006 A 
HETATM   10  C   UNL     1     -42.417 -45.553  10.307  1.00  0.00     0.025 A 
HETATM   11  C   UNL     1     -41.064 -45.786  10.506  1.00  0.00     0.007 A 
HETATM   12  C   UNL     1     -40.074 -44.668  10.604  1.00  0.00     0.068 C 
HETATM   13  N   UNL     1     -40.557 -47.034  10.591  1.00  0.00    -0.346 N 
ATOM     14  HN  UNL     1     -39.554 -47.172  10.716  1.00  0.00     0.167 HD
ENDBRANCH   1   7
BRANCH   4  15
HETATM   15  C   UNL     1     -40.147 -52.180  12.832  1.00  0.00     0.143 C 
BRANCH  15  16
HETATM   16  C   UNL     1     -41.173 -53.324  12.948  1.00  0.00     0.136 C 
BRANCH  16  17
HETATM   17  N   UNL     1     -42.394 -53.056  13.718  1.00  0.00    -0.411 N 
HETATM   18  C   UNL     1     -42.514 -53.812  14.965  1.00  0.00     0.117 C 
HETATM   19  C   UNL     1     -43.312 -55.117  14.857  1.00  0.00     0.019 C 
HETATM   20  C   UNL     1     -44.657 -54.886  14.184  1.00  0.00     0.003 C 
HETATM   21  C   UNL     1     -44.454 -54.214  12.831  1.00  0.00     0.019 C 
HETATM   22  C   UNL     1     -43.632 -52.933  12.958  1.00  0.00     0.117 C 
ENDBRANCH  16  17
ENDBRANCH  15  16
ENDBRANCH   4  15
TORSDOF 4
ENDMDL
MODEL 6
REMARK VINA RESULT:      -6.1      3.880      5.462
REMARK  4 active torsions:
REMARK  status: ('A' for Active; 'I' for Inactive)
REMARK    1  A    between atoms: C_6  and  N_7 
REMARK       I    between atoms: N_7  and  C_8 
REMARK       I    between atoms: C_8  and  N_10 
REMARK    2  A    between atoms: N_10  and  C_11 
REMARK    3  A    between atoms: C_11  and  C_12 
REMARK    4  A    between atoms: C_12  and  N_13 
ROOT
HETATM    1  N   UNL     1     -42.374 -52.354  11.804  1.00  0.00    -0.295 N 
HETATM    2  C   UNL     1     -41.664 -51.237  12.174  1.00  0.00     0.321 C 
HETATM    3  O   UNL     1     -41.845 -50.530  13.155  1.00  0.00    -0.247 OA
HETATM    4  N   UNL     1     -40.648 -50.964  11.264  1.00  0.00    -0.341 N 
HETATM    5  H   UNL     1     -42.005 -52.918  11.060  1.00  0.00     0.172 HD
HETATM    6  H   UNL     1     -40.824 -51.266  10.320  1.00  0.00     0.164 HD
ENDROOT
BRANCH   1   7
HETATM    7  C   UNL     1     -43.496 -52.835  12.495  1.00  0.00     0.109 A 
HETATM    8  C   UNL     1     -43.471 -54.144  12.960  1.00  0.00     0.049 A 
HETATM    9  C   UNL     1     -44.569 -54.624  13.674  1.00  0.00     0.006 A 
HETATM   10  C   UNL     1     -45.658 -53.791  13.898  1.00  0.00     0.025 A 
HETATM   11  C   UNL     1     -45.617 -52.500  13.390  1.00  0.00     0.007 A 
HETATM   12  C   UNL     1     -46.759 -51.547  13.557  1.00  0.00     0.068 C 
HETATM   13  N   UNL     1     -44.560 -52.039  12.690  1.00  0.00    -0.346 N 
ATOM     14  HN  UNL     1     -44.569 -51.091  12.311  1.00  0.00     0.167 HD
ENDBRANCH   1   7
BRANCH   4  15
HETATM   15  C   UNL     1     -39.953 -49.691  11.401  1.00  0.00     0.143 C 
BRANCH  15  16
HETATM   16  C   UNL     1     -38.419 -49.816  11.327  1.00  0.00     0.136 C 
BRANCH  16  17
HETATM   17  N   UNL     1     -37.682 -49.807  12.596  1.00  0.00    -0.411 N 
HETATM   18  C   UNL     1     -37.496 -51.123  13.210  1.00  0.00     0.117 C 
HETATM   19  C   UNL     1     -38.554 -51.507  14.251  1.00  0.00     0.019 C 
HETATM   20  C   UNL     1     -38.737 -50.404  15.283  1.00  0.00     0.003 C 
HETATM   21  C   UNL     1     -39.058 -49.087  14.587  1.00  0.00     0.019 C 
HETATM   22  C   UNL     1     -38.008 -48.739  13.533  1.00  0.00     0.117 C 
ENDBRANCH  16  17
ENDBRANCH  15  16
ENDBRANCH   4  15
TORSDOF 4
ENDMDL
MODEL 7
REMARK VINA RESULT:      -6.0      2.794      7.299
REMARK  4 active torsions:
REMARK  status: ('A' for Active; 'I' for Inactive)
REMARK    1  A    between atoms: C_6  and  N_7 
REMARK       I    between atoms: N_7  and  C_8 
REMARK       I    between atoms: C_8  and  N_10 
REMARK    2  A    between atoms: N_10  and  C_11 
REMARK    3  A    between atoms: C_11  and  C_12 
REMARK    4  A    between atoms: C_12  and  N_13 
ROOT
HETATM    1  N   UNL     1     -42.210 -52.543  11.781  1.00  0.00    -0.295 N 
HETATM    2  C   UNL     1     -41.510 -51.420  12.153  1.00  0.00     0.321 C 
HETATM    3  O   UNL     1     -41.384 -50.960  13.280  1.00  0.00    -0.247 OA
HETATM    4  N   UNL     1     -40.917 -50.810  11.053  1.00  0.00    -0.341 N 
HETATM    5  H   UNL     1     -42.087 -52.881  10.843  1.00  0.00     0.172 HD
HETATM    6  H   UNL     1     -41.395 -50.944  10.177  1.00  0.00     0.164 HD
ENDROOT
BRANCH   1   7
HETATM    7  C   UNL     1     -42.963 -53.328  12.666  1.00  0.00     0.109 A 
HETATM    8  C   UNL     1     -44.324 -53.470  12.424  1.00  0.00     0.049 A 
HETATM    9  C   UNL     1     -45.078 -54.273  13.280  1.00  0.00     0.006 A 
HETATM   10  C   UNL     1     -44.457 -54.904  14.352  1.00  0.00     0.025 A 
HETATM   11  C   UNL     1     -43.097 -54.703  14.537  1.00  0.00     0.007 A 
HETATM   12  C   UNL     1     -42.355 -55.318  15.683  1.00  0.00     0.068 C 
HETATM   13  N   UNL     1     -42.369 -53.918  13.716  1.00  0.00    -0.346 N 
ATOM     14  HN  UNL     1     -41.374 -53.774  13.892  1.00  0.00     0.167 HD
ENDBRANCH   1   7
BRANCH   4  15
HETATM   15  C   UNL     1     -40.328 -49.493  11.257  1.00  0.00     0.143 C 
BRANCH  15  16
HETATM   16  C   UNL     1     -41.307 -48.332  10.991  1.00  0.00     0.136 C 
BRANCH  16  17
HETATM   17  N   UNL     1     -41.168 -47.133  11.826  1.00  0.00    -0.411 N 
HETATM   18  C   UNL     1     -42.345 -46.263  11.855  1.00  0.00     0.117 C 
HETATM   19  C   UNL     1     -42.324 -45.111  10.844  1.00  0.00     0.019 C 
HETATM   20  C   UNL     1     -41.021 -44.331  10.924  1.00  0.00     0.003 C 
HETATM   21  C   UNL     1     -39.837 -45.274  10.755  1.00  0.00     0.019 C 
HETATM   22  C   UNL     1     -39.893 -46.430  11.753  1.00  0.00     0.117 C 
ENDBRANCH  16  17
ENDBRANCH  15  16
ENDBRANCH   4  15
TORSDOF 4
ENDMDL
MODEL 8
REMARK VINA RESULT:      -5.9      2.559      7.265
REMARK  4 active torsions:
REMARK  status: ('A' for Active; 'I' for Inactive)
REMARK    1  A    between atoms: C_6  and  N_7 
REMARK       I    between atoms: N_7  and  C_8 
REMARK       I    between atoms: C_8  and  N_10 
REMARK    2  A    between atoms: N_10  and  C_11 
REMARK    3  A    between atoms: C_11  and  C_12 
REMARK    4  A    between atoms: C_12  and  N_13 
ROOT
HETATM    1  N   UNL     1     -41.049 -51.182  11.331  1.00  0.00    -0.295 N 
HETATM    2  C   UNL     1     -41.458 -49.888  11.545  1.00  0.00     0.321 C 
HETATM    3  O   UNL     1     -42.199 -49.477  12.428  1.00  0.00    -0.247 OA
HETATM    4  N   UNL     1     -40.916 -49.026  10.597  1.00  0.00    -0.341 N 
HETATM    5  H   UNL     1     -40.315 -51.336  10.663  1.00  0.00     0.172 HD
HETATM    6  H   UNL     1     -40.716 -49.442   9.703  1.00  0.00     0.164 HD
ENDROOT
BRANCH   1   7
HETATM    7  C   UNL     1     -41.485 -52.279  12.089  1.00  0.00     0.109 A 
HETATM    8  C   UNL     1     -40.533 -53.027  12.771  1.00  0.00     0.049 A 
HETATM    9  C   UNL     1     -40.957 -54.102  13.552  1.00  0.00     0.006 A 
HETATM   10  C   UNL     1     -42.313 -54.403  13.626  1.00  0.00     0.025 A 
HETATM   11  C   UNL     1     -43.202 -53.619  12.906  1.00  0.00     0.007 A 
HETATM   12  C   UNL     1     -44.674 -53.891  12.904  1.00  0.00     0.068 C 
HETATM   13  N   UNL     1     -42.791 -52.586  12.141  1.00  0.00    -0.346 N 
ATOM     14  HN  UNL     1     -43.469 -52.042  11.607  1.00  0.00     0.167 HD
ENDBRANCH   1   7
BRANCH   4  15
HETATM   15  C   UNL     1     -41.430 -47.664  10.561  1.00  0.00     0.143 C 
BRANCH  15  16
HETATM   16  C   UNL     1     -40.388 -46.601  10.960  1.00  0.00     0.136 C 
BRANCH  16  17
HETATM   17  N   UNL     1     -40.787 -45.616  11.972  1.00  0.00    -0.411 N 
HETATM   18  C   UNL     1     -42.212 -45.281  11.978  1.00  0.00     0.117 C 
HETATM   19  C   UNL     1     -42.589 -44.042  11.159  1.00  0.00     0.019 C 
HETATM   20  C   UNL     1     -41.711 -42.854  11.519  1.00  0.00     0.003 C 
HETATM   21  C   UNL     1     -40.241 -43.227  11.367  1.00  0.00     0.019 C 
HETATM   22  C   UNL     1     -39.894 -44.481  12.168  1.00  0.00     0.117 C 
ENDBRANCH  16  17
ENDBRANCH  15  16
ENDBRANCH   4  15
TORSDOF 4
ENDMDL
MODEL 9
REMARK VINA RESULT:      -5.6      3.509      6.659
REMARK  4 active torsions:
REMARK  status: ('A' for Active; 'I' for Inactive)
REMARK    1  A    between atoms: C_6  and  N_7 
REMARK       I    between atoms: N_7  and  C_8 
REMARK       I    between atoms: C_8  and  N_10 
REMARK    2  A    between atoms: N_10  and  C_11 
REMARK    3  A    between atoms: C_11  and  C_12 
REMARK    4  A    between atoms: C_12  and  N_13 
ROOT
HETATM    1  N   UNL     1     -44.146 -50.956  12.817  1.00  0.00    -0.295 N 
HETATM    2  C   UNL     1     -42.830 -51.264  12.571  1.00  0.00     0.321 C 
HETATM    3  O   UNL     1     -42.244 -52.303  12.840  1.00  0.00    -0.247 OA
HETATM    4  N   UNL     1     -42.176 -50.208  11.943  1.00  0.00    -0.341 N 
HETATM    5  H   UNL     1     -44.520 -50.126  12.394  1.00  0.00     0.172 HD
HETATM    6  H   UNL     1     -42.540 -49.293  12.150  1.00  0.00     0.164 HD
ENDROOT
BRANCH   1   7
HETATM    7  C   UNL     1     -45.037 -51.802  13.495  1.00  0.00     0.109 A 
HETATM    8  C   UNL     1     -46.024 -51.223  14.282  1.00  0.00     0.049 A 
HETATM    9  C   UNL     1     -46.933 -52.053  14.938  1.00  0.00     0.006 A 
HETATM   10  C   UNL     1     -46.829 -53.432  14.795  1.00  0.00     0.025 A 
HETATM   11  C   UNL     1     -45.808 -53.937  14.004  1.00  0.00     0.007 A 
HETATM   12  C   UNL     1     -45.602 -55.409  13.821  1.00  0.00     0.068 C 
HETATM   13  N   UNL     1     -44.921 -53.135  13.378  1.00  0.00    -0.346 N 
ATOM     14  HN  UNL     1     -44.168 -53.539  12.821  1.00  0.00     0.167 HD
ENDBRANCH   1   7
BRANCH   4  15
HETATM   15  C   UNL     1     -40.728 -50.300  11.817  1.00  0.00     0.143 C 
BRANCH  15  16
HETATM   16  C   UNL     1     -40.049 -48.949  11.517  1.00  0.00     0.136 C 
BRANCH  16  17
HETATM   17  N   UNL     1     -40.794 -47.732  11.861  1.00  0.00    -0.411 N 
HETATM   18  C   UNL     1     -40.971 -46.785  10.758  1.00  0.00     0.117 C 
HETATM   19  C   UNL     1     -39.917 -45.675  10.683  1.00  0.00     0.019 C 
HETATM   20  C   UNL     1     -39.752 -44.980  12.026  1.00  0.00     0.003 C 
HETATM   21  C   UNL     1     -39.440 -46.005  13.109  1.00  0.00     0.019 C 
HETATM   22  C   UNL     1     -40.486 -47.119  13.147  1.00  0.00     0.117 C 
ENDBRANCH  16  17
ENDBRANCH  15  16
ENDBRANCH   4  15
TORSDOF 4
ENDMDL
