MODEL 1
REMARK VINA RESULT:      -7.7      0.000      0.000
REMARK  5 active torsions:
REMARK  status: ('A' for Active; 'I' for Inactive)
REMARK    1  A    between atoms: N_1  and  C_13 
REMARK    2  A    between atoms: N_2  and  C_15 
REMARK    3  A    between atoms: C_9  and  C_16 
REMARK    4  A    between atoms: C_10  and  C_13 
REMARK    5  A    between atoms: C_22  and  O_23 
ROOT
HETATM    1  N   UNL     1     -40.754 -52.476  14.061  1.00  0.00    -0.321 N 
ATOM      2  HN  UNL     1     -41.302 -51.647  14.293  1.00  0.00     0.169 HD
HETATM    3  C   UNL     1     -41.205 -53.725  13.689  1.00  0.00     0.138 A 
HETATM    4  C   UNL     1     -39.448 -52.613  14.041  1.00  0.00     0.167 A 
HETATM    5  N   UNL     1     -40.215 -54.587  13.397  1.00  0.00    -0.242 N 
ATOM      6  HN  UNL     1     -40.295 -55.552  13.076  1.00  0.00     0.196 HD
HETATM    7  O   UNL     1     -39.050 -53.853  13.635  1.00  0.00    -0.221 OA
ENDROOT
BRANCH   4   8
HETATM    8  C   UNL     1     -38.381 -51.633  14.400  1.00  0.00     0.224 C 
BRANCH   8   9
HETATM    9  N   UNL     1     -38.283 -50.594  13.379  1.00  0.00    -0.256 N 
HETATM   10  C   UNL     1     -38.972 -49.401  13.584  1.00  0.00     0.334 C 
HETATM   11  N   UNL     1     -38.989 -48.513  12.510  1.00  0.00    -0.279 N 
HETATM   12  O   UNL     1     -39.530 -49.142  14.651  1.00  0.00    -0.246 OA
HETATM   13  C   UNL     1     -38.220 -48.716  11.384  1.00  0.00     0.146 C 
HETATM   14  C   UNL     1     -37.459 -49.799  11.247  1.00  0.00     0.200 C 
HETATM   15  C   UNL     1     -37.441 -50.833  12.301  1.00  0.00     0.292 C 
HETATM   16  F   UNL     1     -36.705 -50.010  10.152  1.00  0.00    -0.199 F 
HETATM   17  O   UNL     1     -36.704 -51.807  12.199  1.00  0.00    -0.264 OA
BRANCH  11  18
HETATM   18  C   UNL     1     -39.897 -47.376  12.605  1.00  0.00     0.232 C 
HETATM   19  O   UNL     1     -40.453 -47.051  11.319  1.00  0.00    -0.366 OA
HETATM   20  C   UNL     1     -40.752 -45.644  11.315  1.00  0.00     0.170 C 
HETATM   21  C   UNL     1     -40.347 -45.094  12.668  1.00  0.00     0.031 C 
HETATM   22  C   UNL     1     -39.287 -46.079  13.111  1.00  0.00     0.056 C 
ENDBRANCH  11  18
ENDBRANCH   8   9
ENDBRANCH   4   8
BRANCH   3  23
HETATM   23  C   UNL     1     -42.626 -54.070  13.713  1.00  0.00     0.012 A 
HETATM   24  C   UNL     1     -43.518 -53.434  12.829  1.00  0.00     0.052 A 
HETATM   25  C   UNL     1     -44.894 -53.667  12.911  1.00  0.00     0.069 A 
HETATM   26  C   UNL     1     -45.380 -54.559  13.868  1.00  0.00     0.037 A 
HETATM   27  C   UNL     1     -44.508 -55.221  14.732  1.00  0.00     0.004 A 
HETATM   28  C   UNL     1     -43.135 -54.979  14.652  1.00  0.00     0.015 A 
BRANCH  25  29
HETATM   29  O   UNL     1     -45.859 -53.083  12.137  1.00  0.00    -0.356 OA
HETATM   30  C   UNL     1     -46.454 -51.891  12.636  1.00  0.00     0.210 C 
ENDBRANCH  25  29
ENDBRANCH   3  23
TORSDOF 5
ENDMDL
MODEL 2
REMARK VINA RESULT:      -7.5      3.410      7.237
REMARK  5 active torsions:
REMARK  status: ('A' for Active; 'I' for Inactive)
REMARK    1  A    between atoms: N_1  and  C_13 
REMARK    2  A    between atoms: N_2  and  C_15 
REMARK    3  A    between atoms: C_9  and  C_16 
REMARK    4  A    between atoms: C_10  and  C_13 
REMARK    5  A    between atoms: C_22  and  O_23 
ROOT
HETATM    1  N   UNL     1     -42.406 -48.469  12.218  1.00  0.00    -0.321 N 
ATOM      2  HN  UNL     1     -43.069 -48.133  12.916  1.00  0.00     0.169 HD
HETATM    3  C   UNL     1     -42.323 -48.134  10.882  1.00  0.00     0.138 A 
HETATM    4  C   UNL     1     -41.422 -49.327  12.370  1.00  0.00     0.167 A 
HETATM    5  N   UNL     1     -41.294 -48.719  10.245  1.00  0.00    -0.242 N 
ATOM      6  HN  UNL     1     -41.012 -48.609   9.271  1.00  0.00     0.196 HD
HETATM    7  O   UNL     1     -40.699 -49.514  11.228  1.00  0.00    -0.221 OA
ENDROOT
BRANCH   4   8
HETATM    8  C   UNL     1     -41.012 -50.102  13.578  1.00  0.00     0.224 C 
BRANCH   8   9
HETATM    9  N   UNL     1     -41.503 -51.474  13.490  1.00  0.00    -0.256 N 
HETATM   10  C   UNL     1     -42.871 -51.695  13.633  1.00  0.00     0.334 C 
HETATM   11  N   UNL     1     -43.268 -53.029  13.715  1.00  0.00    -0.279 N 
HETATM   12  O   UNL     1     -43.682 -50.770  13.679  1.00  0.00    -0.246 OA
HETATM   13  C   UNL     1     -42.391 -54.066  13.484  1.00  0.00     0.146 C 
HETATM   14  C   UNL     1     -41.105 -53.845  13.219  1.00  0.00     0.200 C 
HETATM   15  C   UNL     1     -40.579 -52.466  13.191  1.00  0.00     0.292 C 
HETATM   16  F   UNL     1     -40.239 -54.850  12.993  1.00  0.00    -0.199 F 
HETATM   17  O   UNL     1     -39.407 -52.258  12.900  1.00  0.00    -0.264 OA
BRANCH  11  18
HETATM   18  C   UNL     1     -44.649 -53.284  14.105  1.00  0.00     0.232 C 
HETATM   19  O   UNL     1     -44.805 -53.201  15.533  1.00  0.00    -0.366 OA
HETATM   20  C   UNL     1     -45.894 -54.062  15.905  1.00  0.00     0.170 C 
HETATM   21  C   UNL     1     -46.415 -54.704  14.634  1.00  0.00     0.031 C 
HETATM   22  C   UNL     1     -45.206 -54.647  13.726  1.00  0.00     0.056 C 
ENDBRANCH  11  18
ENDBRANCH   8   9
ENDBRANCH   4   8
BRANCH   3  23
HETATM   23  C   UNL     1     -43.331 -47.295  10.235  1.00  0.00     0.012 A 
HETATM   24  C   UNL     1     -44.571 -47.848   9.863  1.00  0.00     0.052 A 
HETATM   25  C   UNL     1     -45.504 -47.094   9.145  1.00  0.00     0.069 A 
HETATM   26  C   UNL     1     -45.205 -45.770   8.816  1.00  0.00     0.037 A 
HETATM   27  C   UNL     1     -43.994 -45.197   9.203  1.00  0.00     0.004 A 
HETATM   28  C   UNL     1     -43.061 -45.956   9.912  1.00  0.00     0.015 A 
BRANCH  25  29
HETATM   29  O   UNL     1     -46.720 -47.530   8.696  1.00  0.00    -0.356 OA
HETATM   30  C   UNL     1     -46.799 -48.878   8.249  1.00  0.00     0.210 C 
ENDBRANCH  25  29
ENDBRANCH   3  23
TORSDOF 5
ENDMDL
MODEL 3
REMARK VINA RESULT:      -7.3      3.042      7.527
REMARK  5 active torsions:
REMARK  status: ('A' for Active; 'I' for Inactive)
REMARK    1  A    between atoms: N_1  and  C_13 
REMARK    2  A    between atoms: N_2  and  C_15 
REMARK    3  A    between atoms: C_9  and  C_16 
REMARK    4  A    between atoms: C_10  and  C_13 
REMARK    5  A    between atoms: C_22  and  O_23 
ROOT
HETATM    1  N   UNL     1     -42.053 -48.387  12.176  1.00  0.00    -0.321 N 
ATOM      2  HN  UNL     1     -42.632 -47.903  12.863  1.00  0.00     0.169 HD
HETATM    3  C   UNL     1     -41.961 -48.158  10.819  1.00  0.00     0.138 A 
HETATM    4  C   UNL     1     -41.213 -49.378  12.368  1.00  0.00     0.167 A 
HETATM    5  N   UNL     1     -41.058 -48.941  10.203  1.00  0.00    -0.242 N 
ATOM      6  HN  UNL     1     -40.795 -48.943   9.218  1.00  0.00     0.196 HD
HETATM    7  O   UNL     1     -40.565 -49.754  11.227  1.00  0.00    -0.221 OA
ENDROOT
BRANCH   4   8
HETATM    8  C   UNL     1     -40.891 -50.127  13.618  1.00  0.00     0.224 C 
BRANCH   8   9
HETATM    9  N   UNL     1     -41.376 -51.500  13.526  1.00  0.00    -0.256 N 
HETATM   10  C   UNL     1     -42.749 -51.722  13.617  1.00  0.00     0.334 C 
HETATM   11  N   UNL     1     -43.147 -53.056  13.697  1.00  0.00    -0.279 N 
HETATM   12  O   UNL     1     -43.562 -50.798  13.623  1.00  0.00    -0.246 OA
HETATM   13  C   UNL     1     -42.261 -54.094  13.511  1.00  0.00     0.146 C 
HETATM   14  C   UNL     1     -40.966 -53.873  13.293  1.00  0.00     0.200 C 
HETATM   15  C   UNL     1     -40.441 -52.494  13.272  1.00  0.00     0.292 C 
HETATM   16  F   UNL     1     -40.091 -54.879  13.111  1.00  0.00    -0.199 F 
HETATM   17  O   UNL     1     -39.258 -52.287  13.024  1.00  0.00    -0.264 OA
BRANCH  11  18
HETATM   18  C   UNL     1     -44.542 -53.309  14.037  1.00  0.00     0.232 C 
HETATM   19  O   UNL     1     -44.759 -53.185  15.454  1.00  0.00    -0.366 OA
HETATM   20  C   UNL     1     -45.858 -54.043  15.805  1.00  0.00     0.170 C 
HETATM   21  C   UNL     1     -46.321 -54.725  14.532  1.00  0.00     0.031 C 
HETATM   22  C   UNL     1     -45.075 -54.686  13.675  1.00  0.00     0.056 C 
ENDBRANCH  11  18
ENDBRANCH   8   9
ENDBRANCH   4   8
BRANCH   3  23
HETATM   23  C   UNL     1     -42.845 -47.214  10.135  1.00  0.00     0.012 A 
HETATM   24  C   UNL     1     -42.652 -45.829  10.296  1.00  0.00     0.052 A 
HETATM   25  C   UNL     1     -43.550 -44.912   9.743  1.00  0.00     0.069 A 
HETATM   26  C   UNL     1     -44.638 -45.382   9.004  1.00  0.00     0.037 A 
HETATM   27  C   UNL     1     -44.828 -46.750   8.809  1.00  0.00     0.004 A 
HETATM   28  C   UNL     1     -43.932 -47.662   9.370  1.00  0.00     0.015 A 
BRANCH  25  29
HETATM   29  O   UNL     1     -43.491 -43.551   9.863  1.00  0.00    -0.356 OA
HETATM   30  C   UNL     1     -42.898 -43.031  11.047  1.00  0.00     0.210 C 
ENDBRANCH  25  29
ENDBRANCH   3  23
TORSDOF 5
ENDMDL
MODEL 4
REMARK VINA RESULT:      -7.2      2.455      3.405
REMARK  5 active torsions:
REMARK  status: ('A' for Active; 'I' for Inactive)
REMARK    1  A    between atoms: N_1  and  C_13 
REMARK    2  A    between atoms: N_2  and  C_15 
REMARK    3  A    between atoms: C_9  and  C_16 
REMARK    4  A    between atoms: C_10  and  C_13 
REMARK    5  A    between atoms: C_22  and  O_23 
ROOT
HETATM    1  N   UNL     1     -40.790 -51.405  12.303  1.00  0.00    -0.321 N 
ATOM      2  HN  UNL     1     -41.557 -51.026  11.748  1.00  0.00     0.169 HD
HETATM    3  C   UNL     1     -40.780 -52.539  13.090  1.00  0.00     0.138 A 
HETATM    4  C   UNL     1     -39.572 -50.935  12.444  1.00  0.00     0.167 A 
HETATM    5  N   UNL     1     -39.585 -52.791  13.652  1.00  0.00    -0.242 N 
ATOM      6  HN  UNL     1     -39.323 -53.576  14.248  1.00  0.00     0.196 HD
HETATM    7  O   UNL     1     -38.785 -51.726  13.230  1.00  0.00    -0.221 OA
ENDROOT
BRANCH   4   8
HETATM    8  C   UNL     1     -38.959 -49.693  11.889  1.00  0.00     0.224 C 
BRANCH   8   9
HETATM    9  N   UNL     1     -39.894 -48.576  11.993  1.00  0.00    -0.256 N 
HETATM   10  C   UNL     1     -40.910 -48.477  11.045  1.00  0.00     0.334 C 
HETATM   11  N   UNL     1     -41.667 -47.307  11.082  1.00  0.00    -0.279 N 
HETATM   12  O   UNL     1     -41.130 -49.369  10.226  1.00  0.00    -0.246 OA
HETATM   13  C   UNL     1     -41.544 -46.391  12.104  1.00  0.00     0.146 C 
HETATM   14  C   UNL     1     -40.657 -46.556  13.083  1.00  0.00     0.200 C 
HETATM   15  C   UNL     1     -39.758 -47.726  13.081  1.00  0.00     0.292 C 
HETATM   16  F   UNL     1     -40.526 -45.667  14.086  1.00  0.00    -0.199 F 
HETATM   17  O   UNL     1     -38.974 -47.905  14.007  1.00  0.00    -0.264 OA
BRANCH  11  18
HETATM   18  C   UNL     1     -42.568 -47.067   9.961  1.00  0.00     0.232 C 
HETATM   19  O   UNL     1     -42.587 -45.672   9.605  1.00  0.00    -0.366 OA
HETATM   20  C   UNL     1     -43.875 -45.386   9.033  1.00  0.00     0.170 C 
HETATM   21  C   UNL     1     -44.674 -46.673   9.054  1.00  0.00     0.031 C 
HETATM   22  C   UNL     1     -44.025 -47.437  10.188  1.00  0.00     0.056 C 
ENDBRANCH  11  18
ENDBRANCH   8   9
ENDBRANCH   4   8
BRANCH   3  23
HETATM   23  C   UNL     1     -41.995 -53.313  13.340  1.00  0.00     0.012 A 
HETATM   24  C   UNL     1     -43.170 -53.031  12.617  1.00  0.00     0.052 A 
HETATM   25  C   UNL     1     -44.369 -53.682  12.917  1.00  0.00     0.069 A 
HETATM   26  C   UNL     1     -44.391 -54.639  13.934  1.00  0.00     0.037 A 
HETATM   27  C   UNL     1     -43.231 -54.953  14.640  1.00  0.00     0.004 A 
HETATM   28  C   UNL     1     -42.036 -54.294  14.342  1.00  0.00     0.015 A 
BRANCH  25  29
HETATM   29  O   UNL     1     -45.578 -53.467  12.314  1.00  0.00    -0.356 OA
HETATM   30  C   UNL     1     -46.233 -52.236  12.599  1.00  0.00     0.210 C 
ENDBRANCH  25  29
ENDBRANCH   3  23
TORSDOF 5
ENDMDL
MODEL 5
REMARK VINA RESULT:      -7.1      3.087      6.698
REMARK  5 active torsions:
REMARK  status: ('A' for Active; 'I' for Inactive)
REMARK    1  A    between atoms: N_1  and  C_13 
REMARK    2  A    between atoms: N_2  and  C_15 
REMARK    3  A    between atoms: C_9  and  C_16 
REMARK    4  A    between atoms: C_10  and  C_13 
REMARK    5  A    between atoms: C_22  and  O_23 
ROOT
HETATM    1  N   UNL     1     -41.216 -49.089  10.789  1.00  0.00    -0.321 N 
ATOM      2  HN  UNL     1     -41.713 -49.817  10.275  1.00  0.00     0.169 HD
HETATM    3  C   UNL     1     -41.588 -47.777  10.994  1.00  0.00     0.138 A 
HETATM    4  C   UNL     1     -40.066 -49.174  11.419  1.00  0.00     0.167 A 
HETATM    5  N   UNL     1     -40.728 -47.091  11.768  1.00  0.00    -0.242 N 
ATOM      6  HN  UNL     1     -40.798 -46.122  12.079  1.00  0.00     0.196 HD
HETATM    7  O   UNL     1     -39.717 -48.013  12.046  1.00  0.00    -0.221 OA
ENDROOT
BRANCH   4   8
HETATM    8  C   UNL     1     -39.121 -50.324  11.529  1.00  0.00     0.224 C 
BRANCH   8   9
HETATM    9  N   UNL     1     -39.457 -51.147  12.688  1.00  0.00    -0.256 N 
HETATM   10  C   UNL     1     -40.515 -52.045  12.575  1.00  0.00     0.334 C 
HETATM   11  N   UNL     1     -40.906 -52.680  13.753  1.00  0.00    -0.279 N 
HETATM   12  O   UNL     1     -41.070 -52.271  11.499  1.00  0.00    -0.246 OA
HETATM   13  C   UNL     1     -40.177 -52.568  14.917  1.00  0.00     0.146 C 
HETATM   14  C   UNL     1     -39.088 -51.808  14.986  1.00  0.00     0.200 C 
HETATM   15  C   UNL     1     -38.644 -51.036  13.808  1.00  0.00     0.292 C 
HETATM   16  F   UNL     1     -38.368 -51.690  16.118  1.00  0.00    -0.199 F 
HETATM   17  O   UNL     1     -37.614 -50.373  13.855  1.00  0.00    -0.264 OA
BRANCH  11  18
HETATM   18  C   UNL     1     -42.154 -53.432  13.716  1.00  0.00     0.232 C 
HETATM   19  O   UNL     1     -43.274 -52.590  14.044  1.00  0.00    -0.366 OA
HETATM   20  C   UNL     1     -44.288 -53.422  14.633  1.00  0.00     0.170 C 
HETATM   21  C   UNL     1     -43.746 -54.837  14.668  1.00  0.00     0.031 C 
HETATM   22  C   UNL     1     -42.250 -54.608  14.674  1.00  0.00     0.056 C 
ENDBRANCH  11  18
ENDBRANCH   8   9
ENDBRANCH   4   8
BRANCH   3  23
HETATM   23  C   UNL     1     -42.760 -47.198  10.339  1.00  0.00     0.012 A 
HETATM   24  C   UNL     1     -43.961 -47.930  10.275  1.00  0.00     0.052 A 
HETATM   25  C   UNL     1     -45.058 -47.442   9.558  1.00  0.00     0.069 A 
HETATM   26  C   UNL     1     -44.962 -46.204   8.920  1.00  0.00     0.037 A 
HETATM   27  C   UNL     1     -43.790 -45.452   8.999  1.00  0.00     0.004 A 
HETATM   28  C   UNL     1     -42.694 -45.946   9.709  1.00  0.00     0.015 A 
BRANCH  25  29
HETATM   29  O   UNL     1     -46.259 -48.075   9.391  1.00  0.00    -0.356 OA
HETATM   30  C   UNL     1     -46.472 -48.743   8.153  1.00  0.00     0.210 C 
ENDBRANCH  25  29
ENDBRANCH   3  23
TORSDOF 5
ENDMDL
MODEL 6
REMARK VINA RESULT:      -7.0      1.763      2.329
REMARK  5 active torsions:
REMARK  status: ('A' for Active; 'I' for Inactive)
REMARK    1  A    between atoms: N_1  and  C_13 
REMARK    2  A    between atoms: N_2  and  C_15 
REMARK    3  A    between atoms: C_9  and  C_16 
REMARK    4  A    between atoms: C_10  and  C_13 
REMARK    5  A    between atoms: C_22  and  O_23 
ROOT
HETATM    1  N   UNL     1     -40.650 -51.813  12.303  1.00  0.00    -0.321 N 
ATOM      2  HN  UNL     1     -41.280 -51.386  11.623  1.00  0.00     0.169 HD
HETATM    3  C   UNL     1     -40.901 -52.859  13.166  1.00  0.00     0.138 A 
HETATM    4  C   UNL     1     -39.402 -51.501  12.568  1.00  0.00     0.167 A 
HETATM    5  N   UNL     1     -39.832 -53.217  13.899  1.00  0.00    -0.242 N 
ATOM      6  HN  UNL     1     -39.762 -53.971  14.582  1.00  0.00     0.196 HD
HETATM    7  O   UNL     1     -38.840 -52.315  13.508  1.00  0.00    -0.221 OA
ENDROOT
BRANCH   4   8
HETATM    8  C   UNL     1     -38.551 -50.411  12.007  1.00  0.00     0.224 C 
BRANCH   8   9
HETATM    9  N   UNL     1     -38.877 -49.136  12.641  1.00  0.00    -0.256 N 
HETATM   10  C   UNL     1     -39.903 -48.370  12.092  1.00  0.00     0.334 C 
HETATM   11  N   UNL     1     -40.061 -47.091  12.623  1.00  0.00    -0.279 N 
HETATM   12  O   UNL     1     -40.630 -48.797  11.195  1.00  0.00    -0.246 OA
HETATM   13  C   UNL     1     -39.373 -46.677  13.742  1.00  0.00     0.146 C 
HETATM   14  C   UNL     1     -38.484 -47.463  14.344  1.00  0.00     0.200 C 
HETATM   15  C   UNL     1     -38.194 -48.806  13.803  1.00  0.00     0.292 C 
HETATM   16  F   UNL     1     -37.804 -47.069  15.437  1.00  0.00    -0.199 F 
HETATM   17  O   UNL     1     -37.411 -49.550  14.383  1.00  0.00    -0.264 OA
BRANCH  11  18
HETATM   18  C   UNL     1     -40.955 -46.186  11.911  1.00  0.00     0.232 C 
HETATM   19  O   UNL     1     -40.216 -45.139  11.257  1.00  0.00    -0.366 OA
HETATM   20  C   UNL     1     -41.072 -43.987  11.171  1.00  0.00     0.170 C 
HETATM   21  C   UNL     1     -42.393 -44.359  11.815  1.00  0.00     0.031 C 
HETATM   22  C   UNL     1     -41.988 -45.466  12.763  1.00  0.00     0.056 C 
ENDBRANCH  11  18
ENDBRANCH   8   9
ENDBRANCH   4   8
BRANCH   3  23
HETATM   23  C   UNL     1     -42.238 -53.434  13.311  1.00  0.00     0.012 A 
HETATM   24  C   UNL     1     -43.305 -52.934  12.540  1.00  0.00     0.052 A 
HETATM   25  C   UNL     1     -44.609 -53.393  12.742  1.00  0.00     0.069 A 
HETATM   26  C   UNL     1     -44.847 -54.375  13.706  1.00  0.00     0.037 A 
HETATM   27  C   UNL     1     -43.798 -54.903  14.457  1.00  0.00     0.004 A 
HETATM   28  C   UNL     1     -42.497 -54.436  14.258  1.00  0.00     0.015 A 
BRANCH  25  29
HETATM   29  O   UNL     1     -45.728 -52.959  12.085  1.00  0.00    -0.356 OA
HETATM   30  C   UNL     1     -46.401 -51.831  12.631  1.00  0.00     0.210 C 
ENDBRANCH  25  29
ENDBRANCH   3  23
TORSDOF 5
ENDMDL
MODEL 7
REMARK VINA RESULT:      -6.9      2.874      7.181
REMARK  5 active torsions:
REMARK  status: ('A' for Active; 'I' for Inactive)
REMARK    1  A    between atoms: N_1  and  C_13 
REMARK    2  A    between atoms: N_2  and  C_15 
REMARK    3  A    between atoms: C_9  and  C_16 
REMARK    4  A    between atoms: C_10  and  C_13 
REMARK    5  A    between atoms: C_22  and  O_23 
ROOT
HETATM    1  N   UNL     1     -41.338 -50.893  11.707  1.00  0.00    -0.321 N 
ATOM      2  HN  UNL     1     -42.314 -50.869  11.411  1.00  0.00     0.169 HD
HETATM    3  C   UNL     1     -40.450 -49.844  11.820  1.00  0.00     0.138 A 
HETATM    4  C   UNL     1     -40.621 -51.931  12.075  1.00  0.00     0.167 A 
HETATM    5  N   UNL     1     -39.246 -50.210  12.292  1.00  0.00    -0.242 N 
ATOM      6  HN  UNL     1     -38.439 -49.616  12.485  1.00  0.00     0.196 HD
HETATM    7  O   UNL     1     -39.355 -51.592  12.457  1.00  0.00    -0.221 OA
ENDROOT
BRANCH   4   8
HETATM    8  C   UNL     1     -40.988 -53.376  12.120  1.00  0.00     0.224 C 
BRANCH   8   9
HETATM    9  N   UNL     1     -41.806 -53.655  13.297  1.00  0.00    -0.256 N 
HETATM   10  C   UNL     1     -43.178 -53.421  13.217  1.00  0.00     0.334 C 
HETATM   11  N   UNL     1     -43.887 -53.536  14.412  1.00  0.00    -0.279 N 
HETATM   12  O   UNL     1     -43.732 -53.135  12.156  1.00  0.00    -0.246 OA
HETATM   13  C   UNL     1     -43.306 -54.029  15.560  1.00  0.00     0.146 C 
HETATM   14  C   UNL     1     -42.022 -54.375  15.597  1.00  0.00     0.200 C 
HETATM   15  C   UNL     1     -41.174 -54.212  14.400  1.00  0.00     0.292 C 
HETATM   16  F   UNL     1     -41.443 -54.857  16.713  1.00  0.00    -0.199 F 
HETATM   17  O   UNL     1     -40.003 -54.575  14.417  1.00  0.00    -0.264 OA
BRANCH  11  18
HETATM   18  C   UNL     1     -45.266 -53.063  14.409  1.00  0.00     0.232 C 
HETATM   19  O   UNL     1     -45.319 -51.626  14.433  1.00  0.00    -0.366 OA
HETATM   20  C   UNL     1     -46.545 -51.244  15.080  1.00  0.00     0.170 C 
HETATM   21  C   UNL     1     -47.263 -52.520  15.473  1.00  0.00     0.031 C 
HETATM   22  C   UNL     1     -46.124 -53.509  15.583  1.00  0.00     0.056 C 
ENDBRANCH  11  18
ENDBRANCH   8   9
ENDBRANCH   4   8
BRANCH   3  23
HETATM   23  C   UNL     1     -40.791 -48.495  11.370  1.00  0.00     0.012 A 
HETATM   24  C   UNL     1     -41.982 -48.274  10.652  1.00  0.00     0.052 A 
HETATM   25  C   UNL     1     -42.272 -47.015  10.118  1.00  0.00     0.069 A 
HETATM   26  C   UNL     1     -41.377 -45.963  10.322  1.00  0.00     0.037 A 
HETATM   27  C   UNL     1     -40.208 -46.157  11.056  1.00  0.00     0.004 A 
HETATM   28  C   UNL     1     -39.917 -47.418  11.581  1.00  0.00     0.015 A 
BRANCH  25  29
HETATM   29  O   UNL     1     -43.372 -46.688   9.373  1.00  0.00    -0.356 OA
HETATM   30  C   UNL     1     -43.625 -47.473   8.214  1.00  0.00     0.210 C 
ENDBRANCH  25  29
ENDBRANCH   3  23
TORSDOF 5
ENDMDL
MODEL 8
REMARK VINA RESULT:      -6.8      2.544      4.097
REMARK  5 active torsions:
REMARK  status: ('A' for Active; 'I' for Inactive)
REMARK    1  A    between atoms: N_1  and  C_13 
REMARK    2  A    between atoms: N_2  and  C_15 
REMARK    3  A    between atoms: C_9  and  C_16 
REMARK    4  A    between atoms: C_10  and  C_13 
REMARK    5  A    between atoms: C_22  and  O_23 
ROOT
HETATM    1  N   UNL     1     -42.376 -51.563  12.153  1.00  0.00    -0.321 N 
ATOM      2  HN  UNL     1     -42.960 -50.729  12.083  1.00  0.00     0.169 HD
HETATM    3  C   UNL     1     -42.735 -52.828  12.568  1.00  0.00     0.138 A 
HETATM    4  C   UNL     1     -41.100 -51.694  11.869  1.00  0.00     0.167 A 
HETATM    5  N   UNL     1     -41.734 -53.722  12.491  1.00  0.00    -0.242 N 
ATOM      6  HN  UNL     1     -41.760 -54.717  12.715  1.00  0.00     0.196 HD
HETATM    7  O   UNL     1     -40.648 -52.971  12.033  1.00  0.00    -0.221 OA
ENDROOT
BRANCH   4   8
HETATM    8  C   UNL     1     -40.114 -50.669  11.417  1.00  0.00     0.224 C 
BRANCH   8   9
HETATM    9  N   UNL     1     -39.645 -49.881  12.553  1.00  0.00    -0.256 N 
HETATM   10  C   UNL     1     -38.482 -50.288  13.203  1.00  0.00     0.334 C 
HETATM   11  N   UNL     1     -38.172 -49.610  14.380  1.00  0.00    -0.279 N 
HETATM   12  O   UNL     1     -37.768 -51.189  12.763  1.00  0.00    -0.246 OA
HETATM   13  C   UNL     1     -38.865 -48.487  14.779  1.00  0.00     0.146 C 
HETATM   14  C   UNL     1     -39.899 -48.024  14.082  1.00  0.00     0.200 C 
HETATM   15  C   UNL     1     -40.349 -48.726  12.864  1.00  0.00     0.292 C 
HETATM   16  F   UNL     1     -40.585 -46.929  14.462  1.00  0.00    -0.199 F 
HETATM   17  O   UNL     1     -41.270 -48.273  12.194  1.00  0.00    -0.264 OA
BRANCH  11  18
HETATM   18  C   UNL     1     -37.107 -50.169  15.204  1.00  0.00     0.232 C 
HETATM   19  O   UNL     1     -37.642 -51.039  16.218  1.00  0.00    -0.366 OA
HETATM   20  C   UNL     1     -36.739 -51.014  17.336  1.00  0.00     0.170 C 
HETATM   21  C   UNL     1     -35.605 -50.074  16.979  1.00  0.00     0.031 C 
HETATM   22  C   UNL     1     -36.252 -49.163  15.959  1.00  0.00     0.056 C 
ENDBRANCH  11  18
ENDBRANCH   8   9
ENDBRANCH   4   8
BRANCH   3  23
HETATM   23  C   UNL     1     -44.060 -53.111  13.120  1.00  0.00     0.012 A 
HETATM   24  C   UNL     1     -44.890 -52.051  13.531  1.00  0.00     0.052 A 
HETATM   25  C   UNL     1     -46.111 -52.302  14.163  1.00  0.00     0.069 A 
HETATM   26  C   UNL     1     -46.517 -53.623  14.366  1.00  0.00     0.037 A 
HETATM   27  C   UNL     1     -45.721 -54.685  13.938  1.00  0.00     0.004 A 
HETATM   28  C   UNL     1     -44.498 -54.430  13.314  1.00  0.00     0.015 A 
BRANCH  25  29
HETATM   29  O   UNL     1     -46.982 -51.361  14.639  1.00  0.00    -0.356 OA
HETATM   30  C   UNL     1     -47.242 -51.370  16.038  1.00  0.00     0.210 C 
ENDBRANCH  25  29
ENDBRANCH   3  23
TORSDOF 5
ENDMDL
MODEL 9
REMARK VINA RESULT:      -6.8      3.577      7.596
REMARK  5 active torsions:
REMARK  status: ('A' for Active; 'I' for Inactive)
REMARK    1  A    between atoms: N_1  and  C_13 
REMARK    2  A    between atoms: N_2  and  C_15 
REMARK    3  A    between atoms: C_9  and  C_16 
REMARK    4  A    between atoms: C_10  and  C_13 
REMARK    5  A    between atoms: C_22  and  O_23 
ROOT
HETATM    1  N   UNL     1     -41.136 -49.745  13.202  1.00  0.00    -0.321 N 
ATOM      2  HN  UNL     1     -41.243 -49.129  14.009  1.00  0.00     0.169 HD
HETATM    3  C   UNL     1     -40.940 -49.402  11.881  1.00  0.00     0.138 A 
HETATM    4  C   UNL     1     -41.150 -51.058  13.170  1.00  0.00     0.167 A 
HETATM    5  N   UNL     1     -40.784 -50.462  11.069  1.00  0.00    -0.242 N 
ATOM      6  HN  UNL     1     -40.602 -50.465  10.066  1.00  0.00     0.196 HD
HETATM    7  O   UNL     1     -40.927 -51.560  11.920  1.00  0.00    -0.221 OA
ENDROOT
BRANCH   4   8
HETATM    8  C   UNL     1     -41.377 -52.037  14.273  1.00  0.00     0.224 C 
BRANCH   8   9
HETATM    9  N   UNL     1     -42.782 -52.431  14.320  1.00  0.00    -0.256 N 
HETATM   10  C   UNL     1     -43.687 -51.573  14.940  1.00  0.00     0.334 C 
HETATM   11  N   UNL     1     -44.979 -52.068  15.112  1.00  0.00    -0.279 N 
HETATM   12  O   UNL     1     -43.369 -50.442  15.310  1.00  0.00    -0.246 OA
HETATM   13  C   UNL     1     -45.386 -53.254  14.541  1.00  0.00     0.146 C 
HETATM   14  C   UNL     1     -44.549 -54.011  13.837  1.00  0.00     0.200 C 
HETATM   15  C   UNL     1     -43.140 -53.604  13.670  1.00  0.00     0.292 C 
HETATM   16  F   UNL     1     -44.935 -55.173  13.276  1.00  0.00    -0.199 F 
HETATM   17  O   UNL     1     -42.380 -54.276  12.981  1.00  0.00    -0.264 OA
BRANCH  11  18
HETATM   18  C   UNL     1     -45.874 -51.297  15.967  1.00  0.00     0.232 C 
HETATM   19  O   UNL     1     -45.672 -51.626  17.353  1.00  0.00    -0.366 OA
HETATM   20  C   UNL     1     -46.916 -51.406  18.040  1.00  0.00     0.170 C 
HETATM   21  C   UNL     1     -47.920 -50.928  17.010  1.00  0.00     0.031 C 
HETATM   22  C   UNL     1     -47.361 -51.499  15.726  1.00  0.00     0.056 C 
ENDBRANCH  11  18
ENDBRANCH   8   9
ENDBRANCH   4   8
BRANCH   3  23
HETATM   23  C   UNL     1     -40.998 -48.012  11.429  1.00  0.00     0.012 A 
HETATM   24  C   UNL     1     -41.964 -47.621  10.482  1.00  0.00     0.052 A 
HETATM   25  C   UNL     1     -41.966 -46.326   9.956  1.00  0.00     0.069 A 
HETATM   26  C   UNL     1     -41.010 -45.408  10.395  1.00  0.00     0.037 A 
HETATM   27  C   UNL     1     -40.065 -45.769  11.355  1.00  0.00     0.004 A 
HETATM   28  C   UNL     1     -40.061 -47.066  11.872  1.00  0.00     0.015 A 
BRANCH  25  29
HETATM   29  O   UNL     1     -42.825 -45.842   9.007  1.00  0.00    -0.356 OA
HETATM   30  C   UNL     1     -44.161 -46.328   9.036  1.00  0.00     0.210 C 
ENDBRANCH  25  29
ENDBRANCH   3  23
TORSDOF 5
ENDMDL
