MODEL 1
REMARK VINA RESULT:      -5.4      0.000      0.000
REMARK  5 active torsions:
REMARK  status: ('A' for Active; 'I' for Inactive)
REMARK    1  A    between atoms: C_2  and  C_3 
REMARK    2  A    between atoms: C_2  and  N_10 
REMARK    3  A    between atoms: C_3  and  N_4 
REMARK    4  A    between atoms: N_10  and  C_11 
REMARK    5  A    between atoms: C_11  and  C_12 
ROOT
HETATM    1  C   UNL     1     -40.997 -54.080  13.013  1.00  0.00     0.044 C 
HETATM    2  C   UNL     1     -41.573 -52.698  12.671  1.00  0.00     0.236 C 
ENDROOT
BRANCH   2   3
HETATM    3  C   UNL     1     -40.538 -51.893  11.846  1.00  0.00     0.183 C 
BRANCH   3   4
HETATM    4  N   UNL     1     -40.892 -50.498  11.661  1.00  0.00    -0.302 N 
HETATM    5  C   UNL     1     -41.408 -49.652  12.601  1.00  0.00     0.111 A 
HETATM    6  C   UNL     1     -41.625 -48.458  11.959  1.00  0.00     0.037 A 
HETATM    7  C   UNL     1     -41.168 -48.669  10.647  1.00  0.00     0.108 A 
HETATM    8  N   UNL     1     -40.682 -49.899  10.472  1.00  0.00    -0.310 N 
ATOM      9  HN  UNL     1     -40.252 -50.293   9.635  1.00  0.00     0.186 HD
ENDBRANCH   3   4
ENDBRANCH   2   3
BRANCH   2  10
HETATM   10  N   UNL     1     -42.927 -52.823  12.094  1.00  0.00     0.091 N 
HETATM   11  H   UNL     1     -43.157 -53.811  11.945  1.00  0.00     0.316 HD
BRANCH  10  12
HETATM   12  C   UNL     1     -43.991 -52.244  12.924  1.00  0.00     0.301 C 
BRANCH  12  13
HETATM   13  C   UNL     1     -45.405 -52.724  12.515  1.00  0.00     0.149 C 
HETATM   14  C   UNL     1     -46.461 -51.660  12.839  1.00  0.00     0.034 C 
HETATM   15  C   UNL     1     -46.683 -51.528  14.343  1.00  0.00     0.004 C 
HETATM   16  C   UNL     1     -46.966 -52.893  14.958  1.00  0.00     0.026 C 
HETATM   17  C   UNL     1     -45.944 -53.935  14.525  1.00  0.00     0.168 C 
HETATM   18  O   UNL     1     -45.776 -53.977  13.110  1.00  0.00    -0.384 OA
ENDBRANCH  12  13
ENDBRANCH  10  12
ENDBRANCH   2  10
TORSDOF 5
ENDMDL
MODEL 2
REMARK VINA RESULT:      -5.3      2.203      3.061
REMARK  5 active torsions:
REMARK  status: ('A' for Active; 'I' for Inactive)
REMARK    1  A    between atoms: C_2  and  C_3 
REMARK    2  A    between atoms: C_2  and  N_10 
REMARK    3  A    between atoms: C_3  and  N_4 
REMARK    4  A    between atoms: N_10  and  C_11 
REMARK    5  A    between atoms: C_11  and  C_12 
ROOT
HETATM    1  C   UNL     1     -42.690 -48.682  13.920  1.00  0.00     0.044 C 
HETATM    2  C   UNL     1     -43.181 -49.134  12.536  1.00  0.00     0.236 C 
ENDROOT
BRANCH   2   3
HETATM    3  C   UNL     1     -42.303 -48.488  11.436  1.00  0.00     0.183 C 
BRANCH   3   4
HETATM    4  N   UNL     1     -43.056 -48.003  10.295  1.00  0.00    -0.302 N 
HETATM    5  C   UNL     1     -44.316 -47.476  10.308  1.00  0.00     0.111 A 
HETATM    6  C   UNL     1     -44.628 -47.203   8.999  1.00  0.00     0.037 A 
HETATM    7  C   UNL     1     -43.477 -47.559   8.275  1.00  0.00     0.108 A 
HETATM    8  N   UNL     1     -42.501 -48.008   9.066  1.00  0.00    -0.310 N 
ATOM      9  HN  UNL     1     -41.557 -48.290   8.803  1.00  0.00     0.186 HD
ENDBRANCH   3   4
ENDBRANCH   2   3
BRANCH   2  10
HETATM   10  N   UNL     1     -43.327 -50.604  12.488  1.00  0.00     0.091 N 
HETATM   11  H   UNL     1     -42.413 -51.053  12.605  1.00  0.00     0.316 HD
BRANCH  10  12
HETATM   12  C   UNL     1     -44.222 -51.154  13.515  1.00  0.00     0.301 C 
BRANCH  12  13
HETATM   13  C   UNL     1     -45.590 -51.602  12.948  1.00  0.00     0.149 C 
HETATM   14  C   UNL     1     -46.703 -51.419  13.987  1.00  0.00     0.034 C 
HETATM   15  C   UNL     1     -46.579 -52.425  15.128  1.00  0.00     0.004 C 
HETATM   16  C   UNL     1     -46.473 -53.840  14.574  1.00  0.00     0.026 C 
HETATM   17  C   UNL     1     -45.423 -53.945  13.477  1.00  0.00     0.168 C 
HETATM   18  O   UNL     1     -45.592 -52.955  12.466  1.00  0.00    -0.384 OA
ENDBRANCH  12  13
ENDBRANCH  10  12
ENDBRANCH   2  10
TORSDOF 5
ENDMDL
MODEL 3
REMARK VINA RESULT:      -5.2      1.657      2.020
REMARK  5 active torsions:
REMARK  status: ('A' for Active; 'I' for Inactive)
REMARK    1  A    between atoms: C_2  and  C_3 
REMARK    2  A    between atoms: C_2  and  N_10 
REMARK    3  A    between atoms: C_3  and  N_4 
REMARK    4  A    between atoms: N_10  and  C_11 
REMARK    5  A    between atoms: C_11  and  C_12 
ROOT
HETATM    1  C   UNL     1     -42.450 -50.541  13.105  1.00  0.00     0.044 C 
HETATM    2  C   UNL     1     -41.877 -51.598  12.149  1.00  0.00     0.236 C 
ENDROOT
BRANCH   2   3
HETATM    3  C   UNL     1     -40.522 -52.113  12.695  1.00  0.00     0.183 C 
BRANCH   3   4
HETATM    4  N   UNL     1     -39.434 -51.164  12.555  1.00  0.00    -0.302 N 
HETATM    5  C   UNL     1     -38.489 -50.856  13.492  1.00  0.00     0.111 A 
HETATM    6  C   UNL     1     -37.703 -49.879  12.932  1.00  0.00     0.037 A 
HETATM    7  C   UNL     1     -38.224 -49.696  11.640  1.00  0.00     0.108 A 
HETATM    8  N   UNL     1     -39.255 -50.507  11.391  1.00  0.00    -0.310 N 
ATOM      9  HN  UNL     1     -39.782 -50.606  10.524  1.00  0.00     0.186 HD
ENDBRANCH   3   4
ENDBRANCH   2   3
BRANCH   2  10
HETATM   10  N   UNL     1     -42.893 -52.621  11.829  1.00  0.00     0.091 N 
HETATM   11  H   UNL     1     -42.438 -53.480  11.501  1.00  0.00     0.316 HD
BRANCH  10  12
HETATM   12  C   UNL     1     -43.756 -52.986  12.960  1.00  0.00     0.301 C 
BRANCH  12  13
HETATM   13  C   UNL     1     -45.225 -53.241  12.543  1.00  0.00     0.149 C 
HETATM   14  C   UNL     1     -46.045 -51.946  12.604  1.00  0.00     0.034 C 
HETATM   15  C   UNL     1     -46.283 -51.498  14.043  1.00  0.00     0.004 C 
HETATM   16  C   UNL     1     -46.865 -52.642  14.863  1.00  0.00     0.026 C 
HETATM   17  C   UNL     1     -46.070 -53.928  14.690  1.00  0.00     0.168 C 
HETATM   18  O   UNL     1     -45.869 -54.262  13.319  1.00  0.00    -0.384 OA
ENDBRANCH  12  13
ENDBRANCH  10  12
ENDBRANCH   2  10
TORSDOF 5
ENDMDL
MODEL 4
REMARK VINA RESULT:      -5.0      2.018      3.108
REMARK  5 active torsions:
REMARK  status: ('A' for Active; 'I' for Inactive)
REMARK    1  A    between atoms: C_2  and  C_3 
REMARK    2  A    between atoms: C_2  and  N_10 
REMARK    3  A    between atoms: C_3  and  N_4 
REMARK    4  A    between atoms: N_10  and  C_11 
REMARK    5  A    between atoms: C_11  and  C_12 
ROOT
HETATM    1  C   UNL     1     -42.659 -51.428  13.919  1.00  0.00     0.044 C 
HETATM    2  C   UNL     1     -42.606 -51.828  12.437  1.00  0.00     0.236 C 
ENDROOT
BRANCH   2   3
HETATM    3  C   UNL     1     -41.135 -52.063  12.013  1.00  0.00     0.183 C 
BRANCH   3   4
HETATM    4  N   UNL     1     -40.366 -52.838  12.969  1.00  0.00    -0.302 N 
HETATM    5  C   UNL     1     -40.485 -54.174  13.226  1.00  0.00     0.111 A 
HETATM    6  C   UNL     1     -39.591 -54.449  14.232  1.00  0.00     0.037 A 
HETATM    7  C   UNL     1     -38.949 -53.224  14.483  1.00  0.00     0.108 A 
HETATM    8  N   UNL     1     -39.389 -52.248  13.687  1.00  0.00    -0.310 N 
ATOM      9  HN  UNL     1     -39.063 -51.283  13.634  1.00  0.00     0.186 HD
ENDBRANCH   3   4
ENDBRANCH   2   3
BRANCH   2  10
HETATM   10  N   UNL     1     -43.559 -52.921  12.155  1.00  0.00     0.091 N 
HETATM   11  H   UNL     1     -43.088 -53.677  11.645  1.00  0.00     0.316 HD
BRANCH  10  12
HETATM   12  C   UNL     1     -44.167 -53.514  13.354  1.00  0.00     0.301 C 
BRANCH  12  13
HETATM   13  C   UNL     1     -45.700 -53.687  13.231  1.00  0.00     0.149 C 
HETATM   14  C   UNL     1     -46.368 -52.378  12.793  1.00  0.00     0.034 C 
HETATM   15  C   UNL     1     -46.337 -51.331  13.902  1.00  0.00     0.004 C 
HETATM   16  C   UNL     1     -46.898 -51.913  15.193  1.00  0.00     0.026 C 
HETATM   17  C   UNL     1     -46.272 -53.259  15.530  1.00  0.00     0.168 C 
HETATM   18  O   UNL     1     -46.317 -54.169  14.435  1.00  0.00    -0.384 OA
ENDBRANCH  12  13
ENDBRANCH  10  12
ENDBRANCH   2  10
TORSDOF 5
ENDMDL
MODEL 5
REMARK VINA RESULT:      -4.9      2.919      5.895
REMARK  5 active torsions:
REMARK  status: ('A' for Active; 'I' for Inactive)
REMARK    1  A    between atoms: C_2  and  C_3 
REMARK    2  A    between atoms: C_2  and  N_10 
REMARK    3  A    between atoms: C_3  and  N_4 
REMARK    4  A    between atoms: N_10  and  C_11 
REMARK    5  A    between atoms: C_11  and  C_12 
ROOT
HETATM    1  C   UNL     1     -43.468 -54.831  15.321  1.00  0.00     0.044 C 
HETATM    2  C   UNL     1     -44.027 -54.946  13.895  1.00  0.00     0.236 C 
ENDROOT
BRANCH   2   3
HETATM    3  C   UNL     1     -45.566 -54.777  13.924  1.00  0.00     0.183 C 
BRANCH   3   4
HETATM    4  N   UNL     1     -46.007 -53.399  13.832  1.00  0.00    -0.302 N 
HETATM    5  C   UNL     1     -46.174 -52.520  14.865  1.00  0.00     0.111 A 
HETATM    6  C   UNL     1     -46.646 -51.359  14.304  1.00  0.00     0.037 A 
HETATM    7  C   UNL     1     -46.689 -51.620  12.924  1.00  0.00     0.108 A 
HETATM    8  N   UNL     1     -46.261 -52.848  12.628  1.00  0.00    -0.310 N 
ATOM      9  HN  UNL     1     -46.152 -53.272  11.706  1.00  0.00     0.186 HD
ENDBRANCH   3   4
ENDBRANCH   2   3
BRANCH   2  10
HETATM   10  N   UNL     1     -43.282 -54.068  12.969  1.00  0.00     0.091 N 
HETATM   11  H   UNL     1     -43.899 -53.332  12.609  1.00  0.00     0.316 HD
BRANCH  10  12
HETATM   12  C   UNL     1     -42.116 -53.408  13.571  1.00  0.00     0.301 C 
BRANCH  12  13
HETATM   13  C   UNL     1     -40.791 -53.742  12.844  1.00  0.00     0.149 C 
HETATM   14  C   UNL     1     -39.750 -54.295  13.825  1.00  0.00     0.034 C 
HETATM   15  C   UNL     1     -39.236 -53.212  14.770  1.00  0.00     0.004 C 
HETATM   16  C   UNL     1     -38.760 -52.002  13.976  1.00  0.00     0.026 C 
HETATM   17  C   UNL     1     -39.790 -51.554  12.949  1.00  0.00     0.168 C 
HETATM   18  O   UNL     1     -40.238 -52.628  12.126  1.00  0.00    -0.384 OA
ENDBRANCH  12  13
ENDBRANCH  10  12
ENDBRANCH   2  10
TORSDOF 5
ENDMDL
MODEL 6
REMARK VINA RESULT:      -4.9      3.332      4.868
REMARK  5 active torsions:
REMARK  status: ('A' for Active; 'I' for Inactive)
REMARK    1  A    between atoms: C_2  and  C_3 
REMARK    2  A    between atoms: C_2  and  N_10 
REMARK    3  A    between atoms: C_3  and  N_4 
REMARK    4  A    between atoms: N_10  and  C_11 
REMARK    5  A    between atoms: C_11  and  C_12 
ROOT
HETATM    1  C   UNL     1     -41.692 -49.053  13.607  1.00  0.00     0.044 C 
HETATM    2  C   UNL     1     -42.347 -49.273  12.236  1.00  0.00     0.236 C 
ENDROOT
BRANCH   2   3
HETATM    3  C   UNL     1     -41.518 -48.555  11.142  1.00  0.00     0.183 C 
BRANCH   3   4
HETATM    4  N   UNL     1     -42.313 -47.741  10.243  1.00  0.00    -0.302 N 
HETATM    5  C   UNL     1     -42.763 -46.470  10.468  1.00  0.00     0.111 A 
HETATM    6  C   UNL     1     -43.507 -46.129   9.366  1.00  0.00     0.037 A 
HETATM    7  C   UNL     1     -43.411 -47.241   8.511  1.00  0.00     0.108 A 
HETATM    8  N   UNL     1     -42.651 -48.210   9.025  1.00  0.00    -0.310 N 
ATOM      9  HN  UNL     1     -42.386 -49.097   8.596  1.00  0.00     0.186 HD
ENDBRANCH   3   4
ENDBRANCH   2   3
BRANCH   2  10
HETATM   10  N   UNL     1     -42.632 -50.706  12.016  1.00  0.00     0.091 N 
HETATM   11  H   UNL     1     -42.335 -50.984  11.074  1.00  0.00     0.316 HD
BRANCH  10  12
HETATM   12  C   UNL     1     -41.968 -51.605  12.969  1.00  0.00     0.301 C 
BRANCH  12  13
HETATM   13  C   UNL     1     -40.887 -52.494  12.308  1.00  0.00     0.149 C 
HETATM   14  C   UNL     1     -40.996 -53.945  12.794  1.00  0.00     0.034 C 
HETATM   15  C   UNL     1     -40.561 -54.086  14.249  1.00  0.00     0.004 C 
HETATM   16  C   UNL     1     -39.184 -53.465  14.451  1.00  0.00     0.026 C 
HETATM   17  C   UNL     1     -39.100 -52.063  13.863  1.00  0.00     0.168 C 
HETATM   18  O   UNL     1     -39.549 -52.013  12.512  1.00  0.00    -0.384 OA
ENDBRANCH  12  13
ENDBRANCH  10  12
ENDBRANCH   2  10
TORSDOF 5
ENDMDL
MODEL 7
REMARK VINA RESULT:      -4.9      3.250      4.573
REMARK  5 active torsions:
REMARK  status: ('A' for Active; 'I' for Inactive)
REMARK    1  A    between atoms: C_2  and  C_3 
REMARK    2  A    between atoms: C_2  and  N_10 
REMARK    3  A    between atoms: C_3  and  N_4 
REMARK    4  A    between atoms: N_10  and  C_11 
REMARK    5  A    between atoms: C_11  and  C_12 
ROOT
HETATM    1  C   UNL     1     -41.942 -49.486  13.890  1.00  0.00     0.044 C 
HETATM    2  C   UNL     1     -42.015 -49.374  12.360  1.00  0.00     0.236 C 
ENDROOT
BRANCH   2   3
HETATM    3  C   UNL     1     -40.904 -48.419  11.855  1.00  0.00     0.183 C 
BRANCH   3   4
HETATM    4  N   UNL     1     -39.565 -48.966  11.964  1.00  0.00    -0.302 N 
HETATM    5  C   UNL     1     -38.685 -48.781  12.992  1.00  0.00     0.111 A 
HETATM    6  C   UNL     1     -37.538 -49.447  12.635  1.00  0.00     0.037 A 
HETATM    7  C   UNL     1     -37.839 -50.040  11.397  1.00  0.00     0.108 A 
HETATM    8  N   UNL     1     -39.088 -49.784  11.004  1.00  0.00    -0.310 N 
ATOM      9  HN  UNL     1     -39.569 -50.125  10.172  1.00  0.00     0.186 HD
ENDBRANCH   3   4
ENDBRANCH   2   3
BRANCH   2  10
HETATM   10  N   UNL     1     -42.068 -50.713  11.739  1.00  0.00     0.091 N 
HETATM   11  H   UNL     1     -41.280 -50.835  11.095  1.00  0.00     0.316 HD
BRANCH  10  12
HETATM   12  C   UNL     1     -42.027 -51.824  12.699  1.00  0.00     0.301 C 
BRANCH  12  13
HETATM   13  C   UNL     1     -40.942 -52.875  12.360  1.00  0.00     0.149 C 
HETATM   14  C   UNL     1     -41.258 -54.223  13.021  1.00  0.00     0.034 C 
HETATM   15  C   UNL     1     -41.067 -54.166  14.533  1.00  0.00     0.004 C 
HETATM   16  C   UNL     1     -39.687 -53.616  14.872  1.00  0.00     0.026 C 
HETATM   17  C   UNL     1     -39.386 -52.331  14.114  1.00  0.00     0.168 C 
HETATM   18  O   UNL     1     -39.614 -52.459  12.714  1.00  0.00    -0.384 OA
ENDBRANCH  12  13
ENDBRANCH  10  12
ENDBRANCH   2  10
TORSDOF 5
ENDMDL
MODEL 8
REMARK VINA RESULT:      -4.8      4.810      6.686
REMARK  5 active torsions:
REMARK  status: ('A' for Active; 'I' for Inactive)
REMARK    1  A    between atoms: C_2  and  C_3 
REMARK    2  A    between atoms: C_2  and  N_10 
REMARK    3  A    between atoms: C_3  and  N_4 
REMARK    4  A    between atoms: N_10  and  C_11 
REMARK    5  A    between atoms: C_11  and  C_12 
ROOT
HETATM    1  C   UNL     1     -42.268 -48.164  12.275  1.00  0.00     0.044 C 
HETATM    2  C   UNL     1     -42.156 -48.403  10.761  1.00  0.00     0.236 C 
ENDROOT
BRANCH   2   3
HETATM    3  C   UNL     1     -42.387 -47.070  10.006  1.00  0.00     0.183 C 
BRANCH   3   4
HETATM    4  N   UNL     1     -41.515 -45.994  10.435  1.00  0.00    -0.302 N 
HETATM    5  C   UNL     1     -41.867 -44.897  11.170  1.00  0.00     0.111 A 
HETATM    6  C   UNL     1     -40.728 -44.138  11.289  1.00  0.00     0.037 A 
HETATM    7  C   UNL     1     -39.733 -44.881  10.632  1.00  0.00     0.108 A 
HETATM    8  N   UNL     1     -40.199 -46.033  10.145  1.00  0.00    -0.310 N 
ATOM      9  HN  UNL     1     -39.681 -46.769   9.666  1.00  0.00     0.186 HD
ENDBRANCH   3   4
ENDBRANCH   2   3
BRANCH   2  10
HETATM   10  N   UNL     1     -40.917 -49.140  10.438  1.00  0.00     0.091 N 
HETATM   11  H   UNL     1     -40.279 -48.540   9.903  1.00  0.00     0.316 HD
BRANCH  10  12
HETATM   12  C   UNL     1     -40.181 -49.625  11.613  1.00  0.00     0.301 C 
BRANCH  12  13
HETATM   13  C   UNL     1     -38.834 -48.894  11.827  1.00  0.00     0.149 C 
HETATM   14  C   UNL     1     -37.650 -49.832  11.557  1.00  0.00     0.034 C 
HETATM   15  C   UNL     1     -37.517 -50.896  12.642  1.00  0.00     0.004 C 
HETATM   16  C   UNL     1     -37.492 -50.245  14.020  1.00  0.00     0.026 C 
HETATM   17  C   UNL     1     -38.630 -49.251  14.199  1.00  0.00     0.168 C 
HETATM   18  O   UNL     1     -38.703 -48.310  13.132  1.00  0.00    -0.384 OA
ENDBRANCH  12  13
ENDBRANCH  10  12
ENDBRANCH   2  10
TORSDOF 5
ENDMDL
MODEL 9
REMARK VINA RESULT:      -4.6      3.060      6.459
REMARK  5 active torsions:
REMARK  status: ('A' for Active; 'I' for Inactive)
REMARK    1  A    between atoms: C_2  and  C_3 
REMARK    2  A    between atoms: C_2  and  N_10 
REMARK    3  A    between atoms: C_3  and  N_4 
REMARK    4  A    between atoms: N_10  and  C_11 
REMARK    5  A    between atoms: C_11  and  C_12 
ROOT
HETATM    1  C   UNL     1     -40.978 -51.949  14.230  1.00  0.00     0.044 C 
HETATM    2  C   UNL     1     -40.383 -52.706  13.034  1.00  0.00     0.236 C 
ENDROOT
BRANCH   2   3
HETATM    3  C   UNL     1     -41.012 -54.120  12.947  1.00  0.00     0.183 C 
BRANCH   3   4
HETATM    4  N   UNL     1     -42.439 -54.143  13.206  1.00  0.00    -0.302 N 
HETATM    5  C   UNL     1     -43.059 -54.592  14.337  1.00  0.00     0.111 A 
HETATM    6  C   UNL     1     -44.407 -54.463  14.108  1.00  0.00     0.037 A 
HETATM    7  C   UNL     1     -44.499 -53.888  12.829  1.00  0.00     0.108 A 
HETATM    8  N   UNL     1     -43.300 -53.653  12.292  1.00  0.00    -0.310 N 
ATOM      9  HN  UNL     1     -43.086 -53.208  11.400  1.00  0.00     0.186 HD
ENDBRANCH   3   4
ENDBRANCH   2   3
BRANCH   2  10
HETATM   10  N   UNL     1     -40.440 -51.880  11.810  1.00  0.00     0.091 N 
HETATM   11  H   UNL     1     -41.249 -52.151  11.240  1.00  0.00     0.316 HD
BRANCH  10  12
HETATM   12  C   UNL     1     -40.544 -50.437  12.063  1.00  0.00     0.301 C 
BRANCH  12  13
HETATM   13  C   UNL     1     -39.364 -49.633  11.466  1.00  0.00     0.149 C 
HETATM   14  C   UNL     1     -38.019 -50.249  11.870  1.00  0.00     0.034 C 
HETATM   15  C   UNL     1     -37.725 -50.035  13.352  1.00  0.00     0.004 C 
HETATM   16  C   UNL     1     -37.867 -48.561  13.711  1.00  0.00     0.026 C 
HETATM   17  C   UNL     1     -39.175 -47.975  13.201  1.00  0.00     0.168 C 
HETATM   18  O   UNL     1     -39.387 -48.241  11.817  1.00  0.00    -0.384 OA
ENDBRANCH  12  13
ENDBRANCH  10  12
ENDBRANCH   2  10
TORSDOF 5
ENDMDL
