MODEL 1
REMARK VINA RESULT:      -5.4      0.000      0.000
REMARK  3 active torsions:
REMARK  status: ('A' for Active; 'I' for Inactive)
REMARK    1  A    between atoms: O_1  and  C_2 
REMARK    2  A    between atoms: C_2  and  C_4 
REMARK    3  A    between atoms: C_9  and  N_11 
ROOT
HETATM    1  C   UNL     1     -40.679 -53.286  13.183  1.00  0.00     0.055 A 
HETATM    2  C   UNL     1     -41.131 -52.631  12.049  1.00  0.00     0.106 A 
HETATM    3  N   UNL     1     -42.437 -52.554  11.712  1.00  0.00    -0.372 N 
ATOM      4  HN  UNL     1     -42.746 -52.046  10.884  1.00  0.00     0.164 HD
HETATM    5  C   UNL     1     -43.314 -53.187  12.531  1.00  0.00     0.116 A 
HETATM    6  C   UNL     1     -42.983 -53.894  13.692  1.00  0.00     0.046 A 
HETATM    7  C   UNL     1     -41.616 -53.926  14.003  1.00  0.00     0.050 A 
ENDROOT
BRANCH   6   8
HETATM    8  N   UNL     1     -43.906 -54.552  14.476  1.00  0.00    -0.376 N 
HETATM    9  C   UNL     1     -45.193 -55.041  13.954  1.00  0.00     0.149 C 
HETATM   10  C   UNL     1     -46.362 -54.368  14.686  1.00  0.00     0.187 C 
HETATM   11  O   UNL     1     -46.247 -54.522  16.111  1.00  0.00    -0.388 OA
HETATM   12  C   UNL     1     -45.023 -53.934  16.581  1.00  0.00     0.187 C 
HETATM   13  C   UNL     1     -43.791 -54.600  15.943  1.00  0.00     0.149 C 
ENDBRANCH   6   8
BRANCH   1  14
HETATM   14  C   UNL     1     -39.226 -53.330  13.433  1.00  0.00     0.177 C 
HETATM   15  O   UNL     1     -38.558 -52.327  13.616  1.00  0.00    -0.646 OA
BRANCH  14  16
HETATM   16  O   UNL     1     -38.717 -54.578  13.481  1.00  0.00    -0.773 OA
HETATM   17  H   UNL     1     -38.984 -55.170  12.755  1.00  0.00     0.167 HD
ENDBRANCH  14  16
ENDBRANCH   1  14
TORSDOF 3
ENDMDL
MODEL 2
REMARK VINA RESULT:      -5.3      2.135      5.741
REMARK  3 active torsions:
REMARK  status: ('A' for Active; 'I' for Inactive)
REMARK    1  A    between atoms: O_1  and  C_2 
REMARK    2  A    between atoms: C_2  and  C_4 
REMARK    3  A    between atoms: C_9  and  N_11 
ROOT
HETATM    1  C   UNL     1     -45.186 -53.038  13.123  1.00  0.00     0.055 A 
HETATM    2  C   UNL     1     -45.460 -54.104  13.963  1.00  0.00     0.106 A 
HETATM    3  N   UNL     1     -44.505 -54.923  14.453  1.00  0.00    -0.372 N 
ATOM      4  HN  UNL     1     -44.729 -55.688  15.089  1.00  0.00     0.164 HD
HETATM    5  C   UNL     1     -43.230 -54.676  14.055  1.00  0.00     0.116 A 
HETATM    6  C   UNL     1     -42.828 -53.645  13.199  1.00  0.00     0.046 A 
HETATM    7  C   UNL     1     -43.859 -52.815  12.736  1.00  0.00     0.050 A 
ENDROOT
BRANCH   6   8
HETATM    8  N   UNL     1     -41.525 -53.453  12.794  1.00  0.00    -0.376 N 
HETATM    9  C   UNL     1     -40.390 -54.182  13.384  1.00  0.00     0.149 C 
HETATM   10  C   UNL     1     -39.402 -53.204  14.035  1.00  0.00     0.187 C 
HETATM   11  O   UNL     1     -38.986 -52.184  13.111  1.00  0.00    -0.388 OA
HETATM   12  C   UNL     1     -40.122 -51.435  12.647  1.00  0.00     0.187 C 
HETATM   13  C   UNL     1     -41.136 -52.335  11.919  1.00  0.00     0.149 C 
ENDBRANCH   6   8
BRANCH   1  14
HETATM   14  C   UNL     1     -46.316 -52.230  12.626  1.00  0.00     0.177 C 
HETATM   15  O   UNL     1     -46.834 -51.345  13.285  1.00  0.00    -0.646 OA
BRANCH  14  16
HETATM   16  O   UNL     1     -46.694 -52.533  11.367  1.00  0.00    -0.773 OA
HETATM   17  H   UNL     1     -45.969 -52.740  10.749  1.00  0.00     0.167 HD
ENDBRANCH  14  16
ENDBRANCH   1  14
TORSDOF 3
ENDMDL
MODEL 3
REMARK VINA RESULT:      -5.2      7.880      9.627
REMARK  3 active torsions:
REMARK  status: ('A' for Active; 'I' for Inactive)
REMARK    1  A    between atoms: O_1  and  C_2 
REMARK    2  A    between atoms: C_2  and  C_4 
REMARK    3  A    between atoms: C_9  and  N_11 
ROOT
HETATM    1  C   UNL     1     -42.765 -46.431   9.833  1.00  0.00     0.055 A 
HETATM    2  C   UNL     1     -42.613 -47.791   9.617  1.00  0.00     0.106 A 
HETATM    3  N   UNL     1     -41.646 -48.529  10.204  1.00  0.00    -0.372 N 
ATOM      4  HN  UNL     1     -41.569 -49.533  10.047  1.00  0.00     0.164 HD
HETATM    5  C   UNL     1     -40.782 -47.864  11.013  1.00  0.00     0.116 A 
HETATM    6  C   UNL     1     -40.819 -46.494  11.297  1.00  0.00     0.046 A 
HETATM    7  C   UNL     1     -41.854 -45.782  10.675  1.00  0.00     0.050 A 
ENDROOT
BRANCH   6   8
HETATM    8  N   UNL     1     -39.898 -45.855  12.098  1.00  0.00    -0.376 N 
HETATM    9  C   UNL     1     -39.342 -46.464  13.317  1.00  0.00     0.149 C 
HETATM   10  C   UNL     1     -39.687 -45.616  14.549  1.00  0.00     0.187 C 
HETATM   11  O   UNL     1     -39.278 -44.248  14.377  1.00  0.00    -0.388 OA
HETATM   12  C   UNL     1     -39.932 -43.671  13.235  1.00  0.00     0.187 C 
HETATM   13  C   UNL     1     -39.584 -44.425  11.939  1.00  0.00     0.149 C 
ENDBRANCH   6   8
BRANCH   1  14
HETATM   14  C   UNL     1     -43.841 -45.725   9.112  1.00  0.00     0.177 C 
HETATM   15  O   UNL     1     -43.935 -44.510   9.094  1.00  0.00    -0.646 OA
BRANCH  14  16
HETATM   16  O   UNL     1     -44.682 -46.542   8.445  1.00  0.00    -0.773 OA
HETATM   17  H   UNL     1     -45.470 -46.115   8.064  1.00  0.00     0.167 HD
ENDBRANCH  14  16
ENDBRANCH   1  14
TORSDOF 3
ENDMDL
MODEL 4
REMARK VINA RESULT:      -5.1      2.090      5.041
REMARK  3 active torsions:
REMARK  status: ('A' for Active; 'I' for Inactive)
REMARK    1  A    between atoms: O_1  and  C_2 
REMARK    2  A    between atoms: C_2  and  C_4 
REMARK    3  A    between atoms: C_9  and  N_11 
ROOT
HETATM    1  C   UNL     1     -43.529 -54.002  13.292  1.00  0.00     0.055 A 
HETATM    2  C   UNL     1     -43.584 -53.176  12.182  1.00  0.00     0.106 A 
HETATM    3  N   UNL     1     -42.519 -52.485  11.721  1.00  0.00    -0.372 N 
ATOM      4  HN  UNL     1     -42.579 -51.901  10.888  1.00  0.00     0.164 HD
HETATM    5  C   UNL     1     -41.364 -52.608  12.426  1.00  0.00     0.116 A 
HETATM    6  C   UNL     1     -41.186 -53.394  13.569  1.00  0.00     0.046 A 
HETATM    7  C   UNL     1     -42.320 -54.103  13.991  1.00  0.00     0.050 A 
ENDROOT
BRANCH   6   8
HETATM    8  N   UNL     1     -40.003 -53.462  14.273  1.00  0.00    -0.376 N 
HETATM    9  C   UNL     1     -39.077 -54.601  14.170  1.00  0.00     0.149 C 
HETATM   10  C   UNL     1     -38.903 -55.279  15.536  1.00  0.00     0.187 C 
HETATM   11  O   UNL     1     -38.510 -54.334  16.546  1.00  0.00    -0.388 OA
HETATM   12  C   UNL     1     -39.501 -53.301  16.678  1.00  0.00     0.187 C 
HETATM   13  C   UNL     1     -39.689 -52.524  15.363  1.00  0.00     0.149 C 
ENDBRANCH   6   8
BRANCH   1  14
HETATM   14  C   UNL     1     -44.765 -54.683  13.719  1.00  0.00     0.177 C 
HETATM   15  O   UNL     1     -44.777 -55.560  14.565  1.00  0.00    -0.646 OA
BRANCH  14  16
HETATM   16  O   UNL     1     -45.882 -54.218  13.120  1.00  0.00    -0.773 OA
HETATM   17  H   UNL     1     -46.188 -54.728  12.348  1.00  0.00     0.167 HD
ENDBRANCH  14  16
ENDBRANCH   1  14
TORSDOF 3
ENDMDL
MODEL 5
REMARK VINA RESULT:      -5.1      1.682      2.629
REMARK  3 active torsions:
REMARK  status: ('A' for Active; 'I' for Inactive)
REMARK    1  A    between atoms: O_1  and  C_2 
REMARK    2  A    between atoms: C_2  and  C_4 
REMARK    3  A    between atoms: C_9  and  N_11 
ROOT
HETATM    1  C   UNL     1     -40.728 -54.351  14.334  1.00  0.00     0.055 A 
HETATM    2  C   UNL     1     -40.754 -54.935  15.589  1.00  0.00     0.106 A 
HETATM    3  N   UNL     1     -41.895 -55.314  16.204  1.00  0.00    -0.372 N 
ATOM      4  HN  UNL     1     -41.887 -55.764  17.119  1.00  0.00     0.164 HD
HETATM    5  C   UNL     1     -43.054 -55.065  15.541  1.00  0.00     0.116 A 
HETATM    6  C   UNL     1     -43.160 -54.467  14.280  1.00  0.00     0.046 A 
HETATM    7  C   UNL     1     -41.943 -54.111  13.682  1.00  0.00     0.050 A 
ENDROOT
BRANCH   6   8
HETATM    8  N   UNL     1     -44.362 -54.203  13.660  1.00  0.00    -0.376 N 
HETATM    9  C   UNL     1     -44.491 -53.253  12.542  1.00  0.00     0.149 C 
HETATM   10  C   UNL     1     -45.440 -52.106  12.916  1.00  0.00     0.187 C 
HETATM   11  O   UNL     1     -46.710 -52.603  13.373  1.00  0.00    -0.388 OA
HETATM   12  C   UNL     1     -46.535 -53.438  14.529  1.00  0.00     0.187 C 
HETATM   13  C   UNL     1     -45.646 -54.656  14.220  1.00  0.00     0.149 C 
ENDBRANCH   6   8
BRANCH   1  14
HETATM   14  C   UNL     1     -39.422 -53.951  13.776  1.00  0.00     0.177 C 
HETATM   15  O   UNL     1     -39.071 -52.787  13.688  1.00  0.00    -0.646 OA
BRANCH  14  16
HETATM   16  O   UNL     1     -38.640 -54.989  13.415  1.00  0.00    -0.773 OA
HETATM   17  H   UNL     1     -37.680 -54.829  13.463  1.00  0.00     0.167 HD
ENDBRANCH  14  16
ENDBRANCH   1  14
TORSDOF 3
ENDMDL
MODEL 6
REMARK VINA RESULT:      -5.0      5.381      7.748
REMARK  3 active torsions:
REMARK  status: ('A' for Active; 'I' for Inactive)
REMARK    1  A    between atoms: O_1  and  C_2 
REMARK    2  A    between atoms: C_2  and  C_4 
REMARK    3  A    between atoms: C_9  and  N_11 
ROOT
HETATM    1  C   UNL     1     -41.026 -46.642  10.756  1.00  0.00     0.055 A 
HETATM    2  C   UNL     1     -42.151 -47.339  10.353  1.00  0.00     0.106 A 
HETATM    3  N   UNL     1     -42.384 -48.626  10.692  1.00  0.00    -0.372 N 
ATOM      4  HN  UNL     1     -43.233 -49.112  10.402  1.00  0.00     0.164 HD
HETATM    5  C   UNL     1     -41.430 -49.239  11.438  1.00  0.00     0.116 A 
HETATM    6  C   UNL     1     -40.245 -48.650  11.892  1.00  0.00     0.046 A 
HETATM    7  C   UNL     1     -40.065 -47.309  11.526  1.00  0.00     0.050 A 
ENDROOT
BRANCH   6   8
HETATM    8  N   UNL     1     -39.287 -49.323  12.619  1.00  0.00    -0.376 N 
HETATM    9  C   UNL     1     -37.866 -49.350  12.237  1.00  0.00     0.149 C 
HETATM   10  C   UNL     1     -37.408 -50.790  11.967  1.00  0.00     0.187 C 
HETATM   11  O   UNL     1     -37.699 -51.651  13.081  1.00  0.00    -0.388 OA
HETATM   12  C   UNL     1     -39.111 -51.670  13.344  1.00  0.00     0.187 C 
HETATM   13  C   UNL     1     -39.643 -50.268  13.691  1.00  0.00     0.149 C 
ENDBRANCH   6   8
BRANCH   1  14
HETATM   14  C   UNL     1     -40.865 -45.248  10.298  1.00  0.00     0.177 C 
HETATM   15  O   UNL     1     -41.614 -44.351  10.643  1.00  0.00    -0.646 OA
BRANCH  14  16
HETATM   16  O   UNL     1     -39.794 -45.054   9.501  1.00  0.00    -0.773 OA
HETATM   17  H   UNL     1     -38.989 -45.542   9.752  1.00  0.00     0.167 HD
ENDBRANCH  14  16
ENDBRANCH   1  14
TORSDOF 3
ENDMDL
MODEL 7
REMARK VINA RESULT:      -5.0      6.945      7.946
REMARK  3 active torsions:
REMARK  status: ('A' for Active; 'I' for Inactive)
REMARK    1  A    between atoms: O_1  and  C_2 
REMARK    2  A    between atoms: C_2  and  C_4 
REMARK    3  A    between atoms: C_9  and  N_11 
ROOT
HETATM    1  C   UNL     1     -38.059 -49.554  12.494  1.00  0.00     0.055 A 
HETATM    2  C   UNL     1     -37.790 -49.527  13.852  1.00  0.00     0.106 A 
HETATM    3  N   UNL     1     -38.341 -48.629  14.698  1.00  0.00    -0.372 N 
ATOM      4  HN  UNL     1     -38.145 -48.645  15.698  1.00  0.00     0.164 HD
HETATM    5  C   UNL     1     -39.169 -47.705  14.146  1.00  0.00     0.116 A 
HETATM    6  C   UNL     1     -39.505 -47.616  12.790  1.00  0.00     0.046 A 
HETATM    7  C   UNL     1     -38.918 -48.584  11.964  1.00  0.00     0.050 A 
ENDROOT
BRANCH   6   8
HETATM    8  N   UNL     1     -40.323 -46.638  12.270  1.00  0.00    -0.376 N 
HETATM    9  C   UNL     1     -41.707 -46.899  11.839  1.00  0.00     0.149 C 
HETATM   10  C   UNL     1     -41.872 -46.595  10.343  1.00  0.00     0.187 C 
HETATM   11  O   UNL     1     -41.435 -45.262  10.027  1.00  0.00    -0.388 OA
HETATM   12  C   UNL     1     -40.050 -45.094  10.371  1.00  0.00     0.187 C 
HETATM   13  C   UNL     1     -39.807 -45.317  11.874  1.00  0.00     0.149 C 
ENDBRANCH   6   8
BRANCH   1  14
HETATM   14  C   UNL     1     -37.374 -50.563  11.665  1.00  0.00     0.177 C 
HETATM   15  O   UNL     1     -36.904 -51.588  12.128  1.00  0.00    -0.646 OA
BRANCH  14  16
HETATM   16  O   UNL     1     -37.353 -50.268  10.349  1.00  0.00    -0.773 OA
HETATM   17  H   UNL     1     -36.645 -50.696   9.833  1.00  0.00     0.167 HD
ENDBRANCH  14  16
ENDBRANCH   1  14
TORSDOF 3
ENDMDL
MODEL 8
REMARK VINA RESULT:      -4.9      1.732      5.542
REMARK  3 active torsions:
REMARK  status: ('A' for Active; 'I' for Inactive)
REMARK    1  A    between atoms: O_1  and  C_2 
REMARK    2  A    between atoms: C_2  and  C_4 
REMARK    3  A    between atoms: C_9  and  N_11 
ROOT
HETATM    1  C   UNL     1     -44.909 -53.482  13.626  1.00  0.00     0.055 A 
HETATM    2  C   UNL     1     -45.355 -52.172  13.674  1.00  0.00     0.106 A 
HETATM    3  N   UNL     1     -44.564 -51.112  13.398  1.00  0.00    -0.372 N 
ATOM      4  HN  UNL     1     -44.922 -50.157  13.418  1.00  0.00     0.164 HD
HETATM    5  C   UNL     1     -43.268 -51.383  13.096  1.00  0.00     0.116 A 
HETATM    6  C   UNL     1     -42.694 -52.658  13.032  1.00  0.00     0.046 A 
HETATM    7  C   UNL     1     -43.566 -53.720  13.309  1.00  0.00     0.050 A 
ENDROOT
BRANCH   6   8
HETATM    8  N   UNL     1     -41.364 -52.883  12.754  1.00  0.00    -0.376 N 
HETATM    9  C   UNL     1     -40.714 -54.187  12.965  1.00  0.00     0.149 C 
HETATM   10  C   UNL     1     -39.570 -54.062  13.980  1.00  0.00     0.187 C 
HETATM   11  O   UNL     1     -38.640 -53.033  13.600  1.00  0.00    -0.388 OA
HETATM   12  C   UNL     1     -39.306 -51.763  13.512  1.00  0.00     0.187 C 
HETATM   13  C   UNL     1     -40.431 -51.783  12.461  1.00  0.00     0.149 C 
ENDBRANCH   6   8
BRANCH   1  14
HETATM   14  C   UNL     1     -45.857 -54.556  13.976  1.00  0.00     0.177 C 
HETATM   15  O   UNL     1     -45.559 -55.737  13.939  1.00  0.00    -0.646 OA
BRANCH  14  16
HETATM   16  O   UNL     1     -47.065 -54.110  14.379  1.00  0.00    -0.773 OA
HETATM   17  H   UNL     1     -47.579 -53.623  13.709  1.00  0.00     0.167 HD
ENDBRANCH  14  16
ENDBRANCH   1  14
TORSDOF 3
ENDMDL
MODEL 9
REMARK VINA RESULT:      -4.9      1.940      5.747
REMARK  3 active torsions:
REMARK  status: ('A' for Active; 'I' for Inactive)
REMARK    1  A    between atoms: O_1  and  C_2 
REMARK    2  A    between atoms: C_2  and  C_4 
REMARK    3  A    between atoms: C_9  and  N_11 
ROOT
HETATM    1  C   UNL     1     -43.906 -54.550  14.051  1.00  0.00     0.055 A 
HETATM    2  C   UNL     1     -43.456 -55.280  15.139  1.00  0.00     0.106 A 
HETATM    3  N   UNL     1     -42.189 -55.211  15.601  1.00  0.00    -0.372 N 
ATOM      4  HN  UNL     1     -41.888 -55.741  16.419  1.00  0.00     0.164 HD
HETATM    5  C   UNL     1     -41.337 -54.402  14.921  1.00  0.00     0.116 A 
HETATM    6  C   UNL     1     -41.664 -53.630  13.800  1.00  0.00     0.046 A 
HETATM    7  C   UNL     1     -42.997 -53.726  13.376  1.00  0.00     0.050 A 
ENDROOT
BRANCH   6   8
HETATM    8  N   UNL     1     -40.756 -52.848  13.120  1.00  0.00    -0.376 N 
HETATM    9  C   UNL     1     -39.509 -52.359  13.730  1.00  0.00     0.149 C 
HETATM   10  C   UNL     1     -39.483 -50.825  13.748  1.00  0.00     0.187 C 
HETATM   11  O   UNL     1     -39.710 -50.280  12.436  1.00  0.00    -0.388 OA
HETATM   12  C   UNL     1     -40.987 -50.703  11.932  1.00  0.00     0.187 C 
HETATM   13  C   UNL     1     -41.074 -52.236  11.819  1.00  0.00     0.149 C 
ENDBRANCH   6   8
BRANCH   1  14
HETATM   14  C   UNL     1     -45.305 -54.730  13.619  1.00  0.00     0.177 C 
HETATM   15  O   UNL     1     -46.045 -55.565  14.109  1.00  0.00    -0.646 OA
BRANCH  14  16
HETATM   16  O   UNL     1     -45.699 -53.861  12.665  1.00  0.00    -0.773 OA
HETATM   17  H   UNL     1     -45.949 -52.974  12.982  1.00  0.00     0.167 HD
ENDBRANCH  14  16
ENDBRANCH   1  14
TORSDOF 3
ENDMDL
