MODEL 1
REMARK VINA RESULT:      -6.5      0.000      0.000
REMARK  5 active torsions:
REMARK  status: ('A' for Active; 'I' for Inactive)
REMARK    1  A    between atoms: C_2  and  C_5 
REMARK    2  A    between atoms: C_10  and  N_11 
REMARK       I    between atoms: N_11  and  C_12 
REMARK    3  A    between atoms: C_12  and  C_14 
REMARK    4  A    between atoms: C_14  and  O_15 
REMARK    5  A    between atoms: O_15  and  C_16 
ROOT
HETATM    1  C   UNL     1     -42.553 -46.642   9.999  1.00  0.00     0.065 A 
HETATM    2  C   UNL     1     -41.345 -46.092  10.205  1.00  0.00     0.107 A 
HETATM    3  N   UNL     1     -40.375 -46.757  10.916  1.00  0.00    -0.331 N 
HETATM    4  C   UNL     1     -40.545 -48.018  11.445  1.00  0.00     0.272 A 
HETATM    5  O   UNL     1     -39.665 -48.599  12.077  1.00  0.00    -0.266 OA
HETATM    6  C   UNL     1     -41.875 -48.675  11.186  1.00  0.00     0.104 A 
HETATM    7  C   UNL     1     -42.813 -47.968  10.533  1.00  0.00     0.052 A 
HETATM    8  H   UNL     1     -39.467 -46.334  11.062  1.00  0.00     0.168 HD
ENDROOT
BRANCH   6   9
HETATM    9  N   UNL     1     -42.016 -49.972  11.635  1.00  0.00    -0.321 N 
HETATM   10  C   UNL     1     -42.637 -50.368  12.811  1.00  0.00     0.246 C 
HETATM   11  O   UNL     1     -43.130 -49.601  13.636  1.00  0.00    -0.271 OA
HETATM   12  H   UNL     1     -41.818 -50.676  10.927  1.00  0.00     0.169 HD
BRANCH  10  13
HETATM   13  C   UNL     1     -42.672 -51.885  13.000  1.00  0.00     0.271 C 
BRANCH  13  14
HETATM   14  O   UNL     1     -43.807 -52.274  13.764  1.00  0.00    -0.377 OA
BRANCH  14  15
HETATM   15  C   UNL     1     -44.929 -52.681  12.976  1.00  0.00     0.122 C 
HETATM   16  C   UNL     1     -46.050 -51.635  13.018  1.00  0.00     0.032 C 
HETATM   17  C   UNL     1     -46.608 -51.473  14.431  1.00  0.00     0.002 C 
HETATM   18  C   UNL     1     -47.143 -52.803  14.951  1.00  0.00     0.000 C 
HETATM   19  C   UNL     1     -46.067 -53.884  14.920  1.00  0.00     0.002 C 
HETATM   20  C   UNL     1     -45.432 -54.021  13.534  1.00  0.00     0.032 C 
ENDBRANCH  14  15
ENDBRANCH  13  14
ENDBRANCH  10  13
ENDBRANCH   6   9
BRANCH   1  21
HETATM   21  C   UNL     1     -43.632 -45.963   9.199  1.00  0.00     0.418 C 
HETATM   22  F   UNL     1     -44.853 -46.537   9.339  1.00  0.00    -0.166 F 
HETATM   23  F   UNL     1     -43.344 -45.972   7.872  1.00  0.00    -0.166 F 
HETATM   24  F   UNL     1     -43.771 -44.661   9.560  1.00  0.00    -0.166 F 
ENDBRANCH   1  21
TORSDOF 5
ENDMDL
MODEL 2
REMARK VINA RESULT:      -6.5      4.273      7.332
REMARK  5 active torsions:
REMARK  status: ('A' for Active; 'I' for Inactive)
REMARK    1  A    between atoms: C_2  and  C_5 
REMARK    2  A    between atoms: C_10  and  N_11 
REMARK       I    between atoms: N_11  and  C_12 
REMARK    3  A    between atoms: C_12  and  C_14 
REMARK    4  A    between atoms: C_14  and  O_15 
REMARK    5  A    between atoms: O_15  and  C_16 
ROOT
HETATM    1  C   UNL     1     -45.391 -52.726  13.566  1.00  0.00     0.065 A 
HETATM    2  C   UNL     1     -45.988 -53.849  13.997  1.00  0.00     0.107 A 
HETATM    3  N   UNL     1     -45.257 -54.874  14.550  1.00  0.00    -0.331 N 
HETATM    4  C   UNL     1     -43.891 -54.830  14.724  1.00  0.00     0.272 A 
HETATM    5  O   UNL     1     -43.253 -55.756  15.221  1.00  0.00    -0.266 OA
HETATM    6  C   UNL     1     -43.205 -53.561  14.291  1.00  0.00     0.104 A 
HETATM    7  C   UNL     1     -43.949 -52.607  13.707  1.00  0.00     0.052 A 
HETATM    8  H   UNL     1     -45.718 -55.714  14.875  1.00  0.00     0.168 HD
ENDROOT
BRANCH   6   9
HETATM    9  N   UNL     1     -41.851 -53.478  14.547  1.00  0.00    -0.321 N 
HETATM   10  C   UNL     1     -40.832 -53.916  13.713  1.00  0.00     0.246 C 
HETATM   11  O   UNL     1     -41.003 -54.468  12.629  1.00  0.00    -0.271 OA
HETATM   12  H   UNL     1     -41.617 -52.860  15.321  1.00  0.00     0.169 HD
BRANCH  10  13
HETATM   13  C   UNL     1     -39.433 -53.635  14.263  1.00  0.00     0.271 C 
BRANCH  13  14
HETATM   14  O   UNL     1     -38.727 -52.737  13.415  1.00  0.00    -0.377 OA
BRANCH  14  15
HETATM   15  C   UNL     1     -38.616 -51.410  13.935  1.00  0.00     0.122 C 
HETATM   16  C   UNL     1     -39.836 -50.559  13.557  1.00  0.00     0.032 C 
HETATM   17  C   UNL     1     -39.940 -50.375  12.044  1.00  0.00     0.002 C 
HETATM   18  C   UNL     1     -38.679 -49.715  11.497  1.00  0.00     0.000 C 
HETATM   19  C   UNL     1     -37.432 -50.518  11.855  1.00  0.00     0.002 C 
HETATM   20  C   UNL     1     -37.335 -50.787  13.358  1.00  0.00     0.032 C 
ENDBRANCH  14  15
ENDBRANCH  13  14
ENDBRANCH  10  13
ENDBRANCH   6   9
BRANCH   1  21
HETATM   21  C   UNL     1     -46.156 -51.568  12.986  1.00  0.00     0.418 C 
HETATM   22  F   UNL     1     -46.862 -51.889  11.872  1.00  0.00    -0.166 F 
HETATM   23  F   UNL     1     -45.328 -50.548  12.644  1.00  0.00    -0.166 F 
HETATM   24  F   UNL     1     -47.048 -51.066  13.879  1.00  0.00    -0.166 F 
ENDBRANCH   1  21
TORSDOF 5
ENDMDL
MODEL 3
REMARK VINA RESULT:      -6.3      2.181      2.727
REMARK  5 active torsions:
REMARK  status: ('A' for Active; 'I' for Inactive)
REMARK    1  A    between atoms: C_2  and  C_5 
REMARK    2  A    between atoms: C_10  and  N_11 
REMARK       I    between atoms: N_11  and  C_12 
REMARK    3  A    between atoms: C_12  and  C_14 
REMARK    4  A    between atoms: C_14  and  O_15 
REMARK    5  A    between atoms: O_15  and  C_16 
ROOT
HETATM    1  C   UNL     1     -41.171 -45.810  10.632  1.00  0.00     0.065 A 
HETATM    2  C   UNL     1     -42.340 -45.251  10.280  1.00  0.00     0.107 A 
HETATM    3  N   UNL     1     -43.496 -45.994  10.231  1.00  0.00    -0.331 N 
HETATM    4  C   UNL     1     -43.556 -47.333  10.549  1.00  0.00     0.272 A 
HETATM    5  O   UNL     1     -44.600 -47.982  10.500  1.00  0.00    -0.266 OA
HETATM    6  C   UNL     1     -42.266 -47.971  10.992  1.00  0.00     0.104 A 
HETATM    7  C   UNL     1     -41.152 -47.222  10.974  1.00  0.00     0.052 A 
HETATM    8  H   UNL     1     -44.372 -45.560   9.967  1.00  0.00     0.168 HD
ENDROOT
BRANCH   6   9
HETATM    9  N   UNL     1     -42.343 -49.288  11.397  1.00  0.00    -0.321 N 
HETATM   10  C   UNL     1     -42.667 -49.737  12.670  1.00  0.00     0.246 C 
HETATM   11  O   UNL     1     -42.908 -49.006  13.628  1.00  0.00    -0.271 OA
HETATM   12  H   UNL     1     -42.355 -49.955  10.627  1.00  0.00     0.169 HD
BRANCH  10  13
HETATM   13  C   UNL     1     -42.715 -51.261  12.785  1.00  0.00     0.271 C 
BRANCH  13  14
HETATM   14  O   UNL     1     -43.811 -51.672  13.593  1.00  0.00    -0.377 OA
BRANCH  14  15
HETATM   15  C   UNL     1     -44.874 -52.289  12.862  1.00  0.00     0.122 C 
HETATM   16  C   UNL     1     -46.178 -51.493  12.996  1.00  0.00     0.032 C 
HETATM   17  C   UNL     1     -46.668 -51.466  14.443  1.00  0.00     0.002 C 
HETATM   18  C   UNL     1     -46.890 -52.883  14.960  1.00  0.00     0.000 C 
HETATM   19  C   UNL     1     -45.621 -53.723  14.839  1.00  0.00     0.002 C 
HETATM   20  C   UNL     1     -45.059 -53.710  13.416  1.00  0.00     0.032 C 
ENDBRANCH  14  15
ENDBRANCH  13  14
ENDBRANCH  10  13
ENDBRANCH   6   9
BRANCH   1  21
HETATM   21  C   UNL     1     -39.890 -45.027  10.731  1.00  0.00     0.418 C 
HETATM   22  F   UNL     1     -39.247 -45.187  11.915  1.00  0.00    -0.166 F 
HETATM   23  F   UNL     1     -40.112 -43.695  10.582  1.00  0.00    -0.166 F 
HETATM   24  F   UNL     1     -39.012 -45.388   9.760  1.00  0.00    -0.166 F 
ENDBRANCH   1  21
TORSDOF 5
ENDMDL
MODEL 4
REMARK VINA RESULT:      -6.2      2.249      2.795
REMARK  5 active torsions:
REMARK  status: ('A' for Active; 'I' for Inactive)
REMARK    1  A    between atoms: C_2  and  C_5 
REMARK    2  A    between atoms: C_10  and  N_11 
REMARK       I    between atoms: N_11  and  C_12 
REMARK    3  A    between atoms: C_12  and  C_14 
REMARK    4  A    between atoms: C_14  and  O_15 
REMARK    5  A    between atoms: O_15  and  C_16 
ROOT
HETATM    1  C   UNL     1     -43.378 -46.796   9.741  1.00  0.00     0.065 A 
HETATM    2  C   UNL     1     -42.782 -45.601   9.888  1.00  0.00     0.107 A 
HETATM    3  N   UNL     1     -41.531 -45.497  10.448  1.00  0.00    -0.331 N 
HETATM    4  C   UNL     1     -40.793 -46.579  10.875  1.00  0.00     0.272 A 
HETATM    5  O   UNL     1     -39.674 -46.467  11.373  1.00  0.00    -0.266 OA
HETATM    6  C   UNL     1     -41.421 -47.933  10.676  1.00  0.00     0.104 A 
HETATM    7  C   UNL     1     -42.666 -47.986  10.175  1.00  0.00     0.052 A 
HETATM    8  H   UNL     1     -41.091 -44.591  10.551  1.00  0.00     0.168 HD
ENDROOT
BRANCH   6   9
HETATM    9  N   UNL     1     -40.647 -49.023  11.019  1.00  0.00    -0.321 N 
HETATM   10  C   UNL     1     -40.587 -49.626  12.267  1.00  0.00     0.246 C 
HETATM   11  O   UNL     1     -41.207 -49.245  13.258  1.00  0.00    -0.271 OA
HETATM   12  H   UNL     1     -40.260 -49.520  10.218  1.00  0.00     0.169 HD
BRANCH  10  13
HETATM   13  C   UNL     1     -39.668 -50.847  12.311  1.00  0.00     0.271 C 
BRANCH  13  14
HETATM   14  O   UNL     1     -40.248 -51.888  13.089  1.00  0.00    -0.377 OA
BRANCH  14  15
HETATM   15  C   UNL     1     -40.976 -52.852  12.324  1.00  0.00     0.122 C 
HETATM   16  C   UNL     1     -42.470 -52.506  12.269  1.00  0.00     0.032 C 
HETATM   17  C   UNL     1     -43.104 -52.555  13.659  1.00  0.00     0.002 C 
HETATM   18  C   UNL     1     -42.931 -53.937  14.278  1.00  0.00     0.000 C 
HETATM   19  C   UNL     1     -41.459 -54.335  14.347  1.00  0.00     0.002 C 
HETATM   20  C   UNL     1     -40.772 -54.224  12.983  1.00  0.00     0.032 C 
ENDBRANCH  14  15
ENDBRANCH  13  14
ENDBRANCH  10  13
ENDBRANCH   6   9
BRANCH   1  21
HETATM   21  C   UNL     1     -44.732 -46.958   9.103  1.00  0.00     0.418 C 
HETATM   22  F   UNL     1     -45.663 -47.486   9.937  1.00  0.00    -0.166 F 
HETATM   23  F   UNL     1     -44.673 -47.770   8.017  1.00  0.00    -0.166 F 
HETATM   24  F   UNL     1     -45.224 -45.767   8.675  1.00  0.00    -0.166 F 
ENDBRANCH   1  21
TORSDOF 5
ENDMDL
MODEL 5
REMARK VINA RESULT:      -6.1      3.686      6.933
REMARK  5 active torsions:
REMARK  status: ('A' for Active; 'I' for Inactive)
REMARK    1  A    between atoms: C_2  and  C_5 
REMARK    2  A    between atoms: C_10  and  N_11 
REMARK       I    between atoms: N_11  and  C_12 
REMARK    3  A    between atoms: C_12  and  C_14 
REMARK    4  A    between atoms: C_14  and  O_15 
REMARK    5  A    between atoms: O_15  and  C_16 
ROOT
HETATM    1  C   UNL     1     -45.071 -51.907  13.156  1.00  0.00     0.065 A 
HETATM    2  C   UNL     1     -44.628 -53.036  12.578  1.00  0.00     0.107 A 
HETATM    3  N   UNL     1     -43.337 -53.137  12.116  1.00  0.00    -0.331 N 
HETATM    4  C   UNL     1     -42.407 -52.126  12.222  1.00  0.00     0.272 A 
HETATM    5  O   UNL     1     -41.256 -52.235  11.804  1.00  0.00    -0.266 OA
HETATM    6  C   UNL     1     -42.867 -50.868  12.910  1.00  0.00     0.104 A 
HETATM    7  C   UNL     1     -44.151 -50.792  13.298  1.00  0.00     0.052 A 
HETATM    8  H   UNL     1     -43.014 -53.994  11.685  1.00  0.00     0.168 HD
ENDROOT
BRANCH   6   9
HETATM    9  N   UNL     1     -41.912 -49.889  13.098  1.00  0.00    -0.321 N 
HETATM   10  C   UNL     1     -41.735 -48.756  12.317  1.00  0.00     0.246 C 
HETATM   11  O   UNL     1     -42.400 -48.483  11.320  1.00  0.00    -0.271 OA
HETATM   12  H   UNL     1     -41.455 -49.932  14.007  1.00  0.00     0.169 HD
BRANCH  10  13
HETATM   13  C   UNL     1     -40.619 -47.839  12.818  1.00  0.00     0.271 C 
BRANCH  13  14
HETATM   14  O   UNL     1     -39.723 -48.549  13.665  1.00  0.00    -0.377 OA
BRANCH  14  15
HETATM   15  C   UNL     1     -38.344 -48.376  13.332  1.00  0.00     0.122 C 
HETATM   16  C   UNL     1     -38.007 -49.038  11.990  1.00  0.00     0.032 C 
HETATM   17  C   UNL     1     -38.203 -50.552  12.051  1.00  0.00     0.002 C 
HETATM   18  C   UNL     1     -37.332 -51.161  13.145  1.00  0.00     0.000 C 
HETATM   19  C   UNL     1     -37.622 -50.528  14.503  1.00  0.00     0.002 C 
HETATM   20  C   UNL     1     -37.508 -49.002  14.459  1.00  0.00     0.032 C 
ENDBRANCH  14  15
ENDBRANCH  13  14
ENDBRANCH  10  13
ENDBRANCH   6   9
BRANCH   1  21
HETATM   21  C   UNL     1     -46.465 -51.766  13.705  1.00  0.00     0.418 C 
HETATM   22  F   UNL     1     -47.330 -51.177  12.841  1.00  0.00    -0.166 F 
HETATM   23  F   UNL     1     -46.478 -51.022  14.840  1.00  0.00    -0.166 F 
HETATM   24  F   UNL     1     -46.997 -52.974  14.023  1.00  0.00    -0.166 F 
ENDBRANCH   1  21
TORSDOF 5
ENDMDL
MODEL 6
REMARK VINA RESULT:      -6.0      4.376      7.811
REMARK  5 active torsions:
REMARK  status: ('A' for Active; 'I' for Inactive)
REMARK    1  A    between atoms: C_2  and  C_5 
REMARK    2  A    between atoms: C_10  and  N_11 
REMARK       I    between atoms: N_11  and  C_12 
REMARK    3  A    between atoms: C_12  and  C_14 
REMARK    4  A    between atoms: C_14  and  O_15 
REMARK    5  A    between atoms: O_15  and  C_16 
ROOT
HETATM    1  C   UNL     1     -46.555 -51.855  15.394  1.00  0.00     0.065 A 
HETATM    2  C   UNL     1     -46.968 -53.040  14.912  1.00  0.00     0.107 A 
HETATM    3  N   UNL     1     -46.446 -53.552  13.747  1.00  0.00    -0.331 N 
HETATM    4  C   UNL     1     -45.470 -52.923  13.007  1.00  0.00     0.272 A 
HETATM    5  O   UNL     1     -45.014 -53.396  11.967  1.00  0.00    -0.266 OA
HETATM    6  C   UNL     1     -44.958 -51.616  13.552  1.00  0.00     0.104 A 
HETATM    7  C   UNL     1     -45.532 -51.126  14.663  1.00  0.00     0.052 A 
HETATM    8  H   UNL     1     -46.762 -54.447  13.396  1.00  0.00     0.168 HD
ENDROOT
BRANCH   6   9
HETATM    9  N   UNL     1     -43.917 -51.029  12.861  1.00  0.00    -0.321 N 
HETATM   10  C   UNL     1     -42.565 -51.287  13.042  1.00  0.00     0.246 C 
HETATM   11  O   UNL     1     -42.107 -52.065  13.875  1.00  0.00    -0.271 OA
HETATM   12  H   UNL     1     -44.211 -50.528  12.025  1.00  0.00     0.169 HD
BRANCH  10  13
HETATM   13  C   UNL     1     -41.664 -50.508  12.084  1.00  0.00     0.271 C 
BRANCH  13  14
HETATM   14  O   UNL     1     -40.293 -50.698  12.413  1.00  0.00    -0.377 OA
BRANCH  14  15
HETATM   15  C   UNL     1     -39.394 -49.878  11.661  1.00  0.00     0.122 C 
HETATM   16  C   UNL     1     -37.934 -50.278  11.911  1.00  0.00     0.032 C 
HETATM   17  C   UNL     1     -37.536 -50.052  13.369  1.00  0.00     0.002 C 
HETATM   18  C   UNL     1     -37.730 -48.590  13.757  1.00  0.00     0.000 C 
HETATM   19  C   UNL     1     -39.168 -48.138  13.517  1.00  0.00     0.002 C 
HETATM   20  C   UNL     1     -39.625 -48.420  12.084  1.00  0.00     0.032 C 
ENDBRANCH  14  15
ENDBRANCH  13  14
ENDBRANCH  10  13
ENDBRANCH   6   9
BRANCH   1  21
HETATM   21  C   UNL     1     -47.075 -51.274  16.681  1.00  0.00     0.418 C 
HETATM   22  F   UNL     1     -46.354 -50.215  17.127  1.00  0.00    -0.166 F 
HETATM   23  F   UNL     1     -47.074 -52.197  17.676  1.00  0.00    -0.166 F 
HETATM   24  F   UNL     1     -48.356 -50.843  16.548  1.00  0.00    -0.166 F 
ENDBRANCH   1  21
TORSDOF 5
ENDMDL
MODEL 7
REMARK VINA RESULT:      -6.0      4.221      7.719
REMARK  5 active torsions:
REMARK  status: ('A' for Active; 'I' for Inactive)
REMARK    1  A    between atoms: C_2  and  C_5 
REMARK    2  A    between atoms: C_10  and  N_11 
REMARK       I    between atoms: N_11  and  C_12 
REMARK    3  A    between atoms: C_12  and  C_14 
REMARK    4  A    between atoms: C_14  and  O_15 
REMARK    5  A    between atoms: O_15  and  C_16 
ROOT
HETATM    1  C   UNL     1     -42.655 -53.547  13.437  1.00  0.00     0.065 A 
HETATM    2  C   UNL     1     -41.474 -53.897  13.974  1.00  0.00     0.107 A 
HETATM    3  N   UNL     1     -40.319 -53.230  13.642  1.00  0.00    -0.331 N 
HETATM    4  C   UNL     1     -40.277 -52.162  12.772  1.00  0.00     0.272 A 
HETATM    5  O   UNL     1     -39.234 -51.576  12.487  1.00  0.00    -0.266 OA
HETATM    6  C   UNL     1     -41.596 -51.721  12.194  1.00  0.00     0.104 A 
HETATM    7  C   UNL     1     -42.691 -52.434  12.504  1.00  0.00     0.052 A 
HETATM    8  H   UNL     1     -39.435 -53.500  14.055  1.00  0.00     0.168 HD
ENDROOT
BRANCH   6   9
HETATM    9  N   UNL     1     -41.569 -50.597  11.395  1.00  0.00    -0.321 N 
HETATM   10  C   UNL     1     -41.899 -49.307  11.784  1.00  0.00     0.246 C 
HETATM   11  O   UNL     1     -42.292 -48.993  12.906  1.00  0.00    -0.271 OA
HETATM   12  H   UNL     1     -41.069 -50.729  10.518  1.00  0.00     0.169 HD
BRANCH  10  13
HETATM   13  C   UNL     1     -41.719 -48.270  10.674  1.00  0.00     0.271 C 
BRANCH  13  14
HETATM   14  O   UNL     1     -41.424 -46.990  11.221  1.00  0.00    -0.377 OA
BRANCH  14  15
HETATM   15  C   UNL     1     -40.026 -46.710  11.329  1.00  0.00     0.122 C 
HETATM   16  C   UNL     1     -39.620 -46.449  12.785  1.00  0.00     0.032 C 
HETATM   17  C   UNL     1     -40.308 -45.203  13.341  1.00  0.00     0.002 C 
HETATM   18  C   UNL     1     -39.965 -43.981  12.497  1.00  0.00     0.000 C 
HETATM   19  C   UNL     1     -40.341 -44.193  11.034  1.00  0.00     0.002 C 
HETATM   20  C   UNL     1     -39.729 -45.475  10.465  1.00  0.00     0.032 C 
ENDBRANCH  14  15
ENDBRANCH  13  14
ENDBRANCH  10  13
ENDBRANCH   6   9
BRANCH   1  21
HETATM   21  C   UNL     1     -43.947 -54.229  13.798  1.00  0.00     0.418 C 
HETATM   22  F   UNL     1     -43.777 -55.356  14.535  1.00  0.00    -0.166 F 
HETATM   23  F   UNL     1     -44.644 -54.588  12.689  1.00  0.00    -0.166 F 
HETATM   24  F   UNL     1     -44.755 -53.411  14.520  1.00  0.00    -0.166 F 
ENDBRANCH   1  21
TORSDOF 5
ENDMDL
MODEL 8
REMARK VINA RESULT:      -5.9      3.497      7.546
REMARK  5 active torsions:
REMARK  status: ('A' for Active; 'I' for Inactive)
REMARK    1  A    between atoms: C_2  and  C_5 
REMARK    2  A    between atoms: C_10  and  N_11 
REMARK       I    between atoms: N_11  and  C_12 
REMARK    3  A    between atoms: C_12  and  C_14 
REMARK    4  A    between atoms: C_14  and  O_15 
REMARK    5  A    between atoms: O_15  and  C_16 
ROOT
HETATM    1  C   UNL     1     -45.012 -51.834  13.112  1.00  0.00     0.065 A 
HETATM    2  C   UNL     1     -44.528 -52.927  12.497  1.00  0.00     0.107 A 
HETATM    3  N   UNL     1     -43.216 -52.989  12.090  1.00  0.00    -0.331 N 
HETATM    4  C   UNL     1     -42.306 -51.975  12.291  1.00  0.00     0.272 A 
HETATM    5  O   UNL     1     -41.135 -52.048  11.921  1.00  0.00    -0.266 OA
HETATM    6  C   UNL     1     -42.813 -50.759  13.021  1.00  0.00     0.104 A 
HETATM    7  C   UNL     1     -44.114 -50.718  13.353  1.00  0.00     0.052 A 
HETATM    8  H   UNL     1     -42.862 -53.818  11.631  1.00  0.00     0.168 HD
ENDROOT
BRANCH   6   9
HETATM    9  N   UNL     1     -41.881 -49.781  13.303  1.00  0.00    -0.321 N 
HETATM   10  C   UNL     1     -41.622 -48.651  12.540  1.00  0.00     0.246 C 
HETATM   11  O   UNL     1     -42.181 -48.381  11.479  1.00  0.00    -0.271 OA
HETATM   12  H   UNL     1     -41.519 -49.821  14.254  1.00  0.00     0.169 HD
BRANCH  10  13
HETATM   13  C   UNL     1     -40.562 -47.734  13.150  1.00  0.00     0.271 C 
BRANCH  13  14
HETATM   14  O   UNL     1     -40.751 -46.389  12.724  1.00  0.00    -0.377 OA
BRANCH  14  15
HETATM   15  C   UNL     1     -39.565 -45.763  12.229  1.00  0.00     0.122 C 
HETATM   16  C   UNL     1     -39.029 -44.722  13.220  1.00  0.00     0.032 C 
HETATM   17  C   UNL     1     -40.020 -43.575  13.414  1.00  0.00     0.002 C 
HETATM   18  C   UNL     1     -40.319 -42.894  12.084  1.00  0.00     0.000 C 
HETATM   19  C   UNL     1     -40.847 -43.891  11.056  1.00  0.00     0.002 C 
HETATM   20  C   UNL     1     -39.914 -45.092  10.891  1.00  0.00     0.032 C 
ENDBRANCH  14  15
ENDBRANCH  13  14
ENDBRANCH  10  13
ENDBRANCH   6   9
BRANCH   1  21
HETATM   21  C   UNL     1     -46.431 -51.738  13.602  1.00  0.00     0.418 C 
HETATM   22  F   UNL     1     -46.979 -52.939  13.914  1.00  0.00    -0.166 F 
HETATM   23  F   UNL     1     -47.239 -51.168  12.671  1.00  0.00    -0.166 F 
HETATM   24  F   UNL     1     -46.519 -50.969  14.718  1.00  0.00    -0.166 F 
ENDBRANCH   1  21
TORSDOF 5
ENDMDL
MODEL 9
REMARK VINA RESULT:      -5.9      5.120      7.913
REMARK  5 active torsions:
REMARK  status: ('A' for Active; 'I' for Inactive)
REMARK    1  A    between atoms: C_2  and  C_5 
REMARK    2  A    between atoms: C_10  and  N_11 
REMARK       I    between atoms: N_11  and  C_12 
REMARK    3  A    between atoms: C_12  and  C_14 
REMARK    4  A    between atoms: C_14  and  O_15 
REMARK    5  A    between atoms: O_15  and  C_16 
ROOT
HETATM    1  C   UNL     1     -43.360 -53.895  13.788  1.00  0.00     0.065 A 
HETATM    2  C   UNL     1     -43.680 -53.634  12.510  1.00  0.00     0.107 A 
HETATM    3  N   UNL     1     -42.977 -52.708  11.778  1.00  0.00    -0.331 N 
HETATM    4  C   UNL     1     -41.901 -52.002  12.271  1.00  0.00     0.272 A 
HETATM    5  O   UNL     1     -41.283 -51.177  11.601  1.00  0.00    -0.266 OA
HETATM    6  C   UNL     1     -41.494 -52.312  13.687  1.00  0.00     0.104 A 
HETATM    7  C   UNL     1     -42.241 -53.185  14.383  1.00  0.00     0.052 A 
HETATM    8  H   UNL     1     -43.225 -52.522  10.814  1.00  0.00     0.168 HD
ENDROOT
BRANCH   6   9
HETATM    9  N   UNL     1     -40.362 -51.674  14.152  1.00  0.00    -0.321 N 
HETATM   10  C   UNL     1     -39.064 -52.162  14.095  1.00  0.00     0.246 C 
HETATM   11  O   UNL     1     -38.748 -53.258  13.638  1.00  0.00    -0.271 OA
HETATM   12  H   UNL     1     -40.504 -50.688  14.361  1.00  0.00     0.169 HD
BRANCH  10  13
HETATM   13  C   UNL     1     -38.023 -51.190  14.653  1.00  0.00     0.271 C 
BRANCH  13  14
HETATM   14  O   UNL     1     -38.494 -49.850  14.583  1.00  0.00    -0.377 OA
BRANCH  14  15
HETATM   15  C   UNL     1     -37.662 -48.979  13.812  1.00  0.00     0.122 C 
HETATM   16  C   UNL     1     -37.656 -47.558  14.390  1.00  0.00     0.032 C 
HETATM   17  C   UNL     1     -39.045 -46.924  14.324  1.00  0.00     0.002 C 
HETATM   18  C   UNL     1     -39.545 -46.879  12.885  1.00  0.00     0.000 C 
HETATM   19  C   UNL     1     -39.561 -48.270  12.259  1.00  0.00     0.002 C 
HETATM   20  C   UNL     1     -38.203 -48.966  12.374  1.00  0.00     0.032 C 
ENDBRANCH  14  15
ENDBRANCH  13  14
ENDBRANCH  10  13
ENDBRANCH   6   9
BRANCH   1  21
HETATM   21  C   UNL     1     -44.082 -54.925  14.615  1.00  0.00     0.418 C 
HETATM   22  F   UNL     1     -43.263 -55.871  15.138  1.00  0.00    -0.166 F 
HETATM   23  F   UNL     1     -45.019 -55.580  13.881  1.00  0.00    -0.166 F 
HETATM   24  F   UNL     1     -44.734 -54.353  15.660  1.00  0.00    -0.166 F 
ENDBRANCH   1  21
TORSDOF 5
ENDMDL
