MODEL 1
REMARK VINA RESULT:      -5.6      0.000      0.000
REMARK  4 active torsions:
REMARK  status: ('A' for Active; 'I' for Inactive)
REMARK    1  A    between atoms: O_2  and  C_3 
REMARK    2  A    between atoms: C_9  and  N_10 
REMARK       I    between atoms: N_10  and  C_11 
REMARK       I    between atoms: C_11  and  N_13 
REMARK    3  A    between atoms: N_13  and  C_14 
REMARK    4  A    between atoms: C_14  and  C_15 
ROOT
HETATM    1  N   UNL     1     -40.886 -49.205  10.456  1.00  0.00    -0.305 N 
HETATM    2  C   UNL     1     -42.052 -48.517  10.721  1.00  0.00     0.320 C 
HETATM    3  O   UNL     1     -42.465 -48.240  11.843  1.00  0.00    -0.247 OA
HETATM    4  N   UNL     1     -42.754 -48.110   9.601  1.00  0.00    -0.342 N 
HETATM    5  H   UNL     1     -40.749 -49.612   9.546  1.00  0.00     0.171 HD
HETATM    6  H   UNL     1     -42.736 -48.719   8.800  1.00  0.00     0.164 HD
ENDROOT
BRANCH   1   7
HETATM    7  C   UNL     1     -39.968 -49.615  11.477  1.00  0.00     0.087 A 
HETATM    8  C   UNL     1     -40.071 -50.869  12.092  1.00  0.00     0.169 A 
HETATM    9  N   UNL     1     -39.272 -51.282  13.111  1.00  0.00    -0.345 N 
HETATM   10  C   UNL     1     -38.326 -50.427  13.543  1.00  0.00     0.090 A 
ATOM     11  HN  UNL     1     -39.386 -52.204  13.533  1.00  0.00     0.167 HD
HETATM   12  C   UNL     1     -38.112 -49.186  12.981  1.00  0.00     0.019 A 
HETATM   13  C   UNL     1     -38.932 -48.790  11.929  1.00  0.00     0.035 A 
BRANCH   8  14
HETATM   14  O   UNL     1     -41.055 -51.739  11.647  1.00  0.00    -0.339 OA
HETATM   15  C   UNL     1     -42.125 -51.860  12.591  1.00  0.00     0.211 C 
ENDBRANCH   8  14
ENDBRANCH   1   7
BRANCH   4  16
HETATM   16  C   UNL     1     -43.982 -47.386   9.881  1.00  0.00     0.129 C 
BRANCH  16  17
HETATM   17  C   UNL     1     -45.067 -47.465   8.860  1.00  0.00     0.003 A 
HETATM   18  C   UNL     1     -46.411 -46.817   9.089  1.00  0.00     0.007 A 
HETATM   19  C   UNL     1     -46.307 -48.314   8.969  1.00  0.00     0.007 A 
ENDBRANCH  16  17
ENDBRANCH   4  16
TORSDOF 4
ENDMDL
MODEL 2
REMARK VINA RESULT:      -5.6      1.757      6.776
REMARK  4 active torsions:
REMARK  status: ('A' for Active; 'I' for Inactive)
REMARK    1  A    between atoms: O_2  and  C_3 
REMARK    2  A    between atoms: C_9  and  N_10 
REMARK       I    between atoms: N_10  and  C_11 
REMARK       I    between atoms: C_11  and  N_13 
REMARK    3  A    between atoms: N_13  and  C_14 
REMARK    4  A    between atoms: C_14  and  C_15 
ROOT
HETATM    1  N   UNL     1     -42.233 -48.116   9.394  1.00  0.00    -0.305 N 
HETATM    2  C   UNL     1     -41.797 -48.531  10.635  1.00  0.00     0.320 C 
HETATM    3  O   UNL     1     -42.311 -48.213  11.704  1.00  0.00    -0.247 OA
HETATM    4  N   UNL     1     -40.713 -49.390  10.613  1.00  0.00    -0.342 N 
HETATM    5  H   UNL     1     -41.620 -48.204   8.601  1.00  0.00     0.171 HD
HETATM    6  H   UNL     1     -40.024 -49.243   9.895  1.00  0.00     0.164 HD
ENDROOT
BRANCH   1   7
HETATM    7  C   UNL     1     -43.405 -47.313   9.203  1.00  0.00     0.087 A 
HETATM    8  C   UNL     1     -43.363 -45.919   9.328  1.00  0.00     0.169 A 
HETATM    9  N   UNL     1     -44.455 -45.116   9.225  1.00  0.00    -0.345 N 
HETATM   10  C   UNL     1     -45.640 -45.708   8.983  1.00  0.00     0.090 A 
ATOM     11  HN  UNL     1     -44.380 -44.104   9.327  1.00  0.00     0.167 HD
HETATM   12  C   UNL     1     -45.785 -47.067   8.802  1.00  0.00     0.019 A 
HETATM   13  C   UNL     1     -44.652 -47.869   8.897  1.00  0.00     0.035 A 
BRANCH   8  14
HETATM   14  O   UNL     1     -42.140 -45.319   9.587  1.00  0.00    -0.339 OA
HETATM   15  C   UNL     1     -42.080 -44.785  10.914  1.00  0.00     0.211 C 
ENDBRANCH   8  14
ENDBRANCH   1   7
BRANCH   4  16
HETATM   16  C   UNL     1     -40.255 -49.826  11.921  1.00  0.00     0.129 C 
BRANCH  16  17
HETATM   17  C   UNL     1     -38.860 -50.347  12.015  1.00  0.00     0.003 A 
HETATM   18  C   UNL     1     -37.793 -49.606  12.785  1.00  0.00     0.007 A 
HETATM   19  C   UNL     1     -37.666 -49.776  11.294  1.00  0.00     0.007 A 
ENDBRANCH  16  17
ENDBRANCH   4  16
TORSDOF 4
ENDMDL
MODEL 3
REMARK VINA RESULT:      -5.4      3.450      6.455
REMARK  4 active torsions:
REMARK  status: ('A' for Active; 'I' for Inactive)
REMARK    1  A    between atoms: O_2  and  C_3 
REMARK    2  A    between atoms: C_9  and  N_10 
REMARK       I    between atoms: N_10  and  C_11 
REMARK       I    between atoms: C_11  and  N_13 
REMARK    3  A    between atoms: N_13  and  C_14 
REMARK    4  A    between atoms: C_14  and  C_15 
ROOT
HETATM    1  N   UNL     1     -42.791 -52.829  11.904  1.00  0.00    -0.305 N 
HETATM    2  C   UNL     1     -41.984 -51.779  12.289  1.00  0.00     0.320 C 
HETATM    3  O   UNL     1     -41.961 -51.286  13.414  1.00  0.00    -0.247 OA
HETATM    4  N   UNL     1     -41.140 -51.302  11.303  1.00  0.00    -0.342 N 
HETATM    5  H   UNL     1     -42.940 -53.003  10.924  1.00  0.00     0.171 HD
HETATM    6  H   UNL     1     -41.484 -51.311  10.358  1.00  0.00     0.164 HD
ENDROOT
BRANCH   1   7
HETATM    7  C   UNL     1     -43.654 -53.528  12.809  1.00  0.00     0.087 A 
HETATM    8  C   UNL     1     -45.045 -53.376  12.757  1.00  0.00     0.169 A 
HETATM    9  N   UNL     1     -45.906 -53.960  13.633  1.00  0.00    -0.345 N 
HETATM   10  C   UNL     1     -45.376 -54.732  14.600  1.00  0.00     0.090 A 
ATOM     11  HN  UNL     1     -46.913 -53.818  13.560  1.00  0.00     0.167 HD
HETATM   12  C   UNL     1     -44.025 -54.981  14.717  1.00  0.00     0.019 A 
HETATM   13  C   UNL     1     -43.164 -54.385  13.801  1.00  0.00     0.035 A 
BRANCH   8  14
HETATM   14  O   UNL     1     -45.581 -52.571  11.763  1.00  0.00    -0.339 OA
HETATM   15  C   UNL     1     -46.698 -51.811  12.237  1.00  0.00     0.211 C 
ENDBRANCH   8  14
ENDBRANCH   1   7
BRANCH   4  16
HETATM   16  C   UNL     1     -40.291 -50.196  11.711  1.00  0.00     0.129 C 
BRANCH  16  17
HETATM   17  C   UNL     1     -38.872 -50.514  12.046  1.00  0.00     0.003 A 
HETATM   18  C   UNL     1     -37.999 -49.532  12.789  1.00  0.00     0.007 A 
HETATM   19  C   UNL     1     -37.663 -49.918  11.373  1.00  0.00     0.007 A 
ENDBRANCH  16  17
ENDBRANCH   4  16
TORSDOF 4
ENDMDL
MODEL 4
REMARK VINA RESULT:      -5.4      3.577      6.273
REMARK  4 active torsions:
REMARK  status: ('A' for Active; 'I' for Inactive)
REMARK    1  A    between atoms: O_2  and  C_3 
REMARK    2  A    between atoms: C_9  and  N_10 
REMARK       I    between atoms: N_10  and  C_11 
REMARK       I    between atoms: C_11  and  N_13 
REMARK    3  A    between atoms: N_13  and  C_14 
REMARK    4  A    between atoms: C_14  and  C_15 
ROOT
HETATM    1  N   UNL     1     -42.611 -52.686  11.800  1.00  0.00    -0.305 N 
HETATM    2  C   UNL     1     -41.857 -51.582  12.140  1.00  0.00     0.320 C 
HETATM    3  O   UNL     1     -41.970 -50.948  13.185  1.00  0.00    -0.247 OA
HETATM    4  N   UNL     1     -40.897 -51.225  11.210  1.00  0.00    -0.342 N 
HETATM    5  H   UNL     1     -42.639 -52.988  10.841  1.00  0.00     0.171 HD
HETATM    6  H   UNL     1     -41.124 -51.361  10.240  1.00  0.00     0.164 HD
ENDROOT
BRANCH   1   7
HETATM    7  C   UNL     1     -43.579 -53.275  12.678  1.00  0.00     0.087 A 
HETATM    8  C   UNL     1     -43.213 -54.229  13.635  1.00  0.00     0.169 A 
HETATM    9  N   UNL     1     -44.098 -54.869  14.445  1.00  0.00    -0.345 N 
HETATM   10  C   UNL     1     -45.401 -54.553  14.312  1.00  0.00     0.090 A 
ATOM     11  HN  UNL     1     -43.788 -55.561  15.126  1.00  0.00     0.167 HD
HETATM   12  C   UNL     1     -45.863 -53.599  13.431  1.00  0.00     0.019 A 
HETATM   13  C   UNL     1     -44.938 -52.946  12.621  1.00  0.00     0.035 A 
BRANCH   8  14
HETATM   14  O   UNL     1     -41.871 -54.555  13.758  1.00  0.00    -0.339 OA
HETATM   15  C   UNL     1     -41.329 -54.117  15.008  1.00  0.00     0.211 C 
ENDBRANCH   8  14
ENDBRANCH   1   7
BRANCH   4  16
HETATM   16  C   UNL     1     -40.103 -50.062  11.570  1.00  0.00     0.129 C 
BRANCH  16  17
HETATM   17  C   UNL     1     -38.705 -50.309  12.028  1.00  0.00     0.003 A 
HETATM   18  C   UNL     1     -37.833 -49.185  12.533  1.00  0.00     0.007 A 
HETATM   19  C   UNL     1     -37.459 -49.921  11.275  1.00  0.00     0.007 A 
ENDBRANCH  16  17
ENDBRANCH   4  16
TORSDOF 4
ENDMDL
MODEL 5
REMARK VINA RESULT:      -5.3      2.789      4.799
REMARK  4 active torsions:
REMARK  status: ('A' for Active; 'I' for Inactive)
REMARK    1  A    between atoms: O_2  and  C_3 
REMARK    2  A    between atoms: C_9  and  N_10 
REMARK       I    between atoms: N_10  and  C_11 
REMARK       I    between atoms: C_11  and  N_13 
REMARK    3  A    between atoms: N_13  and  C_14 
REMARK    4  A    between atoms: C_14  and  C_15 
ROOT
HETATM    1  N   UNL     1     -42.212 -49.460  11.443  1.00  0.00    -0.305 N 
HETATM    2  C   UNL     1     -42.940 -49.709  12.588  1.00  0.00     0.320 C 
HETATM    3  O   UNL     1     -43.140 -48.895  13.486  1.00  0.00    -0.247 OA
HETATM    4  N   UNL     1     -43.486 -50.977  12.665  1.00  0.00    -0.342 N 
HETATM    5  H   UNL     1     -41.881 -50.233  10.891  1.00  0.00     0.171 HD
HETATM    6  H   UNL     1     -42.952 -51.733  12.271  1.00  0.00     0.164 HD
ENDROOT
BRANCH   1   7
HETATM    7  C   UNL     1     -41.659 -48.175  11.130  1.00  0.00     0.087 A 
HETATM    8  C   UNL     1     -42.302 -47.298  10.247  1.00  0.00     0.169 A 
HETATM    9  N   UNL     1     -41.789 -46.099   9.862  1.00  0.00    -0.345 N 
HETATM   10  C   UNL     1     -40.594 -45.744  10.371  1.00  0.00     0.090 A 
ATOM     11  HN  UNL     1     -42.290 -45.493   9.213  1.00  0.00     0.167 HD
HETATM   12  C   UNL     1     -39.897 -46.513  11.278  1.00  0.00     0.019 A 
HETATM   13  C   UNL     1     -40.447 -47.730  11.670  1.00  0.00     0.035 A 
BRANCH   8  14
HETATM   14  O   UNL     1     -43.527 -47.677   9.721  1.00  0.00    -0.339 OA
HETATM   15  C   UNL     1     -43.538 -47.606   8.291  1.00  0.00     0.211 C 
ENDBRANCH   8  14
ENDBRANCH   1   7
BRANCH   4  16
HETATM   16  C   UNL     1     -44.253 -51.238  13.871  1.00  0.00     0.129 C 
BRANCH  16  17
HETATM   17  C   UNL     1     -45.740 -51.237  13.746  1.00  0.00     0.003 A 
HETATM   18  C   UNL     1     -46.541 -52.511  13.870  1.00  0.00     0.007 A 
HETATM   19  C   UNL     1     -46.515 -51.761  12.565  1.00  0.00     0.007 A 
ENDBRANCH  16  17
ENDBRANCH   4  16
TORSDOF 4
ENDMDL
MODEL 6
REMARK VINA RESULT:      -5.3      2.628      4.911
REMARK  4 active torsions:
REMARK  status: ('A' for Active; 'I' for Inactive)
REMARK    1  A    between atoms: O_2  and  C_3 
REMARK    2  A    between atoms: C_9  and  N_10 
REMARK       I    between atoms: N_10  and  C_11 
REMARK       I    between atoms: C_11  and  N_13 
REMARK    3  A    between atoms: N_13  and  C_14 
REMARK    4  A    between atoms: C_14  and  C_15 
ROOT
HETATM    1  N   UNL     1     -41.087 -51.694  11.491  1.00  0.00    -0.305 N 
HETATM    2  C   UNL     1     -42.186 -51.982  12.274  1.00  0.00     0.320 C 
HETATM    3  O   UNL     1     -42.391 -51.522  13.394  1.00  0.00    -0.247 OA
HETATM    4  N   UNL     1     -43.106 -52.836  11.693  1.00  0.00    -0.342 N 
HETATM    5  H   UNL     1     -40.864 -52.293  10.715  1.00  0.00     0.171 HD
HETATM    6  H   UNL     1     -42.747 -53.562  11.097  1.00  0.00     0.164 HD
ENDROOT
BRANCH   1   7
HETATM    7  C   UNL     1     -40.079 -50.749  11.871  1.00  0.00     0.087 A 
HETATM    8  C   UNL     1     -40.108 -49.426  11.414  1.00  0.00     0.169 A 
HETATM    9  N   UNL     1     -39.143 -48.508  11.687  1.00  0.00    -0.345 N 
HETATM   10  C   UNL     1     -38.106 -48.906  12.448  1.00  0.00     0.090 A 
ATOM     11  HN  UNL     1     -39.202 -47.555  11.329  1.00  0.00     0.167 HD
HETATM   12  C   UNL     1     -38.001 -50.172  12.984  1.00  0.00     0.019 A 
HETATM   13  C   UNL     1     -39.007 -51.092  12.703  1.00  0.00     0.035 A 
BRANCH   8  14
HETATM   14  O   UNL     1     -41.174 -49.027  10.622  1.00  0.00    -0.339 OA
HETATM   15  C   UNL     1     -42.132 -48.263  11.364  1.00  0.00     0.211 C 
ENDBRANCH   8  14
ENDBRANCH   1   7
BRANCH   4  16
HETATM   16  C   UNL     1     -44.263 -53.137  12.519  1.00  0.00     0.129 C 
BRANCH  16  17
HETATM   17  C   UNL     1     -44.337 -54.505  13.111  1.00  0.00     0.003 A 
HETATM   18  C   UNL     1     -45.518 -54.937  13.947  1.00  0.00     0.007 A 
HETATM   19  C   UNL     1     -44.151 -54.835  14.569  1.00  0.00     0.007 A 
ENDBRANCH  16  17
ENDBRANCH   4  16
TORSDOF 4
ENDMDL
MODEL 7
REMARK VINA RESULT:      -5.2      3.582      4.872
REMARK  4 active torsions:
REMARK  status: ('A' for Active; 'I' for Inactive)
REMARK    1  A    between atoms: O_2  and  C_3 
REMARK    2  A    between atoms: C_9  and  N_10 
REMARK       I    between atoms: N_10  and  C_11 
REMARK       I    between atoms: C_11  and  N_13 
REMARK    3  A    between atoms: N_13  and  C_14 
REMARK    4  A    between atoms: C_14  and  C_15 
ROOT
HETATM    1  N   UNL     1     -41.155 -51.925  11.632  1.00  0.00    -0.305 N 
HETATM    2  C   UNL     1     -42.320 -52.100  12.349  1.00  0.00     0.320 C 
HETATM    3  O   UNL     1     -42.627 -51.470  13.357  1.00  0.00    -0.247 OA
HETATM    4  N   UNL     1     -43.183 -53.051  11.834  1.00  0.00    -0.342 N 
HETATM    5  H   UNL     1     -40.861 -52.639  10.986  1.00  0.00     0.171 HD
HETATM    6  H   UNL     1     -42.770 -53.858  11.398  1.00  0.00     0.164 HD
ENDROOT
BRANCH   1   7
HETATM    7  C   UNL     1     -40.186 -50.916  11.943  1.00  0.00     0.087 A 
HETATM    8  C   UNL     1     -39.108 -51.176  12.798  1.00  0.00     0.169 A 
HETATM    9  N   UNL     1     -38.200 -50.240  13.181  1.00  0.00    -0.345 N 
HETATM   10  C   UNL     1     -38.356 -48.992  12.698  1.00  0.00     0.090 A 
ATOM     11  HN  UNL     1     -37.432 -50.473  13.809  1.00  0.00     0.167 HD
HETATM   12  C   UNL     1     -39.357 -48.639  11.820  1.00  0.00     0.019 A 
HETATM   13  C   UNL     1     -40.267 -49.617  11.429  1.00  0.00     0.035 A 
BRANCH   8  14
HETATM   14  O   UNL     1     -38.961 -52.462  13.297  1.00  0.00    -0.339 OA
HETATM   15  C   UNL     1     -39.247 -52.524  14.699  1.00  0.00     0.211 C 
ENDBRANCH   8  14
ENDBRANCH   1   7
BRANCH   4  16
HETATM   16  C   UNL     1     -44.409 -53.234  12.590  1.00  0.00     0.129 C 
BRANCH  16  17
HETATM   17  C   UNL     1     -44.406 -54.286  13.647  1.00  0.00     0.003 A 
HETATM   18  C   UNL     1     -45.518 -55.303  13.750  1.00  0.00     0.007 A 
HETATM   19  C   UNL     1     -45.302 -54.308  14.859  1.00  0.00     0.007 A 
ENDBRANCH  16  17
ENDBRANCH   4  16
TORSDOF 4
ENDMDL
MODEL 8
REMARK VINA RESULT:      -5.2      1.748      2.998
REMARK  4 active torsions:
REMARK  status: ('A' for Active; 'I' for Inactive)
REMARK    1  A    between atoms: O_2  and  C_3 
REMARK    2  A    between atoms: C_9  and  N_10 
REMARK       I    between atoms: N_10  and  C_11 
REMARK       I    between atoms: C_11  and  N_13 
REMARK    3  A    between atoms: N_13  and  C_14 
REMARK    4  A    between atoms: C_14  and  C_15 
ROOT
HETATM    1  N   UNL     1     -40.593 -50.900  11.217  1.00  0.00    -0.305 N 
HETATM    2  C   UNL     1     -41.387 -49.775  11.304  1.00  0.00     0.320 C 
HETATM    3  O   UNL     1     -42.114 -49.500  12.253  1.00  0.00    -0.247 OA
HETATM    4  N   UNL     1     -41.295 -48.914  10.225  1.00  0.00    -0.342 N 
HETATM    5  H   UNL     1     -40.233 -51.182  10.321  1.00  0.00     0.171 HD
HETATM    6  H   UNL     1     -41.157 -49.326   9.318  1.00  0.00     0.164 HD
ENDROOT
BRANCH   1   7
HETATM    7  C   UNL     1     -40.468 -51.856  12.278  1.00  0.00     0.087 A 
HETATM    8  C   UNL     1     -39.463 -51.744  13.247  1.00  0.00     0.169 A 
HETATM    9  N   UNL     1     -39.256 -52.656  14.233  1.00  0.00    -0.345 N 
HETATM   10  C   UNL     1     -40.076 -53.724  14.272  1.00  0.00     0.090 A 
ATOM     11  HN  UNL     1     -38.509 -52.537  14.917  1.00  0.00     0.167 HD
HETATM   12  C   UNL     1     -41.121 -53.910  13.392  1.00  0.00     0.019 A 
HETATM   13  C   UNL     1     -41.324 -52.956  12.399  1.00  0.00     0.035 A 
BRANCH   8  14
HETATM   14  O   UNL     1     -38.618 -50.646  13.193  1.00  0.00    -0.339 OA
HETATM   15  C   UNL     1     -37.299 -51.009  12.770  1.00  0.00     0.211 C 
ENDBRANCH   8  14
ENDBRANCH   1   7
BRANCH   4  16
HETATM   16  C   UNL     1     -42.131 -47.730  10.319  1.00  0.00     0.129 C 
BRANCH  16  17
HETATM   17  C   UNL     1     -43.176 -47.550   9.269  1.00  0.00     0.003 A 
HETATM   18  C   UNL     1     -43.826 -46.209   9.026  1.00  0.00     0.007 A 
HETATM   19  C   UNL     1     -44.649 -47.365   9.528  1.00  0.00     0.007 A 
ENDBRANCH  16  17
ENDBRANCH   4  16
TORSDOF 4
ENDMDL
MODEL 9
REMARK VINA RESULT:      -5.1      2.105      5.575
REMARK  4 active torsions:
REMARK  status: ('A' for Active; 'I' for Inactive)
REMARK    1  A    between atoms: O_2  and  C_3 
REMARK    2  A    between atoms: C_9  and  N_10 
REMARK       I    between atoms: N_10  and  C_11 
REMARK       I    between atoms: C_11  and  N_13 
REMARK    3  A    between atoms: N_13  and  C_14 
REMARK    4  A    between atoms: C_14  and  C_15 
ROOT
HETATM    1  N   UNL     1     -41.200 -48.824  10.512  1.00  0.00    -0.305 N 
HETATM    2  C   UNL     1     -40.983 -49.720  11.539  1.00  0.00     0.320 C 
HETATM    3  O   UNL     1     -40.895 -49.420  12.726  1.00  0.00    -0.247 OA
HETATM    4  N   UNL     1     -40.892 -51.043  11.147  1.00  0.00    -0.342 N 
HETATM    5  H   UNL     1     -41.005 -49.103   9.565  1.00  0.00     0.171 HD
HETATM    6  H   UNL     1     -40.462 -51.231  10.257  1.00  0.00     0.164 HD
ENDROOT
BRANCH   1   7
HETATM    7  C   UNL     1     -41.428 -47.426  10.726  1.00  0.00     0.087 A 
HETATM    8  C   UNL     1     -42.723 -46.896  10.775  1.00  0.00     0.169 A 
HETATM    9  N   UNL     1     -42.996 -45.571  10.907  1.00  0.00    -0.345 N 
HETATM   10  C   UNL     1     -41.949 -44.729  11.000  1.00  0.00     0.090 A 
ATOM     11  HN  UNL     1     -43.956 -45.227  10.934  1.00  0.00     0.167 HD
HETATM   12  C   UNL     1     -40.636 -45.149  11.004  1.00  0.00     0.019 A 
HETATM   13  C   UNL     1     -40.380 -46.512  10.883  1.00  0.00     0.035 A 
BRANCH   8  14
HETATM   14  O   UNL     1     -43.795 -47.769  10.669  1.00  0.00    -0.339 OA
HETATM   15  C   UNL     1     -44.670 -47.409   9.595  1.00  0.00     0.211 C 
ENDBRANCH   8  14
ENDBRANCH   1   7
BRANCH   4  16
HETATM   16  C   UNL     1     -40.664 -51.985  12.229  1.00  0.00     0.129 C 
BRANCH  16  17
HETATM   17  C   UNL     1     -41.786 -52.904  12.579  1.00  0.00     0.003 A 
HETATM   18  C   UNL     1     -42.374 -52.935  13.969  1.00  0.00     0.007 A 
HETATM   19  C   UNL     1     -41.664 -54.146  13.424  1.00  0.00     0.007 A 
ENDBRANCH  16  17
ENDBRANCH   4  16
TORSDOF 4
ENDMDL
