MODEL 1
REMARK VINA RESULT:      -5.4      0.000      0.000
REMARK  4 active torsions:
REMARK  status: ('A' for Active; 'I' for Inactive)
REMARK    1  A    between atoms: C_2  and  N_3 
REMARK    2  A    between atoms: C_8  and  N_9 
REMARK       I    between atoms: N_9  and  C_10 
REMARK       I    between atoms: C_10  and  N_12 
REMARK    3  A    between atoms: N_12  and  C_13 
REMARK    4  A    between atoms: C_13  and  C_14 
ROOT
HETATM    1  N   UNL     1     -42.177 -46.510  10.749  1.00  0.00    -0.304 N 
HETATM    2  C   UNL     1     -42.107 -47.777  10.242  1.00  0.00     0.320 C 
HETATM    3  O   UNL     1     -41.241 -48.607  10.489  1.00  0.00    -0.247 OA
HETATM    4  N   UNL     1     -43.121 -48.106   9.386  1.00  0.00    -0.342 N 
HETATM    5  H   UNL     1     -42.939 -45.913  10.454  1.00  0.00     0.171 HD
HETATM    6  H   UNL     1     -43.037 -49.031   8.980  1.00  0.00     0.164 HD
ENDROOT
BRANCH   1   7
HETATM    7  C   UNL     1     -41.345 -45.884  11.641  1.00  0.00     0.102 A 
HETATM    8  C   UNL     1     -40.353 -44.922  11.047  1.00  0.00     0.201 A 
HETATM    9  C   UNL     1     -39.455 -44.196  11.974  1.00  0.00     0.074 A 
HETATM   10  O   UNL     1     -40.301 -44.742   9.831  1.00  0.00    -0.286 OA
HETATM   11  C   UNL     1     -39.572 -44.443  13.284  1.00  0.00     0.094 A 
HETATM   12  N   UNL     1     -40.475 -45.347  13.831  1.00  0.00    -0.364 N 
HETATM   13  C   UNL     1     -41.329 -46.029  12.968  1.00  0.00     0.124 A 
BRANCH  12  14
HETATM   14  C   UNL     1     -40.626 -45.509  15.284  1.00  0.00     0.123 C 
HETATM   15  C   UNL     1     -39.267 -45.735  15.931  1.00  0.00     0.027 C 
ENDBRANCH  12  14
ENDBRANCH   1   7
BRANCH   4  16
HETATM   16  C   UNL     1     -44.179 -47.227   8.957  1.00  0.00     0.129 C 
BRANCH  16  17
HETATM   17  C   UNL     1     -45.494 -47.606   9.540  1.00  0.00     0.003 A 
HETATM   18  C   UNL     1     -46.543 -48.344   8.753  1.00  0.00     0.007 A 
HETATM   19  C   UNL     1     -46.717 -46.880   9.038  1.00  0.00     0.007 A 
ENDBRANCH  16  17
ENDBRANCH   4  16
TORSDOF 4
ENDMDL
MODEL 2
REMARK VINA RESULT:      -5.4      3.355      4.522
REMARK  4 active torsions:
REMARK  status: ('A' for Active; 'I' for Inactive)
REMARK    1  A    between atoms: C_2  and  N_3 
REMARK    2  A    between atoms: C_8  and  N_9 
REMARK       I    between atoms: N_9  and  C_10 
REMARK       I    between atoms: C_10  and  N_12 
REMARK    3  A    between atoms: N_12  and  C_13 
REMARK    4  A    between atoms: C_13  and  C_14 
ROOT
HETATM    1  N   UNL     1     -42.487 -48.561  10.974  1.00  0.00    -0.304 N 
HETATM    2  C   UNL     1     -42.963 -47.338  11.358  1.00  0.00     0.320 C 
HETATM    3  O   UNL     1     -42.651 -46.728  12.373  1.00  0.00    -0.247 OA
HETATM    4  N   UNL     1     -43.867 -46.782  10.497  1.00  0.00    -0.342 N 
HETATM    5  H   UNL     1     -42.838 -48.968  10.117  1.00  0.00     0.171 HD
HETATM    6  H   UNL     1     -44.248 -45.897  10.812  1.00  0.00     0.164 HD
ENDROOT
BRANCH   1   7
HETATM    7  C   UNL     1     -41.564 -49.365  11.590  1.00  0.00     0.102 A 
HETATM    8  C   UNL     1     -42.116 -50.364  12.571  1.00  0.00     0.201 A 
HETATM    9  C   UNL     1     -41.160 -51.279  13.236  1.00  0.00     0.074 A 
HETATM   10  O   UNL     1     -43.323 -50.420  12.801  1.00  0.00    -0.286 OA
HETATM   11  C   UNL     1     -39.861 -51.160  12.933  1.00  0.00     0.094 A 
HETATM   12  N   UNL     1     -39.351 -50.223  12.042  1.00  0.00    -0.364 N 
HETATM   13  C   UNL     1     -40.242 -49.364  11.406  1.00  0.00     0.124 A 
BRANCH  12  14
HETATM   14  C   UNL     1     -37.927 -50.200  11.675  1.00  0.00     0.123 C 
HETATM   15  C   UNL     1     -37.138 -51.143  12.570  1.00  0.00     0.027 C 
ENDBRANCH  12  14
ENDBRANCH   1   7
BRANCH   4  16
HETATM   16  C   UNL     1     -44.373 -47.395   9.296  1.00  0.00     0.129 C 
BRANCH  16  17
HETATM   17  C   UNL     1     -45.724 -47.986   9.494  1.00  0.00     0.003 A 
HETATM   18  C   UNL     1     -46.546 -48.519   8.351  1.00  0.00     0.007 A 
HETATM   19  C   UNL     1     -46.910 -47.206   8.983  1.00  0.00     0.007 A 
ENDBRANCH  16  17
ENDBRANCH   4  16
TORSDOF 4
ENDMDL
MODEL 3
REMARK VINA RESULT:      -5.2      7.204      8.304
REMARK  4 active torsions:
REMARK  status: ('A' for Active; 'I' for Inactive)
REMARK    1  A    between atoms: C_2  and  N_3 
REMARK    2  A    between atoms: C_8  and  N_9 
REMARK       I    between atoms: N_9  and  C_10 
REMARK       I    between atoms: C_10  and  N_12 
REMARK    3  A    between atoms: N_12  and  C_13 
REMARK    4  A    between atoms: C_13  and  C_14 
ROOT
HETATM    1  N   UNL     1     -43.812 -53.645  14.325  1.00  0.00    -0.304 N 
HETATM    2  C   UNL     1     -44.718 -54.091  13.404  1.00  0.00     0.320 C 
HETATM    3  O   UNL     1     -44.474 -54.411  12.247  1.00  0.00    -0.247 OA
HETATM    4  N   UNL     1     -46.004 -54.172  13.861  1.00  0.00    -0.342 N 
HETATM    5  H   UNL     1     -44.145 -53.396  15.247  1.00  0.00     0.171 HD
HETATM    6  H   UNL     1     -46.675 -54.461  13.159  1.00  0.00     0.164 HD
ENDROOT
BRANCH   1   7
HETATM    7  C   UNL     1     -42.458 -53.474  14.199  1.00  0.00     0.102 A 
HETATM    8  C   UNL     1     -41.602 -54.497  14.894  1.00  0.00     0.201 A 
HETATM    9  C   UNL     1     -40.132 -54.375  14.758  1.00  0.00     0.074 A 
HETATM   10  O   UNL     1     -42.112 -55.408  15.545  1.00  0.00    -0.286 OA
HETATM   11  C   UNL     1     -39.651 -53.358  14.031  1.00  0.00     0.094 A 
HETATM   12  N   UNL     1     -40.443 -52.402  13.406  1.00  0.00    -0.364 N 
HETATM   13  C   UNL     1     -41.825 -52.513  13.522  1.00  0.00     0.124 A 
BRANCH  12  14
HETATM   14  C   UNL     1     -39.865 -51.363  12.542  1.00  0.00     0.123 C 
HETATM   15  C   UNL     1     -38.466 -51.002  13.019  1.00  0.00     0.027 C 
ENDBRANCH  12  14
ENDBRANCH   1   7
BRANCH   4  16
HETATM   16  C   UNL     1     -46.458 -53.783  15.171  1.00  0.00     0.129 C 
BRANCH  16  17
HETATM   17  C   UNL     1     -47.182 -52.484  15.151  1.00  0.00     0.003 A 
HETATM   18  C   UNL     1     -46.723 -51.318  14.316  1.00  0.00     0.007 A 
HETATM   19  C   UNL     1     -46.512 -51.300  15.803  1.00  0.00     0.007 A 
ENDBRANCH  16  17
ENDBRANCH   4  16
TORSDOF 4
ENDMDL
MODEL 4
REMARK VINA RESULT:      -5.2      7.146      8.018
REMARK  4 active torsions:
REMARK  status: ('A' for Active; 'I' for Inactive)
REMARK    1  A    between atoms: C_2  and  N_3 
REMARK    2  A    between atoms: C_8  and  N_9 
REMARK       I    between atoms: N_9  and  C_10 
REMARK       I    between atoms: C_10  and  N_12 
REMARK    3  A    between atoms: N_12  and  C_13 
REMARK    4  A    between atoms: C_13  and  C_14 
ROOT
HETATM    1  N   UNL     1     -43.869 -53.464  14.179  1.00  0.00    -0.304 N 
HETATM    2  C   UNL     1     -44.795 -54.073  13.378  1.00  0.00     0.320 C 
HETATM    3  O   UNL     1     -44.613 -54.466  12.233  1.00  0.00    -0.247 OA
HETATM    4  N   UNL     1     -46.024 -54.240  13.953  1.00  0.00    -0.342 N 
HETATM    5  H   UNL     1     -44.150 -53.171  15.105  1.00  0.00     0.171 HD
HETATM    6  H   UNL     1     -46.717 -54.651  13.337  1.00  0.00     0.164 HD
ENDROOT
BRANCH   1   7
HETATM    7  C   UNL     1     -42.555 -53.174  13.920  1.00  0.00     0.102 A 
HETATM    8  C   UNL     1     -42.275 -51.776  13.441  1.00  0.00     0.201 A 
HETATM    9  C   UNL     1     -40.865 -51.405  13.181  1.00  0.00     0.074 A 
HETATM   10  O   UNL     1     -43.190 -50.970  13.282  1.00  0.00    -0.286 OA
HETATM   11  C   UNL     1     -39.923 -52.336  13.379  1.00  0.00     0.094 A 
HETATM   12  N   UNL     1     -40.185 -53.634  13.802  1.00  0.00    -0.364 N 
HETATM   13  C   UNL     1     -41.507 -53.990  14.056  1.00  0.00     0.124 A 
BRANCH  12  14
HETATM   14  C   UNL     1     -39.104 -54.586  14.094  1.00  0.00     0.123 C 
HETATM   15  C   UNL     1     -39.281 -55.170  15.488  1.00  0.00     0.027 C 
ENDBRANCH  12  14
ENDBRANCH   1   7
BRANCH   4  16
HETATM   16  C   UNL     1     -46.409 -53.787  15.265  1.00  0.00     0.129 C 
BRANCH  16  17
HETATM   17  C   UNL     1     -47.209 -52.533  15.213  1.00  0.00     0.003 A 
HETATM   18  C   UNL     1     -46.762 -51.323  14.438  1.00  0.00     0.007 A 
HETATM   19  C   UNL     1     -46.666 -51.327  15.937  1.00  0.00     0.007 A 
ENDBRANCH  16  17
ENDBRANCH   4  16
TORSDOF 4
ENDMDL
MODEL 5
REMARK VINA RESULT:      -5.2      6.552      8.002
REMARK  4 active torsions:
REMARK  status: ('A' for Active; 'I' for Inactive)
REMARK    1  A    between atoms: C_2  and  N_3 
REMARK    2  A    between atoms: C_8  and  N_9 
REMARK       I    between atoms: N_9  and  C_10 
REMARK       I    between atoms: C_10  and  N_12 
REMARK    3  A    between atoms: N_12  and  C_13 
REMARK    4  A    between atoms: C_13  and  C_14 
ROOT
HETATM    1  N   UNL     1     -44.542 -52.781  13.887  1.00  0.00    -0.304 N 
HETATM    2  C   UNL     1     -45.675 -52.958  13.142  1.00  0.00     0.320 C 
HETATM    3  O   UNL     1     -45.728 -53.069  11.924  1.00  0.00    -0.247 OA
HETATM    4  N   UNL     1     -46.832 -53.013  13.868  1.00  0.00    -0.342 N 
HETATM    5  H   UNL     1     -44.634 -52.687  14.890  1.00  0.00     0.171 HD
HETATM    6  H   UNL     1     -47.670 -53.100  13.305  1.00  0.00     0.164 HD
ENDROOT
BRANCH   1   7
HETATM    7  C   UNL     1     -43.237 -52.710  13.476  1.00  0.00     0.102 A 
HETATM    8  C   UNL     1     -42.406 -53.940  13.719  1.00  0.00     0.201 A 
HETATM    9  C   UNL     1     -40.997 -53.924  13.262  1.00  0.00     0.074 A 
HETATM   10  O   UNL     1     -42.888 -54.927  14.272  1.00  0.00    -0.286 OA
HETATM   11  C   UNL     1     -40.543 -52.814  12.666  1.00  0.00     0.094 A 
HETATM   12  N   UNL     1     -41.306 -51.670  12.460  1.00  0.00    -0.364 N 
HETATM   13  C   UNL     1     -42.633 -51.679  12.880  1.00  0.00     0.124 A 
BRANCH  12  14
HETATM   14  C   UNL     1     -40.784 -50.515  11.716  1.00  0.00     0.123 C 
HETATM   15  C   UNL     1     -41.787 -49.371  11.752  1.00  0.00     0.027 C 
ENDBRANCH  12  14
ENDBRANCH   1   7
BRANCH   4  16
HETATM   16  C   UNL     1     -46.939 -52.847  15.295  1.00  0.00     0.129 C 
BRANCH  16  17
HETATM   17  C   UNL     1     -47.164 -51.427  15.678  1.00  0.00     0.003 A 
HETATM   18  C   UNL     1     -46.449 -50.782  16.835  1.00  0.00     0.007 A 
HETATM   19  C   UNL     1     -47.897 -51.159  16.969  1.00  0.00     0.007 A 
ENDBRANCH  16  17
ENDBRANCH   4  16
TORSDOF 4
ENDMDL
MODEL 6
REMARK VINA RESULT:      -5.1      4.807      6.569
REMARK  4 active torsions:
REMARK  status: ('A' for Active; 'I' for Inactive)
REMARK    1  A    between atoms: C_2  and  N_3 
REMARK    2  A    between atoms: C_8  and  N_9 
REMARK       I    between atoms: N_9  and  C_10 
REMARK       I    between atoms: C_10  and  N_12 
REMARK    3  A    between atoms: N_12  and  C_13 
REMARK    4  A    between atoms: C_13  and  C_14 
ROOT
HETATM    1  N   UNL     1     -42.239 -50.419  11.918  1.00  0.00    -0.304 N 
HETATM    2  C   UNL     1     -42.627 -49.257  12.525  1.00  0.00     0.320 C 
HETATM    3  O   UNL     1     -42.985 -49.135  13.690  1.00  0.00    -0.247 OA
HETATM    4  N   UNL     1     -42.592 -48.154  11.719  1.00  0.00    -0.342 N 
HETATM    5  H   UNL     1     -41.980 -50.390  10.941  1.00  0.00     0.171 HD
HETATM    6  H   UNL     1     -42.923 -47.305  12.164  1.00  0.00     0.164 HD
ENDROOT
BRANCH   1   7
HETATM    7  C   UNL     1     -42.137 -51.680  12.445  1.00  0.00     0.102 A 
HETATM    8  C   UNL     1     -40.744 -52.240  12.539  1.00  0.00     0.201 A 
HETATM    9  C   UNL     1     -40.579 -53.586  13.133  1.00  0.00     0.074 A 
HETATM   10  O   UNL     1     -39.777 -51.592  12.142  1.00  0.00    -0.286 OA
HETATM   11  C   UNL     1     -41.679 -54.230  13.545  1.00  0.00     0.094 A 
HETATM   12  N   UNL     1     -42.967 -53.720  13.439  1.00  0.00    -0.364 N 
HETATM   13  C   UNL     1     -43.132 -52.453  12.889  1.00  0.00     0.124 A 
BRANCH  12  14
HETATM   14  C   UNL     1     -44.129 -54.431  13.994  1.00  0.00     0.123 C 
HETATM   15  C   UNL     1     -45.403 -53.976  13.300  1.00  0.00     0.027 C 
ENDBRANCH  12  14
ENDBRANCH   1   7
BRANCH   4  16
HETATM   16  C   UNL     1     -42.247 -48.143  10.321  1.00  0.00     0.129 C 
BRANCH  16  17
HETATM   17  C   UNL     1     -43.085 -47.191   9.543  1.00  0.00     0.003 A 
HETATM   18  C   UNL     1     -44.554 -47.416   9.308  1.00  0.00     0.007 A 
HETATM   19  C   UNL     1     -43.578 -47.638   8.189  1.00  0.00     0.007 A 
ENDBRANCH  16  17
ENDBRANCH   4  16
TORSDOF 4
ENDMDL
MODEL 7
REMARK VINA RESULT:      -5.0      1.940      2.716
REMARK  4 active torsions:
REMARK  status: ('A' for Active; 'I' for Inactive)
REMARK    1  A    between atoms: C_2  and  N_3 
REMARK    2  A    between atoms: C_8  and  N_9 
REMARK       I    between atoms: N_9  and  C_10 
REMARK       I    between atoms: C_10  and  N_12 
REMARK    3  A    between atoms: N_12  and  C_13 
REMARK    4  A    between atoms: C_13  and  C_14 
ROOT
HETATM    1  N   UNL     1     -41.914 -47.434  11.155  1.00  0.00    -0.304 N 
HETATM    2  C   UNL     1     -42.141 -46.420  10.267  1.00  0.00     0.320 C 
HETATM    3  O   UNL     1     -41.372 -45.503  10.006  1.00  0.00    -0.247 OA
HETATM    4  N   UNL     1     -43.351 -46.477   9.634  1.00  0.00    -0.342 N 
HETATM    5  H   UNL     1     -42.639 -48.126  11.293  1.00  0.00     0.171 HD
HETATM    6  H   UNL     1     -43.530 -45.697   9.011  1.00  0.00     0.164 HD
ENDROOT
BRANCH   1   7
HETATM    7  C   UNL     1     -40.808 -47.682  11.924  1.00  0.00     0.102 A 
HETATM    8  C   UNL     1     -40.087 -48.972  11.640  1.00  0.00     0.201 A 
HETATM    9  C   UNL     1     -38.865 -49.268  12.423  1.00  0.00     0.074 A 
HETATM   10  O   UNL     1     -40.500 -49.747  10.778  1.00  0.00    -0.286 OA
HETATM   11  C   UNL     1     -38.477 -48.375  13.342  1.00  0.00     0.094 A 
HETATM   12  N   UNL     1     -39.155 -47.193  13.618  1.00  0.00    -0.364 N 
HETATM   13  C   UNL     1     -40.300 -46.903  12.883  1.00  0.00     0.124 A 
BRANCH  12  14
HETATM   14  C   UNL     1     -38.631 -46.205  14.572  1.00  0.00     0.123 C 
HETATM   15  C   UNL     1     -39.522 -44.973  14.594  1.00  0.00     0.027 C 
ENDBRANCH  12  14
ENDBRANCH   1   7
BRANCH   4  16
HETATM   16  C   UNL     1     -44.380 -47.456   9.870  1.00  0.00     0.129 C 
BRANCH  16  17
HETATM   17  C   UNL     1     -45.435 -47.426   8.821  1.00  0.00     0.003 A 
HETATM   18  C   UNL     1     -46.855 -47.025   9.117  1.00  0.00     0.007 A 
HETATM   19  C   UNL     1     -46.520 -48.471   8.891  1.00  0.00     0.007 A 
ENDBRANCH  16  17
ENDBRANCH   4  16
TORSDOF 4
ENDMDL
MODEL 8
REMARK VINA RESULT:      -5.0      2.790      3.463
REMARK  4 active torsions:
REMARK  status: ('A' for Active; 'I' for Inactive)
REMARK    1  A    between atoms: C_2  and  N_3 
REMARK    2  A    between atoms: C_8  and  N_9 
REMARK       I    between atoms: N_9  and  C_10 
REMARK       I    between atoms: C_10  and  N_12 
REMARK    3  A    between atoms: N_12  and  C_13 
REMARK    4  A    between atoms: C_13  and  C_14 
ROOT
HETATM    1  N   UNL     1     -41.885 -47.606  11.362  1.00  0.00    -0.304 N 
HETATM    2  C   UNL     1     -42.026 -46.579  10.470  1.00  0.00     0.320 C 
HETATM    3  O   UNL     1     -41.195 -45.713  10.229  1.00  0.00    -0.247 OA
HETATM    4  N   UNL     1     -43.222 -46.558   9.809  1.00  0.00    -0.342 N 
HETATM    5  H   UNL     1     -42.656 -48.250  11.482  1.00  0.00     0.171 HD
HETATM    6  H   UNL     1     -43.336 -45.769   9.183  1.00  0.00     0.164 HD
ENDROOT
BRANCH   1   7
HETATM    7  C   UNL     1     -40.815 -47.924  12.157  1.00  0.00     0.102 A 
HETATM    8  C   UNL     1     -40.749 -47.212  13.481  1.00  0.00     0.201 A 
HETATM    9  C   UNL     1     -39.629 -47.548  14.390  1.00  0.00     0.074 A 
HETATM   10  O   UNL     1     -41.605 -46.386  13.796  1.00  0.00    -0.286 OA
HETATM   11  C   UNL     1     -38.738 -48.459  13.979  1.00  0.00     0.094 A 
HETATM   12  N   UNL     1     -38.789 -49.101  12.747  1.00  0.00    -0.364 N 
HETATM   13  C   UNL     1     -39.842 -48.797  11.889  1.00  0.00     0.124 A 
BRANCH  12  14
HETATM   14  C   UNL     1     -37.837 -50.161  12.387  1.00  0.00     0.123 C 
HETATM   15  C   UNL     1     -37.306 -49.934  10.979  1.00  0.00     0.027 C 
ENDBRANCH  12  14
ENDBRANCH   1   7
BRANCH   4  16
HETATM   16  C   UNL     1     -44.317 -47.470  10.019  1.00  0.00     0.129 C 
BRANCH  16  17
HETATM   17  C   UNL     1     -45.300 -47.433   8.903  1.00  0.00     0.003 A 
HETATM   18  C   UNL     1     -46.681 -46.856   9.065  1.00  0.00     0.007 A 
HETATM   19  C   UNL     1     -46.498 -48.345   8.997  1.00  0.00     0.007 A 
ENDBRANCH  16  17
ENDBRANCH   4  16
TORSDOF 4
ENDMDL
MODEL 9
REMARK VINA RESULT:      -4.9      3.989      6.036
REMARK  4 active torsions:
REMARK  status: ('A' for Active; 'I' for Inactive)
REMARK    1  A    between atoms: C_2  and  N_3 
REMARK    2  A    between atoms: C_8  and  N_9 
REMARK       I    between atoms: N_9  and  C_10 
REMARK       I    between atoms: C_10  and  N_12 
REMARK    3  A    between atoms: N_12  and  C_13 
REMARK    4  A    between atoms: C_13  and  C_14 
ROOT
HETATM    1  N   UNL     1     -41.635 -49.918  11.605  1.00  0.00    -0.304 N 
HETATM    2  C   UNL     1     -42.475 -50.500  12.513  1.00  0.00     0.320 C 
HETATM    3  O   UNL     1     -43.384 -49.944  13.115  1.00  0.00    -0.247 OA
HETATM    4  N   UNL     1     -42.243 -51.829  12.734  1.00  0.00    -0.342 N 
HETATM    5  H   UNL     1     -40.910 -50.485  11.185  1.00  0.00     0.171 HD
HETATM    6  H   UNL     1     -42.841 -52.241  13.441  1.00  0.00     0.164 HD
ENDROOT
BRANCH   1   7
HETATM    7  C   UNL     1     -41.615 -48.628  11.144  1.00  0.00     0.102 A 
HETATM    8  C   UNL     1     -40.415 -47.810  11.536  1.00  0.00     0.201 A 
HETATM    9  C   UNL     1     -40.331 -46.420  11.034  1.00  0.00     0.074 A 
HETATM   10  O   UNL     1     -39.530 -48.290  12.245  1.00  0.00    -0.286 OA
HETATM   11  C   UNL     1     -41.331 -45.969  10.266  1.00  0.00     0.094 A 
HETATM   12  N   UNL     1     -42.450 -46.718   9.921  1.00  0.00    -0.364 N 
HETATM   13  C   UNL     1     -42.534 -48.028  10.382  1.00  0.00     0.124 A 
BRANCH  12  14
HETATM   14  C   UNL     1     -43.471 -46.204   8.997  1.00  0.00     0.123 C 
HETATM   15  C   UNL     1     -44.256 -47.356   8.388  1.00  0.00     0.027 C 
ENDBRANCH  12  14
ENDBRANCH   1   7
BRANCH   4  16
HETATM   16  C   UNL     1     -41.184 -52.608  12.146  1.00  0.00     0.129 C 
BRANCH  16  17
HETATM   17  C   UNL     1     -41.068 -53.956  12.766  1.00  0.00     0.003 A 
HETATM   18  C   UNL     1     -41.248 -54.182  14.244  1.00  0.00     0.007 A 
HETATM   19  C   UNL     1     -39.871 -54.221  13.645  1.00  0.00     0.007 A 
ENDBRANCH  16  17
ENDBRANCH   4  16
TORSDOF 4
ENDMDL
