MODEL 1
REMARK VINA RESULT:      -6.5      0.000      0.000
REMARK  4 active torsions:
REMARK  status: ('A' for Active; 'I' for Inactive)
REMARK       I    between atoms: C_2  and  N_3 
REMARK       I    between atoms: C_2  and  N_10 
REMARK    1  A    between atoms: N_3  and  C_4 
REMARK    2  A    between atoms: C_4  and  C_5 
REMARK    3  A    between atoms: N_10  and  C_11 
REMARK    4  A    between atoms: C_16  and  C_18 
ROOT
HETATM    1  O   UNL     1     -44.979 -54.653  12.889  1.00  0.00    -0.247 OA
HETATM    2  C   UNL     1     -44.254 -53.693  12.635  1.00  0.00     0.322 C 
HETATM    3  N   UNL     1     -44.735 -52.448  12.378  1.00  0.00    -0.340 N 
HETATM    4  N   UNL     1     -42.909 -53.882  12.541  1.00  0.00    -0.288 N 
HETATM    5  H   UNL     1     -44.081 -51.668  12.409  1.00  0.00     0.164 HD
HETATM    6  H   UNL     1     -42.591 -54.833  12.646  1.00  0.00     0.172 HD
ENDROOT
BRANCH   4   7
HETATM    7  C   UNL     1     -41.990 -52.906  12.295  1.00  0.00     0.169 A 
HETATM    8  N   UNL     1     -41.618 -52.399  11.144  1.00  0.00    -0.279 N 
HETATM    9  N   UNL     1     -40.641 -51.439  11.302  1.00  0.00    -0.296 N 
ATOM     10  HN  UNL     1     -42.004 -52.680  10.242  1.00  0.00     0.189 HD
HETATM   11  C   UNL     1     -40.311 -51.285  12.568  1.00  0.00     0.074 A 
ATOM     12  HN  UNL     1     -40.226 -50.913  10.534  1.00  0.00     0.187 HD
HETATM   13  S   UNL     1     -41.206 -52.257  13.663  1.00  0.00    -0.037 SA
BRANCH  11  14
HETATM   14  C   UNL     1     -39.204 -50.333  13.016  1.00  0.00     0.044 A 
HETATM   15  C   UNL     1     -38.221 -49.821  11.983  1.00  0.00     0.012 A 
HETATM   16  C   UNL     1     -37.776 -50.846  12.971  1.00  0.00     0.012 A 
ENDBRANCH  11  14
ENDBRANCH   4   7
BRANCH   3  17
HETATM   17  C   UNL     1     -46.140 -52.102  12.474  1.00  0.00     0.156 C 
BRANCH  17  18
HETATM   18  C   UNL     1     -46.505 -51.569  13.861  1.00  0.00     0.139 C 
HETATM   19  C   UNL     1     -45.336 -51.013  14.665  1.00  0.00     0.035 C 
HETATM   20  C   UNL     1     -45.604 -51.450  16.090  1.00  0.00     0.029 C 
HETATM   21  C   UNL     1     -46.917 -52.200  16.030  1.00  0.00     0.168 C 
HETATM   22  O   UNL     1     -47.077 -52.612  14.669  1.00  0.00    -0.384 OA
ENDBRANCH  17  18
ENDBRANCH   3  17
TORSDOF 4
ENDMDL
MODEL 2
REMARK VINA RESULT:      -6.0      2.731      3.287
REMARK  4 active torsions:
REMARK  status: ('A' for Active; 'I' for Inactive)
REMARK       I    between atoms: C_2  and  N_3 
REMARK       I    between atoms: C_2  and  N_10 
REMARK    1  A    between atoms: N_3  and  C_4 
REMARK    2  A    between atoms: C_4  and  C_5 
REMARK    3  A    between atoms: N_10  and  C_11 
REMARK    4  A    between atoms: C_16  and  C_18 
ROOT
HETATM    1  O   UNL     1     -41.867 -53.578  14.267  1.00  0.00    -0.247 OA
HETATM    2  C   UNL     1     -41.982 -52.798  13.324  1.00  0.00     0.322 C 
HETATM    3  N   UNL     1     -42.983 -52.884  12.408  1.00  0.00    -0.340 N 
HETATM    4  N   UNL     1     -41.037 -51.836  13.136  1.00  0.00    -0.288 N 
HETATM    5  H   UNL     1     -43.148 -52.081  11.805  1.00  0.00     0.164 HD
HETATM    6  H   UNL     1     -40.258 -51.855  13.777  1.00  0.00     0.172 HD
ENDROOT
BRANCH   4   7
HETATM    7  C   UNL     1     -41.054 -50.893  12.153  1.00  0.00     0.169 A 
HETATM    8  N   UNL     1     -40.409 -50.883  11.012  1.00  0.00    -0.279 N 
HETATM    9  N   UNL     1     -40.669 -49.738  10.289  1.00  0.00    -0.296 N 
ATOM     10  HN  UNL     1     -39.790 -51.630  10.697  1.00  0.00     0.189 HD
HETATM   11  C   UNL     1     -41.486 -48.931  10.934  1.00  0.00     0.074 A 
ATOM     12  HN  UNL     1     -40.278 -49.541   9.368  1.00  0.00     0.187 HD
HETATM   13  S   UNL     1     -42.041 -49.532  12.442  1.00  0.00    -0.037 SA
BRANCH  11  14
HETATM   14  C   UNL     1     -41.884 -47.562  10.389  1.00  0.00     0.044 A 
HETATM   15  C   UNL     1     -43.248 -47.004  10.744  1.00  0.00     0.012 A 
HETATM   16  C   UNL     1     -43.003 -47.513   9.364  1.00  0.00     0.012 A 
ENDBRANCH  11  14
ENDBRANCH   4   7
BRANCH   3  17
HETATM   17  C   UNL     1     -44.070 -53.839  12.506  1.00  0.00     0.156 C 
BRANCH  17  18
HETATM   18  C   UNL     1     -45.400 -53.162  12.843  1.00  0.00     0.139 C 
HETATM   19  C   UNL     1     -45.306 -51.666  13.123  1.00  0.00     0.035 C 
HETATM   20  C   UNL     1     -46.280 -51.424  14.257  1.00  0.00     0.029 C 
HETATM   21  C   UNL     1     -46.895 -52.777  14.542  1.00  0.00     0.168 C 
HETATM   22  O   UNL     1     -45.981 -53.746  14.021  1.00  0.00    -0.384 OA
ENDBRANCH  17  18
ENDBRANCH   3  17
TORSDOF 4
ENDMDL
MODEL 3
REMARK VINA RESULT:      -6.0      3.714      6.491
REMARK  4 active torsions:
REMARK  status: ('A' for Active; 'I' for Inactive)
REMARK       I    between atoms: C_2  and  N_3 
REMARK       I    between atoms: C_2  and  N_10 
REMARK    1  A    between atoms: N_3  and  C_4 
REMARK    2  A    between atoms: C_4  and  C_5 
REMARK    3  A    between atoms: N_10  and  C_11 
REMARK    4  A    between atoms: C_16  and  C_18 
ROOT
HETATM    1  O   UNL     1     -39.497 -51.607  12.274  1.00  0.00    -0.247 OA
HETATM    2  C   UNL     1     -40.721 -51.499  12.228  1.00  0.00     0.322 C 
HETATM    3  N   UNL     1     -41.351 -50.424  11.684  1.00  0.00    -0.340 N 
HETATM    4  N   UNL     1     -41.496 -52.462  12.798  1.00  0.00    -0.288 N 
HETATM    5  H   UNL     1     -42.343 -50.509  11.472  1.00  0.00     0.164 HD
HETATM    6  H   UNL     1     -41.001 -53.200  13.273  1.00  0.00     0.172 HD
ENDROOT
BRANCH   4   7
HETATM    7  C   UNL     1     -42.859 -52.483  12.796  1.00  0.00     0.169 A 
HETATM    8  N   UNL     1     -43.672 -53.011  11.912  1.00  0.00    -0.279 N 
HETATM    9  N   UNL     1     -44.992 -52.808  12.249  1.00  0.00    -0.296 N 
ATOM     10  HN  UNL     1     -43.363 -53.511  11.077  1.00  0.00     0.189 HD
HETATM   11  C   UNL     1     -45.110 -52.117  13.364  1.00  0.00     0.074 A 
ATOM     12  HN  UNL     1     -45.782 -53.151  11.702  1.00  0.00     0.187 HD
HETATM   13  S   UNL     1     -43.620 -51.713  14.113  1.00  0.00    -0.037 SA
BRANCH  11  14
HETATM   14  C   UNL     1     -46.464 -51.693  13.927  1.00  0.00     0.044 A 
HETATM   15  C   UNL     1     -46.551 -51.275  15.380  1.00  0.00     0.012 A 
HETATM   16  C   UNL     1     -47.106 -52.595  14.965  1.00  0.00     0.012 A 
ENDBRANCH  11  14
ENDBRANCH   4   7
BRANCH   3  17
HETATM   17  C   UNL     1     -40.649 -49.344  11.017  1.00  0.00     0.156 C 
BRANCH  17  18
HETATM   18  C   UNL     1     -41.384 -48.010  11.157  1.00  0.00     0.139 C 
HETATM   19  C   UNL     1     -42.601 -47.848  10.254  1.00  0.00     0.035 C 
HETATM   20  C   UNL     1     -42.562 -46.400   9.810  1.00  0.00     0.029 C 
HETATM   21  C   UNL     1     -41.353 -45.809  10.502  1.00  0.00     0.168 C 
HETATM   22  O   UNL     1     -40.509 -46.914  10.838  1.00  0.00    -0.384 OA
ENDBRANCH  17  18
ENDBRANCH   3  17
TORSDOF 4
ENDMDL
MODEL 4
REMARK VINA RESULT:      -5.9      2.838      6.512
REMARK  4 active torsions:
REMARK  status: ('A' for Active; 'I' for Inactive)
REMARK       I    between atoms: C_2  and  N_3 
REMARK       I    between atoms: C_2  and  N_10 
REMARK    1  A    between atoms: N_3  and  C_4 
REMARK    2  A    between atoms: C_4  and  C_5 
REMARK    3  A    between atoms: N_10  and  C_11 
REMARK    4  A    between atoms: C_16  and  C_18 
ROOT
HETATM    1  O   UNL     1     -38.993 -54.399  13.641  1.00  0.00    -0.247 OA
HETATM    2  C   UNL     1     -40.045 -53.763  13.608  1.00  0.00     0.322 C 
HETATM    3  N   UNL     1     -40.189 -52.537  14.177  1.00  0.00    -0.340 N 
HETATM    4  N   UNL     1     -41.145 -54.326  13.036  1.00  0.00    -0.288 N 
HETATM    5  H   UNL     1     -40.999 -51.980  13.912  1.00  0.00     0.164 HD
HETATM    6  H   UNL     1     -41.033 -55.272  12.705  1.00  0.00     0.172 HD
ENDROOT
BRANCH   4   7
HETATM    7  C   UNL     1     -42.362 -53.726  12.907  1.00  0.00     0.169 A 
HETATM    8  N   UNL     1     -42.767 -52.876  11.994  1.00  0.00    -0.279 N 
HETATM    9  N   UNL     1     -44.067 -52.474  12.213  1.00  0.00    -0.296 N 
ATOM     10  HN  UNL     1     -42.190 -52.552  11.217  1.00  0.00     0.189 HD
HETATM   11  C   UNL     1     -44.572 -53.028  13.296  1.00  0.00     0.074 A 
ATOM     12  HN  UNL     1     -44.576 -51.827  11.610  1.00  0.00     0.187 HD
HETATM   13  S   UNL     1     -43.520 -54.123  14.094  1.00  0.00    -0.037 SA
BRANCH  11  14
HETATM   14  C   UNL     1     -45.973 -52.701  13.807  1.00  0.00     0.044 A 
HETATM   15  C   UNL     1     -46.698 -51.502  13.229  1.00  0.00     0.012 A 
HETATM   16  C   UNL     1     -46.147 -51.426  14.612  1.00  0.00     0.012 A 
ENDBRANCH  11  14
ENDBRANCH   4   7
BRANCH   3  17
HETATM   17  C   UNL     1     -39.093 -51.811  14.790  1.00  0.00     0.156 C 
BRANCH  17  18
HETATM   18  C   UNL     1     -38.473 -50.792  13.832  1.00  0.00     0.139 C 
HETATM   19  C   UNL     1     -39.473 -50.016  12.983  1.00  0.00     0.035 C 
HETATM   20  C   UNL     1     -38.810 -49.887  11.627  1.00  0.00     0.029 C 
HETATM   21  C   UNL     1     -37.466 -50.564  11.781  1.00  0.00     0.168 C 
HETATM   22  O   UNL     1     -37.590 -51.444  12.902  1.00  0.00    -0.384 OA
ENDBRANCH  17  18
ENDBRANCH   3  17
TORSDOF 4
ENDMDL
MODEL 5
REMARK VINA RESULT:      -5.8      1.866      2.342
REMARK  4 active torsions:
REMARK  status: ('A' for Active; 'I' for Inactive)
REMARK       I    between atoms: C_2  and  N_3 
REMARK       I    between atoms: C_2  and  N_10 
REMARK    1  A    between atoms: N_3  and  C_4 
REMARK    2  A    between atoms: C_4  and  C_5 
REMARK    3  A    between atoms: N_10  and  C_11 
REMARK    4  A    between atoms: C_16  and  C_18 
ROOT
HETATM    1  O   UNL     1     -43.256 -55.685  15.526  1.00  0.00    -0.247 OA
HETATM    2  C   UNL     1     -43.141 -54.874  14.609  1.00  0.00     0.322 C 
HETATM    3  N   UNL     1     -44.182 -54.491  13.823  1.00  0.00    -0.340 N 
HETATM    4  N   UNL     1     -41.910 -54.375  14.313  1.00  0.00    -0.288 N 
HETATM    5  H   UNL     1     -44.065 -53.658  13.250  1.00  0.00     0.164 HD
HETATM    6  H   UNL     1     -41.144 -54.747  14.853  1.00  0.00     0.172 HD
ENDROOT
BRANCH   4   7
HETATM    7  C   UNL     1     -41.643 -53.453  13.346  1.00  0.00     0.169 A 
HETATM    8  N   UNL     1     -41.455 -53.639  12.061  1.00  0.00    -0.279 N 
HETATM    9  N   UNL     1     -41.187 -52.456  11.408  1.00  0.00    -0.296 N 
ATOM     10  HN  UNL     1     -41.502 -54.549  11.602  1.00  0.00     0.189 HD
HETATM   11  C   UNL     1     -41.166 -51.435  12.240  1.00  0.00     0.074 A 
ATOM     12  HN  UNL     1     -41.025 -52.380  10.404  1.00  0.00     0.187 HD
HETATM   13  S   UNL     1     -41.528 -51.834  13.869  1.00  0.00    -0.037 SA
BRANCH  11  14
HETATM   14  C   UNL     1     -40.824 -50.017  11.789  1.00  0.00     0.044 A 
HETATM   15  C   UNL     1     -41.038 -48.872  12.758  1.00  0.00     0.012 A 
HETATM   16  C   UNL     1     -41.972 -49.041  11.609  1.00  0.00     0.012 A 
ENDBRANCH  11  14
ENDBRANCH   4   7
BRANCH   3  17
HETATM   17  C   UNL     1     -45.549 -54.921  14.047  1.00  0.00     0.156 C 
BRANCH  17  18
HETATM   18  C   UNL     1     -46.432 -53.781  14.559  1.00  0.00     0.139 C 
HETATM   19  C   UNL     1     -46.503 -52.564  13.645  1.00  0.00     0.035 C 
HETATM   20  C   UNL     1     -46.511 -51.375  14.584  1.00  0.00     0.029 C 
HETATM   21  C   UNL     1     -46.474 -51.973  15.973  1.00  0.00     0.168 C 
HETATM   22  O   UNL     1     -45.949 -53.295  15.823  1.00  0.00    -0.384 OA
ENDBRANCH  17  18
ENDBRANCH   3  17
TORSDOF 4
ENDMDL
MODEL 6
REMARK VINA RESULT:      -5.8      3.700      5.011
REMARK  4 active torsions:
REMARK  status: ('A' for Active; 'I' for Inactive)
REMARK       I    between atoms: C_2  and  N_3 
REMARK       I    between atoms: C_2  and  N_10 
REMARK    1  A    between atoms: N_3  and  C_4 
REMARK    2  A    between atoms: C_4  and  C_5 
REMARK    3  A    between atoms: N_10  and  C_11 
REMARK    4  A    between atoms: C_16  and  C_18 
ROOT
HETATM    1  O   UNL     1     -38.620 -52.091  13.285  1.00  0.00    -0.247 OA
HETATM    2  C   UNL     1     -39.516 -51.578  12.618  1.00  0.00     0.322 C 
HETATM    3  N   UNL     1     -40.632 -52.252  12.231  1.00  0.00    -0.340 N 
HETATM    4  N   UNL     1     -39.374 -50.295  12.185  1.00  0.00    -0.288 N 
HETATM    5  H   UNL     1     -41.423 -51.710  11.891  1.00  0.00     0.164 HD
HETATM    6  H   UNL     1     -38.496 -49.851  12.410  1.00  0.00     0.172 HD
ENDROOT
BRANCH   4   7
HETATM    7  C   UNL     1     -40.296 -49.596  11.466  1.00  0.00     0.169 A 
HETATM    8  N   UNL     1     -40.548 -49.649  10.180  1.00  0.00    -0.279 N 
HETATM    9  N   UNL     1     -41.546 -48.770   9.820  1.00  0.00    -0.296 N 
ATOM     10  HN  UNL     1     -40.064 -50.266   9.527  1.00  0.00     0.189 HD
HETATM   11  C   UNL     1     -41.984 -48.081  10.853  1.00  0.00     0.074 A 
ATOM     12  HN  UNL     1     -41.902 -48.665   8.870  1.00  0.00     0.187 HD
HETATM   13  S   UNL     1     -41.253 -48.495  12.349  1.00  0.00    -0.037 SA
BRANCH  11  14
HETATM   14  C   UNL     1     -43.042 -46.988  10.721  1.00  0.00     0.044 A 
HETATM   15  C   UNL     1     -43.185 -46.269   9.394  1.00  0.00     0.012 A 
HETATM   16  C   UNL     1     -42.559 -45.560  10.547  1.00  0.00     0.012 A 
ENDBRANCH  11  14
ENDBRANCH   4   7
BRANCH   3  17
HETATM   17  C   UNL     1     -40.924 -53.610  12.647  1.00  0.00     0.156 C 
BRANCH  17  18
HETATM   18  C   UNL     1     -42.029 -53.660  13.705  1.00  0.00     0.139 C 
HETATM   19  C   UNL     1     -41.750 -54.587  14.882  1.00  0.00     0.035 C 
HETATM   20  C   UNL     1     -43.087 -55.225  15.197  1.00  0.00     0.029 C 
HETATM   21  C   UNL     1     -44.057 -54.611  14.211  1.00  0.00     0.168 C 
HETATM   22  O   UNL     1     -43.263 -54.121  13.127  1.00  0.00    -0.384 OA
ENDBRANCH  17  18
ENDBRANCH   3  17
TORSDOF 4
ENDMDL
MODEL 7
REMARK VINA RESULT:      -5.7      4.995      6.489
REMARK  4 active torsions:
REMARK  status: ('A' for Active; 'I' for Inactive)
REMARK       I    between atoms: C_2  and  N_3 
REMARK       I    between atoms: C_2  and  N_10 
REMARK    1  A    between atoms: N_3  and  C_4 
REMARK    2  A    between atoms: C_4  and  C_5 
REMARK    3  A    between atoms: N_10  and  C_11 
REMARK    4  A    between atoms: C_16  and  C_18 
ROOT
HETATM    1  O   UNL     1     -44.211 -47.467  10.597  1.00  0.00    -0.247 OA
HETATM    2  C   UNL     1     -43.001 -47.656  10.701  1.00  0.00     0.322 C 
HETATM    3  N   UNL     1     -42.077 -46.681  10.492  1.00  0.00    -0.340 N 
HETATM    4  N   UNL     1     -42.544 -48.909  10.977  1.00  0.00    -0.288 N 
HETATM    5  H   UNL     1     -41.127 -46.845  10.820  1.00  0.00     0.164 HD
HETATM    6  H   UNL     1     -43.247 -49.629  11.035  1.00  0.00     0.172 HD
ENDROOT
BRANCH   4   7
HETATM    7  C   UNL     1     -41.236 -49.253  11.147  1.00  0.00     0.169 A 
HETATM    8  N   UNL     1     -40.410 -49.795  10.284  1.00  0.00    -0.279 N 
HETATM    9  N   UNL     1     -39.167 -50.015  10.838  1.00  0.00    -0.296 N 
ATOM     10  HN  UNL     1     -40.657 -50.024   9.321  1.00  0.00     0.189 HD
HETATM   11  C   UNL     1     -39.126 -49.645  12.102  1.00  0.00     0.074 A 
ATOM     12  HN  UNL     1     -38.377 -50.415  10.332  1.00  0.00     0.187 HD
HETATM   13  S   UNL     1     -40.579 -48.950  12.691  1.00  0.00    -0.037 SA
BRANCH  11  14
HETATM   14  C   UNL     1     -37.887 -49.843  12.973  1.00  0.00     0.044 A 
HETATM   15  C   UNL     1     -37.067 -51.105  12.798  1.00  0.00     0.012 A 
HETATM   16  C   UNL     1     -37.926 -50.954  14.006  1.00  0.00     0.012 A 
ENDBRANCH  11  14
ENDBRANCH   4   7
BRANCH   3  17
HETATM   17  C   UNL     1     -42.426 -45.299  10.223  1.00  0.00     0.156 C 
BRANCH  17  18
HETATM   18  C   UNL     1     -41.786 -44.340  11.229  1.00  0.00     0.139 C 
HETATM   19  C   UNL     1     -40.299 -44.083  11.014  1.00  0.00     0.035 C 
HETATM   20  C   UNL     1     -39.713 -44.017  12.410  1.00  0.00     0.029 C 
HETATM   21  C   UNL     1     -40.892 -44.207  13.340  1.00  0.00     0.168 C 
HETATM   22  O   UNL     1     -41.906 -44.854  12.567  1.00  0.00    -0.384 OA
ENDBRANCH  17  18
ENDBRANCH   3  17
TORSDOF 4
ENDMDL
MODEL 8
REMARK VINA RESULT:      -5.4      3.798      7.044
REMARK  4 active torsions:
REMARK  status: ('A' for Active; 'I' for Inactive)
REMARK       I    between atoms: C_2  and  N_3 
REMARK       I    between atoms: C_2  and  N_10 
REMARK    1  A    between atoms: N_3  and  C_4 
REMARK    2  A    between atoms: C_4  and  C_5 
REMARK    3  A    between atoms: N_10  and  C_11 
REMARK    4  A    between atoms: C_16  and  C_18 
ROOT
HETATM    1  O   UNL     1     -39.067 -49.354  11.491  1.00  0.00    -0.247 OA
HETATM    2  C   UNL     1     -39.364 -50.447  11.968  1.00  0.00     0.322 C 
HETATM    3  N   UNL     1     -38.547 -51.138  12.807  1.00  0.00    -0.340 N 
HETATM    4  N   UNL     1     -40.535 -51.037  11.601  1.00  0.00    -0.288 N 
HETATM    5  H   UNL     1     -38.949 -51.908  13.338  1.00  0.00     0.164 HD
HETATM    6  H   UNL     1     -41.077 -50.544  10.908  1.00  0.00     0.172 HD
ENDROOT
BRANCH   4   7
HETATM    7  C   UNL     1     -41.001 -52.229  12.071  1.00  0.00     0.169 A 
HETATM    8  N   UNL     1     -40.757 -53.439  11.628  1.00  0.00    -0.279 N 
HETATM    9  N   UNL     1     -41.433 -54.394  12.358  1.00  0.00    -0.296 N 
ATOM     10  HN  UNL     1     -40.144 -53.648  10.841  1.00  0.00     0.189 HD
HETATM   11  C   UNL     1     -42.170 -53.851  13.305  1.00  0.00     0.074 A 
ATOM     12  HN  UNL     1     -41.370 -55.397  12.186  1.00  0.00     0.187 HD
HETATM   13  S   UNL     1     -42.050 -52.143  13.413  1.00  0.00    -0.037 SA
BRANCH  11  14
HETATM   14  C   UNL     1     -43.074 -54.679  14.215  1.00  0.00     0.044 A 
HETATM   15  C   UNL     1     -43.497 -54.096  15.549  1.00  0.00     0.012 A 
HETATM   16  C   UNL     1     -42.482 -55.188  15.517  1.00  0.00     0.012 A 
ENDBRANCH  11  14
ENDBRANCH   4   7
BRANCH   3  17
HETATM   17  C   UNL     1     -37.289 -50.613  13.302  1.00  0.00     0.156 C 
BRANCH  17  18
HETATM   18  C   UNL     1     -37.471 -49.805  14.588  1.00  0.00     0.139 C 
HETATM   19  C   UNL     1     -37.443 -48.292  14.406  1.00  0.00     0.035 C 
HETATM   20  C   UNL     1     -36.696 -47.772  15.617  1.00  0.00     0.029 C 
HETATM   21  C   UNL     1     -36.367 -49.002  16.434  1.00  0.00     0.168 C 
HETATM   22  O   UNL     1     -36.426 -50.107  15.529  1.00  0.00    -0.384 OA
ENDBRANCH  17  18
ENDBRANCH   3  17
TORSDOF 4
ENDMDL
MODEL 9
REMARK VINA RESULT:      -5.1      4.908      7.217
REMARK  4 active torsions:
REMARK  status: ('A' for Active; 'I' for Inactive)
REMARK       I    between atoms: C_2  and  N_3 
REMARK       I    between atoms: C_2  and  N_10 
REMARK    1  A    between atoms: N_3  and  C_4 
REMARK    2  A    between atoms: C_4  and  C_5 
REMARK    3  A    between atoms: N_10  and  C_11 
REMARK    4  A    between atoms: C_16  and  C_18 
ROOT
HETATM    1  O   UNL     1     -39.564 -47.592  13.009  1.00  0.00    -0.247 OA
HETATM    2  C   UNL     1     -40.301 -47.686  12.029  1.00  0.00     0.322 C 
HETATM    3  N   UNL     1     -40.290 -48.758  11.193  1.00  0.00    -0.340 N 
HETATM    4  N   UNL     1     -41.128 -46.651  11.716  1.00  0.00    -0.288 N 
HETATM    5  H   UNL     1     -41.075 -48.873  10.554  1.00  0.00     0.164 HD
HETATM    6  H   UNL     1     -41.047 -45.833  12.301  1.00  0.00     0.172 HD
ENDROOT
BRANCH   4   7
HETATM    7  C   UNL     1     -42.013 -46.632  10.680  1.00  0.00     0.169 A 
HETATM    8  N   UNL     1     -41.844 -46.172   9.463  1.00  0.00    -0.279 N 
HETATM    9  N   UNL     1     -42.985 -46.312   8.703  1.00  0.00    -0.296 N 
ATOM     10  HN  UNL     1     -40.975 -45.762   9.122  1.00  0.00     0.189 HD
HETATM   11  C   UNL     1     -43.967 -46.853   9.395  1.00  0.00     0.074 A 
ATOM     12  HN  UNL     1     -43.061 -46.030   7.726  1.00  0.00     0.187 HD
HETATM   13  S   UNL     1     -43.554 -47.285  11.003  1.00  0.00    -0.037 SA
BRANCH  11  14
HETATM   14  C   UNL     1     -45.364 -47.058   8.812  1.00  0.00     0.044 A 
HETATM   15  C   UNL     1     -46.248 -48.139   9.400  1.00  0.00     0.012 A 
HETATM   16  C   UNL     1     -45.629 -48.349   8.061  1.00  0.00     0.012 A 
ENDBRANCH  11  14
ENDBRANCH   4   7
BRANCH   3  17
HETATM   17  C   UNL     1     -39.483 -49.940  11.425  1.00  0.00     0.156 C 
BRANCH  17  18
HETATM   18  C   UNL     1     -40.070 -50.828  12.525  1.00  0.00     0.139 C 
HETATM   19  C   UNL     1     -39.178 -51.012  13.747  1.00  0.00     0.035 C 
HETATM   20  C   UNL     1     -39.370 -52.459  14.152  1.00  0.00     0.029 C 
HETATM   21  C   UNL     1     -40.377 -53.011  13.166  1.00  0.00     0.168 C 
HETATM   22  O   UNL     1     -40.328 -52.151  12.025  1.00  0.00    -0.384 OA
ENDBRANCH  17  18
ENDBRANCH   3  17
TORSDOF 4
ENDMDL
