MODEL 1
REMARK VINA RESULT:      -6.7      0.000      0.000
REMARK  4 active torsions:
REMARK  status: ('A' for Active; 'I' for Inactive)
REMARK    1  A    between atoms: N_11  and  C_12 
REMARK    2  A    between atoms: C_12  and  C_13 
REMARK    3  A    between atoms: C_13  and  O_14 
REMARK    4  A    between atoms: C_13  and  C_15 
ROOT
HETATM    1  C   UNL     1     -39.262 -54.379  15.550  1.00  0.00     0.164 C 
HETATM    2  N   UNL     1     -40.229 -53.872  14.595  1.00  0.00    -0.269 N 
HETATM    3  C   UNL     1     -39.801 -52.913  13.654  1.00  0.00     0.332 A 
HETATM    4  O   UNL     1     -38.636 -52.512  13.630  1.00  0.00    -0.246 OA
HETATM    5  N   UNL     1     -40.758 -52.438  12.752  1.00  0.00    -0.287 N 
HETATM    6  C   UNL     1     -40.399 -51.454  11.746  1.00  0.00     0.163 C 
HETATM    7  C   UNL     1     -42.043 -52.917  12.816  1.00  0.00     0.145 A 
HETATM    8  N   UNL     1     -43.082 -52.548  12.015  1.00  0.00    -0.336 N 
ATOM      9  HN  UNL     1     -43.074 -51.867  11.256  1.00  0.00     0.168 HD
HETATM   10  C   UNL     1     -44.100 -53.269  12.441  1.00  0.00     0.185 A 
HETATM   11  N   UNL     1     -43.738 -54.088  13.479  1.00  0.00    -0.333 N 
HETATM   12  C   UNL     1     -42.415 -53.853  13.731  1.00  0.00     0.149 A 
HETATM   13  C   UNL     1     -41.520 -54.406  14.685  1.00  0.00     0.282 A 
HETATM   14  O   UNL     1     -41.856 -55.264  15.501  1.00  0.00    -0.265 OA
ENDROOT
BRANCH  11  15
HETATM   15  C   UNL     1     -44.614 -54.985  14.202  1.00  0.00     0.167 C 
BRANCH  15  16
HETATM   16  C   UNL     1     -46.081 -54.518  14.215  1.00  0.00     0.169 C 
BRANCH  16  17
HETATM   17  O   UNL     1     -47.000 -55.581  14.457  1.00  0.00    -0.389 OA
HETATM   18  H   UNL     1     -47.724 -55.242  15.017  1.00  0.00     0.210 HD
ENDBRANCH  16  17
BRANCH  16  19
HETATM   19  C   UNL     1     -46.313 -53.447  15.261  1.00  0.00    -0.028 A 
HETATM   20  C   UNL     1     -45.960 -53.678  16.600  1.00  0.00     0.011 A 
HETATM   21  C   UNL     1     -46.198 -52.706  17.575  1.00  0.00     0.024 A 
HETATM   22  C   UNL     1     -46.783 -51.493  17.219  1.00  0.00     0.034 A 
HETATM   23 CL   UNL     1     -47.092 -50.304  18.423  1.00  0.00    -0.084 Cl
HETATM   24  C   UNL     1     -47.121 -51.238  15.894  1.00  0.00     0.024 A 
HETATM   25  C   UNL     1     -46.883 -52.208  14.919  1.00  0.00     0.011 A 
ENDBRANCH  16  19
ENDBRANCH  15  16
ENDBRANCH  11  15
TORSDOF 4
ENDMDL
MODEL 2
REMARK VINA RESULT:      -6.7      1.684      2.295
REMARK  4 active torsions:
REMARK  status: ('A' for Active; 'I' for Inactive)
REMARK    1  A    between atoms: N_11  and  C_12 
REMARK    2  A    between atoms: C_12  and  C_13 
REMARK    3  A    between atoms: C_13  and  O_14 
REMARK    4  A    between atoms: C_13  and  C_15 
ROOT
HETATM    1  C   UNL     1     -41.753 -56.133  16.893  1.00  0.00     0.164 C 
HETATM    2  N   UNL     1     -41.554 -55.208  15.794  1.00  0.00    -0.269 N 
HETATM    3  C   UNL     1     -40.270 -54.659  15.605  1.00  0.00     0.332 A 
HETATM    4  O   UNL     1     -39.329 -54.954  16.346  1.00  0.00    -0.246 OA
HETATM    5  N   UNL     1     -40.111 -53.765  14.542  1.00  0.00    -0.287 N 
HETATM    6  C   UNL     1     -38.819 -53.159  14.273  1.00  0.00     0.163 C 
HETATM    7  C   UNL     1     -41.187 -53.469  13.742  1.00  0.00     0.145 A 
HETATM    8  N   UNL     1     -41.193 -52.617  12.679  1.00  0.00    -0.336 N 
ATOM      9  HN  UNL     1     -40.414 -52.068  12.315  1.00  0.00     0.168 HD
HETATM   10  C   UNL     1     -42.430 -52.659  12.227  1.00  0.00     0.185 A 
HETATM   11  N   UNL     1     -43.206 -53.516  12.963  1.00  0.00    -0.333 N 
HETATM   12  C   UNL     1     -42.410 -54.029  13.949  1.00  0.00     0.149 A 
HETATM   13  C   UNL     1     -42.674 -54.954  14.994  1.00  0.00     0.282 A 
HETATM   14  O   UNL     1     -43.778 -55.471  15.168  1.00  0.00    -0.265 OA
ENDROOT
BRANCH  11  15
HETATM   15  C   UNL     1     -44.616 -53.776  12.761  1.00  0.00     0.167 C 
BRANCH  15  16
HETATM   16  C   UNL     1     -45.459 -52.492  12.658  1.00  0.00     0.169 C 
BRANCH  16  17
HETATM   17  O   UNL     1     -46.699 -52.694  11.984  1.00  0.00    -0.389 OA
HETATM   18  H   UNL     1     -47.106 -51.822  11.817  1.00  0.00     0.210 HD
ENDBRANCH  16  17
BRANCH  16  19
HETATM   19  C   UNL     1     -45.755 -51.911  14.026  1.00  0.00    -0.028 A 
HETATM   20  C   UNL     1     -44.823 -51.071  14.654  1.00  0.00     0.011 A 
HETATM   21  C   UNL     1     -45.076 -50.555  15.927  1.00  0.00     0.024 A 
HETATM   22  C   UNL     1     -46.265 -50.870  16.580  1.00  0.00     0.034 A 
HETATM   23 CL   UNL     1     -46.568 -50.250  18.157  1.00  0.00    -0.084 Cl
HETATM   24  C   UNL     1     -47.210 -51.685  15.966  1.00  0.00     0.024 A 
HETATM   25  C   UNL     1     -46.958 -52.199  14.693  1.00  0.00     0.011 A 
ENDBRANCH  16  19
ENDBRANCH  15  16
ENDBRANCH  11  15
TORSDOF 4
ENDMDL
MODEL 3
REMARK VINA RESULT:      -6.4      2.028      2.764
REMARK  4 active torsions:
REMARK  status: ('A' for Active; 'I' for Inactive)
REMARK    1  A    between atoms: N_11  and  C_12 
REMARK    2  A    between atoms: C_12  and  C_13 
REMARK    3  A    between atoms: C_13  and  O_14 
REMARK    4  A    between atoms: C_13  and  C_15 
ROOT
HETATM    1  C   UNL     1     -38.305 -51.647  16.579  1.00  0.00     0.164 C 
HETATM    2  N   UNL     1     -38.821 -51.551  15.227  1.00  0.00    -0.269 N 
HETATM    3  C   UNL     1     -38.098 -50.788  14.287  1.00  0.00     0.332 A 
HETATM    4  O   UNL     1     -37.050 -50.216  14.594  1.00  0.00    -0.246 OA
HETATM    5  N   UNL     1     -38.624 -50.707  12.994  1.00  0.00    -0.287 N 
HETATM    6  C   UNL     1     -37.939 -49.947  11.964  1.00  0.00     0.163 C 
HETATM    7  C   UNL     1     -39.794 -51.364  12.700  1.00  0.00     0.145 A 
HETATM    8  N   UNL     1     -40.431 -51.375  11.495  1.00  0.00    -0.336 N 
ATOM      9  HN  UNL     1     -40.151 -50.903  10.636  1.00  0.00     0.168 HD
HETATM   10  C   UNL     1     -41.493 -52.132  11.690  1.00  0.00     0.185 A 
HETATM   11  N   UNL     1     -41.544 -52.607  12.974  1.00  0.00    -0.333 N 
HETATM   12  C   UNL     1     -40.457 -52.102  13.631  1.00  0.00     0.149 A 
HETATM   13  C   UNL     1     -40.003 -52.254  14.969  1.00  0.00     0.282 A 
HETATM   14  O   UNL     1     -40.597 -52.936  15.804  1.00  0.00    -0.265 OA
ENDROOT
BRANCH  11  15
HETATM   15  C   UNL     1     -42.589 -53.438  13.535  1.00  0.00     0.167 C 
BRANCH  15  16
HETATM   16  C   UNL     1     -43.956 -53.228  12.859  1.00  0.00     0.169 C 
BRANCH  16  17
HETATM   17  O   UNL     1     -44.448 -54.404  12.222  1.00  0.00    -0.389 OA
HETATM   18  H   UNL     1     -43.811 -55.128  12.374  1.00  0.00     0.210 HD
ENDBRANCH  16  17
BRANCH  16  19
HETATM   19  C   UNL     1     -45.000 -52.759  13.854  1.00  0.00    -0.028 A 
HETATM   20  C   UNL     1     -45.929 -51.772  13.490  1.00  0.00     0.011 A 
HETATM   21  C   UNL     1     -46.875 -51.314  14.411  1.00  0.00     0.024 A 
HETATM   22  C   UNL     1     -46.905 -51.844  15.698  1.00  0.00     0.034 A 
HETATM   23 CL   UNL     1     -48.059 -51.266  16.836  1.00  0.00    -0.084 Cl
HETATM   24  C   UNL     1     -46.006 -52.837  16.071  1.00  0.00     0.024 A 
HETATM   25  C   UNL     1     -45.061 -53.296  15.151  1.00  0.00     0.011 A 
ENDBRANCH  16  19
ENDBRANCH  15  16
ENDBRANCH  11  15
TORSDOF 4
ENDMDL
MODEL 4
REMARK VINA RESULT:      -6.2      3.916      5.724
REMARK  4 active torsions:
REMARK  status: ('A' for Active; 'I' for Inactive)
REMARK    1  A    between atoms: N_11  and  C_12 
REMARK    2  A    between atoms: C_12  and  C_13 
REMARK    3  A    between atoms: C_13  and  O_14 
REMARK    4  A    between atoms: C_13  and  C_15 
ROOT
HETATM    1  C   UNL     1     -38.305 -47.143  15.741  1.00  0.00     0.164 C 
HETATM    2  N   UNL     1     -38.906 -47.392  14.445  1.00  0.00    -0.269 N 
HETATM    3  C   UNL     1     -39.126 -46.295  13.587  1.00  0.00     0.332 A 
HETATM    4  O   UNL     1     -38.814 -45.149  13.917  1.00  0.00    -0.246 OA
HETATM    5  N   UNL     1     -39.713 -46.566  12.348  1.00  0.00    -0.287 N 
HETATM    6  C   UNL     1     -39.968 -45.494  11.401  1.00  0.00     0.163 C 
HETATM    7  C   UNL     1     -40.040 -47.860  12.024  1.00  0.00     0.145 A 
HETATM    8  N   UNL     1     -40.622 -48.279  10.865  1.00  0.00    -0.336 N 
ATOM      9  HN  UNL     1     -40.906 -47.710  10.068  1.00  0.00     0.168 HD
HETATM   10  C   UNL     1     -40.735 -49.585  11.006  1.00  0.00     0.185 A 
HETATM   11  N   UNL     1     -40.237 -50.007  12.210  1.00  0.00    -0.333 N 
HETATM   12  C   UNL     1     -39.801 -48.895  12.875  1.00  0.00     0.149 A 
HETATM   13  C   UNL     1     -39.202 -48.728  14.152  1.00  0.00     0.282 A 
HETATM   14  O   UNL     1     -38.972 -49.669  14.912  1.00  0.00    -0.265 OA
ENDROOT
BRANCH  11  15
HETATM   15  C   UNL     1     -40.234 -51.369  12.701  1.00  0.00     0.167 C 
BRANCH  15  16
HETATM   16  C   UNL     1     -41.202 -52.290  11.937  1.00  0.00     0.169 C 
BRANCH  16  17
HETATM   17  O   UNL     1     -40.563 -53.448  11.404  1.00  0.00    -0.389 OA
HETATM   18  H   UNL     1     -41.247 -54.026  11.014  1.00  0.00     0.210 HD
ENDBRANCH  16  17
BRANCH  16  19
HETATM   19  C   UNL     1     -42.346 -52.747  12.820  1.00  0.00    -0.028 A 
HETATM   20  C   UNL     1     -42.311 -54.015  13.421  1.00  0.00     0.011 A 
HETATM   21  C   UNL     1     -43.375 -54.455  14.213  1.00  0.00     0.024 A 
HETATM   22  C   UNL     1     -44.477 -53.629  14.416  1.00  0.00     0.034 A 
HETATM   23 CL   UNL     1     -45.795 -54.180  15.376  1.00  0.00    -0.084 Cl
HETATM   24  C   UNL     1     -44.521 -52.362  13.846  1.00  0.00     0.024 A 
HETATM   25  C   UNL     1     -43.458 -51.921  13.056  1.00  0.00     0.011 A 
ENDBRANCH  16  19
ENDBRANCH  15  16
ENDBRANCH  11  15
TORSDOF 4
ENDMDL
MODEL 5
REMARK VINA RESULT:      -6.2      4.124      6.185
REMARK  4 active torsions:
REMARK  status: ('A' for Active; 'I' for Inactive)
REMARK    1  A    between atoms: N_11  and  C_12 
REMARK    2  A    between atoms: C_12  and  C_13 
REMARK    3  A    between atoms: C_13  and  O_14 
REMARK    4  A    between atoms: C_13  and  C_15 
ROOT
HETATM    1  C   UNL     1     -38.200 -47.072  15.645  1.00  0.00     0.164 C 
HETATM    2  N   UNL     1     -38.808 -47.451  14.384  1.00  0.00    -0.269 N 
HETATM    3  C   UNL     1     -39.172 -46.431  13.483  1.00  0.00     0.332 A 
HETATM    4  O   UNL     1     -38.978 -45.241  13.746  1.00  0.00    -0.246 OA
HETATM    5  N   UNL     1     -39.763 -46.826  12.279  1.00  0.00    -0.287 N 
HETATM    6  C   UNL     1     -40.162 -45.838  11.292  1.00  0.00     0.163 C 
HETATM    7  C   UNL     1     -39.956 -48.163  12.030  1.00  0.00     0.145 A 
HETATM    8  N   UNL     1     -40.522 -48.701  10.913  1.00  0.00    -0.336 N 
ATOM      9  HN  UNL     1     -40.891 -48.208  10.100  1.00  0.00     0.168 HD
HETATM   10  C   UNL     1     -40.488 -50.002  11.120  1.00  0.00     0.185 A 
HETATM   11  N   UNL     1     -39.911 -50.306  12.325  1.00  0.00    -0.333 N 
HETATM   12  C   UNL     1     -39.580 -49.120  12.920  1.00  0.00     0.149 A 
HETATM   13  C   UNL     1     -38.964 -48.825  14.166  1.00  0.00     0.282 A 
HETATM   14  O   UNL     1     -38.611 -49.695  14.961  1.00  0.00    -0.265 OA
ENDROOT
BRANCH  11  15
HETATM   15  C   UNL     1     -39.743 -51.633  12.880  1.00  0.00     0.167 C 
BRANCH  15  16
HETATM   16  C   UNL     1     -40.868 -52.604  12.476  1.00  0.00     0.169 C 
BRANCH  16  17
HETATM   17  O   UNL     1     -40.546 -53.377  11.322  1.00  0.00    -0.389 OA
HETATM   18  H   UNL     1     -39.946 -54.099  11.590  1.00  0.00     0.210 HD
ENDBRANCH  16  17
BRANCH  16  19
HETATM   19  C   UNL     1     -41.208 -53.559  13.603  1.00  0.00    -0.028 A 
HETATM   20  C   UNL     1     -42.508 -54.073  13.724  1.00  0.00     0.011 A 
HETATM   21  C   UNL     1     -42.837 -54.931  14.777  1.00  0.00     0.024 A 
HETATM   22  C   UNL     1     -41.868 -55.286  15.712  1.00  0.00     0.034 A 
HETATM   23 CL   UNL     1     -42.279 -56.327  17.019  1.00  0.00    -0.084 Cl
HETATM   24  C   UNL     1     -40.569 -54.802  15.597  1.00  0.00     0.024 A 
HETATM   25  C   UNL     1     -40.240 -53.946  14.544  1.00  0.00     0.011 A 
ENDBRANCH  16  19
ENDBRANCH  15  16
ENDBRANCH  11  15
TORSDOF 4
ENDMDL
MODEL 6
REMARK VINA RESULT:      -6.1      4.881      7.394
REMARK  4 active torsions:
REMARK  status: ('A' for Active; 'I' for Inactive)
REMARK    1  A    between atoms: N_11  and  C_12 
REMARK    2  A    between atoms: C_12  and  C_13 
REMARK    3  A    between atoms: C_13  and  O_14 
REMARK    4  A    between atoms: C_13  and  C_15 
ROOT
HETATM    1  C   UNL     1     -44.641 -52.644  14.834  1.00  0.00     0.164 C 
HETATM    2  N   UNL     1     -43.410 -52.408  14.105  1.00  0.00    -0.269 N 
HETATM    3  C   UNL     1     -42.401 -53.391  14.159  1.00  0.00     0.332 A 
HETATM    4  O   UNL     1     -42.552 -54.433  14.802  1.00  0.00    -0.246 OA
HETATM    5  N   UNL     1     -41.223 -53.132  13.452  1.00  0.00    -0.287 N 
HETATM    6  C   UNL     1     -40.136 -54.096  13.449  1.00  0.00     0.163 C 
HETATM    7  C   UNL     1     -41.103 -51.960  12.748  1.00  0.00     0.145 A 
HETATM    8  N   UNL     1     -40.021 -51.563  12.021  1.00  0.00    -0.336 N 
ATOM      9  HN  UNL     1     -39.141 -52.061  11.887  1.00  0.00     0.168 HD
HETATM   10  C   UNL     1     -40.365 -50.390  11.528  1.00  0.00     0.185 A 
HETATM   11  N   UNL     1     -41.632 -50.035  11.911  1.00  0.00    -0.333 N 
HETATM   12  C   UNL     1     -42.104 -51.039  12.710  1.00  0.00     0.149 A 
HETATM   13  C   UNL     1     -43.342 -51.210  13.386  1.00  0.00     0.282 A 
HETATM   14  O   UNL     1     -44.252 -50.383  13.335  1.00  0.00    -0.265 OA
ENDROOT
BRANCH  11  15
HETATM   15  C   UNL     1     -42.309 -48.799  11.578  1.00  0.00     0.167 C 
BRANCH  15  16
HETATM   16  C   UNL     1     -41.670 -48.062  10.387  1.00  0.00     0.169 C 
BRANCH  16  17
HETATM   17  O   UNL     1     -42.486 -48.083   9.218  1.00  0.00    -0.389 OA
HETATM   18  H   UNL     1     -43.312 -48.560   9.426  1.00  0.00     0.210 HD
ENDBRANCH  16  17
BRANCH  16  19
HETATM   19  C   UNL     1     -41.369 -46.616  10.727  1.00  0.00    -0.028 A 
HETATM   20  C   UNL     1     -42.416 -45.693  10.878  1.00  0.00     0.011 A 
HETATM   21  C   UNL     1     -42.145 -44.352  11.162  1.00  0.00     0.024 A 
HETATM   22  C   UNL     1     -40.828 -43.925  11.305  1.00  0.00     0.034 A 
HETATM   23 CL   UNL     1     -40.495 -42.270  11.636  1.00  0.00    -0.084 Cl
HETATM   24  C   UNL     1     -39.778 -44.829  11.179  1.00  0.00     0.024 A 
HETATM   25  C   UNL     1     -40.048 -46.169  10.896  1.00  0.00     0.011 A 
ENDBRANCH  16  19
ENDBRANCH  15  16
ENDBRANCH  11  15
TORSDOF 4
ENDMDL
MODEL 7
REMARK VINA RESULT:      -6.1      3.667      6.812
REMARK  4 active torsions:
REMARK  status: ('A' for Active; 'I' for Inactive)
REMARK    1  A    between atoms: N_11  and  C_12 
REMARK    2  A    between atoms: C_12  and  C_13 
REMARK    3  A    between atoms: C_13  and  O_14 
REMARK    4  A    between atoms: C_13  and  C_15 
ROOT
HETATM    1  C   UNL     1     -44.844 -54.518  14.151  1.00  0.00     0.164 C 
HETATM    2  N   UNL     1     -43.449 -54.136  14.264  1.00  0.00    -0.269 N 
HETATM    3  C   UNL     1     -42.600 -54.929  15.062  1.00  0.00     0.332 A 
HETATM    4  O   UNL     1     -43.020 -55.929  15.650  1.00  0.00    -0.246 OA
HETATM    5  N   UNL     1     -41.263 -54.532  15.158  1.00  0.00    -0.287 N 
HETATM    6  C   UNL     1     -40.321 -55.298  15.954  1.00  0.00     0.163 C 
HETATM    7  C   UNL     1     -40.842 -53.413  14.482  1.00  0.00     0.145 A 
HETATM    8  N   UNL     1     -39.581 -52.898  14.483  1.00  0.00    -0.336 N 
ATOM      9  HN  UNL     1     -38.762 -53.251  14.978  1.00  0.00     0.168 HD
HETATM   10  C   UNL     1     -39.655 -51.841  13.700  1.00  0.00     0.185 A 
HETATM   11  N   UNL     1     -40.918 -51.674  13.196  1.00  0.00    -0.333 N 
HETATM   12  C   UNL     1     -41.689 -52.679  13.711  1.00  0.00     0.149 A 
HETATM   13  C   UNL     1     -43.062 -53.002  13.541  1.00  0.00     0.282 A 
HETATM   14  O   UNL     1     -43.821 -52.345  12.829  1.00  0.00    -0.265 OA
ENDROOT
BRANCH  11  15
HETATM   15  C   UNL     1     -41.357 -50.598  12.332  1.00  0.00     0.167 C 
BRANCH  15  16
HETATM   16  C   UNL     1     -40.206 -49.948  11.544  1.00  0.00     0.169 C 
BRANCH  16  17
HETATM   17  O   UNL     1     -40.426 -49.949  10.136  1.00  0.00    -0.389 OA
HETATM   18  H   UNL     1     -40.930 -50.752   9.902  1.00  0.00     0.210 HD
ENDBRANCH  16  17
BRANCH  16  19
HETATM   19  C   UNL     1     -39.972 -48.516  11.984  1.00  0.00    -0.028 A 
HETATM   20  C   UNL     1     -39.238 -48.245  13.148  1.00  0.00     0.011 A 
HETATM   21  C   UNL     1     -39.043 -46.930  13.576  1.00  0.00     0.024 A 
HETATM   22  C   UNL     1     -39.575 -45.874  12.839  1.00  0.00     0.034 A 
HETATM   23 CL   UNL     1     -39.350 -44.255  13.376  1.00  0.00    -0.084 Cl
HETATM   24  C   UNL     1     -40.288 -46.121  11.671  1.00  0.00     0.024 A 
HETATM   25  C   UNL     1     -40.482 -47.436  11.243  1.00  0.00     0.011 A 
ENDBRANCH  16  19
ENDBRANCH  15  16
ENDBRANCH  11  15
TORSDOF 4
ENDMDL
MODEL 8
REMARK VINA RESULT:      -5.9      3.059      3.797
REMARK  4 active torsions:
REMARK  status: ('A' for Active; 'I' for Inactive)
REMARK    1  A    between atoms: N_11  and  C_12 
REMARK    2  A    between atoms: C_12  and  C_13 
REMARK    3  A    between atoms: C_13  and  O_14 
REMARK    4  A    between atoms: C_13  and  C_15 
ROOT
HETATM    1  C   UNL     1     -38.312 -51.487  15.614  1.00  0.00     0.164 C 
HETATM    2  N   UNL     1     -38.763 -50.921  14.357  1.00  0.00    -0.269 N 
HETATM    3  C   UNL     1     -37.822 -50.756  13.321  1.00  0.00     0.332 A 
HETATM    4  O   UNL     1     -36.643 -51.086  13.466  1.00  0.00    -0.246 OA
HETATM    5  N   UNL     1     -38.285 -50.201  12.125  1.00  0.00    -0.287 N 
HETATM    6  C   UNL     1     -37.382 -50.003  11.004  1.00  0.00     0.163 C 
HETATM    7  C   UNL     1     -39.608 -49.853  12.010  1.00  0.00     0.145 A 
HETATM    8  N   UNL     1     -40.204 -49.298  10.917  1.00  0.00    -0.336 N 
ATOM      9  HN  UNL     1     -39.772 -49.053  10.027  1.00  0.00     0.168 HD
HETATM   10  C   UNL     1     -41.465 -49.148  11.269  1.00  0.00     0.185 A 
HETATM   11  N   UNL     1     -41.690 -49.597  12.544  1.00  0.00    -0.333 N 
HETATM   12  C   UNL     1     -40.490 -50.039  13.029  1.00  0.00     0.149 A 
HETATM   13  C   UNL     1     -40.124 -50.602  14.281  1.00  0.00     0.282 A 
HETATM   14  O   UNL     1     -40.928 -50.784  15.194  1.00  0.00    -0.265 OA
ENDROOT
BRANCH  11  15
HETATM   15  C   UNL     1     -42.951 -49.551  13.255  1.00  0.00     0.167 C 
BRANCH  15  16
HETATM   16  C   UNL     1     -43.771 -50.846  13.115  1.00  0.00     0.169 C 
BRANCH  16  17
HETATM   17  O   UNL     1     -42.963 -52.021  13.136  1.00  0.00    -0.389 OA
HETATM   18  H   UNL     1     -42.699 -52.232  12.221  1.00  0.00     0.210 HD
ENDBRANCH  16  17
BRANCH  16  19
HETATM   19  C   UNL     1     -44.808 -50.967  14.213  1.00  0.00    -0.028 A 
HETATM   20  C   UNL     1     -46.101 -51.425  13.917  1.00  0.00     0.011 A 
HETATM   21  C   UNL     1     -47.071 -51.511  14.918  1.00  0.00     0.024 A 
HETATM   22  C   UNL     1     -46.754 -51.149  16.225  1.00  0.00     0.034 A 
HETATM   23 CL   UNL     1     -47.955 -51.238  17.455  1.00  0.00    -0.084 Cl
HETATM   24  C   UNL     1     -45.472 -50.712  16.543  1.00  0.00     0.024 A 
HETATM   25  C   UNL     1     -44.503 -50.627  15.542  1.00  0.00     0.011 A 
ENDBRANCH  16  19
ENDBRANCH  15  16
ENDBRANCH  11  15
TORSDOF 4
ENDMDL
MODEL 9
REMARK VINA RESULT:      -5.8      3.577      6.905
REMARK  4 active torsions:
REMARK  status: ('A' for Active; 'I' for Inactive)
REMARK    1  A    between atoms: N_11  and  C_12 
REMARK    2  A    between atoms: C_12  and  C_13 
REMARK    3  A    between atoms: C_13  and  O_14 
REMARK    4  A    between atoms: C_13  and  C_15 
ROOT
HETATM    1  C   UNL     1     -46.020 -52.013  15.460  1.00  0.00     0.164 C 
HETATM    2  N   UNL     1     -44.766 -52.600  15.028  1.00  0.00    -0.269 N 
HETATM    3  C   UNL     1     -44.408 -53.865  15.536  1.00  0.00     0.332 A 
HETATM    4  O   UNL     1     -45.138 -54.470  16.325  1.00  0.00    -0.246 OA
HETATM    5  N   UNL     1     -43.191 -54.401  15.108  1.00  0.00    -0.287 N 
HETATM    6  C   UNL     1     -42.750 -55.703  15.578  1.00  0.00     0.163 C 
HETATM    7  C   UNL     1     -42.414 -53.691  14.226  1.00  0.00     0.145 A 
HETATM    8  N   UNL     1     -41.206 -54.075  13.725  1.00  0.00    -0.336 N 
ATOM      9  HN  UNL     1     -40.692 -54.933  13.923  1.00  0.00     0.168 HD
HETATM   10  C   UNL     1     -40.850 -53.088  12.928  1.00  0.00     0.185 A 
HETATM   11  N   UNL     1     -41.796 -52.096  12.900  1.00  0.00    -0.333 N 
HETATM   12  C   UNL     1     -42.798 -52.477  13.748  1.00  0.00     0.149 A 
HETATM   13  C   UNL     1     -44.019 -51.849  14.113  1.00  0.00     0.282 A 
HETATM   14  O   UNL     1     -44.371 -50.758  13.665  1.00  0.00    -0.265 OA
ENDROOT
BRANCH  11  15
HETATM   15  C   UNL     1     -41.710 -50.857  12.157  1.00  0.00     0.167 C 
BRANCH  15  16
HETATM   16  C   UNL     1     -40.338 -50.643  11.493  1.00  0.00     0.169 C 
BRANCH  16  17
HETATM   17  O   UNL     1     -40.423 -49.943  10.254  1.00  0.00    -0.389 OA
HETATM   18  H   UNL     1     -40.116 -49.027  10.394  1.00  0.00     0.210 HD
ENDBRANCH  16  17
BRANCH  16  19
HETATM   19  C   UNL     1     -39.395 -49.880  12.401  1.00  0.00    -0.028 A 
HETATM   20  C   UNL     1     -38.303 -50.532  12.995  1.00  0.00     0.011 A 
HETATM   21  C   UNL     1     -37.446 -49.843  13.857  1.00  0.00     0.024 A 
HETATM   22  C   UNL     1     -37.670 -48.495  14.126  1.00  0.00     0.034 A 
HETATM   23 CL   UNL     1     -36.625 -47.652  15.202  1.00  0.00    -0.084 Cl
HETATM   24  C   UNL     1     -38.734 -47.826  13.532  1.00  0.00     0.024 A 
HETATM   25  C   UNL     1     -39.590 -48.514  12.669  1.00  0.00     0.011 A 
ENDBRANCH  16  19
ENDBRANCH  15  16
ENDBRANCH  11  15
TORSDOF 4
ENDMDL
