MODEL 1
REMARK VINA RESULT:      -5.7      0.000      0.000
REMARK  5 active torsions:
REMARK  status: ('A' for Active; 'I' for Inactive)
REMARK    1  A    between atoms: O_2  and  C_3 
REMARK    2  A    between atoms: C_8  and  N_9 
REMARK       I    between atoms: N_9  and  C_10 
REMARK    3  A    between atoms: C_10  and  C_12 
REMARK    4  A    between atoms: C_12  and  O_13 
REMARK    5  A    between atoms: O_13  and  C_14 
ROOT
HETATM    1  N   UNL     1     -41.531 -49.693  11.014  1.00  0.00    -0.311 N 
HETATM    2  C   UNL     1     -41.310 -50.358  12.213  1.00  0.00     0.246 C 
HETATM    3  O   UNL     1     -40.924 -49.852  13.264  1.00  0.00    -0.271 OA
HETATM    4  H   UNL     1     -41.930 -50.200  10.238  1.00  0.00     0.170 HD
ENDROOT
BRANCH   1   5
HETATM    5  C   UNL     1     -41.312 -48.317  10.837  1.00  0.00     0.110 A 
HETATM    6  N   UNL     1     -40.159 -47.770  11.244  1.00  0.00    -0.352 N 
HETATM    7  C   UNL     1     -39.977 -46.448  11.085  1.00  0.00     0.092 A 
ATOM      8  HN  UNL     1     -39.433 -48.347  11.668  1.00  0.00     0.166 HD
HETATM    9  C   UNL     1     -40.906 -45.619  10.496  1.00  0.00     0.053 A 
HETATM   10  C   UNL     1     -42.086 -46.191  10.041  1.00  0.00     0.073 A 
HETATM   11  C   UNL     1     -42.305 -47.558  10.227  1.00  0.00     0.085 A 
BRANCH  10  12
HETATM   12  O   UNL     1     -43.100 -45.502   9.429  1.00  0.00    -0.356 OA
HETATM   13  C   UNL     1     -44.086 -46.314   8.796  1.00  0.00     0.210 C 
ENDBRANCH  10  12
ENDBRANCH   1   5
BRANCH   2  14
HETATM   14  C   UNL     1     -41.610 -51.860  12.141  1.00  0.00     0.271 C 
BRANCH  14  15
HETATM   15  O   UNL     1     -43.017 -52.045  12.215  1.00  0.00    -0.377 OA
BRANCH  15  16
HETATM   16  C   UNL     1     -43.484 -52.885  13.269  1.00  0.00     0.122 C 
HETATM   17  C   UNL     1     -44.816 -53.550  12.909  1.00  0.00     0.032 C 
HETATM   18  C   UNL     1     -45.891 -52.503  12.615  1.00  0.00     0.002 C 
HETATM   19  C   UNL     1     -46.081 -51.562  13.803  1.00  0.00     0.000 C 
HETATM   20  C   UNL     1     -44.766 -50.926  14.249  1.00  0.00     0.002 C 
HETATM   21  C   UNL     1     -43.678 -51.975  14.492  1.00  0.00     0.032 C 
ENDBRANCH  15  16
ENDBRANCH  14  15
ENDBRANCH   2  14
TORSDOF 5
ENDMDL
MODEL 2
REMARK VINA RESULT:      -5.5      2.310      3.468
REMARK  5 active torsions:
REMARK  status: ('A' for Active; 'I' for Inactive)
REMARK    1  A    between atoms: O_2  and  C_3 
REMARK    2  A    between atoms: C_8  and  N_9 
REMARK       I    between atoms: N_9  and  C_10 
REMARK    3  A    between atoms: C_10  and  C_12 
REMARK    4  A    between atoms: C_12  and  O_13 
REMARK    5  A    between atoms: O_13  and  C_14 
ROOT
HETATM    1  N   UNL     1     -41.992 -52.367  13.520  1.00  0.00    -0.311 N 
HETATM    2  C   UNL     1     -41.909 -53.751  13.436  1.00  0.00     0.246 C 
HETATM    3  O   UNL     1     -41.059 -54.391  12.821  1.00  0.00    -0.271 OA
HETATM    4  H   UNL     1     -42.685 -51.953  14.126  1.00  0.00     0.170 HD
ENDROOT
BRANCH   1   5
HETATM    5  C   UNL     1     -41.103 -51.494  12.871  1.00  0.00     0.110 A 
HETATM    6  N   UNL     1     -39.783 -51.646  13.036  1.00  0.00    -0.352 N 
HETATM    7  C   UNL     1     -38.950 -50.788  12.423  1.00  0.00     0.092 A 
ATOM      8  HN  UNL     1     -39.416 -52.400  13.617  1.00  0.00     0.166 HD
HETATM    9  C   UNL     1     -39.379 -49.766  11.605  1.00  0.00     0.053 A 
HETATM   10  C   UNL     1     -40.746 -49.631  11.404  1.00  0.00     0.073 A 
HETATM   11  C   UNL     1     -41.627 -50.494  12.059  1.00  0.00     0.085 A 
BRANCH  10  12
HETATM   12  O   UNL     1     -41.326 -48.672  10.615  1.00  0.00    -0.356 OA
HETATM   13  C   UNL     1     -41.057 -47.326  11.002  1.00  0.00     0.210 C 
ENDBRANCH  10  12
ENDBRANCH   1   5
BRANCH   2  14
HETATM   14  C   UNL     1     -43.007 -54.476  14.224  1.00  0.00     0.271 C 
BRANCH  14  15
HETATM   15  O   UNL     1     -44.090 -53.579  14.423  1.00  0.00    -0.377 OA
BRANCH  15  16
HETATM   16  C   UNL     1     -45.274 -53.850  13.676  1.00  0.00     0.122 C 
HETATM   17  C   UNL     1     -45.537 -52.765  12.627  1.00  0.00     0.032 C 
HETATM   18  C   UNL     1     -45.686 -51.392  13.281  1.00  0.00     0.002 C 
HETATM   19  C   UNL     1     -46.805 -51.397  14.321  1.00  0.00     0.000 C 
HETATM   20  C   UNL     1     -46.628 -52.509  15.352  1.00  0.00     0.002 C 
HETATM   21  C   UNL     1     -46.428 -53.875  14.690  1.00  0.00     0.032 C 
ENDBRANCH  15  16
ENDBRANCH  14  15
ENDBRANCH   2  14
TORSDOF 5
ENDMDL
MODEL 3
REMARK VINA RESULT:      -5.4      1.654      2.529
REMARK  5 active torsions:
REMARK  status: ('A' for Active; 'I' for Inactive)
REMARK    1  A    between atoms: O_2  and  C_3 
REMARK    2  A    between atoms: C_8  and  N_9 
REMARK       I    between atoms: N_9  and  C_10 
REMARK    3  A    between atoms: C_10  and  C_12 
REMARK    4  A    between atoms: C_12  and  O_13 
REMARK    5  A    between atoms: O_13  and  C_14 
ROOT
HETATM    1  N   UNL     1     -41.925 -49.926  11.481  1.00  0.00    -0.311 N 
HETATM    2  C   UNL     1     -42.717 -50.381  12.528  1.00  0.00     0.246 C 
HETATM    3  O   UNL     1     -43.525 -49.715  13.170  1.00  0.00    -0.271 OA
HETATM    4  H   UNL     1     -41.358 -50.587  10.971  1.00  0.00     0.170 HD
ENDROOT
BRANCH   1   5
HETATM    5  C   UNL     1     -41.928 -48.597  11.026  1.00  0.00     0.110 A 
HETATM    6  N   UNL     1     -42.923 -48.167  10.239  1.00  0.00    -0.352 N 
HETATM    7  C   UNL     1     -42.896 -46.898   9.796  1.00  0.00     0.092 A 
ATOM      8  HN  UNL     1     -43.686 -48.791   9.980  1.00  0.00     0.166 HD
HETATM    9  C   UNL     1     -41.909 -45.997  10.130  1.00  0.00     0.053 A 
HETATM   10  C   UNL     1     -40.897 -46.433  10.975  1.00  0.00     0.073 A 
HETATM   11  C   UNL     1     -40.892 -47.757  11.419  1.00  0.00     0.085 A 
BRANCH  10  12
HETATM   12  O   UNL     1     -39.853 -45.656  11.404  1.00  0.00    -0.356 OA
HETATM   13  C   UNL     1     -39.563 -45.748  12.797  1.00  0.00     0.210 C 
ENDBRANCH  10  12
ENDBRANCH   1   5
BRANCH   2  14
HETATM   14  C   UNL     1     -42.516 -51.869  12.841  1.00  0.00     0.271 C 
BRANCH  14  15
HETATM   15  O   UNL     1     -43.671 -52.351  13.512  1.00  0.00    -0.377 OA
BRANCH  15  16
HETATM   16  C   UNL     1     -44.628 -53.032  12.704  1.00  0.00     0.122 C 
HETATM   17  C   UNL     1     -45.912 -52.214  12.543  1.00  0.00     0.032 C 
HETATM   18  C   UNL     1     -46.552 -51.922  13.901  1.00  0.00     0.002 C 
HETATM   19  C   UNL     1     -46.846 -53.214  14.659  1.00  0.00     0.000 C 
HETATM   20  C   UNL     1     -45.611 -54.103  14.784  1.00  0.00     0.002 C 
HETATM   21  C   UNL     1     -44.945 -54.350  13.427  1.00  0.00     0.032 C 
ENDBRANCH  15  16
ENDBRANCH  14  15
ENDBRANCH   2  14
TORSDOF 5
ENDMDL
MODEL 4
REMARK VINA RESULT:      -5.4      2.906      7.208
REMARK  5 active torsions:
REMARK  status: ('A' for Active; 'I' for Inactive)
REMARK    1  A    between atoms: O_2  and  C_3 
REMARK    2  A    between atoms: C_8  and  N_9 
REMARK       I    between atoms: N_9  and  C_10 
REMARK    3  A    between atoms: C_10  and  C_12 
REMARK    4  A    between atoms: C_12  and  O_13 
REMARK    5  A    between atoms: O_13  and  C_14 
ROOT
HETATM    1  N   UNL     1     -41.842 -51.577  11.936  1.00  0.00    -0.311 N 
HETATM    2  C   UNL     1     -42.109 -50.225  12.106  1.00  0.00     0.246 C 
HETATM    3  O   UNL     1     -43.010 -49.742  12.788  1.00  0.00    -0.271 OA
HETATM    4  H   UNL     1     -41.021 -51.853  11.418  1.00  0.00     0.170 HD
ENDROOT
BRANCH   1   5
HETATM    5  C   UNL     1     -42.607 -52.600  12.519  1.00  0.00     0.110 A 
HETATM    6  N   UNL     1     -43.835 -52.859  12.053  1.00  0.00    -0.352 N 
HETATM    7  C   UNL     1     -44.560 -53.828  12.639  1.00  0.00     0.092 A 
ATOM      8  HN  UNL     1     -44.214 -52.331  11.267  1.00  0.00     0.166 HD
HETATM    9  C   UNL     1     -44.098 -54.595  13.685  1.00  0.00     0.053 A 
HETATM   10  C   UNL     1     -42.811 -54.351  14.145  1.00  0.00     0.073 A 
HETATM   11  C   UNL     1     -42.056 -53.326  13.569  1.00  0.00     0.085 A 
BRANCH  10  12
HETATM   12  O   UNL     1     -42.208 -55.033  15.170  1.00  0.00    -0.356 OA
HETATM   13  C   UNL     1     -40.864 -54.645  15.445  1.00  0.00     0.210 C 
ENDBRANCH  10  12
ENDBRANCH   1   5
BRANCH   2  14
HETATM   14  C   UNL     1     -41.136 -49.311  11.350  1.00  0.00     0.271 C 
BRANCH  14  15
HETATM   15  O   UNL     1     -39.854 -49.923  11.343  1.00  0.00    -0.377 OA
BRANCH  15  16
HETATM   16  C   UNL     1     -38.748 -49.065  11.616  1.00  0.00     0.122 C 
HETATM   17  C   UNL     1     -37.413 -49.782  11.399  1.00  0.00     0.032 C 
HETATM   18  C   UNL     1     -37.298 -51.014  12.298  1.00  0.00     0.002 C 
HETATM   19  C   UNL     1     -37.456 -50.637  13.769  1.00  0.00     0.000 C 
HETATM   20  C   UNL     1     -38.741 -49.854  14.028  1.00  0.00     0.002 C 
HETATM   21  C   UNL     1     -38.875 -48.651  13.090  1.00  0.00     0.032 C 
ENDBRANCH  15  16
ENDBRANCH  14  15
ENDBRANCH   2  14
TORSDOF 5
ENDMDL
MODEL 5
REMARK VINA RESULT:      -5.1      2.990      3.917
REMARK  5 active torsions:
REMARK  status: ('A' for Active; 'I' for Inactive)
REMARK    1  A    between atoms: O_2  and  C_3 
REMARK    2  A    between atoms: C_8  and  N_9 
REMARK       I    between atoms: N_9  and  C_10 
REMARK    3  A    between atoms: C_10  and  C_12 
REMARK    4  A    between atoms: C_12  and  O_13 
REMARK    5  A    between atoms: O_13  and  C_14 
ROOT
HETATM    1  N   UNL     1     -41.964 -51.957  13.165  1.00  0.00    -0.311 N 
HETATM    2  C   UNL     1     -41.654 -53.305  13.039  1.00  0.00     0.246 C 
HETATM    3  O   UNL     1     -40.624 -53.772  12.559  1.00  0.00    -0.271 OA
HETATM    4  H   UNL     1     -42.806 -51.691  13.654  1.00  0.00     0.170 HD
ENDROOT
BRANCH   1   5
HETATM    5  C   UNL     1     -41.124 -50.922  12.723  1.00  0.00     0.110 A 
HETATM    6  N   UNL     1     -40.887 -50.772  11.414  1.00  0.00    -0.352 N 
HETATM    7  C   UNL     1     -40.064 -49.788  11.013  1.00  0.00     0.092 A 
ATOM      8  HN  UNL     1     -41.323 -51.393  10.733  1.00  0.00     0.166 HD
HETATM    9  C   UNL     1     -39.464 -48.899  11.878  1.00  0.00     0.053 A 
HETATM   10  C   UNL     1     -39.738 -49.032  13.232  1.00  0.00     0.073 A 
HETATM   11  C   UNL     1     -40.566 -50.069  13.669  1.00  0.00     0.085 A 
BRANCH  10  12
HETATM   12  O   UNL     1     -39.226 -48.223  14.212  1.00  0.00    -0.356 OA
HETATM   13  C   UNL     1     -38.369 -48.875  15.147  1.00  0.00     0.210 C 
ENDBRANCH  10  12
ENDBRANCH   1   5
BRANCH   2  14
HETATM   14  C   UNL     1     -42.745 -54.235  13.585  1.00  0.00     0.271 C 
BRANCH  14  15
HETATM   15  O   UNL     1     -43.868 -53.448  13.954  1.00  0.00    -0.377 OA
BRANCH  15  16
HETATM   16  C   UNL     1     -45.116 -53.829  13.378  1.00  0.00     0.122 C 
HETATM   17  C   UNL     1     -45.701 -52.708  12.513  1.00  0.00     0.032 C 
HETATM   18  C   UNL     1     -45.918 -51.437  13.334  1.00  0.00     0.002 C 
HETATM   19  C   UNL     1     -46.829 -51.703  14.530  1.00  0.00     0.000 C 
HETATM   20  C   UNL     1     -46.328 -52.863  15.388  1.00  0.00     0.002 C 
HETATM   21  C   UNL     1     -46.063 -54.119  14.552  1.00  0.00     0.032 C 
ENDBRANCH  15  16
ENDBRANCH  14  15
ENDBRANCH   2  14
TORSDOF 5
ENDMDL
MODEL 6
REMARK VINA RESULT:      -5.0      2.225      3.038
REMARK  5 active torsions:
REMARK  status: ('A' for Active; 'I' for Inactive)
REMARK    1  A    between atoms: O_2  and  C_3 
REMARK    2  A    between atoms: C_8  and  N_9 
REMARK       I    between atoms: N_9  and  C_10 
REMARK    3  A    between atoms: C_10  and  C_12 
REMARK    4  A    between atoms: C_12  and  O_13 
REMARK    5  A    between atoms: O_13  and  C_14 
ROOT
HETATM    1  N   UNL     1     -41.053 -49.318  10.771  1.00  0.00    -0.311 N 
HETATM    2  C   UNL     1     -41.102 -49.893  12.034  1.00  0.00     0.246 C 
HETATM    3  O   UNL     1     -41.753 -49.484  12.993  1.00  0.00    -0.271 OA
HETATM    4  H   UNL     1     -40.549 -49.791  10.036  1.00  0.00     0.170 HD
ENDROOT
BRANCH   1   5
HETATM    5  C   UNL     1     -41.741 -48.143  10.425  1.00  0.00     0.110 A 
HETATM    6  N   UNL     1     -42.978 -48.223   9.917  1.00  0.00    -0.352 N 
HETATM    7  C   UNL     1     -43.611 -47.089   9.572  1.00  0.00     0.092 A 
ATOM      8  HN  UNL     1     -43.430 -49.128   9.794  1.00  0.00     0.166 HD
HETATM    9  C   UNL     1     -43.067 -45.834   9.737  1.00  0.00     0.053 A 
HETATM   10  C   UNL     1     -41.800 -45.749  10.297  1.00  0.00     0.073 A 
HETATM   11  C   UNL     1     -41.114 -46.919  10.631  1.00  0.00     0.085 A 
BRANCH  10  12
HETATM   12  O   UNL     1     -41.130 -44.577  10.531  1.00  0.00    -0.356 OA
HETATM   13  C   UNL     1     -40.285 -44.583  11.681  1.00  0.00     0.210 C 
ENDBRANCH  10  12
ENDBRANCH   1   5
BRANCH   2  14
HETATM   14  C   UNL     1     -40.250 -51.162  12.160  1.00  0.00     0.271 C 
BRANCH  14  15
HETATM   15  O   UNL     1     -40.552 -51.790  13.398  1.00  0.00    -0.377 OA
BRANCH  15  16
HETATM   16  C   UNL     1     -40.068 -53.121  13.560  1.00  0.00     0.122 C 
HETATM   17  C   UNL     1     -40.964 -54.135  12.843  1.00  0.00     0.032 C 
HETATM   18  C   UNL     1     -42.396 -54.076  13.375  1.00  0.00     0.002 C 
HETATM   19  C   UNL     1     -42.434 -54.319  14.882  1.00  0.00     0.000 C 
HETATM   20  C   UNL     1     -41.500 -53.378  15.640  1.00  0.00     0.002 C 
HETATM   21  C   UNL     1     -40.079 -53.404  15.070  1.00  0.00     0.032 C 
ENDBRANCH  15  16
ENDBRANCH  14  15
ENDBRANCH   2  14
TORSDOF 5
ENDMDL
MODEL 7
REMARK VINA RESULT:      -5.0      2.582      6.017
REMARK  5 active torsions:
REMARK  status: ('A' for Active; 'I' for Inactive)
REMARK    1  A    between atoms: O_2  and  C_3 
REMARK    2  A    between atoms: C_8  and  N_9 
REMARK       I    between atoms: N_9  and  C_10 
REMARK    3  A    between atoms: C_10  and  C_12 
REMARK    4  A    between atoms: C_12  and  O_13 
REMARK    5  A    between atoms: O_13  and  C_14 
ROOT
HETATM    1  N   UNL     1     -39.704 -47.596  11.075  1.00  0.00    -0.311 N 
HETATM    2  C   UNL     1     -39.796 -46.285  11.524  1.00  0.00     0.246 C 
HETATM    3  O   UNL     1     -39.564 -45.889  12.664  1.00  0.00    -0.271 OA
HETATM    4  H   UNL     1     -39.838 -47.789  10.093  1.00  0.00     0.170 HD
ENDROOT
BRANCH   1   5
HETATM    5  C   UNL     1     -39.348 -48.676  11.899  1.00  0.00     0.110 A 
HETATM    6  N   UNL     1     -38.511 -48.481  12.925  1.00  0.00    -0.352 N 
HETATM    7  C   UNL     1     -38.165 -49.531  13.689  1.00  0.00     0.092 A 
ATOM      8  HN  UNL     1     -38.142 -47.551  13.124  1.00  0.00     0.166 HD
HETATM    9  C   UNL     1     -38.649 -50.806  13.491  1.00  0.00     0.053 A 
HETATM   10  C   UNL     1     -39.545 -51.002  12.449  1.00  0.00     0.073 A 
HETATM   11  C   UNL     1     -39.889 -49.927  11.626  1.00  0.00     0.085 A 
BRANCH  10  12
HETATM   12  O   UNL     1     -40.117 -52.205  12.131  1.00  0.00    -0.356 OA
HETATM   13  C   UNL     1     -41.543 -52.211  12.114  1.00  0.00     0.210 C 
ENDBRANCH  10  12
ENDBRANCH   1   5
BRANCH   2  14
HETATM   14  C   UNL     1     -40.219 -45.295  10.431  1.00  0.00     0.271 C 
BRANCH  14  15
HETATM   15  O   UNL     1     -41.449 -45.735   9.873  1.00  0.00    -0.377 OA
BRANCH  15  16
HETATM   16  C   UNL     1     -42.631 -45.334  10.563  1.00  0.00     0.122 C 
HETATM   17  C   UNL     1     -43.114 -46.420  11.527  1.00  0.00     0.032 C 
HETATM   18  C   UNL     1     -43.411 -47.723  10.783  1.00  0.00     0.002 C 
HETATM   19  C   UNL     1     -44.445 -47.503   9.681  1.00  0.00     0.000 C 
HETATM   20  C   UNL     1     -44.044 -46.377   8.731  1.00  0.00     0.002 C 
HETATM   21  C   UNL     1     -43.698 -45.090   9.485  1.00  0.00     0.032 C 
ENDBRANCH  15  16
ENDBRANCH  14  15
ENDBRANCH   2  14
TORSDOF 5
ENDMDL
MODEL 8
REMARK VINA RESULT:      -4.9      4.142      7.136
REMARK  5 active torsions:
REMARK  status: ('A' for Active; 'I' for Inactive)
REMARK    1  A    between atoms: O_2  and  C_3 
REMARK    2  A    between atoms: C_8  and  N_9 
REMARK       I    between atoms: N_9  and  C_10 
REMARK    3  A    between atoms: C_10  and  C_12 
REMARK    4  A    between atoms: C_12  and  O_13 
REMARK    5  A    between atoms: O_13  and  C_14 
ROOT
HETATM    1  N   UNL     1     -41.869 -53.540  14.831  1.00  0.00    -0.311 N 
HETATM    2  C   UNL     1     -40.904 -53.825  13.874  1.00  0.00     0.246 C 
HETATM    3  O   UNL     1     -41.112 -54.189  12.718  1.00  0.00    -0.271 OA
HETATM    4  H   UNL     1     -41.580 -53.167  15.723  1.00  0.00     0.170 HD
ENDROOT
BRANCH   1   5
HETATM    5  C   UNL     1     -43.250 -53.660  14.602  1.00  0.00     0.110 A 
HETATM    6  N   UNL     1     -43.775 -54.859  14.319  1.00  0.00    -0.352 N 
HETATM    7  C   UNL     1     -45.095 -54.949  14.082  1.00  0.00     0.092 A 
ATOM      8  HN  UNL     1     -43.184 -55.689  14.284  1.00  0.00     0.166 HD
HETATM    9  C   UNL     1     -45.953 -53.872  14.140  1.00  0.00     0.053 A 
HETATM   10  C   UNL     1     -45.414 -52.636  14.469  1.00  0.00     0.073 A 
HETATM   11  C   UNL     1     -44.039 -52.518  14.687  1.00  0.00     0.085 A 
BRANCH  10  12
HETATM   12  O   UNL     1     -46.136 -51.476  14.574  1.00  0.00    -0.356 OA
HETATM   13  C   UNL     1     -47.125 -51.470  15.602  1.00  0.00     0.210 C 
ENDBRANCH  10  12
ENDBRANCH   1   5
BRANCH   2  14
HETATM   14  C   UNL     1     -39.469 -53.630  14.378  1.00  0.00     0.271 C 
BRANCH  14  15
HETATM   15  O   UNL     1     -38.823 -52.675  13.549  1.00  0.00    -0.377 OA
BRANCH  15  16
HETATM   16  C   UNL     1     -38.720 -51.354  14.078  1.00  0.00     0.122 C 
HETATM   17  C   UNL     1     -39.885 -50.473  13.621  1.00  0.00     0.032 C 
HETATM   18  C   UNL     1     -39.936 -50.377  12.096  1.00  0.00     0.002 C 
HETATM   19  C   UNL     1     -38.622 -49.839  11.534  1.00  0.00     0.000 C 
HETATM   20  C   UNL     1     -37.417 -50.642  12.019  1.00  0.00     0.002 C 
HETATM   21  C   UNL     1     -37.399 -50.778  13.545  1.00  0.00     0.032 C 
ENDBRANCH  15  16
ENDBRANCH  14  15
ENDBRANCH   2  14
TORSDOF 5
ENDMDL
MODEL 9
REMARK VINA RESULT:      -4.9      2.589      6.979
REMARK  5 active torsions:
REMARK  status: ('A' for Active; 'I' for Inactive)
REMARK    1  A    between atoms: O_2  and  C_3 
REMARK    2  A    between atoms: C_8  and  N_9 
REMARK       I    between atoms: N_9  and  C_10 
REMARK    3  A    between atoms: C_10  and  C_12 
REMARK    4  A    between atoms: C_12  and  O_13 
REMARK    5  A    between atoms: O_13  and  C_14 
ROOT
HETATM    1  N   UNL     1     -41.060 -48.495  10.861  1.00  0.00    -0.311 N 
HETATM    2  C   UNL     1     -42.225 -47.740  10.874  1.00  0.00     0.246 C 
HETATM    3  O   UNL     1     -43.271 -48.027  11.452  1.00  0.00    -0.271 OA
HETATM    4  H   UNL     1     -40.235 -48.116  10.420  1.00  0.00     0.170 HD
ENDROOT
BRANCH   1   5
HETATM    5  C   UNL     1     -40.931 -49.736  11.506  1.00  0.00     0.110 A 
HETATM    6  N   UNL     1     -42.005 -50.522  11.657  1.00  0.00    -0.352 N 
HETATM    7  C   UNL     1     -41.865 -51.696  12.296  1.00  0.00     0.092 A 
ATOM      8  HN  UNL     1     -42.913 -50.234  11.293  1.00  0.00     0.166 HD
HETATM    9  C   UNL     1     -40.662 -52.155  12.787  1.00  0.00     0.053 A 
HETATM   10  C   UNL     1     -39.542 -51.357  12.600  1.00  0.00     0.073 A 
HETATM   11  C   UNL     1     -39.676 -50.119  11.966  1.00  0.00     0.085 A 
BRANCH  10  12
HETATM   12  O   UNL     1     -38.279 -51.678  13.022  1.00  0.00    -0.356 OA
HETATM   13  C   UNL     1     -37.232 -50.899  12.446  1.00  0.00     0.210 C 
ENDBRANCH  10  12
ENDBRANCH   1   5
BRANCH   2  14
HETATM   14  C   UNL     1     -42.113 -46.432  10.081  1.00  0.00     0.271 C 
BRANCH  14  15
HETATM   15  O   UNL     1     -41.106 -45.626  10.676  1.00  0.00    -0.377 OA
BRANCH  15  16
HETATM   16  C   UNL     1     -41.522 -44.343  11.139  1.00  0.00     0.122 C 
HETATM   17  C   UNL     1     -40.325 -43.424  11.396  1.00  0.00     0.032 C 
HETATM   18  C   UNL     1     -39.381 -44.027  12.436  1.00  0.00     0.002 C 
HETATM   19  C   UNL     1     -40.114 -44.309  13.746  1.00  0.00     0.000 C 
HETATM   20  C   UNL     1     -41.361 -45.166  13.535  1.00  0.00     0.002 C 
HETATM   21  C   UNL     1     -42.277 -44.583  12.456  1.00  0.00     0.032 C 
ENDBRANCH  15  16
ENDBRANCH  14  15
ENDBRANCH   2  14
TORSDOF 5
ENDMDL
