MODEL 1
REMARK VINA RESULT:      -6.7      0.000      0.000
REMARK  5 active torsions:
REMARK  status: ('A' for Active; 'I' for Inactive)
REMARK    1  A    between atoms: O_2  and  C_3 
REMARK    2  A    between atoms: C_3  and  C_4 
REMARK    3  A    between atoms: C_4  and  N_5 
REMARK    4  A    between atoms: C_8  and  C_13 
REMARK       I    between atoms: C_13  and  N_15 
REMARK    5  A    between atoms: N_15  and  C_16 
ROOT
HETATM    1  N   UNL     1     -43.013 -47.241  10.043  1.00  0.00    -0.255 N 
HETATM    2  N   UNL     1     -43.055 -48.461  10.708  1.00  0.00    -0.290 N 
ATOM      3  HN  UNL     1     -43.257 -49.331  10.216  1.00  0.00     0.187 HD
HETATM    4  C   UNL     1     -42.824 -48.439  11.986  1.00  0.00     0.116 A 
HETATM    5  C   UNL     1     -42.548 -47.225  12.778  1.00  0.00     0.042 A 
HETATM    6  C   UNL     1     -42.498 -46.070  12.115  1.00  0.00     0.078 A 
HETATM    7  C   UNL     1     -42.738 -46.025  10.660  1.00  0.00     0.262 A 
HETATM    8  O   UNL     1     -42.688 -44.940  10.088  1.00  0.00    -0.267 OA
ENDROOT
BRANCH   4   9
HETATM    9  C   UNL     1     -42.847 -49.743  12.775  1.00  0.00     0.269 C 
HETATM   10  O   UNL     1     -43.182 -49.727  13.951  1.00  0.00    -0.266 OA
HETATM   11  N   UNL     1     -42.504 -50.873  12.062  1.00  0.00    -0.351 N 
HETATM   12  H   UNL     1     -42.110 -50.734  11.136  1.00  0.00     0.163 HD
BRANCH  11  13
HETATM   13  C   UNL     1     -42.486 -52.193  12.692  1.00  0.00     0.084 C 
HETATM   14  C   UNL     1     -41.174 -52.915  12.356  1.00  0.00     0.025 C 
HETATM   15  C   UNL     1     -40.876 -54.208  13.122  1.00  0.00     0.002 C 
HETATM   16  C   UNL     1     -41.170 -54.160  14.622  1.00  0.00     0.000 C 
HETATM   17  C   UNL     1     -42.477 -54.837  15.045  1.00  0.00     0.000 C 
HETATM   18  C   UNL     1     -43.790 -54.199  14.581  1.00  0.00     0.000 C 
HETATM   19  C   UNL     1     -44.037 -54.261  13.071  1.00  0.00     0.002 C 
HETATM   20  C   UNL     1     -43.752 -52.966  12.303  1.00  0.00     0.025 C 
ENDBRANCH  11  13
ENDBRANCH   4   9
BRANCH   1  21
HETATM   21  C   UNL     1     -43.354 -47.256   8.622  1.00  0.00     0.178 C 
BRANCH  21  22
HETATM   22  C   UNL     1     -44.704 -47.911   8.323  1.00  0.00     0.189 C 
BRANCH  22  23
HETATM   23  O   UNL     1     -45.573 -47.726   9.446  1.00  0.00    -0.394 OA
HETATM   24  C   UNL     1     -46.757 -47.031   9.076  1.00  0.00     0.201 C 
ENDBRANCH  22  23
ENDBRANCH  21  22
ENDBRANCH   1  21
TORSDOF 5
ENDMDL
MODEL 2
REMARK VINA RESULT:      -6.4      1.485      2.020
REMARK  5 active torsions:
REMARK  status: ('A' for Active; 'I' for Inactive)
REMARK    1  A    between atoms: O_2  and  C_3 
REMARK    2  A    between atoms: C_3  and  C_4 
REMARK    3  A    between atoms: C_4  and  N_5 
REMARK    4  A    between atoms: C_8  and  C_13 
REMARK       I    between atoms: C_13  and  N_15 
REMARK    5  A    between atoms: N_15  and  C_16 
ROOT
HETATM    1  N   UNL     1     -42.930 -47.446  10.147  1.00  0.00    -0.255 N 
HETATM    2  N   UNL     1     -43.180 -48.611  10.862  1.00  0.00    -0.290 N 
ATOM      3  HN  UNL     1     -43.430 -49.481  10.394  1.00  0.00     0.187 HD
HETATM    4  C   UNL     1     -43.078 -48.538  12.155  1.00  0.00     0.116 A 
HETATM    5  C   UNL     1     -42.745 -47.315  12.912  1.00  0.00     0.042 A 
HETATM    6  C   UNL     1     -42.495 -46.215  12.203  1.00  0.00     0.078 A 
HETATM    7  C   UNL     1     -42.580 -46.232  10.730  1.00  0.00     0.262 A 
HETATM    8  O   UNL     1     -42.347 -45.196  10.115  1.00  0.00    -0.267 OA
ENDROOT
BRANCH   4   9
HETATM    9  C   UNL     1     -43.332 -49.781  12.999  1.00  0.00     0.269 C 
HETATM   10  O   UNL     1     -42.507 -50.115  13.838  1.00  0.00    -0.266 OA
HETATM   11  N   UNL     1     -44.524 -50.429  12.755  1.00  0.00    -0.351 N 
HETATM   12  H   UNL     1     -45.053 -50.136  11.938  1.00  0.00     0.163 HD
BRANCH  11  13
HETATM   13  C   UNL     1     -44.899 -51.636  13.494  1.00  0.00     0.084 C 
HETATM   14  C   UNL     1     -44.543 -52.883  12.673  1.00  0.00     0.025 C 
HETATM   15  C   UNL     1     -44.643 -54.235  13.386  1.00  0.00     0.002 C 
HETATM   16  C   UNL     1     -44.078 -54.267  14.807  1.00  0.00     0.000 C 
HETATM   17  C   UNL     1     -45.128 -54.202  15.920  1.00  0.00     0.000 C 
HETATM   18  C   UNL     1     -45.926 -52.903  16.069  1.00  0.00     0.000 C 
HETATM   19  C   UNL     1     -46.876 -52.593  14.909  1.00  0.00     0.002 C 
HETATM   20  C   UNL     1     -46.373 -51.549  13.907  1.00  0.00     0.025 C 
ENDBRANCH  11  13
ENDBRANCH   4   9
BRANCH   1  21
HETATM   21  C   UNL     1     -43.125 -47.509   8.700  1.00  0.00     0.178 C 
BRANCH  21  22
HETATM   22  C   UNL     1     -44.570 -47.795   8.288  1.00  0.00     0.189 C 
BRANCH  22  23
HETATM   23  O   UNL     1     -45.419 -47.661   9.435  1.00  0.00    -0.394 OA
HETATM   24  C   UNL     1     -46.655 -47.046   9.096  1.00  0.00     0.201 C 
ENDBRANCH  22  23
ENDBRANCH  21  22
ENDBRANCH   1  21
TORSDOF 5
ENDMDL
MODEL 3
REMARK VINA RESULT:      -6.2      1.619      2.331
REMARK  5 active torsions:
REMARK  status: ('A' for Active; 'I' for Inactive)
REMARK    1  A    between atoms: O_2  and  C_3 
REMARK    2  A    between atoms: C_3  and  C_4 
REMARK    3  A    between atoms: C_4  and  N_5 
REMARK    4  A    between atoms: C_8  and  C_13 
REMARK       I    between atoms: C_13  and  N_15 
REMARK    5  A    between atoms: N_15  and  C_16 
ROOT
HETATM    1  N   UNL     1     -42.525 -47.020  10.102  1.00  0.00    -0.255 N 
HETATM    2  N   UNL     1     -42.835 -48.248  10.674  1.00  0.00    -0.290 N 
ATOM      3  HN  UNL     1     -43.677 -48.761  10.413  1.00  0.00     0.187 HD
HETATM    4  C   UNL     1     -42.002 -48.710  11.556  1.00  0.00     0.116 A 
HETATM    5  C   UNL     1     -40.776 -48.022  12.008  1.00  0.00     0.042 A 
HETATM    6  C   UNL     1     -40.493 -46.854  11.434  1.00  0.00     0.078 A 
HETATM    7  C   UNL     1     -41.391 -46.277  10.414  1.00  0.00     0.262 A 
HETATM    8  O   UNL     1     -41.096 -45.197   9.913  1.00  0.00    -0.267 OA
ENDROOT
BRANCH   4   9
HETATM    9  C   UNL     1     -42.278 -50.055  12.217  1.00  0.00     0.269 C 
HETATM   10  O   UNL     1     -41.392 -50.897  12.258  1.00  0.00    -0.266 OA
HETATM   11  N   UNL     1     -43.539 -50.202  12.757  1.00  0.00    -0.351 N 
HETATM   12  H   UNL     1     -44.225 -49.487  12.533  1.00  0.00     0.163 HD
BRANCH  11  13
HETATM   13  C   UNL     1     -43.940 -51.441  13.424  1.00  0.00     0.084 C 
HETATM   14  C   UNL     1     -45.446 -51.670  13.237  1.00  0.00     0.025 C 
HETATM   15  C   UNL     1     -45.999 -53.035  13.662  1.00  0.00     0.002 C 
HETATM   16  C   UNL     1     -45.150 -54.239  13.251  1.00  0.00     0.000 C 
HETATM   17  C   UNL     1     -44.290 -54.833  14.370  1.00  0.00     0.000 C 
HETATM   18  C   UNL     1     -43.142 -53.977  14.915  1.00  0.00     0.000 C 
HETATM   19  C   UNL     1     -43.579 -52.721  15.673  1.00  0.00     0.002 C 
HETATM   20  C   UNL     1     -43.481 -51.409  14.886  1.00  0.00     0.025 C 
ENDBRANCH  11  13
ENDBRANCH   4   9
BRANCH   1  21
HETATM   21  C   UNL     1     -43.505 -46.464   9.171  1.00  0.00     0.178 C 
BRANCH  21  22
HETATM   22  C   UNL     1     -44.222 -47.522   8.330  1.00  0.00     0.189 C 
BRANCH  22  23
HETATM   23  O   UNL     1     -45.394 -47.959   9.029  1.00  0.00    -0.394 OA
HETATM   24  C   UNL     1     -46.390 -46.944   9.057  1.00  0.00     0.201 C 
ENDBRANCH  22  23
ENDBRANCH  21  22
ENDBRANCH   1  21
TORSDOF 5
ENDMDL
MODEL 4
REMARK VINA RESULT:      -5.8      1.788      3.064
REMARK  5 active torsions:
REMARK  status: ('A' for Active; 'I' for Inactive)
REMARK    1  A    between atoms: O_2  and  C_3 
REMARK    2  A    between atoms: C_3  and  C_4 
REMARK    3  A    between atoms: C_4  and  N_5 
REMARK    4  A    between atoms: C_8  and  C_13 
REMARK       I    between atoms: C_13  and  N_15 
REMARK    5  A    between atoms: N_15  and  C_16 
ROOT
HETATM    1  N   UNL     1     -41.569 -46.222  11.373  1.00  0.00    -0.255 N 
HETATM    2  N   UNL     1     -41.377 -47.399  12.085  1.00  0.00    -0.290 N 
ATOM      3  HN  UNL     1     -40.565 -47.532  12.688  1.00  0.00     0.187 HD
HETATM    4  C   UNL     1     -42.282 -48.320  11.947  1.00  0.00     0.116 A 
HETATM    5  C   UNL     1     -43.472 -48.219  11.079  1.00  0.00     0.042 A 
HETATM    6  C   UNL     1     -43.641 -47.075  10.418  1.00  0.00     0.078 A 
HETATM    7  C   UNL     1     -42.657 -45.981  10.540  1.00  0.00     0.262 A 
HETATM    8  O   UNL     1     -42.848 -44.945   9.911  1.00  0.00    -0.267 OA
ENDROOT
BRANCH   4   9
HETATM    9  C   UNL     1     -42.136 -49.634  12.707  1.00  0.00     0.269 C 
HETATM   10  O   UNL     1     -41.664 -49.626  13.835  1.00  0.00    -0.266 OA
HETATM   11  N   UNL     1     -42.592 -50.754  12.044  1.00  0.00    -0.351 N 
HETATM   12  H   UNL     1     -42.829 -50.648  11.062  1.00  0.00     0.163 HD
BRANCH  11  13
HETATM   13  C   UNL     1     -42.517 -52.082  12.656  1.00  0.00     0.084 C 
HETATM   14  C   UNL     1     -41.217 -52.779  12.231  1.00  0.00     0.025 C 
HETATM   15  C   UNL     1     -40.855 -54.077  12.961  1.00  0.00     0.002 C 
HETATM   16  C   UNL     1     -41.058 -54.051  14.477  1.00  0.00     0.000 C 
HETATM   17  C   UNL     1     -42.327 -54.753  14.969  1.00  0.00     0.000 C 
HETATM   18  C   UNL     1     -43.675 -54.130  14.594  1.00  0.00     0.000 C 
HETATM   19  C   UNL     1     -44.012 -54.178  13.101  1.00  0.00     0.002 C 
HETATM   20  C   UNL     1     -43.793 -52.869  12.334  1.00  0.00     0.025 C 
ENDBRANCH  11  13
ENDBRANCH   4   9
BRANCH   1  21
HETATM   21  C   UNL     1     -40.510 -45.219  11.465  1.00  0.00     0.178 C 
BRANCH  21  22
HETATM   22  C   UNL     1     -39.394 -45.410  10.435  1.00  0.00     0.189 C 
BRANCH  22  23
HETATM   23  O   UNL     1     -39.538 -44.428   9.402  1.00  0.00    -0.394 OA
HETATM   24  C   UNL     1     -38.453 -44.478   8.484  1.00  0.00     0.201 C 
ENDBRANCH  22  23
ENDBRANCH  21  22
ENDBRANCH   1  21
TORSDOF 5
ENDMDL
MODEL 5
REMARK VINA RESULT:      -5.5      2.957      4.337
REMARK  5 active torsions:
REMARK  status: ('A' for Active; 'I' for Inactive)
REMARK    1  A    between atoms: O_2  and  C_3 
REMARK    2  A    between atoms: C_3  and  C_4 
REMARK    3  A    between atoms: C_4  and  N_5 
REMARK    4  A    between atoms: C_8  and  C_13 
REMARK       I    between atoms: C_13  and  N_15 
REMARK    5  A    between atoms: N_15  and  C_16 
ROOT
HETATM    1  N   UNL     1     -39.508 -49.280  12.021  1.00  0.00    -0.255 N 
HETATM    2  N   UNL     1     -40.681 -49.763  12.588  1.00  0.00    -0.290 N 
ATOM      3  HN  UNL     1     -41.565 -49.263  12.494  1.00  0.00     0.187 HD
HETATM    4  C   UNL     1     -40.597 -50.881  13.243  1.00  0.00     0.116 A 
HETATM    5  C   UNL     1     -39.356 -51.655  13.447  1.00  0.00     0.042 A 
HETATM    6  C   UNL     1     -38.248 -51.179  12.880  1.00  0.00     0.078 A 
HETATM    7  C   UNL     1     -38.276 -49.919  12.111  1.00  0.00     0.262 A 
HETATM    8  O   UNL     1     -37.232 -49.513  11.609  1.00  0.00    -0.267 OA
ENDROOT
BRANCH   4   9
HETATM    9  C   UNL     1     -41.848 -51.471  13.884  1.00  0.00     0.269 C 
HETATM   10  O   UNL     1     -41.839 -51.743  15.077  1.00  0.00    -0.266 OA
HETATM   11  N   UNL     1     -42.928 -51.627  13.041  1.00  0.00    -0.351 N 
HETATM   12  H   UNL     1     -42.762 -51.499  12.047  1.00  0.00     0.163 HD
BRANCH  11  13
HETATM   13  C   UNL     1     -44.194 -52.180  13.523  1.00  0.00     0.084 C 
HETATM   14  C   UNL     1     -44.342 -53.634  13.054  1.00  0.00     0.025 C 
HETATM   15  C   UNL     1     -45.490 -54.447  13.662  1.00  0.00     0.002 C 
HETATM   16  C   UNL     1     -45.683 -54.277  15.169  1.00  0.00     0.000 C 
HETATM   17  C   UNL     1     -46.832 -53.348  15.572  1.00  0.00     0.000 C 
HETATM   18  C   UNL     1     -46.695 -51.860  15.236  1.00  0.00     0.000 C 
HETATM   19  C   UNL     1     -46.716 -51.533  13.741  1.00  0.00     0.002 C 
HETATM   20  C   UNL     1     -45.348 -51.260  13.107  1.00  0.00     0.025 C 
ENDBRANCH  11  13
ENDBRANCH   4   9
BRANCH   1  21
HETATM   21  C   UNL     1     -39.587 -47.982  11.355  1.00  0.00     0.178 C 
BRANCH  21  22
HETATM   22  C   UNL     1     -41.016 -47.454  11.209  1.00  0.00     0.189 C 
BRANCH  22  23
HETATM   23  O   UNL     1     -41.748 -48.321  10.334  1.00  0.00    -0.394 OA
HETATM   24  C   UNL     1     -42.731 -47.605   9.598  1.00  0.00     0.201 C 
ENDBRANCH  22  23
ENDBRANCH  21  22
ENDBRANCH   1  21
TORSDOF 5
ENDMDL
MODEL 6
REMARK VINA RESULT:      -5.5      1.855      2.515
REMARK  5 active torsions:
REMARK  status: ('A' for Active; 'I' for Inactive)
REMARK    1  A    between atoms: O_2  and  C_3 
REMARK    2  A    between atoms: C_3  and  C_4 
REMARK    3  A    between atoms: C_4  and  N_5 
REMARK    4  A    between atoms: C_8  and  C_13 
REMARK       I    between atoms: C_13  and  N_15 
REMARK    5  A    between atoms: N_15  and  C_16 
ROOT
HETATM    1  N   UNL     1     -42.364 -46.461  10.006  1.00  0.00    -0.255 N 
HETATM    2  N   UNL     1     -42.088 -47.784  10.328  1.00  0.00    -0.290 N 
ATOM      3  HN  UNL     1     -42.564 -48.557   9.865  1.00  0.00     0.187 HD
HETATM    4  C   UNL     1     -41.193 -47.988  11.247  1.00  0.00     0.116 A 
HETATM    5  C   UNL     1     -40.475 -46.929  11.983  1.00  0.00     0.042 A 
HETATM    6  C   UNL     1     -40.747 -45.669  11.645  1.00  0.00     0.078 A 
HETATM    7  C   UNL     1     -41.744 -45.367  10.600  1.00  0.00     0.262 A 
HETATM    8  O   UNL     1     -41.968 -44.193  10.322  1.00  0.00    -0.267 OA
ENDROOT
BRANCH   4   9
HETATM    9  C   UNL     1     -40.837 -49.416  11.643  1.00  0.00     0.269 C 
HETATM   10  O   UNL     1     -40.145 -50.092  10.894  1.00  0.00    -0.266 OA
HETATM   11  N   UNL     1     -41.318 -49.829  12.868  1.00  0.00    -0.351 N 
HETATM   12  H   UNL     1     -41.996 -49.226  13.326  1.00  0.00     0.163 HD
BRANCH  11  13
HETATM   13  C   UNL     1     -41.051 -51.175  13.376  1.00  0.00     0.084 C 
HETATM   14  C   UNL     1     -42.327 -52.024  13.301  1.00  0.00     0.025 C 
HETATM   15  C   UNL     1     -42.178 -53.526  13.565  1.00  0.00     0.002 C 
HETATM   16  C   UNL     1     -40.971 -54.189  12.899  1.00  0.00     0.000 C 
HETATM   17  C   UNL     1     -39.781 -54.447  13.828  1.00  0.00     0.000 C 
HETATM   18  C   UNL     1     -39.037 -53.229  14.383  1.00  0.00     0.000 C 
HETATM   19  C   UNL     1     -39.844 -52.371  15.360  1.00  0.00     0.002 C 
HETATM   20  C   UNL     1     -40.432 -51.082  14.775  1.00  0.00     0.025 C 
ENDBRANCH  11  13
ENDBRANCH   4   9
BRANCH   1  21
HETATM   21  C   UNL     1     -43.429 -46.231   9.031  1.00  0.00     0.178 C 
BRANCH  21  22
HETATM   22  C   UNL     1     -44.269 -47.476   8.737  1.00  0.00     0.189 C 
BRANCH  22  23
HETATM   23  O   UNL     1     -45.516 -47.374   9.436  1.00  0.00    -0.394 OA
HETATM   24  C   UNL     1     -46.500 -48.228   8.868  1.00  0.00     0.201 C 
ENDBRANCH  22  23
ENDBRANCH  21  22
ENDBRANCH   1  21
TORSDOF 5
ENDMDL
MODEL 7
REMARK VINA RESULT:      -5.4      2.663      7.491
REMARK  5 active torsions:
REMARK  status: ('A' for Active; 'I' for Inactive)
REMARK    1  A    between atoms: O_2  and  C_3 
REMARK    2  A    between atoms: C_3  and  C_4 
REMARK    3  A    between atoms: C_4  and  N_5 
REMARK    4  A    between atoms: C_8  and  C_13 
REMARK       I    between atoms: C_13  and  N_15 
REMARK    5  A    between atoms: N_15  and  C_16 
ROOT
HETATM    1  N   UNL     1     -44.522 -53.681  14.396  1.00  0.00    -0.255 N 
HETATM    2  N   UNL     1     -43.782 -52.523  14.191  1.00  0.00    -0.290 N 
ATOM      3  HN  UNL     1     -42.763 -52.540  14.154  1.00  0.00     0.187 HD
HETATM    4  C   UNL     1     -44.450 -51.419  14.049  1.00  0.00     0.116 A 
HETATM    5  C   UNL     1     -45.921 -51.301  14.113  1.00  0.00     0.042 A 
HETATM    6  C   UNL     1     -46.608 -52.428  14.295  1.00  0.00     0.078 A 
HETATM    7  C   UNL     1     -45.912 -53.720  14.452  1.00  0.00     0.262 A 
HETATM    8  O   UNL     1     -46.583 -54.733  14.622  1.00  0.00    -0.267 OA
ENDROOT
BRANCH   4   9
HETATM    9  C   UNL     1     -43.700 -50.113  13.813  1.00  0.00     0.269 C 
HETATM   10  O   UNL     1     -43.500 -49.357  14.754  1.00  0.00    -0.266 OA
HETATM   11  N   UNL     1     -43.271 -49.901  12.520  1.00  0.00    -0.351 N 
HETATM   12  H   UNL     1     -43.623 -50.533  11.806  1.00  0.00     0.163 HD
BRANCH  11  13
HETATM   13  C   UNL     1     -42.536 -48.690  12.151  1.00  0.00     0.084 C 
HETATM   14  C   UNL     1     -43.352 -47.872  11.141  1.00  0.00     0.025 C 
HETATM   15  C   UNL     1     -42.850 -46.459  10.824  1.00  0.00     0.002 C 
HETATM   16  C   UNL     1     -42.394 -45.643  12.035  1.00  0.00     0.000 C 
HETATM   17  C   UNL     1     -40.877 -45.566  12.227  1.00  0.00     0.000 C 
HETATM   18  C   UNL     1     -40.141 -46.859  12.591  1.00  0.00     0.000 C 
HETATM   19  C   UNL     1     -40.127 -47.924  11.492  1.00  0.00     0.002 C 
HETATM   20  C   UNL     1     -41.130 -49.069  11.672  1.00  0.00     0.025 C 
ENDBRANCH  11  13
ENDBRANCH   4   9
BRANCH   1  21
HETATM   21  C   UNL     1     -43.768 -54.909  14.638  1.00  0.00     0.178 C 
BRANCH  21  22
HETATM   22  C   UNL     1     -42.258 -54.687  14.757  1.00  0.00     0.189 C 
BRANCH  22  23
HETATM   23  O   UNL     1     -41.713 -54.472  13.450  1.00  0.00    -0.394 OA
HETATM   24  C   UNL     1     -40.388 -53.959  13.519  1.00  0.00     0.201 C 
ENDBRANCH  22  23
ENDBRANCH  21  22
ENDBRANCH   1  21
TORSDOF 5
ENDMDL
MODEL 8
REMARK VINA RESULT:      -5.4      2.062      3.877
REMARK  5 active torsions:
REMARK  status: ('A' for Active; 'I' for Inactive)
REMARK    1  A    between atoms: O_2  and  C_3 
REMARK    2  A    between atoms: C_3  and  C_4 
REMARK    3  A    between atoms: C_4  and  N_5 
REMARK    4  A    between atoms: C_8  and  C_13 
REMARK       I    between atoms: C_13  and  N_15 
REMARK    5  A    between atoms: N_15  and  C_16 
ROOT
HETATM    1  N   UNL     1     -42.583 -45.483  10.796  1.00  0.00    -0.255 N 
HETATM    2  N   UNL     1     -41.984 -46.582  11.398  1.00  0.00    -0.290 N 
ATOM      3  HN  UNL     1     -41.475 -46.498  12.278  1.00  0.00     0.187 HD
HETATM    4  C   UNL     1     -42.104 -47.722  10.787  1.00  0.00     0.116 A 
HETATM    5  C   UNL     1     -42.801 -47.927   9.502  1.00  0.00     0.042 A 
HETATM    6  C   UNL     1     -43.380 -46.860   8.952  1.00  0.00     0.078 A 
HETATM    7  C   UNL     1     -43.293 -45.537   9.601  1.00  0.00     0.262 A 
HETATM    8  O   UNL     1     -43.837 -44.580   9.059  1.00  0.00    -0.267 OA
ENDROOT
BRANCH   4   9
HETATM    9  C   UNL     1     -41.477 -48.970  11.397  1.00  0.00     0.269 C 
HETATM   10  O   UNL     1     -40.292 -49.203  11.200  1.00  0.00    -0.266 OA
HETATM   11  N   UNL     1     -42.321 -49.741  12.168  1.00  0.00    -0.351 N 
HETATM   12  H   UNL     1     -43.311 -49.516  12.136  1.00  0.00     0.163 HD
BRANCH  11  13
HETATM   13  C   UNL     1     -41.852 -50.966  12.817  1.00  0.00     0.084 C 
HETATM   14  C   UNL     1     -42.913 -52.067  12.682  1.00  0.00     0.025 C 
HETATM   15  C   UNL     1     -42.498 -53.485  13.090  1.00  0.00     0.002 C 
HETATM   16  C   UNL     1     -41.112 -53.921  12.615  1.00  0.00     0.000 C 
HETATM   17  C   UNL     1     -40.016 -53.865  13.683  1.00  0.00     0.000 C 
HETATM   18  C   UNL     1     -39.604 -52.485  14.205  1.00  0.00     0.000 C 
HETATM   19  C   UNL     1     -40.679 -51.755  15.014  1.00  0.00     0.002 C 
HETATM   20  C   UNL     1     -41.439 -50.658  14.260  1.00  0.00     0.025 C 
ENDBRANCH  11  13
ENDBRANCH   4   9
BRANCH   1  21
HETATM   21  C   UNL     1     -42.378 -44.188  11.442  1.00  0.00     0.178 C 
BRANCH  21  22
HETATM   22  C   UNL     1     -41.318 -44.214  12.545  1.00  0.00     0.189 C 
BRANCH  22  23
HETATM   23  O   UNL     1     -40.021 -44.310  11.946  1.00  0.00    -0.394 OA
HETATM   24  C   UNL     1     -38.997 -44.373  12.931  1.00  0.00     0.201 C 
ENDBRANCH  22  23
ENDBRANCH  21  22
ENDBRANCH   1  21
TORSDOF 5
ENDMDL
MODEL 9
REMARK VINA RESULT:      -5.4      2.670      7.467
REMARK  5 active torsions:
REMARK  status: ('A' for Active; 'I' for Inactive)
REMARK    1  A    between atoms: O_2  and  C_3 
REMARK    2  A    between atoms: C_3  and  C_4 
REMARK    3  A    between atoms: C_4  and  N_5 
REMARK    4  A    between atoms: C_8  and  C_13 
REMARK       I    between atoms: C_13  and  N_15 
REMARK    5  A    between atoms: N_15  and  C_16 
ROOT
HETATM    1  N   UNL     1     -45.597 -52.826  13.842  1.00  0.00    -0.255 N 
HETATM    2  N   UNL     1     -45.056 -51.548  13.775  1.00  0.00    -0.290 N 
ATOM      3  HN  UNL     1     -45.528 -50.746  14.192  1.00  0.00     0.187 HD
HETATM    4  C   UNL     1     -43.920 -51.425  13.158  1.00  0.00     0.116 A 
HETATM    5  C   UNL     1     -43.184 -52.527  12.507  1.00  0.00     0.042 A 
HETATM    6  C   UNL     1     -43.716 -53.745  12.598  1.00  0.00     0.078 A 
HETATM    7  C   UNL     1     -44.998 -53.957  13.298  1.00  0.00     0.262 A 
HETATM    8  O   UNL     1     -45.456 -55.094  13.355  1.00  0.00    -0.267 OA
ENDROOT
BRANCH   4   9
HETATM    9  C   UNL     1     -43.267 -50.052  13.054  1.00  0.00     0.269 C 
HETATM   10  O   UNL     1     -43.197 -49.344  14.049  1.00  0.00    -0.266 OA
HETATM   11  N   UNL     1     -42.769 -49.725  11.810  1.00  0.00    -0.351 N 
HETATM   12  H   UNL     1     -43.017 -50.336  11.037  1.00  0.00     0.163 HD
BRANCH  11  13
HETATM   13  C   UNL     1     -42.114 -48.439  11.567  1.00  0.00     0.084 C 
HETATM   14  C   UNL     1     -42.677 -47.799  10.291  1.00  0.00     0.025 C 
HETATM   15  C   UNL     1     -42.283 -46.345  10.011  1.00  0.00     0.002 C 
HETATM   16  C   UNL     1     -42.326 -45.413  11.222  1.00  0.00     0.000 C 
HETATM   17  C   UNL     1     -40.963 -45.105  11.848  1.00  0.00     0.000 C 
HETATM   18  C   UNL     1     -40.217 -46.256  12.529  1.00  0.00     0.000 C 
HETATM   19  C   UNL     1     -39.735 -47.360  11.585  1.00  0.00     0.002 C 
HETATM   20  C   UNL     1     -40.593 -48.629  11.563  1.00  0.00     0.025 C 
ENDBRANCH  11  13
ENDBRANCH   4   9
BRANCH   1  21
HETATM   21  C   UNL     1     -46.913 -52.950  14.465  1.00  0.00     0.178 C 
BRANCH  21  22
HETATM   22  C   UNL     1     -46.934 -52.539  15.939  1.00  0.00     0.189 C 
BRANCH  22  23
HETATM   23  O   UNL     1     -45.633 -52.745  16.501  1.00  0.00    -0.394 OA
HETATM   24  C   UNL     1     -45.670 -53.688  17.565  1.00  0.00     0.201 C 
ENDBRANCH  22  23
ENDBRANCH  21  22
ENDBRANCH   1  21
TORSDOF 5
ENDMDL
