MODEL 1
REMARK VINA RESULT:      -6.2      0.000      0.000
REMARK  5 active torsions:
REMARK  status: ('A' for Active; 'I' for Inactive)
REMARK    1  A    between atoms: C_4  and  C_5 
REMARK       I    between atoms: C_5  and  N_7 
REMARK    2  A    between atoms: N_7  and  C_8 
REMARK    3  A    between atoms: C_8  and  C_9 
REMARK    4  A    between atoms: C_9  and  C_10 
REMARK    5  A    between atoms: C_13  and  N_14 
ROOT
HETATM    1  C   UNL     1     -40.827 -50.933  11.823  1.00  0.00     0.130 C 
ENDROOT
BRANCH   1   2
HETATM    2  N   UNL     1     -42.156 -51.522  11.892  1.00  0.00    -0.360 N 
HETATM    3  C   UNL     1     -42.381 -52.698  12.572  1.00  0.00     0.223 C 
HETATM    4  O   UNL     1     -41.482 -53.303  13.139  1.00  0.00    -0.273 OA
HETATM    5  H   UNL     1     -42.911 -51.092  11.374  1.00  0.00     0.162 HD
BRANCH   3   6
HETATM    6  C   UNL     1     -43.805 -53.168  12.559  1.00  0.00     0.095 A 
HETATM    7  C   UNL     1     -44.959 -52.345  13.145  1.00  0.00    -0.027 A 
HETATM    8  C   UNL     1     -46.284 -52.318  12.406  1.00  0.00     0.016 C 
HETATM    9  C   UNL     1     -44.686 -51.029  13.842  1.00  0.00     0.016 C 
HETATM   10  C   UNL     1     -44.532 -53.668  13.807  1.00  0.00    -0.027 A 
HETATM   11  C   UNL     1     -43.864 -53.654  15.167  1.00  0.00     0.016 C 
HETATM   12  C   UNL     1     -45.408 -54.898  13.651  1.00  0.00     0.016 C 
ENDBRANCH   3   6
ENDBRANCH   1   2
BRANCH   1  13
HETATM   13  C   UNL     1     -40.809 -49.417  12.016  1.00  0.00     0.107 C 
BRANCH  13  14
HETATM   14  C   UNL     1     -41.783 -48.750  11.122  1.00  0.00     0.164 A 
HETATM   15  N   UNL     1     -41.619 -48.275   9.907  1.00  0.00    -0.171 N 
HETATM   16  C   UNL     1     -42.855 -47.778   9.627  1.00  0.00     0.697 A 
ATOM     17  HN  UNL     1     -40.781 -48.278   9.325  1.00  0.00     0.186 HD
HETATM   18  N   UNL     1     -43.747 -47.889  10.612  1.00  0.00    -0.090 N 
HETATM   19  O   UNL     1     -43.039 -48.554  11.614  1.00  0.00    -0.209 OA
ATOM     20  HN  UNL     1     -44.714 -47.566  10.629  1.00  0.00     0.213 HD
BRANCH  16  21
HETATM   21  N   UNL     1     -43.049 -47.211   8.436  1.00  0.00    -0.233 N 
HETATM   22  H   UNL     1     -43.187 -46.208   8.410  1.00  0.00     0.174 HD
HETATM   23  H   UNL     1     -43.544 -47.736   7.731  1.00  0.00     0.174 HD
ENDBRANCH  16  21
ENDBRANCH  13  14
ENDBRANCH   1  13
TORSDOF 5
ENDMDL
MODEL 2
REMARK VINA RESULT:      -6.2      1.688      2.631
REMARK  5 active torsions:
REMARK  status: ('A' for Active; 'I' for Inactive)
REMARK    1  A    between atoms: C_4  and  C_5 
REMARK       I    between atoms: C_5  and  N_7 
REMARK    2  A    between atoms: N_7  and  C_8 
REMARK    3  A    between atoms: C_8  and  C_9 
REMARK    4  A    between atoms: C_9  and  C_10 
REMARK    5  A    between atoms: C_13  and  N_14 
ROOT
HETATM    1  C   UNL     1     -42.671 -49.041  12.207  1.00  0.00     0.130 C 
ENDROOT
BRANCH   1   2
HETATM    2  N   UNL     1     -43.574 -49.727  13.121  1.00  0.00    -0.360 N 
HETATM    3  C   UNL     1     -43.495 -51.087  13.313  1.00  0.00     0.223 C 
HETATM    4  O   UNL     1     -42.675 -51.781  12.726  1.00  0.00    -0.273 OA
HETATM    5  H   UNL     1     -44.312 -49.200  13.568  1.00  0.00     0.162 HD
BRANCH   3   6
HETATM    6  C   UNL     1     -44.485 -51.641  14.293  1.00  0.00     0.095 A 
HETATM    7  C   UNL     1     -45.043 -53.067  14.197  1.00  0.00    -0.027 A 
HETATM    8  C   UNL     1     -45.235 -53.863  15.474  1.00  0.00     0.016 C 
HETATM    9  C   UNL     1     -44.662 -53.963  13.038  1.00  0.00     0.016 C 
HETATM   10  C   UNL     1     -45.962 -51.854  13.961  1.00  0.00    -0.027 A 
HETATM   11  C   UNL     1     -46.505 -51.573  12.575  1.00  0.00     0.016 C 
HETATM   12  C   UNL     1     -46.973 -51.465  15.024  1.00  0.00     0.016 C 
ENDBRANCH   3   6
ENDBRANCH   1   2
BRANCH   1  13
HETATM   13  C   UNL     1     -43.176 -47.673  11.748  1.00  0.00     0.107 C 
BRANCH  13  14
HETATM   14  C   UNL     1     -43.442 -47.658  10.292  1.00  0.00     0.164 A 
HETATM   15  N   UNL     1     -42.685 -48.065   9.297  1.00  0.00    -0.171 N 
HETATM   16  C   UNL     1     -43.462 -47.780   8.215  1.00  0.00     0.697 A 
ATOM     17  HN  UNL     1     -41.756 -48.485   9.327  1.00  0.00     0.186 HD
HETATM   18  N   UNL     1     -44.625 -47.191   8.492  1.00  0.00    -0.090 N 
HETATM   19  O   UNL     1     -44.626 -47.119   9.886  1.00  0.00    -0.209 OA
ATOM     20  HN  UNL     1     -45.343 -46.870   7.842  1.00  0.00     0.213 HD
BRANCH  16  21
HETATM   21  N   UNL     1     -42.987 -48.078   7.005  1.00  0.00    -0.233 N 
HETATM   22  H   UNL     1     -43.656 -48.212   6.257  1.00  0.00     0.174 HD
HETATM   23  H   UNL     1     -42.150 -48.639   6.945  1.00  0.00     0.174 HD
ENDBRANCH  16  21
ENDBRANCH  13  14
ENDBRANCH   1  13
TORSDOF 5
ENDMDL
MODEL 3
REMARK VINA RESULT:      -6.1      1.303      1.935
REMARK  5 active torsions:
REMARK  status: ('A' for Active; 'I' for Inactive)
REMARK    1  A    between atoms: C_4  and  C_5 
REMARK       I    between atoms: C_5  and  N_7 
REMARK    2  A    between atoms: N_7  and  C_8 
REMARK    3  A    between atoms: C_8  and  C_9 
REMARK    4  A    between atoms: C_9  and  C_10 
REMARK    5  A    between atoms: C_13  and  N_14 
ROOT
HETATM    1  C   UNL     1     -41.314 -50.417  12.062  1.00  0.00     0.130 C 
ENDROOT
BRANCH   1   2
HETATM    2  N   UNL     1     -42.744 -50.641  12.210  1.00  0.00    -0.360 N 
HETATM    3  C   UNL     1     -43.338 -50.661  13.452  1.00  0.00     0.223 C 
HETATM    4  O   UNL     1     -42.697 -50.502  14.482  1.00  0.00    -0.273 OA
HETATM    5  H   UNL     1     -43.296 -50.850  11.388  1.00  0.00     0.162 HD
BRANCH   3   6
HETATM    6  C   UNL     1     -44.819 -50.891  13.436  1.00  0.00     0.095 A 
HETATM    7  C   UNL     1     -45.528 -51.821  14.429  1.00  0.00    -0.027 A 
HETATM    8  C   UNL     1     -46.871 -51.397  14.994  1.00  0.00     0.016 C 
HETATM    9  C   UNL     1     -44.730 -52.618  15.438  1.00  0.00     0.016 C 
HETATM   10  C   UNL     1     -45.460 -52.186  12.934  1.00  0.00    -0.027 A 
HETATM   11  C   UNL     1     -44.615 -53.357  12.478  1.00  0.00     0.016 C 
HETATM   12  C   UNL     1     -46.705 -52.053  12.076  1.00  0.00     0.016 C 
ENDBRANCH   3   6
ENDBRANCH   1   2
BRANCH   1  13
HETATM   13  C   UNL     1     -40.939 -48.961  11.785  1.00  0.00     0.107 C 
BRANCH  13  14
HETATM   14  C   UNL     1     -41.912 -48.319  10.873  1.00  0.00     0.164 A 
HETATM   15  N   UNL     1     -41.891 -48.216   9.562  1.00  0.00    -0.171 N 
HETATM   16  C   UNL     1     -43.033 -47.516   9.315  1.00  0.00     0.697 A 
ATOM     17  HN  UNL     1     -41.199 -48.570   8.901  1.00  0.00     0.186 HD
HETATM   18  N   UNL     1     -43.723 -47.156  10.398  1.00  0.00    -0.090 N 
HETATM   19  O   UNL     1     -42.984 -47.704  11.447  1.00  0.00    -0.209 OA
ATOM     20  HN  UNL     1     -44.583 -46.611  10.448  1.00  0.00     0.213 HD
BRANCH  16  21
HETATM   21  N   UNL     1     -43.334 -47.233   8.047  1.00  0.00    -0.233 N 
HETATM   22  H   UNL     1     -44.115 -47.724   7.629  1.00  0.00     0.174 HD
HETATM   23  H   UNL     1     -42.581 -46.999   7.418  1.00  0.00     0.174 HD
ENDBRANCH  16  21
ENDBRANCH  13  14
ENDBRANCH   1  13
TORSDOF 5
ENDMDL
MODEL 4
REMARK VINA RESULT:      -5.9      2.255      3.673
REMARK  5 active torsions:
REMARK  status: ('A' for Active; 'I' for Inactive)
REMARK    1  A    between atoms: C_4  and  C_5 
REMARK       I    between atoms: C_5  and  N_7 
REMARK    2  A    between atoms: N_7  and  C_8 
REMARK    3  A    between atoms: C_8  and  C_9 
REMARK    4  A    between atoms: C_9  and  C_10 
REMARK    5  A    between atoms: C_13  and  N_14 
ROOT
HETATM    1  C   UNL     1     -42.157 -54.173  13.196  1.00  0.00     0.130 C 
ENDROOT
BRANCH   1   2
HETATM    2  N   UNL     1     -42.925 -53.290  14.062  1.00  0.00    -0.360 N 
HETATM    3  C   UNL     1     -44.291 -53.417  14.179  1.00  0.00     0.223 C 
HETATM    4  O   UNL     1     -44.920 -54.266  13.562  1.00  0.00    -0.273 OA
HETATM    5  H   UNL     1     -42.452 -52.529  14.531  1.00  0.00     0.162 HD
BRANCH   3   6
HETATM    6  C   UNL     1     -44.934 -52.441  15.117  1.00  0.00     0.095 A 
HETATM    7  C   UNL     1     -46.106 -51.540  14.706  1.00  0.00    -0.027 A 
HETATM    8  C   UNL     1     -47.229 -51.306  15.700  1.00  0.00     0.016 C 
HETATM    9  C   UNL     1     -46.620 -51.551  13.283  1.00  0.00     0.016 C 
HETATM   10  C   UNL     1     -44.729 -50.928  15.022  1.00  0.00    -0.027 A 
HETATM   11  C   UNL     1     -43.900 -50.315  13.913  1.00  0.00     0.016 C 
HETATM   12  C   UNL     1     -44.527 -50.175  16.324  1.00  0.00     0.016 C 
ENDBRANCH   3   6
ENDBRANCH   1   2
BRANCH   1  13
HETATM   13  C   UNL     1     -40.728 -53.697  12.935  1.00  0.00     0.107 C 
BRANCH  13  14
HETATM   14  C   UNL     1     -40.701 -52.275  12.523  1.00  0.00     0.164 A 
HETATM   15  N   UNL     1     -40.841 -51.745  11.328  1.00  0.00    -0.171 N 
HETATM   16  C   UNL     1     -40.707 -50.416  11.591  1.00  0.00     0.697 A 
ATOM     17  HN  UNL     1     -41.006 -52.210  10.435  1.00  0.00     0.186 HD
HETATM   18  N   UNL     1     -40.457 -50.112  12.865  1.00  0.00    -0.090 N 
HETATM   19  O   UNL     1     -40.467 -51.353  13.500  1.00  0.00    -0.209 OA
ATOM     20  HN  UNL     1     -40.297 -49.192  13.276  1.00  0.00     0.213 HD
BRANCH  16  21
HETATM   21  N   UNL     1     -40.803 -49.562  10.570  1.00  0.00    -0.233 N 
HETATM   22  H   UNL     1     -40.744 -49.942   9.633  1.00  0.00     0.174 HD
HETATM   23  H   UNL     1     -40.427 -48.633  10.687  1.00  0.00     0.174 HD
ENDBRANCH  16  21
ENDBRANCH  13  14
ENDBRANCH   1  13
TORSDOF 5
ENDMDL
MODEL 5
REMARK VINA RESULT:      -5.9      2.076      3.457
REMARK  5 active torsions:
REMARK  status: ('A' for Active; 'I' for Inactive)
REMARK    1  A    between atoms: C_4  and  C_5 
REMARK       I    between atoms: C_5  and  N_7 
REMARK    2  A    between atoms: N_7  and  C_8 
REMARK    3  A    between atoms: C_8  and  C_9 
REMARK    4  A    between atoms: C_9  and  C_10 
REMARK    5  A    between atoms: C_13  and  N_14 
ROOT
HETATM    1  C   UNL     1     -40.924 -53.490  13.396  1.00  0.00     0.130 C 
ENDROOT
BRANCH   1   2
HETATM    2  N   UNL     1     -42.154 -53.298  14.150  1.00  0.00    -0.360 N 
HETATM    3  C   UNL     1     -43.279 -52.769  13.559  1.00  0.00     0.223 C 
HETATM    4  O   UNL     1     -43.297 -52.430  12.383  1.00  0.00    -0.273 OA
HETATM    5  H   UNL     1     -42.157 -53.497  15.142  1.00  0.00     0.162 HD
BRANCH   3   6
HETATM    6  C   UNL     1     -44.466 -52.646  14.465  1.00  0.00     0.095 A 
HETATM    7  C   UNL     1     -45.511 -53.757  14.625  1.00  0.00    -0.027 A 
HETATM    8  C   UNL     1     -46.071 -54.039  16.007  1.00  0.00     0.016 C 
HETATM    9  C   UNL     1     -45.420 -55.020  13.797  1.00  0.00     0.016 C 
HETATM   10  C   UNL     1     -45.890 -52.424  13.955  1.00  0.00    -0.027 A 
HETATM   11  C   UNL     1     -46.197 -52.382  12.472  1.00  0.00     0.016 C 
HETATM   12  C   UNL     1     -46.748 -51.425  14.710  1.00  0.00     0.016 C 
ENDBRANCH   3   6
ENDBRANCH   1   2
BRANCH   1  13
HETATM   13  C   UNL     1     -39.858 -52.429  13.667  1.00  0.00     0.107 C 
BRANCH  13  14
HETATM   14  C   UNL     1     -39.850 -51.392  12.611  1.00  0.00     0.164 A 
HETATM   15  N   UNL     1     -40.854 -50.745  12.062  1.00  0.00    -0.171 N 
HETATM   16  C   UNL     1     -40.218 -49.948  11.159  1.00  0.00     0.697 A 
ATOM     17  HN  UNL     1     -41.852 -50.821  12.261  1.00  0.00     0.186 HD
HETATM   18  N   UNL     1     -38.895 -50.101  11.101  1.00  0.00    -0.090 N 
HETATM   19  O   UNL     1     -38.638 -51.058  12.083  1.00  0.00    -0.209 OA
ATOM     20  HN  UNL     1     -38.230 -49.631  10.487  1.00  0.00     0.213 HD
BRANCH  16  21
HETATM   21  N   UNL     1     -40.961 -49.132  10.410  1.00  0.00    -0.233 N 
HETATM   22  H   UNL     1     -40.501 -48.336   9.985  1.00  0.00     0.174 HD
HETATM   23  H   UNL     1     -41.925 -48.988  10.671  1.00  0.00     0.174 HD
ENDBRANCH  16  21
ENDBRANCH  13  14
ENDBRANCH   1  13
TORSDOF 5
ENDMDL
MODEL 6
REMARK VINA RESULT:      -5.9      2.540      3.747
REMARK  5 active torsions:
REMARK  status: ('A' for Active; 'I' for Inactive)
REMARK    1  A    between atoms: C_4  and  C_5 
REMARK       I    between atoms: C_5  and  N_7 
REMARK    2  A    between atoms: N_7  and  C_8 
REMARK    3  A    between atoms: C_8  and  C_9 
REMARK    4  A    between atoms: C_9  and  C_10 
REMARK    5  A    between atoms: C_13  and  N_14 
ROOT
HETATM    1  C   UNL     1     -41.818 -54.338  14.219  1.00  0.00     0.130 C 
ENDROOT
BRANCH   1   2
HETATM    2  N   UNL     1     -43.160 -53.782  14.122  1.00  0.00    -0.360 N 
HETATM    3  C   UNL     1     -43.714 -53.071  15.162  1.00  0.00     0.223 C 
HETATM    4  O   UNL     1     -43.115 -52.881  16.212  1.00  0.00    -0.273 OA
HETATM    5  H   UNL     1     -43.715 -53.981  13.300  1.00  0.00     0.162 HD
BRANCH   3   6
HETATM    6  C   UNL     1     -45.098 -52.555  14.904  1.00  0.00     0.095 A 
HETATM    7  C   UNL     1     -45.386 -51.387  13.952  1.00  0.00    -0.027 A 
HETATM    8  C   UNL     1     -46.607 -51.462  13.054  1.00  0.00     0.016 C 
HETATM    9  C   UNL     1     -44.250 -50.646  13.281  1.00  0.00     0.016 C 
HETATM   10  C   UNL     1     -45.616 -51.231  15.467  1.00  0.00    -0.027 A 
HETATM   11  C   UNL     1     -44.722 -50.317  16.279  1.00  0.00     0.016 C 
HETATM   12  C   UNL     1     -47.034 -51.219  16.009  1.00  0.00     0.016 C 
ENDBRANCH   3   6
ENDBRANCH   1   2
BRANCH   1  13
HETATM   13  C   UNL     1     -41.010 -54.239  12.926  1.00  0.00     0.107 C 
BRANCH  13  14
HETATM   14  C   UNL     1     -40.823 -52.829  12.515  1.00  0.00     0.164 A 
HETATM   15  N   UNL     1     -40.966 -52.274  11.331  1.00  0.00    -0.171 N 
HETATM   16  C   UNL     1     -40.643 -50.976  11.587  1.00  0.00     0.697 A 
ATOM     17  HN  UNL     1     -41.245 -52.704  10.450  1.00  0.00     0.186 HD
HETATM   18  N   UNL     1     -40.277 -50.719  12.844  1.00  0.00    -0.090 N 
HETATM   19  O   UNL     1     -40.410 -51.955  13.477  1.00  0.00    -0.209 OA
ATOM     20  HN  UNL     1     -39.974 -49.832  13.246  1.00  0.00     0.213 HD
BRANCH  16  21
HETATM   21  N   UNL     1     -40.689 -50.107  10.576  1.00  0.00    -0.233 N 
HETATM   22  H   UNL     1     -39.855 -49.566  10.383  1.00  0.00     0.174 HD
HETATM   23  H   UNL     1     -41.564 -49.641  10.386  1.00  0.00     0.174 HD
ENDBRANCH  16  21
ENDBRANCH  13  14
ENDBRANCH   1  13
TORSDOF 5
ENDMDL
MODEL 7
REMARK VINA RESULT:      -5.3      3.995      5.280
REMARK  5 active torsions:
REMARK  status: ('A' for Active; 'I' for Inactive)
REMARK    1  A    between atoms: C_4  and  C_5 
REMARK       I    between atoms: C_5  and  N_7 
REMARK    2  A    between atoms: N_7  and  C_8 
REMARK    3  A    between atoms: C_8  and  C_9 
REMARK    4  A    between atoms: C_9  and  C_10 
REMARK    5  A    between atoms: C_13  and  N_14 
ROOT
HETATM    1  C   UNL     1     -42.221 -46.160  12.377  1.00  0.00     0.130 C 
ENDROOT
BRANCH   1   2
HETATM    2  N   UNL     1     -41.565 -47.440  12.150  1.00  0.00    -0.360 N 
HETATM    3  C   UNL     1     -40.195 -47.557  12.195  1.00  0.00     0.223 C 
HETATM    4  O   UNL     1     -39.467 -46.599  12.417  1.00  0.00    -0.273 OA
HETATM    5  H   UNL     1     -42.128 -48.240  11.891  1.00  0.00     0.162 HD
BRANCH   3   6
HETATM    6  C   UNL     1     -39.675 -48.942  11.952  1.00  0.00     0.095 A 
HETATM    7  C   UNL     1     -39.815 -50.075  12.976  1.00  0.00    -0.027 A 
HETATM    8  C   UNL     1     -40.143 -51.471  12.479  1.00  0.00     0.016 C 
HETATM    9  C   UNL     1     -40.432 -49.812  14.332  1.00  0.00     0.016 C 
HETATM   10  C   UNL     1     -38.427 -49.500  12.638  1.00  0.00    -0.027 A 
HETATM   11  C   UNL     1     -37.669 -48.692  13.671  1.00  0.00     0.016 C 
HETATM   12  C   UNL     1     -37.471 -50.310  11.781  1.00  0.00     0.016 C 
ENDBRANCH   3   6
ENDBRANCH   1   2
BRANCH   1  13
HETATM   13  C   UNL     1     -42.616 -45.430  11.093  1.00  0.00     0.107 C 
BRANCH  13  14
HETATM   14  C   UNL     1     -43.044 -46.381  10.043  1.00  0.00     0.164 A 
HETATM   15  N   UNL     1     -42.543 -46.591   8.846  1.00  0.00    -0.171 N 
HETATM   16  C   UNL     1     -43.367 -47.560   8.360  1.00  0.00     0.697 A 
ATOM     17  HN  UNL     1     -41.744 -46.143   8.397  1.00  0.00     0.186 HD
HETATM   18  N   UNL     1     -44.359 -47.923   9.175  1.00  0.00    -0.090 N 
HETATM   19  O   UNL     1     -44.141 -47.146  10.313  1.00  0.00    -0.209 OA
ATOM     20  HN  UNL     1     -45.099 -48.603   9.006  1.00  0.00     0.213 HD
BRANCH  16  21
HETATM   21  N   UNL     1     -43.133 -48.025   7.132  1.00  0.00    -0.233 N 
HETATM   22  H   UNL     1     -43.838 -47.859   6.424  1.00  0.00     0.174 HD
HETATM   23  H   UNL     1     -42.617 -48.887   7.037  1.00  0.00     0.174 HD
ENDBRANCH  16  21
ENDBRANCH  13  14
ENDBRANCH   1  13
TORSDOF 5
ENDMDL
MODEL 8
REMARK VINA RESULT:      -5.3      2.660      3.728
REMARK  5 active torsions:
REMARK  status: ('A' for Active; 'I' for Inactive)
REMARK    1  A    between atoms: C_4  and  C_5 
REMARK       I    between atoms: C_5  and  N_7 
REMARK    2  A    between atoms: N_7  and  C_8 
REMARK    3  A    between atoms: C_8  and  C_9 
REMARK    4  A    between atoms: C_9  and  C_10 
REMARK    5  A    between atoms: C_13  and  N_14 
ROOT
HETATM    1  C   UNL     1     -40.715 -53.568  15.556  1.00  0.00     0.130 C 
ENDROOT
BRANCH   1   2
HETATM    2  N   UNL     1     -42.071 -53.643  15.031  1.00  0.00    -0.360 N 
HETATM    3  C   UNL     1     -42.874 -52.527  14.968  1.00  0.00     0.223 C 
HETATM    4  O   UNL     1     -42.493 -51.430  15.352  1.00  0.00    -0.273 OA
HETATM    5  H   UNL     1     -42.448 -54.546  14.773  1.00  0.00     0.162 HD
BRANCH   3   6
HETATM    6  C   UNL     1     -44.238 -52.767  14.393  1.00  0.00     0.095 A 
HETATM    7  C   UNL     1     -45.470 -51.954  14.808  1.00  0.00    -0.027 A 
HETATM    8  C   UNL     1     -46.472 -51.552  13.742  1.00  0.00     0.016 C 
HETATM    9  C   UNL     1     -45.368 -50.906  15.895  1.00  0.00     0.016 C 
HETATM   10  C   UNL     1     -45.366 -53.448  15.169  1.00  0.00    -0.027 A 
HETATM   11  C   UNL     1     -45.185 -53.868  16.613  1.00  0.00     0.016 C 
HETATM   12  C   UNL     1     -46.210 -54.459  14.415  1.00  0.00     0.016 C 
ENDBRANCH   3   6
ENDBRANCH   1   2
BRANCH   1  13
HETATM   13  C   UNL     1     -39.634 -53.516  14.476  1.00  0.00     0.107 C 
BRANCH  13  14
HETATM   14  C   UNL     1     -40.120 -52.822  13.262  1.00  0.00     0.164 A 
HETATM   15  N   UNL     1     -40.094 -51.542  12.960  1.00  0.00    -0.171 N 
HETATM   16  C   UNL     1     -40.692 -51.528  11.736  1.00  0.00     0.697 A 
ATOM     17  HN  UNL     1     -39.722 -50.762  13.502  1.00  0.00     0.186 HD
HETATM   18  N   UNL     1     -41.112 -52.715  11.296  1.00  0.00    -0.090 N 
HETATM   19  O   UNL     1     -40.718 -53.591  12.308  1.00  0.00    -0.209 OA
ATOM     20  HN  UNL     1     -41.603 -52.931  10.429  1.00  0.00     0.213 HD
BRANCH  16  21
HETATM   21  N   UNL     1     -40.828 -50.354  11.119  1.00  0.00    -0.233 N 
HETATM   22  H   UNL     1     -41.455 -49.675  11.533  1.00  0.00     0.174 HD
HETATM   23  H   UNL     1     -40.771 -50.334  10.112  1.00  0.00     0.174 HD
ENDBRANCH  16  21
ENDBRANCH  13  14
ENDBRANCH   1  13
TORSDOF 5
ENDMDL
MODEL 9
REMARK VINA RESULT:      -5.2      5.177      8.641
REMARK  5 active torsions:
REMARK  status: ('A' for Active; 'I' for Inactive)
REMARK    1  A    between atoms: C_4  and  C_5 
REMARK       I    between atoms: C_5  and  N_7 
REMARK    2  A    between atoms: N_7  and  C_8 
REMARK    3  A    between atoms: C_8  and  C_9 
REMARK    4  A    between atoms: C_9  and  C_10 
REMARK    5  A    between atoms: C_13  and  N_14 
ROOT
HETATM    1  C   UNL     1     -42.118 -45.978  11.814  1.00  0.00     0.130 C 
ENDROOT
BRANCH   1   2
HETATM    2  N   UNL     1     -42.653 -44.627  11.722  1.00  0.00    -0.360 N 
HETATM    3  C   UNL     1     -41.920 -43.606  11.161  1.00  0.00     0.223 C 
HETATM    4  O   UNL     1     -40.790 -43.781  10.723  1.00  0.00    -0.273 OA
HETATM    5  H   UNL     1     -43.552 -44.426  12.140  1.00  0.00     0.162 HD
BRANCH   3   6
HETATM    6  C   UNL     1     -42.613 -42.278  11.130  1.00  0.00     0.095 A 
HETATM    7  C   UNL     1     -41.939 -40.976  11.579  1.00  0.00    -0.027 A 
HETATM    8  C   UNL     1     -42.193 -39.710  10.782  1.00  0.00     0.016 C 
HETATM    9  C   UNL     1     -40.539 -40.996  12.155  1.00  0.00     0.016 C 
HETATM   10  C   UNL     1     -43.111 -41.564  12.387  1.00  0.00    -0.027 A 
HETATM   11  C   UNL     1     -42.867 -42.139  13.767  1.00  0.00     0.016 C 
HETATM   12  C   UNL     1     -44.475 -40.903  12.313  1.00  0.00     0.016 C 
ENDBRANCH   3   6
ENDBRANCH   1   2
BRANCH   1  13
HETATM   13  C   UNL     1     -43.157 -47.074  11.581  1.00  0.00     0.107 C 
BRANCH  13  14
HETATM   14  C   UNL     1     -43.389 -47.297  10.136  1.00  0.00     0.164 A 
HETATM   15  N   UNL     1     -42.725 -48.050   9.286  1.00  0.00    -0.171 N 
HETATM   16  C   UNL     1     -43.401 -47.829   8.125  1.00  0.00     0.697 A 
ATOM     17  HN  UNL     1     -41.913 -48.645   9.454  1.00  0.00     0.186 HD
HETATM   18  N   UNL     1     -44.409 -46.960   8.212  1.00  0.00    -0.090 N 
HETATM   19  O   UNL     1     -44.417 -46.610   9.562  1.00  0.00    -0.209 OA
ATOM     20  HN  UNL     1     -45.025 -46.631   7.469  1.00  0.00     0.213 HD
BRANCH  16  21
HETATM   21  N   UNL     1     -42.984 -48.461   7.027  1.00  0.00    -0.233 N 
HETATM   22  H   UNL     1     -42.364 -47.958   6.402  1.00  0.00     0.174 HD
HETATM   23  H   UNL     1     -43.612 -49.114   6.583  1.00  0.00     0.174 HD
ENDBRANCH  16  21
ENDBRANCH  13  14
ENDBRANCH   1  13
TORSDOF 5
ENDMDL
