MODEL 1
REMARK VINA RESULT:      -6.6      0.000      0.000
REMARK  3 active torsions:
REMARK  status: ('A' for Active; 'I' for Inactive)
REMARK       I    between atoms: N_2  and  C_3 
REMARK    1  A    between atoms: C_3  and  C_5 
REMARK    2  A    between atoms: C_9  and  N_10 
REMARK       I    between atoms: N_10  and  C_11 
REMARK       I    between atoms: C_11  and  N_13 
REMARK    3  A    between atoms: N_13  and  C_14 
ROOT
HETATM    1  C   UNL     1     -43.337 -46.945   9.698  1.00  0.00     0.102 A 
HETATM    2  C   UNL     1     -42.667 -45.739   9.884  1.00  0.00     0.035 A 
HETATM    3  C   UNL     1     -41.398 -45.775  10.441  1.00  0.00     0.006 A 
HETATM    4  C   UNL     1     -40.862 -47.006  10.811  1.00  0.00     0.049 A 
HETATM    5  C   UNL     1     -41.600 -48.168  10.583  1.00  0.00     0.109 A 
HETATM    6  N   UNL     1     -42.813 -48.172   9.995  1.00  0.00    -0.338 N 
ATOM      7  HN  UNL     1     -43.309 -49.038   9.784  1.00  0.00     0.167 HD
ENDROOT
BRANCH   5   8
HETATM    8  N   UNL     1     -41.084 -49.423  10.935  1.00  0.00    -0.295 N 
HETATM    9  C   UNL     1     -41.443 -50.039  12.110  1.00  0.00     0.322 C 
HETATM   10  O   UNL     1     -42.277 -49.608  12.899  1.00  0.00    -0.247 OA
HETATM   11  N   UNL     1     -40.747 -51.207  12.329  1.00  0.00    -0.335 N 
HETATM   12  H   UNL     1     -40.219 -51.591  11.562  1.00  0.00     0.164 HD
HETATM   13  H   UNL     1     -40.928 -50.027  10.147  1.00  0.00     0.172 HD
BRANCH  11  14
HETATM   14  C   UNL     1     -41.076 -52.074  13.452  1.00  0.00     0.109 C 
HETATM   15  C   UNL     1     -40.019 -52.043  14.572  1.00  0.00     0.029 C 
HETATM   16  C   UNL     1     -39.183 -53.294  14.847  1.00  0.00     0.006 C 
HETATM   17  C   UNL     1     -39.402 -54.526  13.977  1.00  0.00     0.027 C 
HETATM   18  C   UNL     1     -40.621 -54.520  13.123  1.00  0.00    -0.029 C 
HETATM   19  C   UNL     1     -41.359 -53.431  12.888  1.00  0.00    -0.006 C 
ENDBRANCH  11  14
ENDBRANCH   5   8
BRANCH   1  20
HETATM   20  C   UNL     1     -44.748 -46.913   9.196  1.00  0.00     0.267 C 
HETATM   21  N   UNL     1     -45.417 -48.119   9.248  1.00  0.00    -0.360 N 
HETATM   22  C   UNL     1     -46.807 -48.217   8.895  1.00  0.00     0.149 C 
HETATM   23  H   UNL     1     -44.932 -48.894   9.689  1.00  0.00     0.162 HD
HETATM   24  O   UNL     1     -45.261 -45.872   8.801  1.00  0.00    -0.266 OA
ENDBRANCH   1  20
TORSDOF 3
ENDMDL
MODEL 2
REMARK VINA RESULT:      -6.6      2.214      2.677
REMARK  3 active torsions:
REMARK  status: ('A' for Active; 'I' for Inactive)
REMARK       I    between atoms: N_2  and  C_3 
REMARK    1  A    between atoms: C_3  and  C_5 
REMARK    2  A    between atoms: C_9  and  N_10 
REMARK       I    between atoms: N_10  and  C_11 
REMARK       I    between atoms: C_11  and  N_13 
REMARK    3  A    between atoms: N_13  and  C_14 
ROOT
HETATM    1  C   UNL     1     -42.602 -47.155  10.129  1.00  0.00     0.102 A 
HETATM    2  C   UNL     1     -41.477 -46.377  10.388  1.00  0.00     0.035 A 
HETATM    3  C   UNL     1     -40.455 -46.937  11.140  1.00  0.00     0.006 A 
HETATM    4  C   UNL     1     -40.609 -48.234  11.620  1.00  0.00     0.049 A 
HETATM    5  C   UNL     1     -41.767 -48.946  11.308  1.00  0.00     0.109 A 
HETATM    6  N   UNL     1     -42.754 -48.451  10.535  1.00  0.00    -0.338 N 
ATOM      7  HN  UNL     1     -43.566 -49.010  10.270  1.00  0.00     0.167 HD
ENDROOT
BRANCH   5   8
HETATM    8  N   UNL     1     -41.947 -50.257  11.768  1.00  0.00    -0.295 N 
HETATM    9  C   UNL     1     -42.754 -50.533  12.846  1.00  0.00     0.322 C 
HETATM   10  O   UNL     1     -43.433 -49.702  13.440  1.00  0.00    -0.247 OA
HETATM   11  N   UNL     1     -42.713 -51.859  13.213  1.00  0.00    -0.335 N 
HETATM   12  H   UNL     1     -42.282 -52.510  12.577  1.00  0.00     0.164 HD
HETATM   13  H   UNL     1     -41.937 -50.944  11.034  1.00  0.00     0.172 HD
BRANCH  11  14
HETATM   14  C   UNL     1     -43.597 -52.376  14.248  1.00  0.00     0.109 C 
HETATM   15  C   UNL     1     -43.057 -53.648  14.929  1.00  0.00     0.029 C 
HETATM   16  C   UNL     1     -43.788 -54.975  14.721  1.00  0.00     0.006 C 
HETATM   17  C   UNL     1     -45.014 -55.002  13.817  1.00  0.00     0.027 C 
HETATM   18  C   UNL     1     -45.586 -53.679  13.445  1.00  0.00    -0.029 C 
HETATM   19  C   UNL     1     -44.954 -52.516  13.633  1.00  0.00    -0.006 C 
ENDBRANCH  11  14
ENDBRANCH   5   8
BRANCH   1  20
HETATM   20  C   UNL     1     -43.757 -46.530   9.408  1.00  0.00     0.267 C 
HETATM   21  N   UNL     1     -44.964 -47.182   9.556  1.00  0.00    -0.360 N 
HETATM   22  C   UNL     1     -46.177 -46.641   9.006  1.00  0.00     0.149 C 
HETATM   23  H   UNL     1     -44.984 -47.971  10.195  1.00  0.00     0.162 HD
HETATM   24  O   UNL     1     -43.623 -45.495   8.764  1.00  0.00    -0.266 OA
ENDBRANCH   1  20
TORSDOF 3
ENDMDL
MODEL 3
REMARK VINA RESULT:      -6.2      3.206      4.827
REMARK  3 active torsions:
REMARK  status: ('A' for Active; 'I' for Inactive)
REMARK       I    between atoms: N_2  and  C_3 
REMARK    1  A    between atoms: C_3  and  C_5 
REMARK    2  A    between atoms: C_9  and  N_10 
REMARK       I    between atoms: N_10  and  C_11 
REMARK       I    between atoms: C_11  and  N_13 
REMARK    3  A    between atoms: N_13  and  C_14 
ROOT
HETATM    1  C   UNL     1     -40.663 -49.372  11.300  1.00  0.00     0.102 A 
HETATM    2  C   UNL     1     -39.386 -49.361  11.852  1.00  0.00     0.035 A 
HETATM    3  C   UNL     1     -38.938 -50.510  12.487  1.00  0.00     0.006 A 
HETATM    4  C   UNL     1     -39.790 -51.608  12.564  1.00  0.00     0.049 A 
HETATM    5  C   UNL     1     -41.053 -51.536  11.977  1.00  0.00     0.109 A 
HETATM    6  N   UNL     1     -41.498 -50.454  11.307  1.00  0.00    -0.338 N 
ATOM      7  HN  UNL     1     -42.402 -50.443  10.834  1.00  0.00     0.167 HD
ENDROOT
BRANCH   5   8
HETATM    8  N   UNL     1     -41.930 -52.628  12.029  1.00  0.00    -0.295 N 
HETATM    9  C   UNL     1     -43.183 -52.513  12.582  1.00  0.00     0.322 C 
HETATM   10  O   UNL     1     -43.671 -51.467  12.996  1.00  0.00    -0.247 OA
HETATM   11  N   UNL     1     -43.848 -53.718  12.642  1.00  0.00    -0.335 N 
HETATM   12  H   UNL     1     -43.466 -54.492  12.124  1.00  0.00     0.164 HD
HETATM   13  H   UNL     1     -41.848 -53.246  11.240  1.00  0.00     0.172 HD
BRANCH  11  14
HETATM   14  C   UNL     1     -45.237 -53.785  13.073  1.00  0.00     0.109 C 
HETATM   15  C   UNL     1     -46.098 -52.631  12.526  1.00  0.00     0.029 C 
HETATM   16  C   UNL     1     -46.651 -51.585  13.496  1.00  0.00     0.006 C 
HETATM   17  C   UNL     1     -46.304 -51.702  14.975  1.00  0.00     0.027 C 
HETATM   18  C   UNL     1     -45.702 -52.993  15.409  1.00  0.00    -0.029 C 
HETATM   19  C   UNL     1     -45.225 -53.913  14.564  1.00  0.00    -0.006 C 
ENDBRANCH  11  14
ENDBRANCH   5   8
BRANCH   1  20
HETATM   20  C   UNL     1     -41.199 -48.106  10.705  1.00  0.00     0.267 C 
HETATM   21  N   UNL     1     -42.358 -48.247   9.970  1.00  0.00    -0.360 N 
HETATM   22  C   UNL     1     -43.041 -47.105   9.425  1.00  0.00     0.149 C 
HETATM   23  H   UNL     1     -42.787 -49.167   9.961  1.00  0.00     0.162 HD
HETATM   24  O   UNL     1     -40.647 -47.027  10.896  1.00  0.00    -0.266 OA
ENDBRANCH   1  20
TORSDOF 3
ENDMDL
MODEL 4
REMARK VINA RESULT:      -6.1      4.502      6.352
REMARK  3 active torsions:
REMARK  status: ('A' for Active; 'I' for Inactive)
REMARK       I    between atoms: N_2  and  C_3 
REMARK    1  A    between atoms: C_3  and  C_5 
REMARK    2  A    between atoms: C_9  and  N_10 
REMARK       I    between atoms: N_10  and  C_11 
REMARK       I    between atoms: C_11  and  N_13 
REMARK    3  A    between atoms: N_13  and  C_14 
ROOT
HETATM    1  C   UNL     1     -38.124 -50.235  12.697  1.00  0.00     0.102 A 
HETATM    2  C   UNL     1     -37.813 -48.987  13.227  1.00  0.00     0.035 A 
HETATM    3  C   UNL     1     -38.655 -48.459  14.194  1.00  0.00     0.006 A 
HETATM    4  C   UNL     1     -39.782 -49.186  14.571  1.00  0.00     0.049 A 
HETATM    5  C   UNL     1     -40.015 -50.433  13.992  1.00  0.00     0.109 A 
HETATM    6  N   UNL     1     -39.188 -50.997  13.090  1.00  0.00    -0.338 N 
ATOM      7  HN  UNL     1     -39.346 -51.936  12.723  1.00  0.00     0.167 HD
ENDROOT
BRANCH   5   8
HETATM    8  N   UNL     1     -41.135 -51.193  14.357  1.00  0.00    -0.295 N 
HETATM    9  C   UNL     1     -42.205 -51.344  13.507  1.00  0.00     0.322 C 
HETATM   10  O   UNL     1     -42.252 -50.914  12.360  1.00  0.00    -0.247 OA
HETATM   11  N   UNL     1     -43.250 -52.028  14.088  1.00  0.00    -0.335 N 
HETATM   12  H   UNL     1     -43.074 -52.505  14.957  1.00  0.00     0.164 HD
HETATM   13  H   UNL     1     -40.910 -51.985  14.934  1.00  0.00     0.172 HD
BRANCH  11  14
HETATM   14  C   UNL     1     -44.421 -52.404  13.309  1.00  0.00     0.109 C 
HETATM   15  C   UNL     1     -45.581 -51.398  13.433  1.00  0.00     0.029 C 
HETATM   16  C   UNL     1     -46.868 -51.824  14.140  1.00  0.00     0.006 C 
HETATM   17  C   UNL     1     -46.950 -53.227  14.731  1.00  0.00     0.027 C 
HETATM   18  C   UNL     1     -45.885 -54.179  14.313  1.00  0.00    -0.029 C 
HETATM   19  C   UNL     1     -44.762 -53.812  13.687  1.00  0.00    -0.006 C 
ENDBRANCH  11  14
ENDBRANCH   5   8
BRANCH   1  20
HETATM   20  C   UNL     1     -37.283 -50.770  11.578  1.00  0.00     0.267 C 
HETATM   21  N   UNL     1     -37.261 -49.995  10.438  1.00  0.00    -0.360 N 
HETATM   22  C   UNL     1     -36.418 -50.331   9.323  1.00  0.00     0.149 C 
HETATM   23  H   UNL     1     -37.743 -49.102  10.480  1.00  0.00     0.162 HD
HETATM   24  O   UNL     1     -36.644 -51.810  11.701  1.00  0.00    -0.266 OA
ENDBRANCH   1  20
TORSDOF 3
ENDMDL
MODEL 5
REMARK VINA RESULT:      -6.1      1.787      2.214
REMARK  3 active torsions:
REMARK  status: ('A' for Active; 'I' for Inactive)
REMARK       I    between atoms: N_2  and  C_3 
REMARK    1  A    between atoms: C_3  and  C_5 
REMARK    2  A    between atoms: C_9  and  N_10 
REMARK       I    between atoms: N_10  and  C_11 
REMARK       I    between atoms: C_11  and  N_13 
REMARK    3  A    between atoms: N_13  and  C_14 
ROOT
HETATM    1  C   UNL     1     -42.572 -47.752  10.350  1.00  0.00     0.102 A 
HETATM    2  C   UNL     1     -41.481 -46.888  10.365  1.00  0.00     0.035 A 
HETATM    3  C   UNL     1     -40.510 -47.078  11.337  1.00  0.00     0.006 A 
HETATM    4  C   UNL     1     -40.681 -48.102  12.265  1.00  0.00     0.049 A 
HETATM    5  C   UNL     1     -41.803 -48.926  12.174  1.00  0.00     0.109 A 
HETATM    6  N   UNL     1     -42.737 -48.802  11.209  1.00  0.00    -0.338 N 
ATOM      7  HN  UNL     1     -43.519 -49.452  11.126  1.00  0.00     0.167 HD
ENDROOT
BRANCH   5   8
HETATM    8  N   UNL     1     -41.999 -49.971  13.087  1.00  0.00    -0.295 N 
HETATM    9  C   UNL     1     -41.814 -51.283  12.723  1.00  0.00     0.322 C 
HETATM   10  O   UNL     1     -41.399 -51.653  11.630  1.00  0.00    -0.247 OA
HETATM   11  N   UNL     1     -42.164 -52.164  13.722  1.00  0.00    -0.335 N 
HETATM   12  H   UNL     1     -42.321 -51.791  14.645  1.00  0.00     0.164 HD
HETATM   13  H   UNL     1     -41.744 -49.731  14.030  1.00  0.00     0.172 HD
BRANCH  11  14
HETATM   14  C   UNL     1     -41.918 -53.592  13.580  1.00  0.00     0.109 C 
HETATM   15  C   UNL     1     -43.108 -54.461  14.030  1.00  0.00     0.029 C 
HETATM   16  C   UNL     1     -42.962 -55.342  15.272  1.00  0.00     0.006 C 
HETATM   17  C   UNL     1     -41.649 -55.308  16.045  1.00  0.00     0.027 C 
HETATM   18  C   UNL     1     -40.502 -54.647  15.363  1.00  0.00    -0.029 C 
HETATM   19  C   UNL     1     -40.624 -53.884  14.273  1.00  0.00    -0.006 C 
ENDBRANCH  11  14
ENDBRANCH   5   8
BRANCH   1  20
HETATM   20  C   UNL     1     -43.679 -47.494   9.374  1.00  0.00     0.267 C 
HETATM   21  N   UNL     1     -44.928 -47.921   9.776  1.00  0.00    -0.360 N 
HETATM   22  C   UNL     1     -46.098 -47.650   8.987  1.00  0.00     0.149 C 
HETATM   23  H   UNL     1     -45.004 -48.293  10.717  1.00  0.00     0.162 HD
HETATM   24  O   UNL     1     -43.471 -46.917   8.312  1.00  0.00    -0.266 OA
ENDBRANCH   1  20
TORSDOF 3
ENDMDL
MODEL 6
REMARK VINA RESULT:      -6.1      2.640      6.636
REMARK  3 active torsions:
REMARK  status: ('A' for Active; 'I' for Inactive)
REMARK       I    between atoms: N_2  and  C_3 
REMARK    1  A    between atoms: C_3  and  C_5 
REMARK    2  A    between atoms: C_9  and  N_10 
REMARK       I    between atoms: N_10  and  C_11 
REMARK       I    between atoms: C_11  and  N_13 
REMARK    3  A    between atoms: N_13  and  C_14 
ROOT
HETATM    1  C   UNL     1     -43.076 -52.901  12.566  1.00  0.00     0.102 A 
HETATM    2  C   UNL     1     -42.232 -53.894  13.054  1.00  0.00     0.035 A 
HETATM    3  C   UNL     1     -40.866 -53.654  13.044  1.00  0.00     0.006 A 
HETATM    4  C   UNL     1     -40.401 -52.448  12.526  1.00  0.00     0.049 A 
HETATM    5  C   UNL     1     -41.318 -51.504  12.063  1.00  0.00     0.109 A 
HETATM    6  N   UNL     1     -42.653 -51.685  12.109  1.00  0.00    -0.338 N 
ATOM      7  HN  UNL     1     -43.308 -50.958  11.820  1.00  0.00     0.167 HD
ENDROOT
BRANCH   5   8
HETATM    8  N   UNL     1     -40.882 -50.277  11.546  1.00  0.00    -0.295 N 
HETATM    9  C   UNL     1     -41.468 -49.093  11.923  1.00  0.00     0.322 C 
HETATM   10  O   UNL     1     -42.342 -48.987  12.776  1.00  0.00    -0.247 OA
HETATM   11  N   UNL     1     -40.978 -48.013  11.223  1.00  0.00    -0.335 N 
HETATM   12  H   UNL     1     -40.143 -48.147  10.676  1.00  0.00     0.164 HD
HETATM   13  H   UNL     1     -39.893 -50.247  11.368  1.00  0.00     0.172 HD
BRANCH  11  14
HETATM   14  C   UNL     1     -41.376 -46.655  11.568  1.00  0.00     0.109 C 
HETATM   15  C   UNL     1     -41.136 -45.645  10.430  1.00  0.00     0.029 C 
HETATM   16  C   UNL     1     -40.076 -44.556  10.608  1.00  0.00     0.006 C 
HETATM   17  C   UNL     1     -39.267 -44.526  11.899  1.00  0.00     0.027 C 
HETATM   18  C   UNL     1     -39.774 -45.373  13.013  1.00  0.00    -0.029 C 
HETATM   19  C   UNL     1     -40.706 -46.320  12.863  1.00  0.00    -0.006 C 
ENDBRANCH  11  14
ENDBRANCH   5   8
BRANCH   1  20
HETATM   20  C   UNL     1     -44.544 -53.188  12.474  1.00  0.00     0.267 C 
HETATM   21  N   UNL     1     -45.347 -52.082  12.291  1.00  0.00    -0.360 N 
HETATM   22  C   UNL     1     -46.764 -52.214  12.083  1.00  0.00     0.149 C 
HETATM   23  H   UNL     1     -44.879 -51.191  12.155  1.00  0.00     0.162 HD
HETATM   24  O   UNL     1     -44.974 -54.335  12.529  1.00  0.00    -0.266 OA
ENDBRANCH   1  20
TORSDOF 3
ENDMDL
MODEL 7
REMARK VINA RESULT:      -6.0      4.321      8.277
REMARK  3 active torsions:
REMARK  status: ('A' for Active; 'I' for Inactive)
REMARK       I    between atoms: N_2  and  C_3 
REMARK    1  A    between atoms: C_3  and  C_5 
REMARK    2  A    between atoms: C_9  and  N_10 
REMARK       I    between atoms: N_10  and  C_11 
REMARK       I    between atoms: C_11  and  N_13 
REMARK    3  A    between atoms: N_13  and  C_14 
ROOT
HETATM    1  C   UNL     1     -42.617 -47.150   9.949  1.00  0.00     0.102 A 
HETATM    2  C   UNL     1     -41.963 -48.256  10.485  1.00  0.00     0.035 A 
HETATM    3  C   UNL     1     -40.760 -48.049  11.141  1.00  0.00     0.006 A 
HETATM    4  C   UNL     1     -40.249 -46.755  11.212  1.00  0.00     0.049 A 
HETATM    5  C   UNL     1     -40.973 -45.703  10.653  1.00  0.00     0.109 A 
HETATM    6  N   UNL     1     -42.171 -45.863  10.056  1.00  0.00    -0.338 N 
ATOM      7  HN  UNL     1     -42.712 -45.072   9.706  1.00  0.00     0.167 HD
ENDROOT
BRANCH   5   8
HETATM    8  N   UNL     1     -40.491 -44.389  10.717  1.00  0.00    -0.295 N 
HETATM    9  C   UNL     1     -41.108 -43.437  11.494  1.00  0.00     0.322 C 
HETATM   10  O   UNL     1     -42.056 -43.652  12.240  1.00  0.00    -0.247 OA
HETATM   11  N   UNL     1     -40.555 -42.186  11.336  1.00  0.00    -0.335 N 
HETATM   12  H   UNL     1     -39.674 -42.118  10.853  1.00  0.00     0.164 HD
HETATM   13  H   UNL     1     -39.489 -44.327  10.651  1.00  0.00     0.172 HD
BRANCH  11  14
HETATM   14  C   UNL     1     -40.982 -41.070  12.168  1.00  0.00     0.109 C 
HETATM   15  C   UNL     1     -41.292 -39.794  11.362  1.00  0.00     0.029 C 
HETATM   16  C   UNL     1     -40.390 -38.569  11.524  1.00  0.00     0.006 C 
HETATM   17  C   UNL     1     -39.191 -38.661  12.459  1.00  0.00     0.027 C 
HETATM   18  C   UNL     1     -39.158 -39.836  13.374  1.00  0.00    -0.029 C 
HETATM   19  C   UNL     1     -39.950 -40.904  13.240  1.00  0.00    -0.006 C 
ENDBRANCH  11  14
ENDBRANCH   5   8
BRANCH   1  20
HETATM   20  C   UNL     1     -43.864 -47.372   9.148  1.00  0.00     0.267 C 
HETATM   21  N   UNL     1     -45.040 -47.045   9.789  1.00  0.00    -0.360 N 
HETATM   22  C   UNL     1     -46.305 -47.109   9.109  1.00  0.00     0.149 C 
HETATM   23  H   UNL     1     -44.959 -46.613  10.705  1.00  0.00     0.162 HD
HETATM   24  O   UNL     1     -43.815 -47.787   7.994  1.00  0.00    -0.266 OA
ENDBRANCH   1  20
TORSDOF 3
ENDMDL
MODEL 8
REMARK VINA RESULT:      -5.9      3.407      5.474
REMARK  3 active torsions:
REMARK  status: ('A' for Active; 'I' for Inactive)
REMARK       I    between atoms: N_2  and  C_3 
REMARK    1  A    between atoms: C_3  and  C_5 
REMARK    2  A    between atoms: C_9  and  N_10 
REMARK       I    between atoms: N_10  and  C_11 
REMARK       I    between atoms: C_11  and  N_13 
REMARK    3  A    between atoms: N_13  and  C_14 
ROOT
HETATM    1  C   UNL     1     -39.125 -49.033  12.713  1.00  0.00     0.102 A 
HETATM    2  C   UNL     1     -37.805 -49.472  12.664  1.00  0.00     0.035 A 
HETATM    3  C   UNL     1     -37.535 -50.777  13.046  1.00  0.00     0.006 A 
HETATM    4  C   UNL     1     -38.586 -51.579  13.484  1.00  0.00     0.049 A 
HETATM    5  C   UNL     1     -39.881 -51.061  13.496  1.00  0.00     0.109 A 
HETATM    6  N   UNL     1     -40.184 -49.815  13.080  1.00  0.00    -0.338 N 
ATOM      7  HN  UNL     1     -41.146 -49.476  13.041  1.00  0.00     0.167 HD
ENDROOT
BRANCH   5   8
HETATM    8  N   UNL     1     -40.961 -51.845  13.922  1.00  0.00    -0.295 N 
HETATM    9  C   UNL     1     -42.130 -51.906  13.201  1.00  0.00     0.322 C 
HETATM   10  O   UNL     1     -42.309 -51.365  12.115  1.00  0.00    -0.247 OA
HETATM   11  N   UNL     1     -43.108 -52.637  13.838  1.00  0.00    -0.335 N 
HETATM   12  H   UNL     1     -42.836 -53.198  14.629  1.00  0.00     0.164 HD
HETATM   13  H   UNL     1     -40.682 -52.692  14.387  1.00  0.00     0.172 HD
BRANCH  11  14
HETATM   14  C   UNL     1     -44.373 -52.928  13.178  1.00  0.00     0.109 C 
HETATM   15  C   UNL     1     -45.538 -52.059  13.687  1.00  0.00     0.029 C 
HETATM   16  C   UNL     1     -46.677 -52.717  14.468  1.00  0.00     0.006 C 
HETATM   17  C   UNL     1     -46.605 -54.214  14.744  1.00  0.00     0.027 C 
HETATM   18  C   UNL     1     -45.583 -54.977  13.976  1.00  0.00    -0.029 C 
HETATM   19  C   UNL     1     -44.592 -54.405  13.286  1.00  0.00    -0.006 C 
ENDBRANCH  11  14
ENDBRANCH   5   8
BRANCH   1  20
HETATM   20  C   UNL     1     -39.417 -47.597  12.404  1.00  0.00     0.267 C 
HETATM   21  N   UNL     1     -39.861 -47.351  11.121  1.00  0.00    -0.360 N 
HETATM   22  C   UNL     1     -40.275 -46.036  10.714  1.00  0.00     0.149 C 
HETATM   23  H   UNL     1     -40.027 -48.160  10.530  1.00  0.00     0.162 HD
HETATM   24  O   UNL     1     -39.292 -46.723  13.255  1.00  0.00    -0.266 OA
ENDBRANCH   1  20
TORSDOF 3
ENDMDL
MODEL 9
REMARK VINA RESULT:      -5.8      3.478      6.002
REMARK  3 active torsions:
REMARK  status: ('A' for Active; 'I' for Inactive)
REMARK       I    between atoms: N_2  and  C_3 
REMARK    1  A    between atoms: C_3  and  C_5 
REMARK    2  A    between atoms: C_9  and  N_10 
REMARK       I    between atoms: N_10  and  C_11 
REMARK       I    between atoms: C_11  and  N_13 
REMARK    3  A    between atoms: N_13  and  C_14 
ROOT
HETATM    1  C   UNL     1     -43.810 -53.252  12.935  1.00  0.00     0.102 A 
HETATM    2  C   UNL     1     -43.327 -54.259  13.766  1.00  0.00     0.035 A 
HETATM    3  C   UNL     1     -41.955 -54.446  13.836  1.00  0.00     0.006 A 
HETATM    4  C   UNL     1     -41.127 -53.640  13.058  1.00  0.00     0.049 A 
HETATM    5  C   UNL     1     -41.695 -52.650  12.256  1.00  0.00     0.109 A 
HETATM    6  N   UNL     1     -43.020 -52.407  12.207  1.00  0.00    -0.338 N 
ATOM      7  HN  UNL     1     -43.410 -51.640  11.659  1.00  0.00     0.167 HD
ENDROOT
BRANCH   5   8
HETATM    8  N   UNL     1     -40.889 -51.817  11.469  1.00  0.00    -0.295 N 
HETATM    9  C   UNL     1     -40.231 -50.739  12.010  1.00  0.00     0.322 C 
HETATM   10  O   UNL     1     -40.219 -50.454  13.203  1.00  0.00    -0.247 OA
HETATM   11  N   UNL     1     -39.584 -49.982  11.059  1.00  0.00    -0.335 N 
HETATM   12  H   UNL     1     -39.484 -50.371  10.136  1.00  0.00     0.164 HD
HETATM   13  H   UNL     1     -40.411 -52.305  10.731  1.00  0.00     0.172 HD
BRANCH  11  14
HETATM   14  C   UNL     1     -38.723 -48.873  11.446  1.00  0.00     0.109 C 
HETATM   15  C   UNL     1     -37.735 -49.235  12.571  1.00  0.00     0.029 C 
HETATM   16  C   UNL     1     -37.896 -48.582  13.945  1.00  0.00     0.006 C 
HETATM   17  C   UNL     1     -39.052 -47.614  14.166  1.00  0.00     0.027 C 
HETATM   18  C   UNL     1     -39.760 -47.145  12.943  1.00  0.00    -0.029 C 
HETATM   19  C   UNL     1     -39.616 -47.708  11.739  1.00  0.00    -0.006 C 
ENDBRANCH  11  14
ENDBRANCH   5   8
BRANCH   1  20
HETATM   20  C   UNL     1     -45.292 -53.108  12.768  1.00  0.00     0.267 C 
HETATM   21  N   UNL     1     -45.698 -51.987  12.075  1.00  0.00    -0.360 N 
HETATM   22  C   UNL     1     -47.082 -51.770  11.752  1.00  0.00     0.149 C 
HETATM   23  H   UNL     1     -44.969 -51.406  11.673  1.00  0.00     0.162 HD
HETATM   24  O   UNL     1     -46.068 -53.954  13.200  1.00  0.00    -0.266 OA
ENDBRANCH   1  20
TORSDOF 3
ENDMDL
