MODEL 1
REMARK VINA RESULT:      -5.9      0.000      0.000
REMARK  4 active torsions:
REMARK  status: ('A' for Active; 'I' for Inactive)
REMARK    1  A    between atoms: C_2  and  C_4 
REMARK       I    between atoms: N_6  and  C_10 
REMARK       I    between atoms: C_10  and  N_12 
REMARK    2  A    between atoms: N_12  and  C_13 
REMARK    3  A    between atoms: C_13  and  C_14 
REMARK    4  A    between atoms: C_14  and  C_15 
ROOT
HETATM    1  C   UNL     1     -44.963 -52.919  15.556  1.00  0.00     0.068 C 
HETATM    2  C   UNL     1     -43.460 -53.017  15.209  1.00  0.00     0.143 C 
HETATM    3  N   UNL     1     -43.170 -52.855  13.773  1.00  0.00    -0.332 N 
HETATM    4  C   UNL     1     -43.775 -53.874  12.903  1.00  0.00     0.137 C 
HETATM    5  C   UNL     1     -45.299 -53.918  12.992  1.00  0.00     0.094 C 
HETATM    6  S   UNL     1     -45.859 -54.282  14.688  1.00  0.00    -0.161 SA
HETATM    7  C   UNL     1     -42.260 -51.986  13.196  1.00  0.00     0.318 C 
HETATM    8  O   UNL     1     -42.006 -51.994  11.993  1.00  0.00    -0.247 OA
HETATM    9  N   UNL     1     -41.652 -51.090  14.028  1.00  0.00    -0.343 N 
HETATM   10  H   UNL     1     -41.897 -51.039  14.998  1.00  0.00     0.164 HD
ENDROOT
BRANCH   9  11
HETATM   11  C   UNL     1     -40.693 -50.126  13.519  1.00  0.00     0.129 C 
BRANCH  11  12
HETATM   12  C   UNL     1     -41.241 -48.694  13.491  1.00  0.00     0.060 C 
BRANCH  12  13
HETATM   13  C   UNL     1     -41.838 -48.311  12.161  1.00  0.00    -0.041 A 
HETATM   14  C   UNL     1     -43.056 -47.637  12.075  1.00  0.00     0.010 A 
HETATM   15  C   UNL     1     -43.606 -47.360  10.826  1.00  0.00     0.025 A 
HETATM   16  C   UNL     1     -42.920 -47.760   9.686  1.00  0.00     0.005 A 
HETATM   17  C   UNL     1     -43.506 -47.547   8.324  1.00  0.00     0.068 C 
HETATM   18  N   UNL     1     -41.723 -48.392   9.742  1.00  0.00    -0.369 N 
HETATM   19  C   UNL     1     -41.211 -48.644  10.968  1.00  0.00     0.095 A 
ATOM     20  HN  UNL     1     -41.228 -48.667   8.894  1.00  0.00     0.165 HD
ENDBRANCH  12  13
ENDBRANCH  11  12
ENDBRANCH   9  11
BRANCH   1  21
HETATM   21  C   UNL     1     -45.611 -51.529  15.280  1.00  0.00    -0.007 C 
HETATM   22  C   UNL     1     -47.073 -51.466  15.752  1.00  0.00     0.011 C 
HETATM   23  C   UNL     1     -44.848 -50.384  15.955  1.00  0.00     0.011 C 
ENDBRANCH   1  21
TORSDOF 4
ENDMDL
MODEL 2
REMARK VINA RESULT:      -5.7      1.613      2.008
REMARK  4 active torsions:
REMARK  status: ('A' for Active; 'I' for Inactive)
REMARK    1  A    between atoms: C_2  and  C_4 
REMARK       I    between atoms: N_6  and  C_10 
REMARK       I    between atoms: C_10  and  N_12 
REMARK    2  A    between atoms: N_12  and  C_13 
REMARK    3  A    between atoms: C_13  and  C_14 
REMARK    4  A    between atoms: C_14  and  C_15 
ROOT
HETATM    1  C   UNL     1     -44.645 -52.309  15.054  1.00  0.00     0.068 C 
HETATM    2  C   UNL     1     -43.191 -52.476  15.555  1.00  0.00     0.143 C 
HETATM    3  N   UNL     1     -42.407 -53.457  14.784  1.00  0.00    -0.332 N 
HETATM    4  C   UNL     1     -42.928 -54.831  14.824  1.00  0.00     0.137 C 
HETATM    5  C   UNL     1     -44.350 -54.955  14.280  1.00  0.00     0.094 C 
HETATM    6  S   UNL     1     -45.519 -53.927  15.229  1.00  0.00    -0.161 SA
HETATM    7  C   UNL     1     -41.165 -53.265  14.205  1.00  0.00     0.318 C 
HETATM    8  O   UNL     1     -40.534 -54.175  13.670  1.00  0.00    -0.247 OA
HETATM    9  N   UNL     1     -40.660 -51.997  14.237  1.00  0.00    -0.343 N 
HETATM   10  H   UNL     1     -41.193 -51.240  14.620  1.00  0.00     0.164 HD
ENDROOT
BRANCH   9  11
HETATM   11  C   UNL     1     -39.371 -51.688  13.644  1.00  0.00     0.129 C 
BRANCH  11  12
HETATM   12  C   UNL     1     -39.098 -50.182  13.555  1.00  0.00     0.060 C 
BRANCH  12  13
HETATM   13  C   UNL     1     -39.992 -49.472  12.570  1.00  0.00    -0.041 A 
HETATM   14  C   UNL     1     -40.707 -48.329  12.927  1.00  0.00     0.010 A 
HETATM   15  C   UNL     1     -41.573 -47.741  12.008  1.00  0.00     0.025 A 
HETATM   16  C   UNL     1     -41.699 -48.309  10.745  1.00  0.00     0.005 A 
HETATM   17  C   UNL     1     -42.670 -47.753   9.748  1.00  0.00     0.068 C 
HETATM   18  N   UNL     1     -40.995 -49.402  10.366  1.00  0.00    -0.369 N 
HETATM   19  C   UNL     1     -40.159 -49.949  11.277  1.00  0.00     0.095 A 
ATOM     20  HN  UNL     1     -41.092 -49.797   9.431  1.00  0.00     0.165 HD
ENDBRANCH  12  13
ENDBRANCH  11  12
ENDBRANCH   9  11
BRANCH   1  21
HETATM   21  C   UNL     1     -44.780 -51.728  13.614  1.00  0.00    -0.007 C 
HETATM   22  C   UNL     1     -46.240 -51.417  13.249  1.00  0.00     0.011 C 
HETATM   23  C   UNL     1     -43.962 -50.446  13.422  1.00  0.00     0.011 C 
ENDBRANCH   1  21
TORSDOF 4
ENDMDL
MODEL 3
REMARK VINA RESULT:      -5.6      2.870      6.248
REMARK  4 active torsions:
REMARK  status: ('A' for Active; 'I' for Inactive)
REMARK    1  A    between atoms: C_2  and  C_4 
REMARK       I    between atoms: N_6  and  C_10 
REMARK       I    between atoms: C_10  and  N_12 
REMARK    2  A    between atoms: N_12  and  C_13 
REMARK    3  A    between atoms: C_13  and  C_14 
REMARK    4  A    between atoms: C_14  and  C_15 
ROOT
HETATM    1  C   UNL     1     -41.505 -48.124  12.589  1.00  0.00     0.068 C 
HETATM    2  C   UNL     1     -41.692 -49.401  11.737  1.00  0.00     0.143 C 
HETATM    3  N   UNL     1     -40.733 -50.474  12.058  1.00  0.00    -0.332 N 
HETATM    4  C   UNL     1     -39.322 -50.129  11.827  1.00  0.00     0.137 C 
HETATM    5  C   UNL     1     -38.852 -48.928  12.645  1.00  0.00     0.094 C 
HETATM    6  S   UNL     1     -39.823 -47.435  12.258  1.00  0.00    -0.161 SA
HETATM    7  C   UNL     1     -41.024 -51.793  12.357  1.00  0.00     0.318 C 
HETATM    8  O   UNL     1     -40.152 -52.647  12.506  1.00  0.00    -0.247 OA
HETATM    9  N   UNL     1     -42.342 -52.116  12.499  1.00  0.00    -0.343 N 
HETATM   10  H   UNL     1     -43.054 -51.414  12.436  1.00  0.00     0.164 HD
ENDROOT
BRANCH   9  11
HETATM   11  C   UNL     1     -42.752 -53.469  12.829  1.00  0.00     0.129 C 
BRANCH  11  12
HETATM   12  C   UNL     1     -44.226 -53.744  12.511  1.00  0.00     0.060 C 
BRANCH  12  13
HETATM   13  C   UNL     1     -45.175 -53.115  13.499  1.00  0.00    -0.041 A 
HETATM   14  C   UNL     1     -45.884 -51.953  13.193  1.00  0.00     0.010 A 
HETATM   15  C   UNL     1     -46.700 -51.367  14.157  1.00  0.00     0.025 A 
HETATM   16  C   UNL     1     -46.794 -51.962  15.410  1.00  0.00     0.005 A 
HETATM   17  C   UNL     1     -47.603 -51.329  16.500  1.00  0.00     0.068 C 
HETATM   18  N   UNL     1     -46.137 -53.104  15.723  1.00  0.00    -0.369 N 
HETATM   19  C   UNL     1     -45.356 -53.654  14.766  1.00  0.00     0.095 A 
ATOM     20  HN  UNL     1     -46.229 -53.533  16.644  1.00  0.00     0.165 HD
ENDBRANCH  12  13
ENDBRANCH  11  12
ENDBRANCH   9  11
BRANCH   1  21
HETATM   21  C   UNL     1     -41.767 -48.309  14.115  1.00  0.00    -0.007 C 
HETATM   22  C   UNL     1     -41.806 -46.967  14.863  1.00  0.00     0.011 C 
HETATM   23  C   UNL     1     -43.082 -49.045  14.396  1.00  0.00     0.011 C 
ENDBRANCH   1  21
TORSDOF 4
ENDMDL
MODEL 4
REMARK VINA RESULT:      -5.6      2.742      4.008
REMARK  4 active torsions:
REMARK  status: ('A' for Active; 'I' for Inactive)
REMARK    1  A    between atoms: C_2  and  C_4 
REMARK       I    between atoms: N_6  and  C_10 
REMARK       I    between atoms: C_10  and  N_12 
REMARK    2  A    between atoms: N_12  and  C_13 
REMARK    3  A    between atoms: C_13  and  C_14 
REMARK    4  A    between atoms: C_14  and  C_15 
ROOT
HETATM    1  C   UNL     1     -45.241 -51.285  15.152  1.00  0.00     0.068 C 
HETATM    2  C   UNL     1     -44.278 -51.972  16.149  1.00  0.00     0.143 C 
HETATM    3  N   UNL     1     -44.208 -53.436  15.993  1.00  0.00    -0.332 N 
HETATM    4  C   UNL     1     -45.477 -54.141  16.224  1.00  0.00     0.137 C 
HETATM    5  C   UNL     1     -46.594 -53.701  15.279  1.00  0.00     0.094 C 
HETATM    6  S   UNL     1     -46.949 -51.922  15.449  1.00  0.00    -0.161 SA
HETATM    7  C   UNL     1     -43.069 -54.207  15.849  1.00  0.00     0.318 C 
HETATM    8  O   UNL     1     -43.097 -55.437  15.835  1.00  0.00    -0.247 OA
HETATM    9  N   UNL     1     -41.886 -53.540  15.708  1.00  0.00    -0.343 N 
HETATM   10  H   UNL     1     -41.862 -52.540  15.661  1.00  0.00     0.164 HD
ENDROOT
BRANCH   9  11
HETATM   11  C   UNL     1     -40.636 -54.257  15.534  1.00  0.00     0.129 C 
BRANCH  11  12
HETATM   12  C   UNL     1     -40.235 -54.417  14.064  1.00  0.00     0.060 C 
BRANCH  12  13
HETATM   13  C   UNL     1     -40.234 -53.116  13.302  1.00  0.00    -0.041 A 
HETATM   14  C   UNL     1     -39.470 -52.027  13.720  1.00  0.00     0.010 A 
HETATM   15  C   UNL     1     -39.549 -50.821  13.026  1.00  0.00     0.025 A 
HETATM   16  C   UNL     1     -40.389 -50.735  11.922  1.00  0.00     0.005 A 
HETATM   17  C   UNL     1     -40.559 -49.440  11.188  1.00  0.00     0.068 C 
HETATM   18  N   UNL     1     -41.120 -51.786  11.481  1.00  0.00    -0.369 N 
HETATM   19  C   UNL     1     -41.020 -52.945  12.170  1.00  0.00     0.095 A 
ATOM     20  HN  UNL     1     -41.721 -51.707  10.661  1.00  0.00     0.165 HD
ENDBRANCH  12  13
ENDBRANCH  11  12
ENDBRANCH   9  11
BRANCH   1  21
HETATM   21  C   UNL     1     -44.828 -51.404  13.654  1.00  0.00    -0.007 C 
HETATM   22  C   UNL     1     -46.045 -51.382  12.714  1.00  0.00     0.011 C 
HETATM   23  C   UNL     1     -43.876 -50.283  13.219  1.00  0.00     0.011 C 
ENDBRANCH   1  21
TORSDOF 4
ENDMDL
MODEL 5
REMARK VINA RESULT:      -5.5      3.061      5.941
REMARK  4 active torsions:
REMARK  status: ('A' for Active; 'I' for Inactive)
REMARK    1  A    between atoms: C_2  and  C_4 
REMARK       I    between atoms: N_6  and  C_10 
REMARK       I    between atoms: C_10  and  N_12 
REMARK    2  A    between atoms: N_12  and  C_13 
REMARK    3  A    between atoms: C_13  and  C_14 
REMARK    4  A    between atoms: C_14  and  C_15 
ROOT
HETATM    1  C   UNL     1     -41.073 -47.990  12.032  1.00  0.00     0.068 C 
HETATM    2  C   UNL     1     -40.399 -49.225  11.391  1.00  0.00     0.143 C 
HETATM    3  N   UNL     1     -39.559 -49.994  12.327  1.00  0.00    -0.332 N 
HETATM    4  C   UNL     1     -38.420 -49.251  12.886  1.00  0.00     0.137 C 
HETATM    5  C   UNL     1     -38.835 -48.006  13.668  1.00  0.00     0.094 C 
HETATM    6  S   UNL     1     -39.755 -46.835  12.618  1.00  0.00    -0.161 SA
HETATM    7  C   UNL     1     -39.614 -51.354  12.575  1.00  0.00     0.318 C 
HETATM    8  O   UNL     1     -38.800 -51.931  13.294  1.00  0.00    -0.247 OA
HETATM    9  N   UNL     1     -40.636 -52.046  11.992  1.00  0.00    -0.343 N 
HETATM   10  H   UNL     1     -41.336 -51.573  11.452  1.00  0.00     0.164 HD
ENDROOT
BRANCH   9  11
HETATM   11  C   UNL     1     -40.792 -53.474  12.202  1.00  0.00     0.129 C 
BRANCH  11  12
HETATM   12  C   UNL     1     -41.579 -53.810  13.474  1.00  0.00     0.060 C 
BRANCH  12  13
HETATM   13  C   UNL     1     -42.918 -53.123  13.544  1.00  0.00    -0.041 A 
HETATM   14  C   UNL     1     -43.323 -52.428  14.684  1.00  0.00     0.010 A 
HETATM   15  C   UNL     1     -44.596 -51.864  14.735  1.00  0.00     0.025 A 
HETATM   16  C   UNL     1     -45.436 -52.003  13.636  1.00  0.00     0.005 A 
HETATM   17  C   UNL     1     -46.837 -51.474  13.671  1.00  0.00     0.068 C 
HETATM   18  N   UNL     1     -45.057 -52.649  12.508  1.00  0.00    -0.369 N 
HETATM   19  C   UNL     1     -43.815 -53.183  12.485  1.00  0.00     0.095 A 
ATOM     20  HN  UNL     1     -45.683 -52.729  11.707  1.00  0.00     0.165 HD
ENDBRANCH  12  13
ENDBRANCH  11  12
ENDBRANCH   9  11
BRANCH   1  21
HETATM   21  C   UNL     1     -42.104 -48.314  13.156  1.00  0.00    -0.007 C 
HETATM   22  C   UNL     1     -42.769 -47.046  13.716  1.00  0.00     0.011 C 
HETATM   23  C   UNL     1     -43.214 -49.257  12.676  1.00  0.00     0.011 C 
ENDBRANCH   1  21
TORSDOF 4
ENDMDL
MODEL 6
REMARK VINA RESULT:      -5.4      3.630      6.324
REMARK  4 active torsions:
REMARK  status: ('A' for Active; 'I' for Inactive)
REMARK    1  A    between atoms: C_2  and  C_4 
REMARK       I    between atoms: N_6  and  C_10 
REMARK       I    between atoms: C_10  and  N_12 
REMARK    2  A    between atoms: N_12  and  C_13 
REMARK    3  A    between atoms: C_13  and  C_14 
REMARK    4  A    between atoms: C_14  and  C_15 
ROOT
HETATM    1  C   UNL     1     -38.825 -49.522  15.036  1.00  0.00     0.068 C 
HETATM    2  C   UNL     1     -40.143 -50.200  14.596  1.00  0.00     0.143 C 
HETATM    3  N   UNL     1     -40.011 -51.017  13.376  1.00  0.00    -0.332 N 
HETATM    4  C   UNL     1     -39.610 -50.271  12.175  1.00  0.00     0.137 C 
HETATM    5  C   UNL     1     -38.261 -49.569  12.321  1.00  0.00     0.094 C 
HETATM    6  S   UNL     1     -38.277 -48.373  13.697  1.00  0.00    -0.161 SA
HETATM    7  C   UNL     1     -40.402 -52.334  13.206  1.00  0.00     0.318 C 
HETATM    8  O   UNL     1     -40.353 -52.905  12.118  1.00  0.00    -0.247 OA
HETATM    9  N   UNL     1     -40.841 -52.995  14.316  1.00  0.00    -0.343 N 
HETATM   10  H   UNL     1     -40.830 -52.554  15.216  1.00  0.00     0.164 HD
ENDROOT
BRANCH   9  11
HETATM   11  C   UNL     1     -41.259 -54.383  14.247  1.00  0.00     0.129 C 
BRANCH  11  12
HETATM   12  C   UNL     1     -42.667 -54.614  14.807  1.00  0.00     0.060 C 
BRANCH  12  13
HETATM   13  C   UNL     1     -43.714 -53.742  14.163  1.00  0.00    -0.041 A 
HETATM   14  C   UNL     1     -44.576 -52.952  14.925  1.00  0.00     0.010 A 
HETATM   15  C   UNL     1     -45.573 -52.212  14.296  1.00  0.00     0.025 A 
HETATM   16  C   UNL     1     -45.683 -52.273  12.912  1.00  0.00     0.005 A 
HETATM   17  C   UNL     1     -46.784 -51.550  12.197  1.00  0.00     0.068 C 
HETATM   18  N   UNL     1     -44.843 -53.010  12.147  1.00  0.00    -0.369 N 
HETATM   19  C   UNL     1     -43.881 -53.715  12.785  1.00  0.00     0.095 A 
ATOM     20  HN  UNL     1     -44.931 -53.033  11.132  1.00  0.00     0.165 HD
ENDBRANCH  12  13
ENDBRANCH  11  12
ENDBRANCH   9  11
BRANCH   1  21
HETATM   21  C   UNL     1     -37.691 -50.504  15.459  1.00  0.00    -0.007 C 
HETATM   22  C   UNL     1     -36.430 -49.763  15.934  1.00  0.00     0.011 C 
HETATM   23  C   UNL     1     -38.130 -51.455  16.578  1.00  0.00     0.011 C 
ENDBRANCH   1  21
TORSDOF 4
ENDMDL
MODEL 7
REMARK VINA RESULT:      -5.4      3.222      4.384
REMARK  4 active torsions:
REMARK  status: ('A' for Active; 'I' for Inactive)
REMARK    1  A    between atoms: C_2  and  C_4 
REMARK       I    between atoms: N_6  and  C_10 
REMARK       I    between atoms: C_10  and  N_12 
REMARK    2  A    between atoms: N_12  and  C_13 
REMARK    3  A    between atoms: C_13  and  C_14 
REMARK    4  A    between atoms: C_14  and  C_15 
ROOT
HETATM    1  C   UNL     1     -45.757 -51.594  17.545  1.00  0.00     0.068 C 
HETATM    2  C   UNL     1     -44.376 -52.084  17.052  1.00  0.00     0.143 C 
HETATM    3  N   UNL     1     -44.310 -53.539  16.821  1.00  0.00    -0.332 N 
HETATM    4  C   UNL     1     -44.543 -54.364  18.015  1.00  0.00     0.137 C 
HETATM    5  C   UNL     1     -45.912 -54.132  18.653  1.00  0.00     0.094 C 
HETATM    6  S   UNL     1     -46.122 -52.396  19.170  1.00  0.00    -0.161 SA
HETATM    7  C   UNL     1     -43.874 -54.184  15.677  1.00  0.00     0.318 C 
HETATM    8  O   UNL     1     -43.751 -55.406  15.612  1.00  0.00    -0.247 OA
HETATM    9  N   UNL     1     -43.592 -53.400  14.596  1.00  0.00    -0.343 N 
HETATM   10  H   UNL     1     -43.745 -52.410  14.624  1.00  0.00     0.164 HD
ENDROOT
BRANCH   9  11
HETATM   11  C   UNL     1     -43.143 -53.982  13.344  1.00  0.00     0.129 C 
BRANCH  11  12
HETATM   12  C   UNL     1     -41.626 -54.189  13.290  1.00  0.00     0.060 C 
BRANCH  12  13
HETATM   13  C   UNL     1     -40.869 -52.949  12.886  1.00  0.00    -0.041 A 
HETATM   14  C   UNL     1     -39.775 -52.491  13.620  1.00  0.00     0.010 A 
HETATM   15  C   UNL     1     -39.145 -51.304  13.253  1.00  0.00     0.025 A 
HETATM   16  C   UNL     1     -39.621 -50.604  12.151  1.00  0.00     0.005 A 
HETATM   17  C   UNL     1     -39.019 -49.288  11.760  1.00  0.00     0.068 C 
HETATM   18  N   UNL     1     -40.664 -51.042  11.406  1.00  0.00    -0.369 N 
HETATM   19  C   UNL     1     -41.254 -52.198  11.783  1.00  0.00     0.095 A 
ATOM     20  HN  UNL     1     -40.991 -50.520  10.593  1.00  0.00     0.165 HD
ENDBRANCH  12  13
ENDBRANCH  11  12
ENDBRANCH   9  11
BRANCH   1  21
HETATM   21  C   UNL     1     -46.923 -51.785  16.528  1.00  0.00    -0.007 C 
HETATM   22  C   UNL     1     -48.187 -51.015  16.944  1.00  0.00     0.011 C 
HETATM   23  C   UNL     1     -46.542 -51.338  15.112  1.00  0.00     0.011 C 
ENDBRANCH   1  21
TORSDOF 4
ENDMDL
MODEL 8
REMARK VINA RESULT:      -5.3      1.648      2.642
REMARK  4 active torsions:
REMARK  status: ('A' for Active; 'I' for Inactive)
REMARK    1  A    between atoms: C_2  and  C_4 
REMARK       I    between atoms: N_6  and  C_10 
REMARK       I    between atoms: C_10  and  N_12 
REMARK    2  A    between atoms: N_12  and  C_13 
REMARK    3  A    between atoms: C_13  and  C_14 
REMARK    4  A    between atoms: C_14  and  C_15 
ROOT
HETATM    1  C   UNL     1     -45.969 -52.584  13.944  1.00  0.00     0.068 C 
HETATM    2  C   UNL     1     -45.416 -51.140  13.926  1.00  0.00     0.143 C 
HETATM    3  N   UNL     1     -44.558 -50.818  15.081  1.00  0.00    -0.332 N 
HETATM    4  C   UNL     1     -45.228 -50.897  16.387  1.00  0.00     0.137 C 
HETATM    5  C   UNL     1     -45.793 -52.283  16.694  1.00  0.00     0.094 C 
HETATM    6  S   UNL     1     -47.021 -52.794  15.448  1.00  0.00    -0.161 SA
HETATM    7  C   UNL     1     -43.284 -50.279  15.051  1.00  0.00     0.318 C 
HETATM    8  O   UNL     1     -42.683 -49.942  16.069  1.00  0.00    -0.247 OA
HETATM    9  N   UNL     1     -42.701 -50.145  13.825  1.00  0.00    -0.343 N 
HETATM   10  H   UNL     1     -43.161 -50.471  12.996  1.00  0.00     0.164 HD
ENDROOT
BRANCH   9  11
HETATM   11  C   UNL     1     -41.360 -49.604  13.687  1.00  0.00     0.129 C 
BRANCH  11  12
HETATM   12  C   UNL     1     -41.348 -48.135  13.252  1.00  0.00     0.060 C 
BRANCH  12  13
HETATM   13  C   UNL     1     -41.934 -47.914  11.881  1.00  0.00    -0.041 A 
HETATM   14  C   UNL     1     -43.124 -47.209  11.701  1.00  0.00     0.010 A 
HETATM   15  C   UNL     1     -43.667 -47.085  10.424  1.00  0.00     0.025 A 
HETATM   16  C   UNL     1     -43.002 -47.666   9.351  1.00  0.00     0.005 A 
HETATM   17  C   UNL     1     -43.584 -47.618   7.972  1.00  0.00     0.068 C 
HETATM   18  N   UNL     1     -41.832 -48.332   9.496  1.00  0.00    -0.369 N 
HETATM   19  C   UNL     1     -41.325 -48.433  10.746  1.00  0.00     0.095 A 
ATOM     20  HN  UNL     1     -41.352 -48.741   8.695  1.00  0.00     0.165 HD
ENDBRANCH  12  13
ENDBRANCH  11  12
ENDBRANCH   9  11
BRANCH   1  21
HETATM   21  C   UNL     1     -44.888 -53.702  13.829  1.00  0.00    -0.007 C 
HETATM   22  C   UNL     1     -45.507 -55.109  13.838  1.00  0.00     0.011 C 
HETATM   23  C   UNL     1     -44.040 -53.566  12.559  1.00  0.00     0.011 C 
ENDBRANCH   1  21
TORSDOF 4
ENDMDL
MODEL 9
REMARK VINA RESULT:      -5.2      3.877      6.005
REMARK  4 active torsions:
REMARK  status: ('A' for Active; 'I' for Inactive)
REMARK    1  A    between atoms: C_2  and  C_4 
REMARK       I    between atoms: N_6  and  C_10 
REMARK       I    between atoms: C_10  and  N_12 
REMARK    2  A    between atoms: N_12  and  C_13 
REMARK    3  A    between atoms: C_13  and  C_14 
REMARK    4  A    between atoms: C_14  and  C_15 
ROOT
HETATM    1  C   UNL     1     -40.231 -53.825  15.197  1.00  0.00     0.068 C 
HETATM    2  C   UNL     1     -41.254 -54.468  14.231  1.00  0.00     0.143 C 
HETATM    3  N   UNL     1     -42.540 -54.804  14.867  1.00  0.00    -0.332 N 
HETATM    4  C   UNL     1     -42.451 -55.790  15.954  1.00  0.00     0.137 C 
HETATM    5  C   UNL     1     -41.552 -55.342  17.105  1.00  0.00     0.094 C 
HETATM    6  S   UNL     1     -39.847 -55.035  16.539  1.00  0.00    -0.161 SA
HETATM    7  C   UNL     1     -43.805 -54.449  14.434  1.00  0.00     0.318 C 
HETATM    8  O   UNL     1     -44.831 -54.866  14.968  1.00  0.00    -0.247 OA
HETATM    9  N   UNL     1     -43.875 -53.587  13.377  1.00  0.00    -0.343 N 
HETATM   10  H   UNL     1     -43.044 -53.198  12.974  1.00  0.00     0.164 HD
ENDROOT
BRANCH   9  11
HETATM   11  C   UNL     1     -45.154 -53.140  12.857  1.00  0.00     0.129 C 
BRANCH  11  12
HETATM   12  C   UNL     1     -45.421 -51.653  13.116  1.00  0.00     0.060 C 
BRANCH  12  13
HETATM   13  C   UNL     1     -45.769 -51.352  14.551  1.00  0.00    -0.041 A 
HETATM   14  C   UNL     1     -47.018 -51.675  15.083  1.00  0.00     0.010 A 
HETATM   15  C   UNL     1     -47.323 -51.320  16.394  1.00  0.00     0.025 A 
HETATM   16  C   UNL     1     -46.367 -50.653  17.150  1.00  0.00     0.005 A 
HETATM   17  C   UNL     1     -46.676 -50.189  18.541  1.00  0.00     0.068 C 
HETATM   18  N   UNL     1     -45.138 -50.352  16.667  1.00  0.00    -0.369 N 
HETATM   19  C   UNL     1     -44.867 -50.713  15.392  1.00  0.00     0.095 A 
ATOM     20  HN  UNL     1     -44.445 -49.873  17.241  1.00  0.00     0.165 HD
ENDBRANCH  12  13
ENDBRANCH  11  12
ENDBRANCH   9  11
BRANCH   1  21
HETATM   21  C   UNL     1     -40.651 -52.437  15.768  1.00  0.00    -0.007 C 
HETATM   22  C   UNL     1     -39.498 -51.743  16.512  1.00  0.00     0.011 C 
HETATM   23  C   UNL     1     -41.150 -51.483  14.677  1.00  0.00     0.011 C 
ENDBRANCH   1  21
TORSDOF 4
ENDMDL
