MODEL 1
REMARK VINA RESULT:      -6.2      0.000      0.000
REMARK  5 active torsions:
REMARK  status: ('A' for Active; 'I' for Inactive)
REMARK    1  A    between atoms: C_2  and  C_3 
REMARK    2  A    between atoms: C_6  and  C_7 
REMARK    3  A    between atoms: C_7  and  C_8 
REMARK    4  A    between atoms: C_8  and  N_9 
REMARK       I    between atoms: N_9  and  C_10 
REMARK    5  A    between atoms: C_10  and  C_12 
ROOT
HETATM    1  C   UNL     1     -42.377 -48.642  12.317  1.00  0.00     0.129 C 
ENDROOT
BRANCH   1   2
HETATM    2  C   UNL     1     -41.920 -50.103  12.346  1.00  0.00     0.084 C 
BRANCH   2   3
HETATM    3  C   UNL     1     -43.040 -51.031  12.708  1.00  0.00     0.053 A 
HETATM    4  N   UNL     1     -44.265 -50.658  13.002  1.00  0.00    -0.356 N 
HETATM    5  C   UNL     1     -45.065 -51.763  13.244  1.00  0.00     0.022 A 
ATOM      6  HN  UNL     1     -44.583 -49.690  13.047  1.00  0.00     0.166 HD
HETATM    7  C   UNL     1     -44.409 -52.982  13.168  1.00  0.00     0.003 A 
HETATM    8  S   UNL     1     -42.763 -52.727  12.758  1.00  0.00    -0.080 SA
HETATM    9  C   UNL     1     -44.944 -54.354  13.376  1.00  0.00     0.058 C 
BRANCH   5  10
HETATM   10  C   UNL     1     -46.510 -51.527  13.546  1.00  0.00     0.054 C 
HETATM   11  C   UNL     1     -46.783 -51.452  15.039  1.00  0.00     0.011 C 
ENDBRANCH   5  10
ENDBRANCH   2   3
ENDBRANCH   1   2
BRANCH   1  12
HETATM   12  N   UNL     1     -43.315 -48.372  11.236  1.00  0.00    -0.360 N 
HETATM   13  C   UNL     1     -42.980 -47.541  10.187  1.00  0.00     0.226 C 
HETATM   14  O   UNL     1     -41.898 -46.961  10.136  1.00  0.00    -0.273 OA
HETATM   15  H   UNL     1     -44.216 -48.830  11.250  1.00  0.00     0.162 HD
BRANCH  13  16
HETATM   16  C   UNL     1     -44.081 -47.338   9.137  1.00  0.00     0.037 C 
HETATM   17  C   UNL     1     -43.612 -47.921   7.795  1.00  0.00     0.025 C 
HETATM   18  C   UNL     1     -44.483 -45.857   8.983  1.00  0.00     0.019 C 
HETATM   19  C   UNL     1     -46.005 -45.824   8.799  1.00  0.00     0.001 C 
HETATM   20  C   UNL     1     -46.479 -47.269   8.833  1.00  0.00     0.001 C 
HETATM   21  C   UNL     1     -45.392 -48.001   9.597  1.00  0.00     0.019 C 
ENDBRANCH  13  16
ENDBRANCH   1  12
TORSDOF 5
ENDMDL
MODEL 2
REMARK VINA RESULT:      -6.2      2.627      6.408
REMARK  5 active torsions:
REMARK  status: ('A' for Active; 'I' for Inactive)
REMARK    1  A    between atoms: C_2  and  C_3 
REMARK    2  A    between atoms: C_6  and  C_7 
REMARK    3  A    between atoms: C_7  and  C_8 
REMARK    4  A    between atoms: C_8  and  N_9 
REMARK       I    between atoms: N_9  and  C_10 
REMARK    5  A    between atoms: C_10  and  C_12 
ROOT
HETATM    1  C   UNL     1     -42.104 -52.148  12.107  1.00  0.00     0.129 C 
ENDROOT
BRANCH   1   2
HETATM    2  C   UNL     1     -41.004 -51.164  12.514  1.00  0.00     0.084 C 
BRANCH   2   3
HETATM    3  C   UNL     1     -41.191 -49.822  11.874  1.00  0.00     0.053 A 
HETATM    4  N   UNL     1     -42.293 -49.413  11.286  1.00  0.00    -0.356 N 
HETATM    5  C   UNL     1     -42.150 -48.109  10.840  1.00  0.00     0.022 A 
ATOM      6  HN  UNL     1     -43.136 -49.977  11.172  1.00  0.00     0.166 HD
HETATM    7  C   UNL     1     -40.902 -47.552  11.067  1.00  0.00     0.003 A 
HETATM    8  S   UNL     1     -39.903 -48.684  11.878  1.00  0.00    -0.080 SA
HETATM    9  C   UNL     1     -40.399 -46.196  10.718  1.00  0.00     0.058 C 
BRANCH   5  10
HETATM   10  C   UNL     1     -43.330 -47.461  10.188  1.00  0.00     0.054 C 
HETATM   11  C   UNL     1     -43.286 -47.575   8.673  1.00  0.00     0.011 C 
ENDBRANCH   5  10
ENDBRANCH   2   3
ENDBRANCH   1   2
BRANCH   1  12
HETATM   12  N   UNL     1     -43.390 -51.829  12.709  1.00  0.00    -0.360 N 
HETATM   13  C   UNL     1     -44.422 -52.746  12.725  1.00  0.00     0.226 C 
HETATM   14  O   UNL     1     -44.319 -53.851  12.199  1.00  0.00    -0.273 OA
HETATM   15  H   UNL     1     -43.510 -50.926  13.148  1.00  0.00     0.162 HD
BRANCH  13  16
HETATM   16  C   UNL     1     -45.722 -52.255  13.376  1.00  0.00     0.037 C 
HETATM   17  C   UNL     1     -46.707 -51.828  12.277  1.00  0.00     0.025 C 
HETATM   18  C   UNL     1     -45.483 -51.106  14.377  1.00  0.00     0.019 C 
HETATM   19  C   UNL     1     -46.421 -51.347  15.566  1.00  0.00     0.001 C 
HETATM   20  C   UNL     1     -47.204 -52.613  15.254  1.00  0.00     0.001 C 
HETATM   21  C   UNL     1     -46.330 -53.358  14.262  1.00  0.00     0.019 C 
ENDBRANCH  13  16
ENDBRANCH   1  12
TORSDOF 5
ENDMDL
MODEL 3
REMARK VINA RESULT:      -6.0      3.685      6.752
REMARK  5 active torsions:
REMARK  status: ('A' for Active; 'I' for Inactive)
REMARK    1  A    between atoms: C_2  and  C_3 
REMARK    2  A    between atoms: C_6  and  C_7 
REMARK    3  A    between atoms: C_7  and  C_8 
REMARK    4  A    between atoms: C_8  and  N_9 
REMARK       I    between atoms: N_9  and  C_10 
REMARK    5  A    between atoms: C_10  and  C_12 
ROOT
HETATM    1  C   UNL     1     -41.714 -54.056  13.779  1.00  0.00     0.129 C 
ENDROOT
BRANCH   1   2
HETATM    2  C   UNL     1     -40.962 -53.723  12.488  1.00  0.00     0.084 C 
BRANCH   2   3
HETATM    3  C   UNL     1     -40.603 -52.270  12.410  1.00  0.00     0.053 A 
HETATM    4  N   UNL     1     -41.074 -51.422  11.524  1.00  0.00    -0.356 N 
HETATM    5  C   UNL     1     -40.578 -50.150  11.757  1.00  0.00     0.022 A 
ATOM      6  HN  UNL     1     -41.716 -51.666  10.769  1.00  0.00     0.166 HD
HETATM    7  C   UNL     1     -39.687 -50.059  12.815  1.00  0.00     0.003 A 
HETATM    8  S   UNL     1     -39.494 -51.601  13.540  1.00  0.00    -0.080 SA
HETATM    9  C   UNL     1     -38.961 -48.870  13.335  1.00  0.00     0.058 C 
BRANCH   5  10
HETATM   10  C   UNL     1     -41.051 -49.042  10.870  1.00  0.00     0.054 C 
HETATM   11  C   UNL     1     -42.343 -48.416  11.368  1.00  0.00     0.011 C 
ENDBRANCH   5  10
ENDBRANCH   2   3
ENDBRANCH   1   2
BRANCH   1  12
HETATM   12  N   UNL     1     -43.069 -53.526  13.788  1.00  0.00    -0.360 N 
HETATM   13  C   UNL     1     -44.112 -54.233  14.351  1.00  0.00     0.226 C 
HETATM   14  O   UNL     1     -43.956 -55.354  14.829  1.00  0.00    -0.273 OA
HETATM   15  H   UNL     1     -43.234 -52.608  13.399  1.00  0.00     0.162 HD
BRANCH  13  16
HETATM   16  C   UNL     1     -45.485 -53.552  14.264  1.00  0.00     0.037 C 
HETATM   17  C   UNL     1     -46.575 -54.565  14.649  1.00  0.00     0.025 C 
HETATM   18  C   UNL     1     -45.760 -52.952  12.871  1.00  0.00     0.019 C 
HETATM   19  C   UNL     1     -46.476 -51.615  13.093  1.00  0.00     0.001 C 
HETATM   20  C   UNL     1     -46.628 -51.447  14.597  1.00  0.00     0.001 C 
HETATM   21  C   UNL     1     -45.532 -52.317  15.183  1.00  0.00     0.019 C 
ENDBRANCH  13  16
ENDBRANCH   1  12
TORSDOF 5
ENDMDL
MODEL 4
REMARK VINA RESULT:      -6.0      4.676      6.899
REMARK  5 active torsions:
REMARK  status: ('A' for Active; 'I' for Inactive)
REMARK    1  A    between atoms: C_2  and  C_3 
REMARK    2  A    between atoms: C_6  and  C_7 
REMARK    3  A    between atoms: C_7  and  C_8 
REMARK    4  A    between atoms: C_8  and  N_9 
REMARK       I    between atoms: N_9  and  C_10 
REMARK    5  A    between atoms: C_10  and  C_12 
ROOT
HETATM    1  C   UNL     1     -42.334 -54.215  13.727  1.00  0.00     0.129 C 
ENDROOT
BRANCH   1   2
HETATM    2  C   UNL     1     -41.553 -53.753  12.493  1.00  0.00     0.084 C 
BRANCH   2   3
HETATM    3  C   UNL     1     -40.541 -52.703  12.834  1.00  0.00     0.053 A 
HETATM    4  N   UNL     1     -40.190 -51.708  12.050  1.00  0.00    -0.356 N 
HETATM    5  C   UNL     1     -39.267 -50.892  12.682  1.00  0.00     0.022 A 
ATOM      6  HN  UNL     1     -40.548 -51.558  11.106  1.00  0.00     0.166 HD
HETATM    7  C   UNL     1     -38.893 -51.312  13.949  1.00  0.00     0.003 A 
HETATM    8  S   UNL     1     -39.741 -52.746  14.355  1.00  0.00    -0.080 SA
HETATM    9  C   UNL     1     -37.929 -50.695  14.899  1.00  0.00     0.058 C 
BRANCH   5  10
HETATM   10  C   UNL     1     -38.794 -49.676  11.952  1.00  0.00     0.054 C 
HETATM   11  C   UNL     1     -37.467 -49.906  11.247  1.00  0.00     0.011 C 
ENDBRANCH   5  10
ENDBRANCH   2   3
ENDBRANCH   1   2
BRANCH   1  12
HETATM   12  N   UNL     1     -43.412 -53.302  14.078  1.00  0.00    -0.360 N 
HETATM   13  C   UNL     1     -44.670 -53.430  13.524  1.00  0.00     0.226 C 
HETATM   14  O   UNL     1     -44.926 -54.288  12.682  1.00  0.00    -0.273 OA
HETATM   15  H   UNL     1     -43.234 -52.582  14.765  1.00  0.00     0.162 HD
BRANCH  13  16
HETATM   16  C   UNL     1     -45.694 -52.381  13.978  1.00  0.00     0.037 C 
HETATM   17  C   UNL     1     -46.337 -51.736  12.740  1.00  0.00     0.025 C 
HETATM   18  C   UNL     1     -45.072 -51.308  14.896  1.00  0.00     0.019 C 
HETATM   19  C   UNL     1     -46.106 -51.001  15.987  1.00  0.00     0.001 C 
HETATM   20  C   UNL     1     -47.317 -51.874  15.697  1.00  0.00     0.001 C 
HETATM   21  C   UNL     1     -46.761 -53.026  14.880  1.00  0.00     0.019 C 
ENDBRANCH  13  16
ENDBRANCH   1  12
TORSDOF 5
ENDMDL
MODEL 5
REMARK VINA RESULT:      -5.9      2.467      6.423
REMARK  5 active torsions:
REMARK  status: ('A' for Active; 'I' for Inactive)
REMARK    1  A    between atoms: C_2  and  C_3 
REMARK    2  A    between atoms: C_6  and  C_7 
REMARK    3  A    between atoms: C_7  and  C_8 
REMARK    4  A    between atoms: C_8  and  N_9 
REMARK       I    between atoms: N_9  and  C_10 
REMARK    5  A    between atoms: C_10  and  C_12 
ROOT
HETATM    1  C   UNL     1     -41.334 -51.053  11.836  1.00  0.00     0.129 C 
ENDROOT
BRANCH   1   2
HETATM    2  C   UNL     1     -40.767 -49.688  12.233  1.00  0.00     0.084 C 
BRANCH   2   3
HETATM    3  C   UNL     1     -41.414 -48.572  11.471  1.00  0.00     0.053 A 
HETATM    4  N   UNL     1     -42.061 -48.708  10.335  1.00  0.00    -0.356 N 
HETATM    5  C   UNL     1     -42.576 -47.491   9.921  1.00  0.00     0.022 A 
ATOM      6  HN  UNL     1     -42.170 -49.587   9.830  1.00  0.00     0.166 HD
HETATM    7  C   UNL     1     -42.270 -46.420  10.746  1.00  0.00     0.003 A 
HETATM    8  S   UNL     1     -41.339 -46.965  12.078  1.00  0.00    -0.080 SA
HETATM    9  C   UNL     1     -42.642 -44.987  10.605  1.00  0.00     0.058 C 
BRANCH   5  10
HETATM   10  C   UNL     1     -43.390 -47.468   8.667  1.00  0.00     0.054 C 
HETATM   11  C   UNL     1     -44.883 -47.522   8.946  1.00  0.00     0.011 C 
ENDBRANCH   5  10
ENDBRANCH   2   3
ENDBRANCH   1   2
BRANCH   1  12
HETATM   12  N   UNL     1     -42.639 -51.310  12.428  1.00  0.00    -0.360 N 
HETATM   13  C   UNL     1     -42.945 -52.534  12.985  1.00  0.00     0.226 C 
HETATM   14  O   UNL     1     -42.152 -53.473  12.972  1.00  0.00    -0.273 OA
HETATM   15  H   UNL     1     -43.316 -50.560  12.452  1.00  0.00     0.162 HD
BRANCH  13  16
HETATM   16  C   UNL     1     -44.367 -52.658  13.550  1.00  0.00     0.037 C 
HETATM   17  C   UNL     1     -44.463 -53.934  14.400  1.00  0.00     0.025 C 
HETATM   18  C   UNL     1     -45.443 -52.651  12.445  1.00  0.00     0.019 C 
HETATM   19  C   UNL     1     -46.623 -51.828  12.976  1.00  0.00     0.001 C 
HETATM   20  C   UNL     1     -46.242 -51.373  14.377  1.00  0.00     0.001 C 
HETATM   21  C   UNL     1     -44.725 -51.413  14.383  1.00  0.00     0.019 C 
ENDBRANCH  13  16
ENDBRANCH   1  12
TORSDOF 5
ENDMDL
MODEL 6
REMARK VINA RESULT:      -5.8      4.713      7.220
REMARK  5 active torsions:
REMARK  status: ('A' for Active; 'I' for Inactive)
REMARK    1  A    between atoms: C_2  and  C_3 
REMARK    2  A    between atoms: C_6  and  C_7 
REMARK    3  A    between atoms: C_7  and  C_8 
REMARK    4  A    between atoms: C_8  and  N_9 
REMARK       I    between atoms: N_9  and  C_10 
REMARK    5  A    between atoms: C_10  and  C_12 
ROOT
HETATM    1  C   UNL     1     -41.830 -54.023  14.873  1.00  0.00     0.129 C 
ENDROOT
BRANCH   1   2
HETATM    2  C   UNL     1     -41.047 -54.117  13.562  1.00  0.00     0.084 C 
BRANCH   2   3
HETATM    3  C   UNL     1     -40.348 -52.832  13.236  1.00  0.00     0.053 A 
HETATM    4  N   UNL     1     -39.188 -52.456  13.727  1.00  0.00    -0.356 N 
HETATM    5  C   UNL     1     -38.803 -51.240  13.187  1.00  0.00     0.022 A 
ATOM      6  HN  UNL     1     -38.647 -52.986  14.410  1.00  0.00     0.166 HD
HETATM    7  C   UNL     1     -39.716 -50.680  12.307  1.00  0.00     0.003 A 
HETATM    8  S   UNL     1     -41.069 -51.720  12.140  1.00  0.00    -0.080 SA
HETATM    9  C   UNL     1     -39.638 -49.396  11.561  1.00  0.00     0.058 C 
BRANCH   5  10
HETATM   10  C   UNL     1     -37.477 -50.683  13.597  1.00  0.00     0.054 C 
HETATM   11  C   UNL     1     -37.604 -49.632  14.687  1.00  0.00     0.011 C 
ENDBRANCH   5  10
ENDBRANCH   2   3
ENDBRANCH   1   2
BRANCH   1  12
HETATM   12  N   UNL     1     -43.165 -53.472  14.688  1.00  0.00    -0.360 N 
HETATM   13  C   UNL     1     -44.278 -54.287  14.649  1.00  0.00     0.226 C 
HETATM   14  O   UNL     1     -44.193 -55.510  14.726  1.00  0.00    -0.273 OA
HETATM   15  H   UNL     1     -43.271 -52.469  14.617  1.00  0.00     0.162 HD
BRANCH  13  16
HETATM   16  C   UNL     1     -45.612 -53.560  14.426  1.00  0.00     0.037 C 
HETATM   17  C   UNL     1     -46.768 -54.525  14.732  1.00  0.00     0.025 C 
HETATM   18  C   UNL     1     -45.739 -52.983  13.002  1.00  0.00     0.019 C 
HETATM   19  C   UNL     1     -46.423 -51.617  13.132  1.00  0.00     0.001 C 
HETATM   20  C   UNL     1     -46.703 -51.410  14.613  1.00  0.00     0.001 C 
HETATM   21  C   UNL     1     -45.695 -52.304  15.312  1.00  0.00     0.019 C 
ENDBRANCH  13  16
ENDBRANCH   1  12
TORSDOF 5
ENDMDL
MODEL 7
REMARK VINA RESULT:      -5.6      2.485      3.545
REMARK  5 active torsions:
REMARK  status: ('A' for Active; 'I' for Inactive)
REMARK    1  A    between atoms: C_2  and  C_3 
REMARK    2  A    between atoms: C_6  and  C_7 
REMARK    3  A    between atoms: C_7  and  C_8 
REMARK    4  A    between atoms: C_8  and  N_9 
REMARK       I    between atoms: N_9  and  C_10 
REMARK    5  A    between atoms: C_10  and  C_12 
ROOT
HETATM    1  C   UNL     1     -41.444 -52.212  11.745  1.00  0.00     0.129 C 
ENDROOT
BRANCH   1   2
HETATM    2  C   UNL     1     -42.084 -52.892  12.958  1.00  0.00     0.084 C 
BRANCH   2   3
HETATM    3  C   UNL     1     -43.533 -52.535  13.099  1.00  0.00     0.053 A 
HETATM    4  N   UNL     1     -44.443 -52.690  12.164  1.00  0.00    -0.356 N 
HETATM    5  C   UNL     1     -45.689 -52.306  12.631  1.00  0.00     0.022 A 
ATOM      6  HN  UNL     1     -44.258 -53.043  11.225  1.00  0.00     0.166 HD
HETATM    7  C   UNL     1     -45.698 -51.817  13.928  1.00  0.00     0.003 A 
HETATM    8  S   UNL     1     -44.111 -51.869  14.575  1.00  0.00    -0.080 SA
HETATM    9  C   UNL     1     -46.840 -51.312  14.736  1.00  0.00     0.058 C 
BRANCH   5  10
HETATM   10  C   UNL     1     -46.858 -52.463  11.711  1.00  0.00     0.054 C 
HETATM   11  C   UNL     1     -47.269 -51.148  11.070  1.00  0.00     0.011 C 
ENDBRANCH   5  10
ENDBRANCH   2   3
ENDBRANCH   1   2
BRANCH   1  12
HETATM   12  N   UNL     1     -41.691 -50.778  11.715  1.00  0.00    -0.360 N 
HETATM   13  C   UNL     1     -40.655 -49.874  11.599  1.00  0.00     0.226 C 
HETATM   14  O   UNL     1     -39.480 -50.232  11.558  1.00  0.00    -0.273 OA
HETATM   15  H   UNL     1     -42.646 -50.449  11.751  1.00  0.00     0.162 HD
BRANCH  13  16
HETATM   16  C   UNL     1     -41.073 -48.397  11.602  1.00  0.00     0.037 C 
HETATM   17  C   UNL     1     -39.813 -47.517  11.594  1.00  0.00     0.025 C 
HETATM   18  C   UNL     1     -41.982 -48.044  12.797  1.00  0.00     0.019 C 
HETATM   19  C   UNL     1     -43.049 -47.074  12.274  1.00  0.00     0.001 C 
HETATM   20  C   UNL     1     -42.755 -46.857  10.798  1.00  0.00     0.001 C 
HETATM   21  C   UNL     1     -41.968 -48.088  10.389  1.00  0.00     0.019 C 
ENDBRANCH  13  16
ENDBRANCH   1  12
TORSDOF 5
ENDMDL
MODEL 8
REMARK VINA RESULT:      -5.5      4.516      6.565
REMARK  5 active torsions:
REMARK  status: ('A' for Active; 'I' for Inactive)
REMARK    1  A    between atoms: C_2  and  C_3 
REMARK    2  A    between atoms: C_6  and  C_7 
REMARK    3  A    between atoms: C_7  and  C_8 
REMARK    4  A    between atoms: C_8  and  N_9 
REMARK       I    between atoms: N_9  and  C_10 
REMARK    5  A    between atoms: C_10  and  C_12 
ROOT
HETATM    1  C   UNL     1     -42.181 -52.691  12.008  1.00  0.00     0.129 C 
ENDROOT
BRANCH   1   2
HETATM    2  C   UNL     1     -40.939 -51.889  12.404  1.00  0.00     0.084 C 
BRANCH   2   3
HETATM    3  C   UNL     1     -40.366 -52.354  13.708  1.00  0.00     0.053 A 
HETATM    4  N   UNL     1     -40.414 -53.589  14.157  1.00  0.00    -0.356 N 
HETATM    5  C   UNL     1     -39.752 -53.690  15.370  1.00  0.00     0.022 A 
ATOM      6  HN  UNL     1     -40.874 -54.364  13.679  1.00  0.00     0.166 HD
HETATM    7  C   UNL     1     -39.237 -52.498  15.852  1.00  0.00     0.003 A 
HETATM    8  S   UNL     1     -39.572 -51.234  14.743  1.00  0.00    -0.080 SA
HETATM    9  C   UNL     1     -38.487 -52.236  17.109  1.00  0.00     0.058 C 
BRANCH   5  10
HETATM   10  C   UNL     1     -39.663 -55.042  16.005  1.00  0.00     0.054 C 
HETATM   11  C   UNL     1     -38.259 -55.620  15.936  1.00  0.00     0.011 C 
ENDBRANCH   5  10
ENDBRANCH   2   3
ENDBRANCH   1   2
BRANCH   1  12
HETATM   12  N   UNL     1     -43.396 -52.182  12.627  1.00  0.00    -0.360 N 
HETATM   13  C   UNL     1     -44.521 -52.971  12.755  1.00  0.00     0.226 C 
HETATM   14  O   UNL     1     -44.564 -54.119  12.319  1.00  0.00    -0.273 OA
HETATM   15  H   UNL     1     -43.396 -51.240  12.993  1.00  0.00     0.162 HD
BRANCH  13  16
HETATM   16  C   UNL     1     -45.729 -52.286  13.409  1.00  0.00     0.037 C 
HETATM   17  C   UNL     1     -46.681 -51.786  12.311  1.00  0.00     0.025 C 
HETATM   18  C   UNL     1     -45.317 -51.132  14.346  1.00  0.00     0.019 C 
HETATM   19  C   UNL     1     -46.244 -51.193  15.565  1.00  0.00     0.001 C 
HETATM   20  C   UNL     1     -47.192 -52.360  15.333  1.00  0.00     0.001 C 
HETATM   21  C   UNL     1     -46.448 -53.258  14.361  1.00  0.00     0.019 C 
ENDBRANCH  13  16
ENDBRANCH   1  12
TORSDOF 5
ENDMDL
MODEL 9
REMARK VINA RESULT:      -5.5      4.470      5.911
REMARK  5 active torsions:
REMARK  status: ('A' for Active; 'I' for Inactive)
REMARK    1  A    between atoms: C_2  and  C_3 
REMARK    2  A    between atoms: C_6  and  C_7 
REMARK    3  A    between atoms: C_7  and  C_8 
REMARK    4  A    between atoms: C_8  and  N_9 
REMARK       I    between atoms: N_9  and  C_10 
REMARK    5  A    between atoms: C_10  and  C_12 
ROOT
HETATM    1  C   UNL     1     -41.383 -54.060  13.157  1.00  0.00     0.129 C 
ENDROOT
BRANCH   1   2
HETATM    2  C   UNL     1     -42.382 -54.240  14.303  1.00  0.00     0.084 C 
BRANCH   2   3
HETATM    3  C   UNL     1     -43.652 -53.482  14.060  1.00  0.00     0.053 A 
HETATM    4  N   UNL     1     -44.323 -52.819  14.976  1.00  0.00    -0.356 N 
HETATM    5  C   UNL     1     -45.424 -52.194  14.413  1.00  0.00     0.022 A 
ATOM      6  HN  UNL     1     -44.069 -52.771  15.962  1.00  0.00     0.166 HD
HETATM    7  C   UNL     1     -45.598 -52.432  13.059  1.00  0.00     0.003 A 
HETATM    8  S   UNL     1     -44.335 -53.439  12.483  1.00  0.00    -0.080 SA
HETATM    9  C   UNL     1     -46.662 -51.938  12.146  1.00  0.00     0.058 C 
BRANCH   5  10
HETATM   10  C   UNL     1     -46.277 -51.349  15.304  1.00  0.00     0.054 C 
HETATM   11  C   UNL     1     -45.481 -50.711  16.430  1.00  0.00     0.011 C 
ENDBRANCH   5  10
ENDBRANCH   2   3
ENDBRANCH   1   2
BRANCH   1  12
HETATM   12  N   UNL     1     -40.788 -52.731  13.138  1.00  0.00    -0.360 N 
HETATM   13  C   UNL     1     -39.468 -52.532  13.489  1.00  0.00     0.226 C 
HETATM   14  O   UNL     1     -38.749 -53.452  13.870  1.00  0.00    -0.273 OA
HETATM   15  H   UNL     1     -41.353 -51.951  12.834  1.00  0.00     0.162 HD
BRANCH  13  16
HETATM   16  C   UNL     1     -38.993 -51.073  13.440  1.00  0.00     0.037 C 
HETATM   17  C   UNL     1     -38.711 -50.586  14.870  1.00  0.00     0.025 C 
HETATM   18  C   UNL     1     -40.002 -50.147  12.732  1.00  0.00     0.019 C 
HETATM   19  C   UNL     1     -39.187 -49.154  11.894  1.00  0.00     0.001 C 
HETATM   20  C   UNL     1     -37.722 -49.492  12.123  1.00  0.00     0.001 C 
HETATM   21  C   UNL     1     -37.737 -50.946  12.558  1.00  0.00     0.019 C 
ENDBRANCH  13  16
ENDBRANCH   1  12
TORSDOF 5
ENDMDL
