MODEL 1
REMARK VINA RESULT:      -6.4      0.000      0.000
REMARK  3 active torsions:
REMARK  status: ('A' for Active; 'I' for Inactive)
REMARK    1  A    between atoms: C_8  and  N_9 
REMARK       I    between atoms: N_9  and  C_10 
REMARK       I    between atoms: C_10  and  N_12 
REMARK    2  A    between atoms: N_12  and  C_13 
REMARK    3  A    between atoms: C_13  and  C_14 
ROOT
HETATM    1  N   UNL     1     -41.770 -48.150   9.775  1.00  0.00    -0.305 N 
HETATM    2  C   UNL     1     -41.410 -48.856  10.898  1.00  0.00     0.320 C 
HETATM    3  O   UNL     1     -41.667 -48.564  12.061  1.00  0.00    -0.247 OA
HETATM    4  N   UNL     1     -40.709 -50.008  10.614  1.00  0.00    -0.340 N 
HETATM    5  H   UNL     1     -41.628 -48.600   8.885  1.00  0.00     0.171 HD
HETATM    6  H   UNL     1     -40.174 -50.055   9.758  1.00  0.00     0.164 HD
ENDROOT
BRANCH   1   7
HETATM    7  C   UNL     1     -42.433 -46.923   9.770  1.00  0.00     0.092 A 
HETATM    8  C   UNL     1     -43.773 -46.673   9.323  1.00  0.00     0.058 A 
HETATM    9  C   UNL     1     -44.787 -47.601   8.774  1.00  0.00     0.072 C 
HETATM   10  N   UNL     1     -44.102 -45.384   9.447  1.00  0.00    -0.263 N 
HETATM   11  O   UNL     1     -43.001 -44.765   9.977  1.00  0.00    -0.240 OA
ATOM     12  HN  UNL     1     -44.991 -44.951   9.199  1.00  0.00     0.194 HD
HETATM   13  C   UNL     1     -42.003 -45.670  10.170  1.00  0.00     0.101 A 
HETATM   14  C   UNL     1     -40.772 -45.077  10.735  1.00  0.00     0.081 C 
ENDBRANCH   1   7
BRANCH   4  15
HETATM   15  C   UNL     1     -40.214 -50.832  11.715  1.00  0.00     0.156 C 
BRANCH  15  16
HETATM   16  C   UNL     1     -40.928 -52.180  11.861  1.00  0.00     0.139 C 
HETATM   17  C   UNL     1     -42.298 -52.184  12.517  1.00  0.00     0.035 C 
HETATM   18  C   UNL     1     -42.433 -53.603  13.031  1.00  0.00     0.029 C 
HETATM   19  C   UNL     1     -41.020 -54.158  13.015  1.00  0.00     0.168 C 
HETATM   20  O   UNL     1     -40.146 -53.073  12.677  1.00  0.00    -0.384 OA
ENDBRANCH  15  16
ENDBRANCH   4  15
TORSDOF 3
ENDMDL
MODEL 2
REMARK VINA RESULT:      -6.3      1.851      6.206
REMARK  3 active torsions:
REMARK  status: ('A' for Active; 'I' for Inactive)
REMARK    1  A    between atoms: C_8  and  N_9 
REMARK       I    between atoms: N_9  and  C_10 
REMARK       I    between atoms: C_10  and  N_12 
REMARK    2  A    between atoms: N_12  and  C_13 
REMARK    3  A    between atoms: C_13  and  C_14 
ROOT
HETATM    1  N   UNL     1     -40.686 -49.818  10.433  1.00  0.00    -0.305 N 
HETATM    2  C   UNL     1     -41.417 -48.669  10.622  1.00  0.00     0.320 C 
HETATM    3  O   UNL     1     -41.572 -48.064  11.677  1.00  0.00    -0.247 OA
HETATM    4  N   UNL     1     -41.993 -48.194   9.463  1.00  0.00    -0.340 N 
HETATM    5  H   UNL     1     -40.520 -50.104   9.481  1.00  0.00     0.171 HD
HETATM    6  H   UNL     1     -42.202 -48.846   8.720  1.00  0.00     0.164 HD
ENDROOT
BRANCH   1   7
HETATM    7  C   UNL     1     -40.047 -50.544  11.437  1.00  0.00     0.092 A 
HETATM    8  C   UNL     1     -40.644 -51.520  12.301  1.00  0.00     0.058 A 
HETATM    9  C   UNL     1     -42.037 -52.017  12.367  1.00  0.00     0.072 C 
HETATM   10  N   UNL     1     -39.754 -52.028  13.159  1.00  0.00    -0.263 N 
HETATM   11  O   UNL     1     -38.565 -51.409  12.879  1.00  0.00    -0.240 OA
ATOM     12  HN  UNL     1     -39.926 -52.734  13.876  1.00  0.00     0.194 HD
HETATM   13  C   UNL     1     -38.729 -50.523  11.859  1.00  0.00     0.101 A 
HETATM   14  C   UNL     1     -37.488 -49.804  11.499  1.00  0.00     0.081 C 
ENDBRANCH   1   7
BRANCH   4  15
HETATM   15  C   UNL     1     -42.845 -47.008   9.523  1.00  0.00     0.156 C 
BRANCH  15  16
HETATM   16  C   UNL     1     -44.196 -47.168   8.819  1.00  0.00     0.139 C 
HETATM   17  C   UNL     1     -45.389 -47.574   9.668  1.00  0.00     0.035 C 
HETATM   18  C   UNL     1     -46.333 -48.203   8.663  1.00  0.00     0.029 C 
HETATM   19  C   UNL     1     -45.470 -48.491   7.447  1.00  0.00     0.168 C 
HETATM   20  O   UNL     1     -44.116 -48.197   7.814  1.00  0.00    -0.384 OA
ENDBRANCH  15  16
ENDBRANCH   4  15
TORSDOF 3
ENDMDL
MODEL 3
REMARK VINA RESULT:      -6.1      0.686      2.010
REMARK  3 active torsions:
REMARK  status: ('A' for Active; 'I' for Inactive)
REMARK    1  A    between atoms: C_8  and  N_9 
REMARK       I    between atoms: N_9  and  C_10 
REMARK       I    between atoms: C_10  and  N_12 
REMARK    2  A    between atoms: N_12  and  C_13 
REMARK    3  A    between atoms: C_13  and  C_14 
ROOT
HETATM    1  N   UNL     1     -41.882 -48.240   9.697  1.00  0.00    -0.305 N 
HETATM    2  C   UNL     1     -41.666 -48.938  10.862  1.00  0.00     0.320 C 
HETATM    3  O   UNL     1     -42.259 -48.790  11.925  1.00  0.00    -0.247 OA
HETATM    4  N   UNL     1     -40.682 -49.896  10.747  1.00  0.00    -0.340 N 
HETATM    5  H   UNL     1     -41.429 -48.585   8.865  1.00  0.00     0.171 HD
HETATM    6  H   UNL     1     -39.955 -49.768  10.057  1.00  0.00     0.164 HD
ENDROOT
BRANCH   1   7
HETATM    7  C   UNL     1     -42.774 -47.179   9.543  1.00  0.00     0.092 A 
HETATM    8  C   UNL     1     -42.631 -45.855  10.075  1.00  0.00     0.058 A 
HETATM    9  C   UNL     1     -41.548 -45.263  10.890  1.00  0.00     0.072 C 
HETATM   10  N   UNL     1     -43.668 -45.078   9.747  1.00  0.00    -0.263 N 
HETATM   11  O   UNL     1     -44.504 -45.863   8.998  1.00  0.00    -0.240 OA
ATOM     12  HN  UNL     1     -43.808 -44.101  10.003  1.00  0.00     0.194 HD
HETATM   13  C   UNL     1     -43.983 -47.114   8.873  1.00  0.00     0.101 A 
HETATM   14  C   UNL     1     -44.833 -48.029   8.082  1.00  0.00     0.081 C 
ENDBRANCH   1   7
BRANCH   4  15
HETATM   15  C   UNL     1     -40.307 -50.678  11.923  1.00  0.00     0.156 C 
BRANCH  15  16
HETATM   16  C   UNL     1     -40.941 -52.072  11.979  1.00  0.00     0.139 C 
HETATM   17  C   UNL     1     -42.267 -52.214  12.708  1.00  0.00     0.035 C 
HETATM   18  C   UNL     1     -42.298 -53.680  13.090  1.00  0.00     0.029 C 
HETATM   19  C   UNL     1     -40.862 -54.151  12.941  1.00  0.00     0.168 C 
HETATM   20  O   UNL     1     -40.067 -52.992  12.659  1.00  0.00    -0.384 OA
ENDBRANCH  15  16
ENDBRANCH   4  15
TORSDOF 3
ENDMDL
MODEL 4
REMARK VINA RESULT:      -6.1      1.749      6.449
REMARK  3 active torsions:
REMARK  status: ('A' for Active; 'I' for Inactive)
REMARK    1  A    between atoms: C_8  and  N_9 
REMARK       I    between atoms: N_9  and  C_10 
REMARK       I    between atoms: C_10  and  N_12 
REMARK    2  A    between atoms: N_12  and  C_13 
REMARK    3  A    between atoms: C_13  and  C_14 
ROOT
HETATM    1  N   UNL     1     -40.704 -49.767  10.528  1.00  0.00    -0.305 N 
HETATM    2  C   UNL     1     -41.467 -48.635  10.695  1.00  0.00     0.320 C 
HETATM    3  O   UNL     1     -41.728 -48.078  11.756  1.00  0.00    -0.247 OA
HETATM    4  N   UNL     1     -41.938 -48.117   9.508  1.00  0.00    -0.340 N 
HETATM    5  H   UNL     1     -40.446 -50.010   9.585  1.00  0.00     0.171 HD
HETATM    6  H   UNL     1     -42.068 -48.738   8.722  1.00  0.00     0.164 HD
ENDROOT
BRANCH   1   7
HETATM    7  C   UNL     1     -40.152 -50.529  11.556  1.00  0.00     0.092 A 
HETATM    8  C   UNL     1     -38.805 -50.461  12.046  1.00  0.00     0.058 A 
HETATM    9  C   UNL     1     -37.676 -49.602  11.625  1.00  0.00     0.072 C 
HETATM   10  N   UNL     1     -38.597 -51.332  13.038  1.00  0.00    -0.263 N 
HETATM   11  O   UNL     1     -39.789 -51.981  13.225  1.00  0.00    -0.240 OA
ATOM     12  HN  UNL     1     -37.729 -51.482  13.551  1.00  0.00     0.194 HD
HETATM   13  C   UNL     1     -40.718 -51.512  12.347  1.00  0.00     0.101 A 
HETATM   14  C   UNL     1     -42.036 -52.170  12.480  1.00  0.00     0.081 C 
ENDBRANCH   1   7
BRANCH   4  15
HETATM   15  C   UNL     1     -42.809 -46.943   9.538  1.00  0.00     0.156 C 
BRANCH  15  16
HETATM   16  C   UNL     1     -44.147 -47.136   8.816  1.00  0.00     0.139 C 
HETATM   17  C   UNL     1     -45.342 -47.565   9.651  1.00  0.00     0.035 C 
HETATM   18  C   UNL     1     -46.258 -48.218   8.635  1.00  0.00     0.029 C 
HETATM   19  C   UNL     1     -45.373 -48.490   7.431  1.00  0.00     0.168 C 
HETATM   20  O   UNL     1     -44.031 -48.165   7.815  1.00  0.00    -0.384 OA
ENDBRANCH  15  16
ENDBRANCH   4  15
TORSDOF 3
ENDMDL
MODEL 5
REMARK VINA RESULT:      -5.9      3.364      6.803
REMARK  3 active torsions:
REMARK  status: ('A' for Active; 'I' for Inactive)
REMARK    1  A    between atoms: C_8  and  N_9 
REMARK       I    between atoms: N_9  and  C_10 
REMARK       I    between atoms: C_10  and  N_12 
REMARK    2  A    between atoms: N_12  and  C_13 
REMARK    3  A    between atoms: C_13  and  C_14 
ROOT
HETATM    1  N   UNL     1     -43.619 -52.831  12.133  1.00  0.00    -0.305 N 
HETATM    2  C   UNL     1     -42.546 -52.099  12.585  1.00  0.00     0.320 C 
HETATM    3  O   UNL     1     -42.312 -51.784  13.746  1.00  0.00    -0.247 OA
HETATM    4  N   UNL     1     -41.678 -51.731  11.580  1.00  0.00    -0.340 N 
HETATM    5  H   UNL     1     -43.589 -53.146  11.176  1.00  0.00     0.171 HD
HETATM    6  H   UNL     1     -42.032 -51.635  10.640  1.00  0.00     0.164 HD
ENDROOT
BRANCH   1   7
HETATM    7  C   UNL     1     -44.679 -53.283  12.919  1.00  0.00     0.092 A 
HETATM    8  C   UNL     1     -46.036 -52.820  12.876  1.00  0.00     0.058 A 
HETATM    9  C   UNL     1     -46.669 -51.789  12.024  1.00  0.00     0.072 C 
HETATM   10  N   UNL     1     -46.801 -53.459  13.766  1.00  0.00    -0.263 N 
HETATM   11  O   UNL     1     -45.977 -54.348  14.403  1.00  0.00    -0.240 OA
ATOM     12  HN  UNL     1     -47.797 -53.314  13.936  1.00  0.00     0.194 HD
HETATM   13  C   UNL     1     -44.713 -54.249  13.908  1.00  0.00     0.101 A 
HETATM   14  C   UNL     1     -43.756 -55.175  14.551  1.00  0.00     0.081 C 
ENDBRANCH   1   7
BRANCH   4  15
HETATM   15  C   UNL     1     -40.519 -50.902  11.907  1.00  0.00     0.156 C 
BRANCH  15  16
HETATM   16  C   UNL     1     -40.492 -49.549  11.190  1.00  0.00     0.139 C 
HETATM   17  C   UNL     1     -39.656 -48.440  11.809  1.00  0.00     0.035 C 
HETATM   18  C   UNL     1     -40.292 -47.179  11.259  1.00  0.00     0.029 C 
HETATM   19  C   UNL     1     -41.649 -47.621  10.740  1.00  0.00     0.168 C 
HETATM   20  O   UNL     1     -41.819 -48.992  11.124  1.00  0.00    -0.384 OA
ENDBRANCH  15  16
ENDBRANCH   4  15
TORSDOF 3
ENDMDL
MODEL 6
REMARK VINA RESULT:      -5.8      1.676      1.958
REMARK  3 active torsions:
REMARK  status: ('A' for Active; 'I' for Inactive)
REMARK    1  A    between atoms: C_8  and  N_9 
REMARK       I    between atoms: N_9  and  C_10 
REMARK       I    between atoms: C_10  and  N_12 
REMARK    2  A    between atoms: N_12  and  C_13 
REMARK    3  A    between atoms: C_13  and  C_14 
ROOT
HETATM    1  N   UNL     1     -42.601 -48.321  10.372  1.00  0.00    -0.305 N 
HETATM    2  C   UNL     1     -42.579 -48.798  11.661  1.00  0.00     0.320 C 
HETATM    3  O   UNL     1     -42.997 -48.224  12.661  1.00  0.00    -0.247 OA
HETATM    4  N   UNL     1     -42.037 -50.061  11.764  1.00  0.00    -0.340 N 
HETATM    5  H   UNL     1     -42.370 -48.972   9.638  1.00  0.00     0.171 HD
HETATM    6  H   UNL     1     -41.367 -50.362  11.072  1.00  0.00     0.164 HD
ENDROOT
BRANCH   1   7
HETATM    7  C   UNL     1     -43.038 -47.054   9.985  1.00  0.00     0.092 A 
HETATM    8  C   UNL     1     -44.285 -46.734   9.353  1.00  0.00     0.058 A 
HETATM    9  C   UNL     1     -45.411 -47.610   8.957  1.00  0.00     0.072 C 
HETATM   10  N   UNL     1     -44.392 -45.424   9.110  1.00  0.00    -0.263 N 
HETATM   11  O   UNL     1     -43.233 -44.860   9.576  1.00  0.00    -0.240 OA
ATOM     12  HN  UNL     1     -45.176 -44.943   8.669  1.00  0.00     0.194 HD
HETATM   13  C   UNL     1     -42.422 -45.821  10.095  1.00  0.00     0.101 A 
HETATM   14  C   UNL     1     -41.142 -45.292  10.614  1.00  0.00     0.081 C 
ENDBRANCH   1   7
BRANCH   4  15
HETATM   15  C   UNL     1     -41.901 -50.672  13.085  1.00  0.00     0.156 C 
BRANCH  15  16
HETATM   16  C   UNL     1     -42.869 -51.832  13.343  1.00  0.00     0.139 C 
HETATM   17  C   UNL     1     -42.927 -52.944  12.309  1.00  0.00     0.035 C 
HETATM   18  C   UNL     1     -44.300 -53.547  12.524  1.00  0.00     0.029 C 
HETATM   19  C   UNL     1     -45.059 -52.508  13.329  1.00  0.00     0.168 C 
HETATM   20  O   UNL     1     -44.223 -51.346  13.411  1.00  0.00    -0.384 OA
ENDBRANCH  15  16
ENDBRANCH   4  15
TORSDOF 3
ENDMDL
MODEL 7
REMARK VINA RESULT:      -5.7      1.519      2.296
REMARK  3 active torsions:
REMARK  status: ('A' for Active; 'I' for Inactive)
REMARK    1  A    between atoms: C_8  and  N_9 
REMARK       I    between atoms: N_9  and  C_10 
REMARK       I    between atoms: C_10  and  N_12 
REMARK    2  A    between atoms: N_12  and  C_13 
REMARK    3  A    between atoms: C_13  and  C_14 
ROOT
HETATM    1  N   UNL     1     -42.173 -48.484  10.280  1.00  0.00    -0.305 N 
HETATM    2  C   UNL     1     -42.091 -49.075  11.519  1.00  0.00     0.320 C 
HETATM    3  O   UNL     1     -42.464 -48.596  12.585  1.00  0.00    -0.247 OA
HETATM    4  N   UNL     1     -41.540 -50.338  11.483  1.00  0.00    -0.340 N 
HETATM    5  H   UNL     1     -41.974 -49.065   9.481  1.00  0.00     0.171 HD
HETATM    6  H   UNL     1     -40.902 -50.570  10.737  1.00  0.00     0.164 HD
ENDROOT
BRANCH   1   7
HETATM    7  C   UNL     1     -42.632 -47.191  10.030  1.00  0.00     0.092 A 
HETATM    8  C   UNL     1     -43.939 -46.819   9.572  1.00  0.00     0.058 A 
HETATM    9  C   UNL     1     -45.117 -47.657   9.256  1.00  0.00     0.072 C 
HETATM   10  N   UNL     1     -44.052 -45.495   9.427  1.00  0.00    -0.263 N 
HETATM   11  O   UNL     1     -42.838 -44.973   9.787  1.00  0.00    -0.240 OA
ATOM     12  HN  UNL     1     -44.874 -44.980   9.113  1.00  0.00     0.194 HD
HETATM   13  C   UNL     1     -41.986 -45.973  10.145  1.00  0.00     0.101 A 
HETATM   14  C   UNL     1     -40.646 -45.490  10.541  1.00  0.00     0.081 C 
ENDBRANCH   1   7
BRANCH   4  15
HETATM   15  C   UNL     1     -41.341 -51.065  12.736  1.00  0.00     0.156 C 
BRANCH  15  16
HETATM   16  C   UNL     1     -39.894 -51.063  13.240  1.00  0.00     0.139 C 
HETATM   17  C   UNL     1     -39.400 -49.818  13.957  1.00  0.00     0.035 C 
HETATM   18  C   UNL     1     -37.897 -49.888  13.777  1.00  0.00     0.029 C 
HETATM   19  C   UNL     1     -37.686 -50.886  12.653  1.00  0.00     0.168 C 
HETATM   20  O   UNL     1     -38.981 -51.218  12.137  1.00  0.00    -0.384 OA
ENDBRANCH  15  16
ENDBRANCH   4  15
TORSDOF 3
ENDMDL
MODEL 8
REMARK VINA RESULT:      -5.7      1.946      3.201
REMARK  3 active torsions:
REMARK  status: ('A' for Active; 'I' for Inactive)
REMARK    1  A    between atoms: C_8  and  N_9 
REMARK       I    between atoms: N_9  and  C_10 
REMARK       I    between atoms: C_10  and  N_12 
REMARK    2  A    between atoms: N_12  and  C_13 
REMARK    3  A    between atoms: C_13  and  C_14 
ROOT
HETATM    1  N   UNL     1     -42.892 -48.296  10.010  1.00  0.00    -0.305 N 
HETATM    2  C   UNL     1     -42.540 -48.628  11.297  1.00  0.00     0.320 C 
HETATM    3  O   UNL     1     -42.889 -48.055  12.323  1.00  0.00    -0.247 OA
HETATM    4  N   UNL     1     -41.725 -49.738  11.368  1.00  0.00    -0.340 N 
HETATM    5  H   UNL     1     -42.658 -48.956   9.286  1.00  0.00     0.171 HD
HETATM    6  H   UNL     1     -41.139 -49.964  10.578  1.00  0.00     0.164 HD
ENDROOT
BRANCH   1   7
HETATM    7  C   UNL     1     -43.657 -47.190   9.641  1.00  0.00     0.092 A 
HETATM    8  C   UNL     1     -43.292 -45.810   9.781  1.00  0.00     0.058 A 
HETATM    9  C   UNL     1     -42.059 -45.196  10.322  1.00  0.00     0.072 C 
HETATM   10  N   UNL     1     -44.254 -44.998   9.333  1.00  0.00    -0.263 N 
HETATM   11  O   UNL     1     -45.260 -45.816   8.889  1.00  0.00    -0.240 OA
ATOM     12  HN  UNL     1     -44.242 -43.978   9.323  1.00  0.00     0.194 HD
HETATM   13  C   UNL     1     -44.915 -47.120   9.071  1.00  0.00     0.101 A 
HETATM   14  C   UNL     1     -45.955 -48.070   8.622  1.00  0.00     0.081 C 
ENDBRANCH   1   7
BRANCH   4  15
HETATM   15  C   UNL     1     -41.228 -50.175  12.672  1.00  0.00     0.156 C 
BRANCH  15  16
HETATM   16  C   UNL     1     -39.712 -50.035  12.844  1.00  0.00     0.139 C 
HETATM   17  C   UNL     1     -38.896 -49.658  11.619  1.00  0.00     0.035 C 
HETATM   18  C   UNL     1     -37.511 -50.176  11.951  1.00  0.00     0.029 C 
HETATM   19  C   UNL     1     -37.724 -51.149  13.097  1.00  0.00     0.168 C 
HETATM   20  O   UNL     1     -39.141 -51.285  13.274  1.00  0.00    -0.384 OA
ENDBRANCH  15  16
ENDBRANCH   4  15
TORSDOF 3
ENDMDL
MODEL 9
REMARK VINA RESULT:      -5.7      4.240      6.539
REMARK  3 active torsions:
REMARK  status: ('A' for Active; 'I' for Inactive)
REMARK    1  A    between atoms: C_8  and  N_9 
REMARK       I    between atoms: N_9  and  C_10 
REMARK       I    between atoms: C_10  and  N_12 
REMARK    2  A    between atoms: N_12  and  C_13 
REMARK    3  A    between atoms: C_13  and  C_14 
ROOT
HETATM    1  N   UNL     1     -43.474 -52.872  12.200  1.00  0.00    -0.305 N 
HETATM    2  C   UNL     1     -42.574 -51.902  12.573  1.00  0.00     0.320 C 
HETATM    3  O   UNL     1     -42.506 -51.346  13.664  1.00  0.00    -0.247 OA
HETATM    4  N   UNL     1     -41.676 -51.583  11.577  1.00  0.00    -0.340 N 
HETATM    5  H   UNL     1     -43.302 -53.346  11.327  1.00  0.00     0.171 HD
HETATM    6  H   UNL     1     -41.946 -51.719  10.614  1.00  0.00     0.164 HD
ENDROOT
BRANCH   1   7
HETATM    7  C   UNL     1     -44.526 -53.344  12.985  1.00  0.00     0.092 A 
HETATM    8  C   UNL     1     -45.901 -52.943  12.906  1.00  0.00     0.058 A 
HETATM    9  C   UNL     1     -46.565 -51.969  12.011  1.00  0.00     0.072 C 
HETATM   10  N   UNL     1     -46.653 -53.585  13.805  1.00  0.00    -0.263 N 
HETATM   11  O   UNL     1     -45.801 -54.416  14.484  1.00  0.00    -0.240 OA
ATOM     12  HN  UNL     1     -47.656 -53.479  13.955  1.00  0.00     0.194 HD
HETATM   13  C   UNL     1     -44.534 -54.278  14.005  1.00  0.00     0.101 A 
HETATM   14  C   UNL     1     -43.549 -55.139  14.693  1.00  0.00     0.081 C 
ENDBRANCH   1   7
BRANCH   4  15
HETATM   15  C   UNL     1     -40.693 -50.527  11.815  1.00  0.00     0.156 C 
BRANCH  15  16
HETATM   16  C   UNL     1     -39.472 -50.976  12.624  1.00  0.00     0.139 C 
HETATM   17  C   UNL     1     -39.079 -50.138  13.831  1.00  0.00     0.035 C 
HETATM   18  C   UNL     1     -37.609 -50.457  14.010  1.00  0.00     0.029 C 
HETATM   19  C   UNL     1     -37.183 -51.084  12.695  1.00  0.00     0.168 C 
HETATM   20  O   UNL     1     -38.294 -50.970  11.795  1.00  0.00    -0.384 OA
ENDBRANCH  15  16
ENDBRANCH   4  15
TORSDOF 3
ENDMDL
