MODEL 1
REMARK VINA RESULT:      -5.4      0.000      0.000
REMARK  5 active torsions:
REMARK  status: ('A' for Active; 'I' for Inactive)
REMARK    1  A    between atoms: O_2  and  C_3 
REMARK    2  A    between atoms: C_3  and  C_4 
REMARK    3  A    between atoms: C_4  and  N_5 
REMARK    4  A    between atoms: C_7  and  N_8 
REMARK       I    between atoms: N_8  and  C_9 
REMARK    5  A    between atoms: C_9  and  C_11 
ROOT
HETATM    1  N   UNL     1     -42.622 -46.540  10.317  1.00  0.00    -0.320 N 
HETATM    2  C   UNL     1     -41.588 -47.407  10.627  1.00  0.00     0.123 A 
HETATM    3  C   UNL     1     -40.387 -46.989  11.063  1.00  0.00     0.050 A 
HETATM    4  C   UNL     1     -40.165 -45.559  11.159  1.00  0.00     0.036 A 
HETATM    5  C   UNL     1     -41.130 -44.687  10.833  1.00  0.00     0.077 A 
HETATM    6  C   UNL     1     -42.468 -45.160  10.378  1.00  0.00     0.247 A 
HETATM    7  O   UNL     1     -43.320 -44.332  10.075  1.00  0.00    -0.268 OA
ENDROOT
BRANCH   3   8
HETATM    8  N   UNL     1     -39.359 -47.833  11.447  1.00  0.00    -0.326 N 
HETATM    9  C   UNL     1     -39.078 -48.267  12.740  1.00  0.00     0.226 C 
HETATM   10  O   UNL     1     -39.746 -47.967  13.733  1.00  0.00    -0.273 OA
HETATM   11  H   UNL     1     -38.732 -48.142  10.715  1.00  0.00     0.169 HD
BRANCH   9  12
HETATM   12  C   UNL     1     -37.834 -49.181  12.868  1.00  0.00     0.078 C 
HETATM   13  C   UNL     1     -37.473 -50.008  11.603  1.00  0.00     0.014 C 
HETATM   14  C   UNL     1     -37.182 -51.207  12.519  1.00  0.00     0.002 C 
HETATM   15  C   UNL     1     -38.065 -50.544  13.586  1.00  0.00     0.014 C 
ENDBRANCH   9  12
ENDBRANCH   3   8
BRANCH   1  16
HETATM   16  C   UNL     1     -43.926 -47.116   9.960  1.00  0.00     0.158 C 
BRANCH  16  17
HETATM   17  C   UNL     1     -44.065 -47.437   8.461  1.00  0.00     0.187 C 
BRANCH  17  18
HETATM   18  O   UNL     1     -45.294 -48.123   8.213  1.00  0.00    -0.394 OA
HETATM   19  C   UNL     1     -46.350 -47.612   9.014  1.00  0.00     0.201 C 
ENDBRANCH  17  18
ENDBRANCH  16  17
ENDBRANCH   1  16
TORSDOF 5
ENDMDL
MODEL 2
REMARK VINA RESULT:      -5.4      2.690      2.988
REMARK  5 active torsions:
REMARK  status: ('A' for Active; 'I' for Inactive)
REMARK    1  A    between atoms: O_2  and  C_3 
REMARK    2  A    between atoms: C_3  and  C_4 
REMARK    3  A    between atoms: C_4  and  N_5 
REMARK    4  A    between atoms: C_7  and  N_8 
REMARK       I    between atoms: N_8  and  C_9 
REMARK    5  A    between atoms: C_9  and  C_11 
ROOT
HETATM    1  N   UNL     1     -42.150 -46.631  10.100  1.00  0.00    -0.320 N 
HETATM    2  C   UNL     1     -42.106 -48.011  10.212  1.00  0.00     0.123 A 
HETATM    3  C   UNL     1     -41.143 -48.660  10.888  1.00  0.00     0.050 A 
HETATM    4  C   UNL     1     -40.081 -47.868  11.477  1.00  0.00     0.036 A 
HETATM    5  C   UNL     1     -40.068 -46.532  11.359  1.00  0.00     0.077 A 
HETATM    6  C   UNL     1     -41.157 -45.818  10.632  1.00  0.00     0.247 A 
HETATM    7  O   UNL     1     -41.103 -44.597  10.532  1.00  0.00    -0.268 OA
ENDROOT
BRANCH   3   8
HETATM    8  N   UNL     1     -41.111 -50.031  11.077  1.00  0.00    -0.326 N 
HETATM    9  C   UNL     1     -41.698 -50.741  12.122  1.00  0.00     0.226 C 
HETATM   10  O   UNL     1     -42.362 -50.224  13.026  1.00  0.00    -0.273 OA
HETATM   11  H   UNL     1     -40.584 -50.568  10.400  1.00  0.00     0.169 HD
BRANCH   9  12
HETATM   12  C   UNL     1     -41.460 -52.271  12.089  1.00  0.00     0.078 C 
HETATM   13  C   UNL     1     -42.556 -53.137  12.768  1.00  0.00     0.014 C 
HETATM   14  C   UNL     1     -41.440 -54.006  13.369  1.00  0.00     0.002 C 
HETATM   15  C   UNL     1     -40.477 -52.828  13.162  1.00  0.00     0.014 C 
ENDBRANCH   9  12
ENDBRANCH   3   8
BRANCH   1  16
HETATM   16  C   UNL     1     -43.313 -46.026   9.435  1.00  0.00     0.158 C 
BRANCH  16  17
HETATM   17  C   UNL     1     -44.423 -47.038   9.100  1.00  0.00     0.187 C 
BRANCH  17  18
HETATM   18  O   UNL     1     -45.656 -46.358   8.858  1.00  0.00    -0.394 OA
HETATM   19  C   UNL     1     -46.775 -47.200   9.097  1.00  0.00     0.201 C 
ENDBRANCH  17  18
ENDBRANCH  16  17
ENDBRANCH   1  16
TORSDOF 5
ENDMDL
MODEL 3
REMARK VINA RESULT:      -5.3      5.580      8.535
REMARK  5 active torsions:
REMARK  status: ('A' for Active; 'I' for Inactive)
REMARK    1  A    between atoms: O_2  and  C_3 
REMARK    2  A    between atoms: C_3  and  C_4 
REMARK    3  A    between atoms: C_4  and  N_5 
REMARK    4  A    between atoms: C_7  and  N_8 
REMARK       I    between atoms: N_8  and  C_9 
REMARK    5  A    between atoms: C_9  and  C_11 
ROOT
HETATM    1  N   UNL     1     -40.400 -52.066  13.593  1.00  0.00    -0.320 N 
HETATM    2  C   UNL     1     -41.765 -51.919  13.773  1.00  0.00     0.123 A 
HETATM    3  C   UNL     1     -42.569 -52.934  14.133  1.00  0.00     0.050 A 
HETATM    4  C   UNL     1     -41.973 -54.246  14.287  1.00  0.00     0.036 A 
HETATM    5  C   UNL     1     -40.660 -54.436  14.085  1.00  0.00     0.077 A 
HETATM    6  C   UNL     1     -39.770 -53.298  13.714  1.00  0.00     0.247 A 
HETATM    7  O   UNL     1     -38.578 -53.515  13.524  1.00  0.00    -0.268 OA
ENDROOT
BRANCH   3   8
HETATM    8  N   UNL     1     -43.924 -52.803  14.389  1.00  0.00    -0.326 N 
HETATM    9  C   UNL     1     -44.968 -53.112  13.521  1.00  0.00     0.226 C 
HETATM   10  O   UNL     1     -44.814 -53.580  12.389  1.00  0.00    -0.273 OA
HETATM   11  H   UNL     1     -44.178 -52.418  15.290  1.00  0.00     0.169 HD
BRANCH   9  12
HETATM   12  C   UNL     1     -46.386 -52.825  14.074  1.00  0.00     0.078 C 
HETATM   13  C   UNL     1     -46.714 -51.331  14.342  1.00  0.00     0.014 C 
HETATM   14  C   UNL     1     -47.402 -51.758  15.648  1.00  0.00     0.002 C 
HETATM   15  C   UNL     1     -46.576 -53.052  15.603  1.00  0.00     0.014 C 
ENDBRANCH   9  12
ENDBRANCH   3   8
BRANCH   1  16
HETATM   16  C   UNL     1     -39.605 -50.863  13.310  1.00  0.00     0.158 C 
BRANCH  16  17
HETATM   17  C   UNL     1     -39.814 -50.308  11.890  1.00  0.00     0.187 C 
BRANCH  17  18
HETATM   18  O   UNL     1     -38.578 -49.826  11.359  1.00  0.00    -0.394 OA
HETATM   19  C   UNL     1     -37.470 -50.560  11.860  1.00  0.00     0.201 C 
ENDBRANCH  17  18
ENDBRANCH  16  17
ENDBRANCH   1  16
TORSDOF 5
ENDMDL
MODEL 4
REMARK VINA RESULT:      -5.2      5.135      7.231
REMARK  5 active torsions:
REMARK  status: ('A' for Active; 'I' for Inactive)
REMARK    1  A    between atoms: O_2  and  C_3 
REMARK    2  A    between atoms: C_3  and  C_4 
REMARK    3  A    between atoms: C_4  and  N_5 
REMARK    4  A    between atoms: C_7  and  N_8 
REMARK       I    between atoms: N_8  and  C_9 
REMARK    5  A    between atoms: C_9  and  C_11 
ROOT
HETATM    1  N   UNL     1     -40.740 -50.831  12.132  1.00  0.00    -0.320 N 
HETATM    2  C   UNL     1     -42.075 -51.020  12.450  1.00  0.00     0.123 A 
HETATM    3  C   UNL     1     -42.488 -51.888  13.390  1.00  0.00     0.050 A 
HETATM    4  C   UNL     1     -41.481 -52.692  14.055  1.00  0.00     0.036 A 
HETATM    5  C   UNL     1     -40.181 -52.564  13.748  1.00  0.00     0.077 A 
HETATM    6  C   UNL     1     -39.730 -51.577  12.725  1.00  0.00     0.247 A 
HETATM    7  O   UNL     1     -38.534 -51.500  12.461  1.00  0.00    -0.268 OA
ENDROOT
BRANCH   3   8
HETATM    8  N   UNL     1     -43.807 -52.049  13.779  1.00  0.00    -0.326 N 
HETATM    9  C   UNL     1     -44.759 -52.865  13.174  1.00  0.00     0.226 C 
HETATM   10  O   UNL     1     -44.534 -53.590  12.200  1.00  0.00    -0.273 OA
HETATM   11  H   UNL     1     -44.115 -51.494  14.568  1.00  0.00     0.169 HD
BRANCH   9  12
HETATM   12  C   UNL     1     -46.169 -52.810  13.812  1.00  0.00     0.078 C 
HETATM   13  C   UNL     1     -46.680 -51.394  14.196  1.00  0.00     0.014 C 
HETATM   14  C   UNL     1     -47.228 -51.989  15.502  1.00  0.00     0.002 C 
HETATM   15  C   UNL     1     -46.239 -53.152  15.330  1.00  0.00     0.014 C 
ENDBRANCH   9  12
ENDBRANCH   3   8
BRANCH   1  16
HETATM   16  C   UNL     1     -40.401 -49.773  11.170  1.00  0.00     0.158 C 
BRANCH  16  17
HETATM   17  C   UNL     1     -40.783 -48.361  11.649  1.00  0.00     0.187 C 
BRANCH  17  18
HETATM   18  O   UNL     1     -41.176 -47.551  10.539  1.00  0.00    -0.394 OA
HETATM   19  C   UNL     1     -42.534 -47.771  10.185  1.00  0.00     0.201 C 
ENDBRANCH  17  18
ENDBRANCH  16  17
ENDBRANCH   1  16
TORSDOF 5
ENDMDL
MODEL 5
REMARK VINA RESULT:      -5.1      6.916      9.991
REMARK  5 active torsions:
REMARK  status: ('A' for Active; 'I' for Inactive)
REMARK    1  A    between atoms: O_2  and  C_3 
REMARK    2  A    between atoms: C_3  and  C_4 
REMARK    3  A    between atoms: C_4  and  N_5 
REMARK    4  A    between atoms: C_7  and  N_8 
REMARK       I    between atoms: N_8  and  C_9 
REMARK    5  A    between atoms: C_9  and  C_11 
ROOT
HETATM    1  N   UNL     1     -40.476 -54.791  15.006  1.00  0.00    -0.320 N 
HETATM    2  C   UNL     1     -41.728 -54.236  14.800  1.00  0.00     0.123 A 
HETATM    3  C   UNL     1     -42.777 -54.477  15.605  1.00  0.00     0.050 A 
HETATM    4  C   UNL     1     -42.585 -55.402  16.705  1.00  0.00     0.036 A 
HETATM    5  C   UNL     1     -41.397 -55.989  16.915  1.00  0.00     0.077 A 
HETATM    6  C   UNL     1     -40.231 -55.692  16.034  1.00  0.00     0.247 A 
HETATM    7  O   UNL     1     -39.165 -56.260  16.249  1.00  0.00    -0.268 OA
ENDROOT
BRANCH   3   8
HETATM    8  N   UNL     1     -44.020 -53.883  15.467  1.00  0.00    -0.326 N 
HETATM    9  C   UNL     1     -45.108 -54.386  14.759  1.00  0.00     0.226 C 
HETATM   10  O   UNL     1     -45.111 -55.470  14.168  1.00  0.00    -0.273 OA
HETATM   11  H   UNL     1     -44.138 -52.977  15.904  1.00  0.00     0.169 HD
BRANCH   9  12
HETATM   12  C   UNL     1     -46.362 -53.476  14.751  1.00  0.00     0.078 C 
HETATM   13  C   UNL     1     -46.266 -52.207  13.861  1.00  0.00     0.014 C 
HETATM   14  C   UNL     1     -46.956 -51.417  14.984  1.00  0.00     0.002 C 
HETATM   15  C   UNL     1     -46.505 -52.510  15.964  1.00  0.00     0.014 C 
ENDBRANCH   9  12
ENDBRANCH   3   8
BRANCH   1  16
HETATM   16  C   UNL     1     -39.377 -54.366  14.128  1.00  0.00     0.158 C 
BRANCH  16  17
HETATM   17  C   UNL     1     -39.211 -52.838  14.048  1.00  0.00     0.187 C 
BRANCH  17  18
HETATM   18  O   UNL     1     -39.497 -52.378  12.725  1.00  0.00    -0.394 OA
HETATM   19  C   UNL     1     -40.360 -51.249  12.738  1.00  0.00     0.201 C 
ENDBRANCH  17  18
ENDBRANCH  16  17
ENDBRANCH   1  16
TORSDOF 5
ENDMDL
MODEL 6
REMARK VINA RESULT:      -5.1      3.407      6.682
REMARK  5 active torsions:
REMARK  status: ('A' for Active; 'I' for Inactive)
REMARK    1  A    between atoms: O_2  and  C_3 
REMARK    2  A    between atoms: C_3  and  C_4 
REMARK    3  A    between atoms: C_4  and  N_5 
REMARK    4  A    between atoms: C_7  and  N_8 
REMARK       I    between atoms: N_8  and  C_9 
REMARK    5  A    between atoms: C_9  and  C_11 
ROOT
HETATM    1  N   UNL     1     -40.259 -51.741  12.582  1.00  0.00    -0.320 N 
HETATM    2  C   UNL     1     -40.996 -50.945  11.721  1.00  0.00     0.123 A 
HETATM    3  C   UNL     1     -40.600 -49.719  11.337  1.00  0.00     0.050 A 
HETATM    4  C   UNL     1     -39.367 -49.201  11.898  1.00  0.00     0.036 A 
HETATM    5  C   UNL     1     -38.644 -49.927  12.764  1.00  0.00     0.077 A 
HETATM    6  C   UNL     1     -39.076 -51.298  13.161  1.00  0.00     0.247 A 
HETATM    7  O   UNL     1     -38.396 -51.925  13.967  1.00  0.00    -0.268 OA
ENDROOT
BRANCH   3   8
HETATM    8  N   UNL     1     -41.279 -48.930  10.424  1.00  0.00    -0.326 N 
HETATM    9  C   UNL     1     -42.407 -48.153  10.674  1.00  0.00     0.226 C 
HETATM   10  O   UNL     1     -42.945 -48.045  11.779  1.00  0.00    -0.273 OA
HETATM   11  H   UNL     1     -40.934 -48.942   9.472  1.00  0.00     0.169 HD
BRANCH   9  12
HETATM   12  C   UNL     1     -42.971 -47.402   9.441  1.00  0.00     0.078 C 
HETATM   13  C   UNL     1     -43.125 -45.865   9.601  1.00  0.00     0.014 C 
HETATM   14  C   UNL     1     -44.479 -45.967   8.882  1.00  0.00     0.002 C 
HETATM   15  C   UNL     1     -44.518 -47.453   9.268  1.00  0.00     0.014 C 
ENDBRANCH   9  12
ENDBRANCH   3   8
BRANCH   1  16
HETATM   16  C   UNL     1     -40.734 -53.107  12.841  1.00  0.00     0.158 C 
BRANCH  16  17
HETATM   17  C   UNL     1     -41.822 -53.182  13.926  1.00  0.00     0.187 C 
BRANCH  17  18
HETATM   18  O   UNL     1     -42.875 -54.055  13.512  1.00  0.00    -0.394 OA
HETATM   19  C   UNL     1     -43.703 -53.449  12.530  1.00  0.00     0.201 C 
ENDBRANCH  17  18
ENDBRANCH  16  17
ENDBRANCH   1  16
TORSDOF 5
ENDMDL
MODEL 7
REMARK VINA RESULT:      -5.1      5.864      7.224
REMARK  5 active torsions:
REMARK  status: ('A' for Active; 'I' for Inactive)
REMARK    1  A    between atoms: O_2  and  C_3 
REMARK    2  A    between atoms: C_3  and  C_4 
REMARK    3  A    between atoms: C_4  and  N_5 
REMARK    4  A    between atoms: C_7  and  N_8 
REMARK       I    between atoms: N_8  and  C_9 
REMARK    5  A    between atoms: C_9  and  C_11 
ROOT
HETATM    1  N   UNL     1     -44.531 -53.393  13.566  1.00  0.00    -0.320 N 
HETATM    2  C   UNL     1     -43.411 -52.591  13.709  1.00  0.00     0.123 A 
HETATM    3  C   UNL     1     -42.280 -53.012  14.299  1.00  0.00     0.050 A 
HETATM    4  C   UNL     1     -42.265 -54.352  14.853  1.00  0.00     0.036 A 
HETATM    5  C   UNL     1     -43.343 -55.146  14.768  1.00  0.00     0.077 A 
HETATM    6  C   UNL     1     -44.584 -54.681  14.084  1.00  0.00     0.247 A 
HETATM    7  O   UNL     1     -45.554 -55.431  14.039  1.00  0.00    -0.268 OA
ENDROOT
BRANCH   3   8
HETATM    8  N   UNL     1     -41.122 -52.259  14.394  1.00  0.00    -0.326 N 
HETATM    9  C   UNL     1     -40.079 -52.217  13.471  1.00  0.00     0.226 C 
HETATM   10  O   UNL     1     -40.067 -52.844  12.408  1.00  0.00    -0.273 OA
HETATM   11  H   UNL     1     -41.012 -51.704  15.233  1.00  0.00     0.169 HD
BRANCH   9  12
HETATM   12  C   UNL     1     -38.890 -51.306  13.868  1.00  0.00     0.078 C 
HETATM   13  C   UNL     1     -39.223 -49.798  14.032  1.00  0.00     0.014 C 
HETATM   14  C   UNL     1     -37.908 -49.470  13.307  1.00  0.00     0.002 C 
HETATM   15  C   UNL     1     -37.945 -50.882  12.705  1.00  0.00     0.014 C 
ENDBRANCH   9  12
ENDBRANCH   3   8
BRANCH   1  16
HETATM   16  C   UNL     1     -45.670 -52.864  12.802  1.00  0.00     0.158 C 
BRANCH  16  17
HETATM   17  C   UNL     1     -46.397 -51.705  13.507  1.00  0.00     0.187 C 
BRANCH  17  18
HETATM   18  O   UNL     1     -47.019 -52.168  14.708  1.00  0.00    -0.394 OA
HETATM   19  C   UNL     1     -46.673 -51.360  15.823  1.00  0.00     0.201 C 
ENDBRANCH  17  18
ENDBRANCH  16  17
ENDBRANCH   1  16
TORSDOF 5
ENDMDL
MODEL 8
REMARK VINA RESULT:      -5.0      5.487      7.039
REMARK  5 active torsions:
REMARK  status: ('A' for Active; 'I' for Inactive)
REMARK    1  A    between atoms: O_2  and  C_3 
REMARK    2  A    between atoms: C_3  and  C_4 
REMARK    3  A    between atoms: C_4  and  N_5 
REMARK    4  A    between atoms: C_7  and  N_8 
REMARK       I    between atoms: N_8  and  C_9 
REMARK    5  A    between atoms: C_9  and  C_11 
ROOT
HETATM    1  N   UNL     1     -44.370 -53.392  13.650  1.00  0.00    -0.320 N 
HETATM    2  C   UNL     1     -43.837 -52.316  12.959  1.00  0.00     0.123 A 
HETATM    3  C   UNL     1     -42.541 -52.238  12.611  1.00  0.00     0.050 A 
HETATM    4  C   UNL     1     -41.664 -53.314  13.031  1.00  0.00     0.036 A 
HETATM    5  C   UNL     1     -42.135 -54.355  13.733  1.00  0.00     0.077 A 
HETATM    6  C   UNL     1     -43.580 -54.448  14.089  1.00  0.00     0.247 A 
HETATM    7  O   UNL     1     -43.970 -55.408  14.745  1.00  0.00    -0.268 OA
ENDROOT
BRANCH   3   8
HETATM    8  N   UNL     1     -41.994 -51.211  11.861  1.00  0.00    -0.326 N 
HETATM    9  C   UNL     1     -41.293 -50.110  12.345  1.00  0.00     0.226 C 
HETATM   10  O   UNL     1     -41.040 -49.917  13.538  1.00  0.00    -0.273 OA
HETATM   11  H   UNL     1     -42.145 -51.254  10.861  1.00  0.00     0.169 HD
BRANCH   9  12
HETATM   12  C   UNL     1     -40.832 -49.101  11.264  1.00  0.00     0.078 C 
HETATM   13  C   UNL     1     -40.204 -47.784  11.796  1.00  0.00     0.014 C 
HETATM   14  C   UNL     1     -40.988 -47.021  10.717  1.00  0.00     0.002 C 
HETATM   15  C   UNL     1     -41.952 -48.214  10.643  1.00  0.00     0.014 C 
ENDBRANCH   9  12
ENDBRANCH   3   8
BRANCH   1  16
HETATM   16  C   UNL     1     -45.821 -53.421  13.875  1.00  0.00     0.158 C 
BRANCH  16  17
HETATM   17  C   UNL     1     -46.547 -52.164  13.362  1.00  0.00     0.187 C 
BRANCH  17  18
HETATM   18  O   UNL     1     -46.811 -51.268  14.444  1.00  0.00    -0.394 OA
HETATM   19  C   UNL     1     -47.200 -51.965  15.619  1.00  0.00     0.201 C 
ENDBRANCH  17  18
ENDBRANCH  16  17
ENDBRANCH   1  16
TORSDOF 5
ENDMDL
MODEL 9
REMARK VINA RESULT:      -4.9      5.167      7.337
REMARK  5 active torsions:
REMARK  status: ('A' for Active; 'I' for Inactive)
REMARK    1  A    between atoms: O_2  and  C_3 
REMARK    2  A    between atoms: C_3  and  C_4 
REMARK    3  A    between atoms: C_4  and  N_5 
REMARK    4  A    between atoms: C_7  and  N_8 
REMARK       I    between atoms: N_8  and  C_9 
REMARK    5  A    between atoms: C_9  and  C_11 
ROOT
HETATM    1  N   UNL     1     -42.652 -52.868  14.515  1.00  0.00    -0.320 N 
HETATM    2  C   UNL     1     -42.698 -51.745  13.706  1.00  0.00     0.123 A 
HETATM    3  C   UNL     1     -41.983 -51.628  12.574  1.00  0.00     0.050 A 
HETATM    4  C   UNL     1     -41.089 -52.716  12.225  1.00  0.00     0.036 A 
HETATM    5  C   UNL     1     -40.990 -53.804  13.003  1.00  0.00     0.077 A 
HETATM    6  C   UNL     1     -41.809 -53.938  14.241  1.00  0.00     0.247 A 
HETATM    7  O   UNL     1     -41.679 -54.942  14.934  1.00  0.00    -0.268 OA
ENDROOT
BRANCH   3   8
HETATM    8  N   UNL     1     -42.060 -50.550  11.709  1.00  0.00    -0.326 N 
HETATM    9  C   UNL     1     -41.215 -49.443  11.683  1.00  0.00     0.226 C 
HETATM   10  O   UNL     1     -40.246 -49.290  12.432  1.00  0.00    -0.273 OA
HETATM   11  H   UNL     1     -42.826 -50.556  11.047  1.00  0.00     0.169 HD
BRANCH   9  12
HETATM   12  C   UNL     1     -41.573 -48.372  10.622  1.00  0.00     0.078 C 
HETATM   13  C   UNL     1     -41.019 -46.946  10.891  1.00  0.00     0.014 C 
HETATM   14  C   UNL     1     -42.372 -46.378  10.437  1.00  0.00     0.002 C 
HETATM   15  C   UNL     1     -42.995 -47.748  10.742  1.00  0.00     0.014 C 
ENDBRANCH   9  12
ENDBRANCH   3   8
BRANCH   1  16
HETATM   16  C   UNL     1     -43.563 -52.930  15.667  1.00  0.00     0.158 C 
BRANCH  16  17
HETATM   17  C   UNL     1     -45.002 -53.328  15.290  1.00  0.00     0.187 C 
BRANCH  17  18
HETATM   18  O   UNL     1     -45.100 -54.746  15.141  1.00  0.00    -0.394 OA
HETATM   19  C   UNL     1     -45.442 -55.111  13.811  1.00  0.00     0.201 C 
ENDBRANCH  17  18
ENDBRANCH  16  17
ENDBRANCH   1  16
TORSDOF 5
ENDMDL
