MODEL 1
REMARK VINA RESULT:      -5.9      0.000      0.000
REMARK  5 active torsions:
REMARK  status: ('A' for Active; 'I' for Inactive)
REMARK    1  A    between atoms: C_2  and  N_3 
REMARK    2  A    between atoms: C_7  and  C_8 
REMARK    3  A    between atoms: C_8  and  N_9 
REMARK    4  A    between atoms: N_9  and  C_10 
REMARK    5  A    between atoms: C_15  and  O_16 
ROOT
HETATM    1  N   UNL     1     -40.942 -51.327  11.169  1.00  0.00    -0.262 NA
HETATM    2  H   UNL     1     -40.281 -51.753  10.526  1.00  0.00     0.130 HD
ENDROOT
BRANCH   1   3
HETATM    3  C   UNL     1     -40.444 -50.125  11.824  1.00  0.00     0.129 C 
BRANCH   3   4
HETATM    4  C   UNL     1     -41.065 -48.893  11.138  1.00  0.00     0.163 C 
HETATM    5  O   UNL     1     -40.251 -47.739  11.451  1.00  0.00    -0.381 OA
HETATM    6  C   UNL     1     -40.792 -46.567  10.831  1.00  0.00     0.198 C 
HETATM    7  C   UNL     1     -42.234 -46.307  11.301  1.00  0.00     0.298 C 
HETATM    8  N   UNL     1     -43.156 -47.447  11.077  1.00  0.00     0.092 N 
HETATM    9  C   UNL     1     -42.517 -48.669  11.618  1.00  0.00     0.305 C 
BRANCH   8  10
HETATM   10  C   UNL     1     -43.543 -47.530   9.661  1.00  0.00     0.268 C 
HETATM   11  C   UNL     1     -45.038 -47.363   9.409  1.00  0.00     0.037 C 
ENDBRANCH   8  10
ENDBRANCH   3   4
ENDBRANCH   1   3
BRANCH   1  12
HETATM   12  C   UNL     1     -41.465 -52.317  11.977  1.00  0.00     0.159 A 
HETATM   13  N   UNL     1     -40.712 -52.862  12.942  1.00  0.00    -0.343 N 
HETATM   14  C   UNL     1     -41.302 -53.770  13.742  1.00  0.00     0.095 A 
ATOM     15  HN  UNL     1     -39.734 -52.601  13.066  1.00  0.00     0.167 HD
HETATM   16  C   UNL     1     -42.609 -54.150  13.609  1.00  0.00     0.073 A 
HETATM   17  C   UNL     1     -43.286 -53.551  12.578  1.00  0.00     0.145 A 
HETATM   18  N   UNL     1     -42.742 -52.644  11.748  1.00  0.00    -0.313 N 
ATOM     19  HN  UNL     1     -43.274 -52.226  10.986  1.00  0.00     0.170 HD
BRANCH  17  20
HETATM   20  O   UNL     1     -44.606 -53.935  12.422  1.00  0.00    -0.341 OA
HETATM   21  C   UNL     1     -45.129 -54.632  13.548  1.00  0.00     0.211 C 
ENDBRANCH  17  20
ENDBRANCH   1  12
TORSDOF 5
ENDMDL
MODEL 2
REMARK VINA RESULT:      -5.8      2.059      6.616
REMARK  5 active torsions:
REMARK  status: ('A' for Active; 'I' for Inactive)
REMARK    1  A    between atoms: C_2  and  N_3 
REMARK    2  A    between atoms: C_7  and  C_8 
REMARK    3  A    between atoms: C_8  and  N_9 
REMARK    4  A    between atoms: N_9  and  C_10 
REMARK    5  A    between atoms: C_15  and  O_16 
ROOT
HETATM    1  N   UNL     1     -40.522 -49.863  10.662  1.00  0.00    -0.262 NA
HETATM    2  H   UNL     1     -41.084 -50.681  10.446  1.00  0.00     0.130 HD
ENDROOT
BRANCH   1   3
HETATM    3  C   UNL     1     -39.581 -50.058  11.757  1.00  0.00     0.129 C 
BRANCH   3   4
HETATM    4  C   UNL     1     -40.105 -51.189  12.664  1.00  0.00     0.163 C 
HETATM    5  O   UNL     1     -38.968 -51.917  13.185  1.00  0.00    -0.381 OA
HETATM    6  C   UNL     1     -39.408 -52.980  14.038  1.00  0.00     0.198 C 
HETATM    7  C   UNL     1     -40.325 -53.956  13.279  1.00  0.00     0.298 C 
HETATM    8  N   UNL     1     -41.505 -53.311  12.654  1.00  0.00     0.092 N 
HETATM    9  C   UNL     1     -41.034 -52.140  11.878  1.00  0.00     0.305 C 
BRANCH   8  10
HETATM   10  C   UNL     1     -42.527 -53.006  13.667  1.00  0.00     0.268 C 
HETATM   11  C   UNL     1     -43.066 -54.230  14.401  1.00  0.00     0.037 C 
ENDBRANCH   8  10
ENDBRANCH   3   4
ENDBRANCH   1   3
BRANCH   1  12
HETATM   12  C   UNL     1     -41.358 -48.766  10.734  1.00  0.00     0.159 A 
HETATM   13  N   UNL     1     -42.616 -48.909  11.171  1.00  0.00    -0.343 N 
HETATM   14  C   UNL     1     -43.357 -47.792  11.287  1.00  0.00     0.095 A 
ATOM     15  HN  UNL     1     -42.996 -49.826  11.407  1.00  0.00     0.167 HD
HETATM   16  C   UNL     1     -42.886 -46.544  10.981  1.00  0.00     0.073 A 
HETATM   17  C   UNL     1     -41.595 -46.508  10.521  1.00  0.00     0.145 A 
HETATM   18  N   UNL     1     -40.815 -47.595  10.382  1.00  0.00    -0.313 N 
ATOM     19  HN  UNL     1     -39.861 -47.530  10.027  1.00  0.00     0.170 HD
BRANCH  17  20
HETATM   20  O   UNL     1     -41.108 -45.255  10.193  1.00  0.00    -0.341 OA
HETATM   21  C   UNL     1     -39.692 -45.155  10.295  1.00  0.00     0.211 C 
ENDBRANCH  17  20
ENDBRANCH   1  12
TORSDOF 5
ENDMDL
MODEL 3
REMARK VINA RESULT:      -5.7      2.072      6.285
REMARK  5 active torsions:
REMARK  status: ('A' for Active; 'I' for Inactive)
REMARK    1  A    between atoms: C_2  and  N_3 
REMARK    2  A    between atoms: C_7  and  C_8 
REMARK    3  A    between atoms: C_8  and  N_9 
REMARK    4  A    between atoms: N_9  and  C_10 
REMARK    5  A    between atoms: C_15  and  O_16 
ROOT
HETATM    1  N   UNL     1     -40.466 -49.978  10.776  1.00  0.00    -0.262 NA
HETATM    2  H   UNL     1     -41.227 -50.648  10.720  1.00  0.00     0.130 HD
ENDROOT
BRANCH   1   3
HETATM    3  C   UNL     1     -39.504 -50.258  11.834  1.00  0.00     0.129 C 
BRANCH   3   4
HETATM    4  C   UNL     1     -40.065 -51.377  12.731  1.00  0.00     0.163 C 
HETATM    5  O   UNL     1     -38.958 -52.179  13.205  1.00  0.00    -0.381 OA
HETATM    6  C   UNL     1     -39.434 -53.234  14.048  1.00  0.00     0.198 C 
HETATM    7  C   UNL     1     -40.423 -54.141  13.294  1.00  0.00     0.298 C 
HETATM    8  N   UNL     1     -41.582 -53.418  12.715  1.00  0.00     0.092 N 
HETATM    9  C   UNL     1     -41.066 -52.258  11.951  1.00  0.00     0.305 C 
BRANCH   8  10
HETATM   10  C   UNL     1     -42.558 -53.081  13.762  1.00  0.00     0.268 C 
HETATM   11  C   UNL     1     -43.350 -54.273  14.288  1.00  0.00     0.037 C 
ENDBRANCH   8  10
ENDBRANCH   3   4
ENDBRANCH   1   3
BRANCH   1  12
HETATM   12  C   UNL     1     -41.000 -48.705  10.727  1.00  0.00     0.159 A 
HETATM   13  N   UNL     1     -40.218 -47.641  10.955  1.00  0.00    -0.343 N 
HETATM   14  C   UNL     1     -40.781 -46.426  10.821  1.00  0.00     0.095 A 
ATOM     15  HN  UNL     1     -39.238 -47.747  11.218  1.00  0.00     0.167 HD
HETATM   16  C   UNL     1     -42.091 -46.240  10.472  1.00  0.00     0.073 A 
HETATM   17  C   UNL     1     -42.810 -47.391  10.283  1.00  0.00     0.145 A 
HETATM   18  N   UNL     1     -42.297 -48.628  10.409  1.00  0.00    -0.313 N 
ATOM     19  HN  UNL     1     -42.866 -49.462  10.270  1.00  0.00     0.170 HD
BRANCH  17  20
HETATM   20  O   UNL     1     -44.140 -47.220   9.942  1.00  0.00    -0.341 OA
HETATM   21  C   UNL     1     -44.428 -47.577   8.595  1.00  0.00     0.211 C 
ENDBRANCH  17  20
ENDBRANCH   1  12
TORSDOF 5
ENDMDL
MODEL 4
REMARK VINA RESULT:      -5.6      2.773      3.977
REMARK  5 active torsions:
REMARK  status: ('A' for Active; 'I' for Inactive)
REMARK    1  A    between atoms: C_2  and  N_3 
REMARK    2  A    between atoms: C_7  and  C_8 
REMARK    3  A    between atoms: C_8  and  N_9 
REMARK    4  A    between atoms: N_9  and  C_10 
REMARK    5  A    between atoms: C_15  and  O_16 
ROOT
HETATM    1  N   UNL     1     -41.001 -51.781  11.386  1.00  0.00    -0.262 NA
HETATM    2  H   UNL     1     -40.084 -52.179  11.206  1.00  0.00     0.130 HD
ENDROOT
BRANCH   1   3
HETATM    3  C   UNL     1     -40.972 -50.387  11.809  1.00  0.00     0.129 C 
BRANCH   3   4
HETATM    4  C   UNL     1     -39.581 -50.074  12.392  1.00  0.00     0.163 C 
HETATM    5  O   UNL     1     -38.778 -51.276  12.324  1.00  0.00    -0.381 OA
HETATM    6  C   UNL     1     -37.471 -51.031  12.855  1.00  0.00     0.198 C 
HETATM    7  C   UNL     1     -37.548 -50.562  14.319  1.00  0.00     0.298 C 
HETATM    8  N   UNL     1     -38.391 -49.359  14.523  1.00  0.00     0.092 N 
HETATM    9  C   UNL     1     -39.694 -49.590  13.855  1.00  0.00     0.305 C 
BRANCH   8  10
HETATM   10  C   UNL     1     -37.681 -48.148  14.083  1.00  0.00     0.268 C 
HETATM   11  C   UNL     1     -38.516 -46.873  14.153  1.00  0.00     0.037 C 
ENDBRANCH   8  10
ENDBRANCH   3   4
ENDBRANCH   1   3
BRANCH   1  12
HETATM   12  C   UNL     1     -41.714 -52.665  12.172  1.00  0.00     0.159 A 
HETATM   13  N   UNL     1     -41.110 -53.296  13.188  1.00  0.00    -0.343 N 
HETATM   14  C   UNL     1     -41.876 -54.089  13.961  1.00  0.00     0.095 A 
ATOM     15  HN  UNL     1     -40.113 -53.180  13.370  1.00  0.00     0.167 HD
HETATM   16  C   UNL     1     -43.216 -54.272  13.751  1.00  0.00     0.073 A 
HETATM   17  C   UNL     1     -43.732 -53.601  12.673  1.00  0.00     0.145 A 
HETATM   18  N   UNL     1     -43.009 -52.802  11.868  1.00  0.00    -0.313 N 
ATOM     19  HN  UNL     1     -43.427 -52.326  11.069  1.00  0.00     0.170 HD
BRANCH  17  20
HETATM   20  O   UNL     1     -45.083 -53.788  12.439  1.00  0.00    -0.341 OA
HETATM   21  C   UNL     1     -45.852 -52.600  12.595  1.00  0.00     0.211 C 
ENDBRANCH  17  20
ENDBRANCH   1  12
TORSDOF 5
ENDMDL
MODEL 5
REMARK VINA RESULT:      -5.6      3.351      6.662
REMARK  5 active torsions:
REMARK  status: ('A' for Active; 'I' for Inactive)
REMARK    1  A    between atoms: C_2  and  N_3 
REMARK    2  A    between atoms: C_7  and  C_8 
REMARK    3  A    between atoms: C_8  and  N_9 
REMARK    4  A    between atoms: N_9  and  C_10 
REMARK    5  A    between atoms: C_15  and  O_16 
ROOT
HETATM    1  N   UNL     1     -40.671 -49.721  10.361  1.00  0.00    -0.262 NA
HETATM    2  H   UNL     1     -40.937 -50.182   9.495  1.00  0.00     0.130 HD
ENDROOT
BRANCH   1   3
HETATM    3  C   UNL     1     -40.545 -50.622  11.499  1.00  0.00     0.129 C 
BRANCH   3   4
HETATM    4  C   UNL     1     -39.315 -50.204  12.328  1.00  0.00     0.163 C 
HETATM    5  O   UNL     1     -38.452 -51.356  12.474  1.00  0.00    -0.381 OA
HETATM    6  C   UNL     1     -37.291 -51.012  13.238  1.00  0.00     0.198 C 
HETATM    7  C   UNL     1     -37.680 -50.496  14.635  1.00  0.00     0.298 C 
HETATM    8  N   UNL     1     -38.609 -49.340  14.613  1.00  0.00     0.092 N 
HETATM    9  C   UNL     1     -39.740 -49.674  13.716  1.00  0.00     0.305 C 
BRANCH   8  10
HETATM   10  C   UNL     1     -37.891 -48.105  14.263  1.00  0.00     0.268 C 
HETATM   11  C   UNL     1     -36.731 -47.769  15.194  1.00  0.00     0.037 C 
ENDBRANCH   8  10
ENDBRANCH   3   4
ENDBRANCH   1   3
BRANCH   1  12
HETATM   12  C   UNL     1     -41.466 -48.604  10.523  1.00  0.00     0.159 A 
HETATM   13  N   UNL     1     -42.723 -48.733  10.969  1.00  0.00    -0.343 N 
HETATM   14  C   UNL     1     -43.421 -47.602  11.175  1.00  0.00     0.095 A 
ATOM     15  HN  UNL     1     -43.133 -49.650  11.144  1.00  0.00     0.167 HD
HETATM   16  C   UNL     1     -42.909 -46.353  10.950  1.00  0.00     0.073 A 
HETATM   17  C   UNL     1     -41.624 -46.329  10.474  1.00  0.00     0.145 A 
HETATM   18  N   UNL     1     -40.886 -47.430  10.247  1.00  0.00    -0.313 N 
ATOM     19  HN  UNL     1     -39.935 -47.373   9.883  1.00  0.00     0.170 HD
BRANCH  17  20
HETATM   20  O   UNL     1     -41.097 -45.074  10.229  1.00  0.00    -0.341 OA
HETATM   21  C   UNL     1     -39.673 -45.044  10.252  1.00  0.00     0.211 C 
ENDBRANCH  17  20
ENDBRANCH   1  12
TORSDOF 5
ENDMDL
MODEL 6
REMARK VINA RESULT:      -5.5      2.187      6.305
REMARK  5 active torsions:
REMARK  status: ('A' for Active; 'I' for Inactive)
REMARK    1  A    between atoms: C_2  and  N_3 
REMARK    2  A    between atoms: C_7  and  C_8 
REMARK    3  A    between atoms: C_8  and  N_9 
REMARK    4  A    between atoms: N_9  and  C_10 
REMARK    5  A    between atoms: C_15  and  O_16 
ROOT
HETATM    1  N   UNL     1     -41.864 -52.187  11.555  1.00  0.00    -0.262 NA
HETATM    2  H   UNL     1     -42.851 -51.976  11.441  1.00  0.00     0.130 HD
ENDROOT
BRANCH   1   3
HETATM    3  C   UNL     1     -41.578 -53.143  12.617  1.00  0.00     0.129 C 
BRANCH   3   4
HETATM    4  C   UNL     1     -42.871 -53.398  13.415  1.00  0.00     0.163 C 
HETATM    5  O   UNL     1     -42.743 -54.668  14.095  1.00  0.00    -0.381 OA
HETATM    6  C   UNL     1     -43.925 -54.946  14.854  1.00  0.00     0.198 C 
HETATM    7  C   UNL     1     -45.168 -54.986  13.947  1.00  0.00     0.298 C 
HETATM    8  N   UNL     1     -45.376 -53.749  13.156  1.00  0.00     0.092 N 
HETATM    9  C   UNL     1     -44.101 -53.414  12.480  1.00  0.00     0.305 C 
BRANCH   8  10
HETATM   10  C   UNL     1     -45.923 -52.677  14.002  1.00  0.00     0.268 C 
HETATM   11  C   UNL     1     -46.593 -51.548  13.228  1.00  0.00     0.037 C 
ENDBRANCH   8  10
ENDBRANCH   3   4
ENDBRANCH   1   3
BRANCH   1  12
HETATM   12  C   UNL     1     -41.162 -50.997  11.570  1.00  0.00     0.159 A 
HETATM   13  N   UNL     1     -41.818 -49.831  11.504  1.00  0.00    -0.343 N 
HETATM   14  C   UNL     1     -41.083 -48.707  11.596  1.00  0.00     0.095 A 
ATOM     15  HN  UNL     1     -42.831 -49.796  11.390  1.00  0.00     0.167 HD
HETATM   16  C   UNL     1     -39.723 -48.710  11.748  1.00  0.00     0.073 A 
HETATM   17  C   UNL     1     -39.146 -49.953  11.781  1.00  0.00     0.145 A 
HETATM   18  N   UNL     1     -39.834 -51.104  11.688  1.00  0.00    -0.313 N 
ATOM     19  HN  UNL     1     -39.368 -52.012  11.707  1.00  0.00     0.170 HD
BRANCH  17  20
HETATM   20  O   UNL     1     -37.769 -49.973  11.920  1.00  0.00    -0.341 OA
HETATM   21  C   UNL     1     -37.306 -50.978  12.816  1.00  0.00     0.211 C 
ENDBRANCH  17  20
ENDBRANCH   1  12
TORSDOF 5
ENDMDL
MODEL 7
REMARK VINA RESULT:      -5.5      1.735      6.026
REMARK  5 active torsions:
REMARK  status: ('A' for Active; 'I' for Inactive)
REMARK    1  A    between atoms: C_2  and  N_3 
REMARK    2  A    between atoms: C_7  and  C_8 
REMARK    3  A    between atoms: C_8  and  N_9 
REMARK    4  A    between atoms: N_9  and  C_10 
REMARK    5  A    between atoms: C_15  and  O_16 
ROOT
HETATM    1  N   UNL     1     -41.258 -52.241  11.405  1.00  0.00    -0.262 NA
HETATM    2  H   UNL     1     -42.232 -52.056  11.184  1.00  0.00     0.130 HD
ENDROOT
BRANCH   1   3
HETATM    3  C   UNL     1     -41.064 -53.260  12.428  1.00  0.00     0.129 C 
BRANCH   3   4
HETATM    4  C   UNL     1     -42.347 -53.363  13.276  1.00  0.00     0.163 C 
HETATM    5  O   UNL     1     -42.357 -54.653  13.931  1.00  0.00    -0.381 OA
HETATM    6  C   UNL     1     -43.534 -54.792  14.734  1.00  0.00     0.198 C 
HETATM    7  C   UNL     1     -44.807 -54.654  13.879  1.00  0.00     0.298 C 
HETATM    8  N   UNL     1     -44.884 -53.385  13.116  1.00  0.00     0.092 N 
HETATM    9  C   UNL     1     -43.604 -53.203  12.392  1.00  0.00     0.305 C 
BRANCH   8  10
HETATM   10  C   UNL     1     -45.255 -52.269  13.999  1.00  0.00     0.268 C 
HETATM   11  C   UNL     1     -46.509 -51.517  13.567  1.00  0.00     0.037 C 
ENDBRANCH   8  10
ENDBRANCH   3   4
ENDBRANCH   1   3
BRANCH   1  12
HETATM   12  C   UNL     1     -40.614 -51.034  11.585  1.00  0.00     0.159 A 
HETATM   13  N   UNL     1     -39.384 -51.002  12.116  1.00  0.00    -0.343 N 
HETATM   14  C   UNL     1     -38.781 -49.802  12.198  1.00  0.00     0.095 A 
ATOM     15  HN  UNL     1     -38.924 -51.852  12.444  1.00  0.00     0.167 HD
HETATM   16  C   UNL     1     -39.363 -48.639  11.772  1.00  0.00     0.073 A 
HETATM   17  C   UNL     1     -40.630 -48.776  11.266  1.00  0.00     0.145 A 
HETATM   18  N   UNL     1     -41.277 -49.950  11.167  1.00  0.00    -0.313 N 
ATOM     19  HN  UNL     1     -42.224 -50.011  10.793  1.00  0.00     0.170 HD
BRANCH  17  20
HETATM   20  O   UNL     1     -41.237 -47.607  10.843  1.00  0.00    -0.341 OA
HETATM   21  C   UNL     1     -42.396 -47.828  10.047  1.00  0.00     0.211 C 
ENDBRANCH  17  20
ENDBRANCH   1  12
TORSDOF 5
ENDMDL
MODEL 8
REMARK VINA RESULT:      -5.4      1.587      2.349
REMARK  5 active torsions:
REMARK  status: ('A' for Active; 'I' for Inactive)
REMARK    1  A    between atoms: C_2  and  N_3 
REMARK    2  A    between atoms: C_7  and  C_8 
REMARK    3  A    between atoms: C_8  and  N_9 
REMARK    4  A    between atoms: N_9  and  C_10 
REMARK    5  A    between atoms: C_15  and  O_16 
ROOT
HETATM    1  N   UNL     1     -40.954 -51.532  11.331  1.00  0.00    -0.262 NA
HETATM    2  H   UNL     1     -40.567 -52.006  10.520  1.00  0.00     0.130 HD
ENDROOT
BRANCH   1   3
HETATM    3  C   UNL     1     -40.006 -50.668  12.023  1.00  0.00     0.129 C 
BRANCH   3   4
HETATM    4  C   UNL     1     -40.549 -49.225  12.008  1.00  0.00     0.163 C 
HETATM    5  O   UNL     1     -41.161 -48.983  10.720  1.00  0.00    -0.381 OA
HETATM    6  C   UNL     1     -41.683 -47.651  10.662  1.00  0.00     0.198 C 
HETATM    7  C   UNL     1     -40.572 -46.611  10.893  1.00  0.00     0.298 C 
HETATM    8  N   UNL     1     -39.835 -46.790  12.167  1.00  0.00     0.092 N 
HETATM    9  C   UNL     1     -39.414 -48.208  12.260  1.00  0.00     0.305 C 
BRANCH   8  10
HETATM   10  C   UNL     1     -40.637 -46.311  13.303  1.00  0.00     0.268 C 
HETATM   11  C   UNL     1     -41.032 -44.841  13.215  1.00  0.00     0.037 C 
ENDBRANCH   8  10
ENDBRANCH   3   4
ENDBRANCH   1   3
BRANCH   1  12
HETATM   12  C   UNL     1     -41.639 -52.457  12.093  1.00  0.00     0.159 A 
HETATM   13  N   UNL     1     -41.015 -53.099  13.090  1.00  0.00    -0.343 N 
HETATM   14  C   UNL     1     -41.755 -53.934  13.842  1.00  0.00     0.095 A 
ATOM     15  HN  UNL     1     -40.021 -52.960  13.272  1.00  0.00     0.167 HD
HETATM   16  C   UNL     1     -43.090 -54.150  13.630  1.00  0.00     0.073 A 
HETATM   17  C   UNL     1     -43.628 -53.464  12.573  1.00  0.00     0.145 A 
HETATM   18  N   UNL     1     -42.931 -52.623  11.789  1.00  0.00    -0.313 N 
ATOM     19  HN  UNL     1     -43.365 -52.136  11.004  1.00  0.00     0.170 HD
BRANCH  17  20
HETATM   20  O   UNL     1     -44.974 -53.682  12.338  1.00  0.00    -0.341 OA
HETATM   21  C   UNL     1     -45.789 -52.552  12.631  1.00  0.00     0.211 C 
ENDBRANCH  17  20
ENDBRANCH   1  12
TORSDOF 5
ENDMDL
MODEL 9
REMARK VINA RESULT:      -5.3      2.110      3.303
REMARK  5 active torsions:
REMARK  status: ('A' for Active; 'I' for Inactive)
REMARK    1  A    between atoms: C_2  and  N_3 
REMARK    2  A    between atoms: C_7  and  C_8 
REMARK    3  A    between atoms: C_8  and  N_9 
REMARK    4  A    between atoms: N_9  and  C_10 
REMARK    5  A    between atoms: C_15  and  O_16 
ROOT
HETATM    1  N   UNL     1     -42.477 -52.528  11.695  1.00  0.00    -0.262 NA
HETATM    2  H   UNL     1     -42.609 -52.853  10.742  1.00  0.00     0.130 HD
ENDROOT
BRANCH   1   3
HETATM    3  C   UNL     1     -41.107 -52.641  12.178  1.00  0.00     0.129 C 
BRANCH   3   4
HETATM    4  C   UNL     1     -40.395 -51.290  11.967  1.00  0.00     0.163 C 
HETATM    5  O   UNL     1     -39.035 -51.413  12.446  1.00  0.00    -0.381 OA
HETATM    6  C   UNL     1     -38.332 -50.179  12.268  1.00  0.00     0.198 C 
HETATM    7  C   UNL     1     -39.028 -49.032  13.022  1.00  0.00     0.298 C 
HETATM    8  N   UNL     1     -40.451 -48.841  12.650  1.00  0.00     0.092 N 
HETATM    9  C   UNL     1     -41.127 -50.158  12.722  1.00  0.00     0.305 C 
BRANCH   8  10
HETATM   10  C   UNL     1     -40.561 -48.165  11.348  1.00  0.00     0.268 C 
HETATM   11  C   UNL     1     -41.961 -48.189  10.746  1.00  0.00     0.037 C 
ENDBRANCH   8  10
ENDBRANCH   3   4
ENDBRANCH   1   3
BRANCH   1  12
HETATM   12  C   UNL     1     -43.472 -53.072  12.483  1.00  0.00     0.159 A 
HETATM   13  N   UNL     1     -44.743 -52.679  12.325  1.00  0.00    -0.343 N 
HETATM   14  C   UNL     1     -45.675 -53.299  13.072  1.00  0.00     0.095 A 
ATOM     15  HN  UNL     1     -44.994 -51.942  11.666  1.00  0.00     0.167 HD
HETATM   16  C   UNL     1     -45.380 -54.290  13.968  1.00  0.00     0.073 A 
HETATM   17  C   UNL     1     -44.050 -54.603  14.072  1.00  0.00     0.145 A 
HETATM   18  N   UNL     1     -43.080 -54.011  13.353  1.00  0.00    -0.313 N 
ATOM     19  HN  UNL     1     -42.099 -54.264  13.464  1.00  0.00     0.170 HD
BRANCH  17  20
HETATM   20  O   UNL     1     -43.734 -55.594  14.984  1.00  0.00    -0.341 OA
HETATM   21  C   UNL     1     -42.545 -55.328  15.719  1.00  0.00     0.211 C 
ENDBRANCH  17  20
ENDBRANCH   1  12
TORSDOF 5
ENDMDL
