MODEL 1
REMARK VINA RESULT:      -5.9      0.000      0.000
REMARK  4 active torsions:
REMARK  status: ('A' for Active; 'I' for Inactive)
REMARK    1  A    between atoms: C_2  and  C_4 
REMARK    2  A    between atoms: C_7  and  C_8 
REMARK    3  A    between atoms: C_8  and  C_9 
REMARK       I    between atoms: C_9  and  N_11 
REMARK    4  A    between atoms: N_11  and  C_12 
ROOT
HETATM    1  C   UNL     1     -41.639 -53.574  13.311  1.00  0.00     0.181 C 
ENDROOT
BRANCH   1   2
HETATM    2  C   UNL     1     -43.048 -53.305  12.969  1.00  0.00     0.112 A 
HETATM    3  N   UNL     1     -43.616 -52.065  13.130  1.00  0.00    -0.326 N 
HETATM    4  C   UNL     1     -44.866 -52.293  12.790  1.00  0.00     0.151 A 
ATOM      5  HN  UNL     1     -43.181 -51.194  13.434  1.00  0.00     0.169 HD
HETATM    6  O   UNL     1     -45.085 -53.566  12.347  1.00  0.00    -0.223 OA
HETATM    7  N   UNL     1     -43.862 -54.233  12.448  1.00  0.00    -0.247 N 
ATOM      8  HN  UNL     1     -43.643 -55.194  12.189  1.00  0.00     0.196 HD
BRANCH   4   9
HETATM    9  C   UNL     1     -46.054 -51.410  12.933  1.00  0.00     0.055 C 
HETATM   10  C   UNL     1     -47.049 -51.723  11.814  1.00  0.00     0.018 C 
HETATM   11  C   UNL     1     -46.708 -51.583  14.300  1.00  0.00     0.018 C 
ENDBRANCH   4   9
ENDBRANCH   1   2
BRANCH   1  12
HETATM   12  C   UNL     1     -41.000 -52.369  13.975  1.00  0.00     0.225 C 
HETATM   13  O   UNL     1     -41.363 -51.945  15.068  1.00  0.00    -0.273 OA
HETATM   14  N   UNL     1     -39.938 -51.839  13.270  1.00  0.00    -0.356 N 
HETATM   15  H   UNL     1     -39.878 -52.074  12.284  1.00  0.00     0.162 HD
BRANCH  14  16
HETATM   16  C   UNL     1     -39.081 -50.782  13.792  1.00  0.00     0.084 C 
HETATM   17  C   UNL     1     -39.450 -49.378  13.301  1.00  0.00     0.025 C 
HETATM   18  C   UNL     1     -39.079 -49.111  11.841  1.00  0.00     0.002 C 
HETATM   19  C   UNL     1     -37.645 -49.508  11.500  1.00  0.00     0.000 C 
HETATM   20  C   UNL     1     -37.309 -50.918  11.969  1.00  0.00     0.002 C 
HETATM   21  C   UNL     1     -37.612 -51.099  13.456  1.00  0.00     0.025 C 
ENDBRANCH  14  16
ENDBRANCH   1  12
TORSDOF 4
ENDMDL
MODEL 2
REMARK VINA RESULT:      -5.9      3.930      6.349
REMARK  4 active torsions:
REMARK  status: ('A' for Active; 'I' for Inactive)
REMARK    1  A    between atoms: C_2  and  C_4 
REMARK    2  A    between atoms: C_7  and  C_8 
REMARK    3  A    between atoms: C_8  and  C_9 
REMARK       I    between atoms: C_9  and  N_11 
REMARK    4  A    between atoms: N_11  and  C_12 
ROOT
HETATM    1  C   UNL     1     -41.957 -48.987  12.580  1.00  0.00     0.181 C 
ENDROOT
BRANCH   1   2
HETATM    2  C   UNL     1     -42.353 -48.454  11.262  1.00  0.00     0.112 A 
HETATM    3  N   UNL     1     -43.493 -47.710  11.087  1.00  0.00    -0.326 N 
HETATM    4  C   UNL     1     -43.496 -47.521   9.785  1.00  0.00     0.151 A 
ATOM      5  HN  UNL     1     -44.164 -47.388  11.784  1.00  0.00     0.169 HD
HETATM    6  O   UNL     1     -42.390 -48.022   9.161  1.00  0.00    -0.223 OA
HETATM    7  N   UNL     1     -41.619 -48.627  10.155  1.00  0.00    -0.247 N 
ATOM      8  HN  UNL     1     -40.714 -49.089  10.061  1.00  0.00     0.196 HD
BRANCH   4   9
HETATM    9  C   UNL     1     -44.567 -46.955   8.921  1.00  0.00     0.055 C 
HETATM   10  C   UNL     1     -45.918 -47.514   9.366  1.00  0.00     0.018 C 
HETATM   11  C   UNL     1     -44.570 -45.431   8.974  1.00  0.00     0.018 C 
ENDBRANCH   4   9
ENDBRANCH   1   2
BRANCH   1  12
HETATM   12  C   UNL     1     -42.338 -50.450  12.711  1.00  0.00     0.225 C 
HETATM   13  O   UNL     1     -41.520 -51.359  12.607  1.00  0.00    -0.273 OA
HETATM   14  N   UNL     1     -43.667 -50.656  13.021  1.00  0.00    -0.356 N 
HETATM   15  H   UNL     1     -44.307 -49.892  12.831  1.00  0.00     0.162 HD
BRANCH  14  16
HETATM   16  C   UNL     1     -44.218 -51.966  13.347  1.00  0.00     0.084 C 
HETATM   17  C   UNL     1     -45.544 -52.279  12.648  1.00  0.00     0.025 C 
HETATM   18  C   UNL     1     -46.742 -51.513  13.213  1.00  0.00     0.002 C 
HETATM   19  C   UNL     1     -46.836 -51.576  14.736  1.00  0.00     0.000 C 
HETATM   20  C   UNL     1     -45.514 -51.231  15.411  1.00  0.00     0.002 C 
HETATM   21  C   UNL     1     -44.372 -52.093  14.874  1.00  0.00     0.025 C 
ENDBRANCH  14  16
ENDBRANCH   1  12
TORSDOF 4
ENDMDL
MODEL 3
REMARK VINA RESULT:      -5.9      1.195      2.010
REMARK  4 active torsions:
REMARK  status: ('A' for Active; 'I' for Inactive)
REMARK    1  A    between atoms: C_2  and  C_4 
REMARK    2  A    between atoms: C_7  and  C_8 
REMARK    3  A    between atoms: C_8  and  C_9 
REMARK       I    between atoms: C_9  and  N_11 
REMARK    4  A    between atoms: N_11  and  C_12 
ROOT
HETATM    1  C   UNL     1     -41.718 -52.968  14.091  1.00  0.00     0.181 C 
ENDROOT
BRANCH   1   2
HETATM    2  C   UNL     1     -43.047 -53.040  13.454  1.00  0.00     0.112 A 
HETATM    3  N   UNL     1     -44.069 -52.191  13.797  1.00  0.00    -0.326 N 
HETATM    4  C   UNL     1     -45.060 -52.651  13.064  1.00  0.00     0.151 A 
ATOM      5  HN  UNL     1     -44.063 -51.408  14.450  1.00  0.00     0.169 HD
HETATM    6  O   UNL     1     -44.693 -53.667  12.230  1.00  0.00    -0.223 OA
HETATM    7  N   UNL     1     -43.341 -53.910  12.478  1.00  0.00    -0.247 N 
ATOM      8  HN  UNL     1     -42.726 -54.587  12.026  1.00  0.00     0.196 HD
BRANCH   4   9
HETATM    9  C   UNL     1     -46.505 -52.298  13.110  1.00  0.00     0.055 C 
HETATM   10  C   UNL     1     -46.758 -51.380  14.307  1.00  0.00     0.018 C 
HETATM   11  C   UNL     1     -46.950 -51.629  11.813  1.00  0.00     0.018 C 
ENDBRANCH   4   9
ENDBRANCH   1   2
BRANCH   1  12
HETATM   12  C   UNL     1     -40.650 -52.591  13.081  1.00  0.00     0.225 C 
HETATM   13  O   UNL     1     -40.475 -53.214  12.038  1.00  0.00    -0.273 OA
HETATM   14  N   UNL     1     -39.944 -51.451  13.413  1.00  0.00    -0.356 N 
HETATM   15  H   UNL     1     -39.969 -51.163  14.385  1.00  0.00     0.162 HD
BRANCH  14  16
HETATM   16  C   UNL     1     -38.983 -50.819  12.518  1.00  0.00     0.084 C 
HETATM   17  C   UNL     1     -37.538 -50.855  13.026  1.00  0.00     0.025 C 
HETATM   18  C   UNL     1     -37.260 -49.894  14.184  1.00  0.00     0.002 C 
HETATM   19  C   UNL     1     -37.773 -48.478  13.930  1.00  0.00     0.000 C 
HETATM   20  C   UNL     1     -39.221 -48.464  13.455  1.00  0.00     0.002 C 
HETATM   21  C   UNL     1     -39.418 -49.368  12.239  1.00  0.00     0.025 C 
ENDBRANCH  14  16
ENDBRANCH   1  12
TORSDOF 4
ENDMDL
MODEL 4
REMARK VINA RESULT:      -5.6      1.746      6.686
REMARK  4 active torsions:
REMARK  status: ('A' for Active; 'I' for Inactive)
REMARK    1  A    between atoms: C_2  and  C_4 
REMARK    2  A    between atoms: C_7  and  C_8 
REMARK    3  A    between atoms: C_8  and  C_9 
REMARK       I    between atoms: C_9  and  N_11 
REMARK    4  A    between atoms: N_11  and  C_12 
ROOT
HETATM    1  C   UNL     1     -42.174 -54.028  13.442  1.00  0.00     0.181 C 
ENDROOT
BRANCH   1   2
HETATM    2  C   UNL     1     -41.497 -52.881  12.807  1.00  0.00     0.112 A 
HETATM    3  N   UNL     1     -40.361 -52.319  13.335  1.00  0.00    -0.326 N 
HETATM    4  C   UNL     1     -40.155 -51.308  12.519  1.00  0.00     0.151 A 
ATOM      5  HN  UNL     1     -39.819 -52.609  14.148  1.00  0.00     0.169 HD
HETATM    6  O   UNL     1     -41.035 -51.264  11.476  1.00  0.00    -0.223 OA
HETATM    7  N   UNL     1     -41.918 -52.330  11.661  1.00  0.00    -0.247 N 
ATOM      8  HN  UNL     1     -42.695 -52.619  11.067  1.00  0.00     0.196 HD
BRANCH   4   9
HETATM    9  C   UNL     1     -39.195 -50.179  12.646  1.00  0.00     0.055 C 
HETATM   10  C   UNL     1     -37.824 -50.628  12.139  1.00  0.00     0.018 C 
HETATM   11  C   UNL     1     -39.680 -48.955  11.876  1.00  0.00     0.018 C 
ENDBRANCH   4   9
ENDBRANCH   1   2
BRANCH   1  12
HETATM   12  C   UNL     1     -43.668 -53.989  13.184  1.00  0.00     0.225 C 
HETATM   13  O   UNL     1     -44.160 -54.254  12.090  1.00  0.00    -0.273 OA
HETATM   14  N   UNL     1     -44.422 -53.692  14.303  1.00  0.00    -0.356 N 
HETATM   15  H   UNL     1     -43.940 -53.240  15.073  1.00  0.00     0.162 HD
BRANCH  14  16
HETATM   16  C   UNL     1     -45.878 -53.754  14.325  1.00  0.00     0.084 C 
HETATM   17  C   UNL     1     -46.564 -52.580  13.619  1.00  0.00     0.025 C 
HETATM   18  C   UNL     1     -46.497 -51.262  14.393  1.00  0.00     0.002 C 
HETATM   19  C   UNL     1     -46.902 -51.401  15.859  1.00  0.00     0.000 C 
HETATM   20  C   UNL     1     -46.185 -52.554  16.549  1.00  0.00     0.002 C 
HETATM   21  C   UNL     1     -46.365 -53.864  15.781  1.00  0.00     0.025 C 
ENDBRANCH  14  16
ENDBRANCH   1  12
TORSDOF 4
ENDMDL
MODEL 5
REMARK VINA RESULT:      -5.6      3.961      6.042
REMARK  4 active torsions:
REMARK  status: ('A' for Active; 'I' for Inactive)
REMARK    1  A    between atoms: C_2  and  C_4 
REMARK    2  A    between atoms: C_7  and  C_8 
REMARK    3  A    between atoms: C_8  and  C_9 
REMARK       I    between atoms: C_9  and  N_11 
REMARK    4  A    between atoms: N_11  and  C_12 
ROOT
HETATM    1  C   UNL     1     -42.592 -49.455  12.810  1.00  0.00     0.181 C 
ENDROOT
BRANCH   1   2
HETATM    2  C   UNL     1     -42.529 -48.527  11.665  1.00  0.00     0.112 A 
HETATM    3  N   UNL     1     -43.636 -48.211  10.918  1.00  0.00    -0.326 N 
HETATM    4  C   UNL     1     -43.122 -47.442   9.983  1.00  0.00     0.151 A 
ATOM      5  HN  UNL     1     -44.605 -48.497  11.053  1.00  0.00     0.169 HD
HETATM    6  O   UNL     1     -41.790 -47.193  10.156  1.00  0.00    -0.223 OA
HETATM    7  N   UNL     1     -41.403 -47.903  11.294  1.00  0.00    -0.247 N 
ATOM      8  HN  UNL     1     -40.484 -47.939  11.736  1.00  0.00     0.196 HD
BRANCH   4   9
HETATM    9  C   UNL     1     -43.754 -46.923   8.740  1.00  0.00     0.055 C 
HETATM   10  C   UNL     1     -43.508 -47.914   7.602  1.00  0.00     0.018 C 
HETATM   11  C   UNL     1     -45.248 -46.690   8.939  1.00  0.00     0.018 C 
ENDBRANCH   4   9
ENDBRANCH   1   2
BRANCH   1  12
HETATM   12  C   UNL     1     -42.241 -50.868  12.385  1.00  0.00     0.225 C 
HETATM   13  O   UNL     1     -41.200 -51.144  11.797  1.00  0.00    -0.273 OA
HETATM   14  N   UNL     1     -43.167 -51.816  12.777  1.00  0.00    -0.356 N 
HETATM   15  H   UNL     1     -44.095 -51.481  13.014  1.00  0.00     0.162 HD
BRANCH  14  16
HETATM   16  C   UNL     1     -42.959 -53.250  12.614  1.00  0.00     0.084 C 
HETATM   17  C   UNL     1     -44.252 -54.070  12.592  1.00  0.00     0.025 C 
HETATM   18  C   UNL     1     -44.924 -54.210  13.959  1.00  0.00     0.002 C 
HETATM   19  C   UNL     1     -43.961 -54.636  15.065  1.00  0.00     0.000 C 
HETATM   20  C   UNL     1     -42.696 -53.787  15.088  1.00  0.00     0.002 C 
HETATM   21  C   UNL     1     -42.017 -53.761  13.719  1.00  0.00     0.025 C 
ENDBRANCH  14  16
ENDBRANCH   1  12
TORSDOF 4
ENDMDL
MODEL 6
REMARK VINA RESULT:      -5.4      2.211      5.977
REMARK  4 active torsions:
REMARK  status: ('A' for Active; 'I' for Inactive)
REMARK    1  A    between atoms: C_2  and  C_4 
REMARK    2  A    between atoms: C_7  and  C_8 
REMARK    3  A    between atoms: C_8  and  C_9 
REMARK       I    between atoms: C_9  and  N_11 
REMARK    4  A    between atoms: N_11  and  C_12 
ROOT
HETATM    1  C   UNL     1     -41.397 -54.442  15.039  1.00  0.00     0.181 C 
ENDROOT
BRANCH   1   2
HETATM    2  C   UNL     1     -41.045 -53.667  13.834  1.00  0.00     0.112 A 
HETATM    3  N   UNL     1     -40.746 -52.329  13.887  1.00  0.00    -0.326 N 
HETATM    4  C   UNL     1     -40.580 -52.038  12.615  1.00  0.00     0.151 A 
ATOM      5  HN  UNL     1     -40.671 -51.719  14.700  1.00  0.00     0.169 HD
HETATM    6  O   UNL     1     -40.670 -53.124  11.793  1.00  0.00    -0.223 OA
HETATM    7  N   UNL     1     -40.961 -54.215  12.614  1.00  0.00    -0.247 N 
ATOM      8  HN  UNL     1     -41.080 -55.193  12.349  1.00  0.00     0.196 HD
BRANCH   4   9
HETATM    9  C   UNL     1     -40.429 -50.707  11.967  1.00  0.00     0.055 C 
HETATM   10  C   UNL     1     -41.753 -49.947  12.068  1.00  0.00     0.018 C 
HETATM   11  C   UNL     1     -39.299 -49.908  12.609  1.00  0.00     0.018 C 
ENDBRANCH   4   9
ENDBRANCH   1   2
BRANCH   1  12
HETATM   12  C   UNL     1     -42.874 -54.788  15.052  1.00  0.00     0.225 C 
HETATM   13  O   UNL     1     -43.287 -55.924  15.265  1.00  0.00    -0.273 OA
HETATM   14  N   UNL     1     -43.705 -53.700  14.868  1.00  0.00    -0.356 N 
HETATM   15  H   UNL     1     -43.292 -52.874  14.447  1.00  0.00     0.162 HD
BRANCH  14  16
HETATM   16  C   UNL     1     -45.155 -53.771  14.999  1.00  0.00     0.084 C 
HETATM   17  C   UNL     1     -45.893 -53.972  13.672  1.00  0.00     0.025 C 
HETATM   18  C   UNL     1     -45.923 -52.728  12.781  1.00  0.00     0.002 C 
HETATM   19  C   UNL     1     -46.353 -51.464  13.523  1.00  0.00     0.000 C 
HETATM   20  C   UNL     1     -45.585 -51.268  14.823  1.00  0.00     0.002 C 
HETATM   21  C   UNL     1     -45.669 -52.508  15.714  1.00  0.00     0.025 C 
ENDBRANCH  14  16
ENDBRANCH   1  12
TORSDOF 4
ENDMDL
MODEL 7
REMARK VINA RESULT:      -5.3      3.962      5.427
REMARK  4 active torsions:
REMARK  status: ('A' for Active; 'I' for Inactive)
REMARK    1  A    between atoms: C_2  and  C_4 
REMARK    2  A    between atoms: C_7  and  C_8 
REMARK    3  A    between atoms: C_8  and  C_9 
REMARK       I    between atoms: C_9  and  N_11 
REMARK    4  A    between atoms: N_11  and  C_12 
ROOT
HETATM    1  C   UNL     1     -40.318 -48.783  11.633  1.00  0.00     0.181 C 
ENDROOT
BRANCH   1   2
HETATM    2  C   UNL     1     -41.256 -47.910  10.901  1.00  0.00     0.112 A 
HETATM    3  N   UNL     1     -42.342 -48.407  10.225  1.00  0.00    -0.326 N 
HETATM    4  C   UNL     1     -42.836 -47.322   9.670  1.00  0.00     0.151 A 
ATOM      5  HN  UNL     1     -42.679 -49.368  10.168  1.00  0.00     0.169 HD
HETATM    6  O   UNL     1     -42.179 -46.181  10.030  1.00  0.00    -0.223 OA
HETATM    7  N   UNL     1     -41.136 -46.576  10.870  1.00  0.00    -0.247 N 
ATOM      8  HN  UNL     1     -40.449 -45.991  11.345  1.00  0.00     0.196 HD
BRANCH   4   9
HETATM    9  C   UNL     1     -43.905 -47.195   8.644  1.00  0.00     0.055 C 
HETATM   10  C   UNL     1     -43.552 -48.070   7.440  1.00  0.00     0.018 C 
HETATM   11  C   UNL     1     -45.265 -47.587   9.215  1.00  0.00     0.018 C 
ENDBRANCH   4   9
ENDBRANCH   1   2
BRANCH   1  12
HETATM   12  C   UNL     1     -41.008 -49.465  12.800  1.00  0.00     0.225 C 
HETATM   13  O   UNL     1     -42.026 -49.018  13.321  1.00  0.00    -0.273 OA
HETATM   14  N   UNL     1     -40.425 -50.660  13.174  1.00  0.00    -0.356 N 
HETATM   15  H   UNL     1     -39.467 -50.815  12.878  1.00  0.00     0.162 HD
BRANCH  14  16
HETATM   16  C   UNL     1     -41.009 -51.558  14.162  1.00  0.00     0.084 C 
HETATM   17  C   UNL     1     -39.989 -52.177  15.123  1.00  0.00     0.025 C 
HETATM   18  C   UNL     1     -39.115 -53.262  14.491  1.00  0.00     0.002 C 
HETATM   19  C   UNL     1     -39.915 -54.303  13.711  1.00  0.00     0.000 C 
HETATM   20  C   UNL     1     -40.900 -53.666  12.739  1.00  0.00     0.002 C 
HETATM   21  C   UNL     1     -41.809 -52.661  13.446  1.00  0.00     0.025 C 
ENDBRANCH  14  16
ENDBRANCH   1  12
TORSDOF 4
ENDMDL
MODEL 8
REMARK VINA RESULT:      -5.2      3.987      7.462
REMARK  4 active torsions:
REMARK  status: ('A' for Active; 'I' for Inactive)
REMARK    1  A    between atoms: C_2  and  C_4 
REMARK    2  A    between atoms: C_7  and  C_8 
REMARK    3  A    between atoms: C_8  and  C_9 
REMARK       I    between atoms: C_9  and  N_11 
REMARK    4  A    between atoms: N_11  and  C_12 
ROOT
HETATM    1  C   UNL     1     -42.872 -48.159  11.418  1.00  0.00     0.181 C 
ENDROOT
BRANCH   1   2
HETATM    2  C   UNL     1     -41.706 -47.260  11.321  1.00  0.00     0.112 A 
HETATM    3  N   UNL     1     -41.731 -45.974  11.800  1.00  0.00    -0.326 N 
HETATM    4  C   UNL     1     -40.547 -45.528  11.441  1.00  0.00     0.151 A 
ATOM      5  HN  UNL     1     -42.474 -45.491  12.304  1.00  0.00     0.169 HD
HETATM    6  O   UNL     1     -39.764 -46.478  10.851  1.00  0.00    -0.223 OA
HETATM    7  N   UNL     1     -40.535 -47.641  10.792  1.00  0.00    -0.247 N 
ATOM      8  HN  UNL     1     -40.270 -48.558  10.433  1.00  0.00     0.196 HD
BRANCH   4   9
HETATM    9  C   UNL     1     -40.014 -44.140  11.484  1.00  0.00     0.055 C 
HETATM   10  C   UNL     1     -41.162 -43.154  11.261  1.00  0.00     0.018 C 
HETATM   11  C   UNL     1     -39.315 -43.860  12.811  1.00  0.00     0.018 C 
ENDBRANCH   4   9
ENDBRANCH   1   2
BRANCH   1  12
HETATM   12  C   UNL     1     -42.629 -49.258  12.434  1.00  0.00     0.225 C 
HETATM   13  O   UNL     1     -41.562 -49.387  13.029  1.00  0.00    -0.273 OA
HETATM   14  N   UNL     1     -43.732 -50.054  12.672  1.00  0.00    -0.356 N 
HETATM   15  H   UNL     1     -44.463 -50.048  11.968  1.00  0.00     0.162 HD
BRANCH  14  16
HETATM   16  C   UNL     1     -43.774 -51.069  13.718  1.00  0.00     0.084 C 
HETATM   17  C   UNL     1     -43.490 -52.490  13.222  1.00  0.00     0.025 C 
HETATM   18  C   UNL     1     -44.635 -53.111  12.419  1.00  0.00     0.002 C 
HETATM   19  C   UNL     1     -45.994 -52.973  13.101  1.00  0.00     0.000 C 
HETATM   20  C   UNL     1     -46.270 -51.546  13.558  1.00  0.00     0.002 C 
HETATM   21  C   UNL     1     -45.136 -51.012  14.434  1.00  0.00     0.025 C 
ENDBRANCH  14  16
ENDBRANCH   1  12
TORSDOF 4
ENDMDL
MODEL 9
REMARK VINA RESULT:      -5.1      2.802      4.349
REMARK  4 active torsions:
REMARK  status: ('A' for Active; 'I' for Inactive)
REMARK    1  A    between atoms: C_2  and  C_4 
REMARK    2  A    between atoms: C_7  and  C_8 
REMARK    3  A    between atoms: C_8  and  C_9 
REMARK       I    between atoms: C_9  and  N_11 
REMARK    4  A    between atoms: N_11  and  C_12 
ROOT
HETATM    1  C   UNL     1     -41.557 -52.366  13.543  1.00  0.00     0.181 C 
ENDROOT
BRANCH   1   2
HETATM    2  C   UNL     1     -42.925 -52.694  13.095  1.00  0.00     0.112 A 
HETATM    3  N   UNL     1     -43.991 -51.863  13.333  1.00  0.00    -0.326 N 
HETATM    4  C   UNL     1     -44.994 -52.563  12.850  1.00  0.00     0.151 A 
ATOM      5  HN  UNL     1     -44.002 -50.942  13.771  1.00  0.00     0.169 HD
HETATM    6  O   UNL     1     -44.605 -53.728  12.253  1.00  0.00    -0.223 OA
HETATM    7  N   UNL     1     -43.218 -53.801  12.401  1.00  0.00    -0.247 N 
ATOM      8  HN  UNL     1     -42.583 -54.523  12.061  1.00  0.00     0.196 HD
BRANCH   4   9
HETATM    9  C   UNL     1     -46.456 -52.317  12.970  1.00  0.00     0.055 C 
HETATM   10  C   UNL     1     -46.714 -51.413  14.176  1.00  0.00     0.018 C 
HETATM   11  C   UNL     1     -47.014 -51.689  11.697  1.00  0.00     0.018 C 
ENDBRANCH   4   9
ENDBRANCH   1   2
BRANCH   1  12
HETATM   12  C   UNL     1     -40.759 -53.626  13.819  1.00  0.00     0.225 C 
HETATM   13  O   UNL     1     -40.080 -54.182  12.960  1.00  0.00    -0.273 OA
HETATM   14  N   UNL     1     -40.815 -54.048  15.132  1.00  0.00    -0.356 N 
HETATM   15  H   UNL     1     -41.585 -53.699  15.694  1.00  0.00     0.162 HD
BRANCH  14  16
HETATM   16  C   UNL     1     -40.004 -55.140  15.656  1.00  0.00     0.084 C 
HETATM   17  C   UNL     1     -40.701 -55.975  16.735  1.00  0.00     0.025 C 
HETATM   18  C   UNL     1     -40.822 -55.269  18.087  1.00  0.00     0.002 C 
HETATM   19  C   UNL     1     -39.512 -54.646  18.563  1.00  0.00     0.000 C 
HETATM   20  C   UNL     1     -38.852 -53.795  17.485  1.00  0.00     0.002 C 
HETATM   21  C   UNL     1     -38.671 -54.582  16.187  1.00  0.00     0.025 C 
ENDBRANCH  14  16
ENDBRANCH   1  12
TORSDOF 4
ENDMDL
