MODEL 1
REMARK VINA RESULT:      -5.1      0.000      0.000
REMARK  3 active torsions:
REMARK  status: ('A' for Active; 'I' for Inactive)
REMARK    1  A    between atoms: C_5  and  C_6 
REMARK    2  A    between atoms: C_6  and  C_7 
REMARK       I    between atoms: C_7  and  N_9 
REMARK    3  A    between atoms: N_9  and  C_10 
ROOT
HETATM    1  C   UNL     1     -42.580 -47.868  11.198  1.00  0.00     0.160 C 
ENDROOT
BRANCH   1   2
HETATM    2  C   UNL     1     -41.566 -46.784  11.345  1.00  0.00     0.025 A 
HETATM    3  N   UNL     1     -40.799 -46.439  10.241  1.00  0.00    -0.357 N 
HETATM    4  C   UNL     1     -40.005 -45.433  10.539  1.00  0.00     0.047 A 
ATOM      5  HN  UNL     1     -40.845 -46.898   9.331  1.00  0.00     0.166 HD
HETATM    6  C   UNL     1     -39.070 -44.781   9.581  1.00  0.00     0.076 C 
HETATM    7  S   UNL     1     -40.103 -44.868  12.159  1.00  0.00    -0.087 SA
HETATM    8  C   UNL     1     -41.315 -46.033  12.478  1.00  0.00     0.077 A 
ENDBRANCH   1   2
BRANCH   1   9
HETATM    9  C   UNL     1     -43.367 -47.728   9.911  1.00  0.00     0.223 C 
HETATM   10  O   UNL     1     -42.833 -47.829   8.807  1.00  0.00    -0.273 OA
HETATM   11  N   UNL     1     -44.715 -47.481  10.094  1.00  0.00    -0.356 N 
HETATM   12  H   UNL     1     -45.038 -47.246  11.027  1.00  0.00     0.162 HD
BRANCH  11  13
HETATM   13  C   UNL     1     -45.619 -47.331   8.999  1.00  0.00     0.084 A 
HETATM   14  C   UNL     1     -47.104 -47.458   9.201  1.00  0.00     0.027 A 
HETATM   15  C   UNL     1     -46.357 -48.521   8.451  1.00  0.00     0.027 A 
ENDBRANCH  11  13
ENDBRANCH   1   9
TORSDOF 3
ENDMDL
MODEL 2
REMARK VINA RESULT:      -4.9      2.572      3.482
REMARK  3 active torsions:
REMARK  status: ('A' for Active; 'I' for Inactive)
REMARK    1  A    between atoms: C_5  and  C_6 
REMARK    2  A    between atoms: C_6  and  C_7 
REMARK       I    between atoms: C_7  and  N_9 
REMARK    3  A    between atoms: N_9  and  C_10 
ROOT
HETATM    1  C   UNL     1     -42.677 -47.610  11.663  1.00  0.00     0.160 C 
ENDROOT
BRANCH   1   2
HETATM    2  C   UNL     1     -41.686 -48.713  11.820  1.00  0.00     0.025 A 
HETATM    3  N   UNL     1     -42.142 -50.024  11.796  1.00  0.00    -0.357 N 
HETATM    4  C   UNL     1     -41.129 -50.858  11.889  1.00  0.00     0.047 A 
ATOM      5  HN  UNL     1     -43.121 -50.301  11.717  1.00  0.00     0.166 HD
HETATM    6  C   UNL     1     -41.248 -52.342  11.859  1.00  0.00     0.076 C 
HETATM    7  S   UNL     1     -39.582 -50.126  12.048  1.00  0.00    -0.087 SA
HETATM    8  C   UNL     1     -40.316 -48.583  11.955  1.00  0.00     0.077 A 
ENDBRANCH   1   2
BRANCH   1   9
HETATM    9  C   UNL     1     -43.299 -47.607  10.282  1.00  0.00     0.223 C 
HETATM   10  O   UNL     1     -42.670 -47.955   9.283  1.00  0.00    -0.273 OA
HETATM   11  N   UNL     1     -44.615 -47.183  10.253  1.00  0.00    -0.356 N 
HETATM   12  H   UNL     1     -45.000 -46.756  11.089  1.00  0.00     0.162 HD
BRANCH  11  13
HETATM   13  C   UNL     1     -45.371 -47.123   9.043  1.00  0.00     0.084 A 
HETATM   14  C   UNL     1     -46.873 -47.055   9.075  1.00  0.00     0.027 A 
HETATM   15  C   UNL     1     -46.190 -48.303   8.597  1.00  0.00     0.027 A 
ENDBRANCH  11  13
ENDBRANCH   1   9
TORSDOF 3
ENDMDL
MODEL 3
REMARK VINA RESULT:      -4.8      2.352      2.524
REMARK  3 active torsions:
REMARK  status: ('A' for Active; 'I' for Inactive)
REMARK    1  A    between atoms: C_5  and  C_6 
REMARK    2  A    between atoms: C_6  and  C_7 
REMARK       I    between atoms: C_7  and  N_9 
REMARK    3  A    between atoms: N_9  and  C_10 
ROOT
HETATM    1  C   UNL     1     -42.500 -46.297  10.587  1.00  0.00     0.160 C 
ENDROOT
BRANCH   1   2
HETATM    2  C   UNL     1     -42.120 -44.896  10.925  1.00  0.00     0.025 A 
HETATM    3  N   UNL     1     -43.109 -43.922  10.931  1.00  0.00    -0.357 N 
HETATM    4  C   UNL     1     -42.604 -42.766  11.306  1.00  0.00     0.047 A 
ATOM      5  HN  UNL     1     -44.085 -44.080  10.682  1.00  0.00     0.166 HD
HETATM    6  C   UNL     1     -43.388 -41.510  11.459  1.00  0.00     0.076 C 
HETATM    7  S   UNL     1     -40.918 -42.768  11.635  1.00  0.00    -0.087 SA
HETATM    8  C   UNL     1     -40.863 -44.441  11.281  1.00  0.00     0.077 A 
ENDBRANCH   1   2
BRANCH   1   9
HETATM    9  C   UNL     1     -43.489 -46.348   9.440  1.00  0.00     0.223 C 
HETATM   10  O   UNL     1     -43.243 -45.843   8.345  1.00  0.00    -0.273 OA
HETATM   11  N   UNL     1     -44.671 -47.002   9.737  1.00  0.00    -0.356 N 
HETATM   12  H   UNL     1     -44.858 -47.237  10.706  1.00  0.00     0.162 HD
BRANCH  11  13
HETATM   13  C   UNL     1     -45.718 -47.160   8.779  1.00  0.00     0.084 A 
HETATM   14  C   UNL     1     -47.129 -47.437   9.219  1.00  0.00     0.027 A 
HETATM   15  C   UNL     1     -46.332 -48.511   8.538  1.00  0.00     0.027 A 
ENDBRANCH  11  13
ENDBRANCH   1   9
TORSDOF 3
ENDMDL
MODEL 4
REMARK VINA RESULT:      -4.6      3.999      5.256
REMARK  3 active torsions:
REMARK  status: ('A' for Active; 'I' for Inactive)
REMARK    1  A    between atoms: C_5  and  C_6 
REMARK    2  A    between atoms: C_6  and  C_7 
REMARK       I    between atoms: C_7  and  N_9 
REMARK    3  A    between atoms: N_9  and  C_10 
ROOT
HETATM    1  C   UNL     1     -40.726 -49.323  11.394  1.00  0.00     0.160 C 
ENDROOT
BRANCH   1   2
HETATM    2  C   UNL     1     -40.981 -50.677  11.963  1.00  0.00     0.025 A 
HETATM    3  N   UNL     1     -42.280 -51.168  11.952  1.00  0.00    -0.357 N 
HETATM    4  C   UNL     1     -42.306 -52.391  12.438  1.00  0.00     0.047 A 
ATOM      5  HN  UNL     1     -43.095 -50.655  11.616  1.00  0.00     0.166 HD
HETATM    6  C   UNL     1     -43.528 -53.234  12.541  1.00  0.00     0.076 C 
HETATM    7  S   UNL     1     -40.792 -53.007  12.967  1.00  0.00    -0.087 SA
HETATM    8  C   UNL     1     -40.041 -51.547  12.485  1.00  0.00     0.077 A 
ENDBRANCH   1   2
BRANCH   1   9
HETATM    9  C   UNL     1     -42.016 -48.585  11.102  1.00  0.00     0.223 C 
HETATM   10  O   UNL     1     -42.810 -48.282  11.993  1.00  0.00    -0.273 OA
HETATM   11  N   UNL     1     -42.214 -48.293   9.765  1.00  0.00    -0.356 N 
HETATM   12  H   UNL     1     -41.599 -48.725   9.083  1.00  0.00     0.162 HD
BRANCH  11  13
HETATM   13  C   UNL     1     -43.367 -47.592   9.298  1.00  0.00     0.084 A 
HETATM   14  C   UNL     1     -43.822 -47.720   7.870  1.00  0.00     0.027 A 
HETATM   15  C   UNL     1     -43.223 -46.431   8.353  1.00  0.00     0.027 A 
ENDBRANCH  11  13
ENDBRANCH   1   9
TORSDOF 3
ENDMDL
MODEL 5
REMARK VINA RESULT:      -4.6      3.314      3.565
REMARK  3 active torsions:
REMARK  status: ('A' for Active; 'I' for Inactive)
REMARK    1  A    between atoms: C_5  and  C_6 
REMARK    2  A    between atoms: C_6  and  C_7 
REMARK       I    between atoms: C_7  and  N_9 
REMARK    3  A    between atoms: N_9  and  C_10 
ROOT
HETATM    1  C   UNL     1     -41.679 -49.484  11.889  1.00  0.00     0.160 C 
ENDROOT
BRANCH   1   2
HETATM    2  C   UNL     1     -40.222 -49.652  12.156  1.00  0.00     0.025 A 
HETATM    3  N   UNL     1     -39.373 -49.889  11.084  1.00  0.00    -0.357 N 
HETATM    4  C   UNL     1     -38.126 -49.953  11.499  1.00  0.00     0.047 A 
ATOM      5  HN  UNL     1     -39.672 -49.997  10.115  1.00  0.00     0.166 HD
HETATM    6  C   UNL     1     -36.948 -50.159  10.612  1.00  0.00     0.076 C 
HETATM    7  S   UNL     1     -37.901 -49.772  13.193  1.00  0.00    -0.087 SA
HETATM    8  C   UNL     1     -39.589 -49.563  13.383  1.00  0.00     0.077 A 
ENDBRANCH   1   2
BRANCH   1   9
HETATM    9  C   UNL     1     -41.943 -48.352  10.917  1.00  0.00     0.223 C 
HETATM   10  O   UNL     1     -41.082 -47.517  10.639  1.00  0.00    -0.273 OA
HETATM   11  N   UNL     1     -43.219 -48.347  10.384  1.00  0.00    -0.356 N 
HETATM   12  H   UNL     1     -43.912 -48.965  10.794  1.00  0.00     0.162 HD
BRANCH  11  13
HETATM   13  C   UNL     1     -43.650 -47.364   9.442  1.00  0.00     0.084 A 
HETATM   14  C   UNL     1     -44.944 -47.527   8.694  1.00  0.00     0.027 A 
HETATM   15  C   UNL     1     -43.637 -47.664   7.969  1.00  0.00     0.027 A 
ENDBRANCH  11  13
ENDBRANCH   1   9
TORSDOF 3
ENDMDL
MODEL 6
REMARK VINA RESULT:      -4.6      7.344      8.081
REMARK  3 active torsions:
REMARK  status: ('A' for Active; 'I' for Inactive)
REMARK    1  A    between atoms: C_5  and  C_6 
REMARK    2  A    between atoms: C_6  and  C_7 
REMARK       I    between atoms: C_7  and  N_9 
REMARK    3  A    between atoms: N_9  and  C_10 
ROOT
HETATM    1  C   UNL     1     -43.646 -55.137  14.772  1.00  0.00     0.160 C 
ENDROOT
BRANCH   1   2
HETATM    2  C   UNL     1     -42.415 -54.438  14.306  1.00  0.00     0.025 A 
HETATM    3  N   UNL     1     -42.494 -53.637  13.175  1.00  0.00    -0.357 N 
HETATM    4  C   UNL     1     -41.334 -53.058  12.949  1.00  0.00     0.047 A 
ATOM      5  HN  UNL     1     -43.330 -53.514  12.604  1.00  0.00     0.166 HD
HETATM    6  C   UNL     1     -41.068 -52.103  11.838  1.00  0.00     0.076 C 
HETATM    7  S   UNL     1     -40.078 -53.466  14.048  1.00  0.00    -0.087 SA
HETATM    8  C   UNL     1     -41.170 -54.464  14.907  1.00  0.00     0.077 A 
ENDBRANCH   1   2
BRANCH   1   9
HETATM    9  C   UNL     1     -44.900 -54.502  14.206  1.00  0.00     0.223 C 
HETATM   10  O   UNL     1     -45.350 -54.817  13.105  1.00  0.00    -0.273 OA
HETATM   11  N   UNL     1     -45.477 -53.552  15.030  1.00  0.00    -0.356 N 
HETATM   12  H   UNL     1     -44.951 -53.234  15.837  1.00  0.00     0.162 HD
BRANCH  11  13
HETATM   13  C   UNL     1     -46.670 -52.854  14.672  1.00  0.00     0.084 A 
HETATM   14  C   UNL     1     -46.613 -51.434  14.177  1.00  0.00     0.027 A 
HETATM   15  C   UNL     1     -47.184 -51.733  15.533  1.00  0.00     0.027 A 
ENDBRANCH  11  13
ENDBRANCH   1   9
TORSDOF 3
ENDMDL
MODEL 7
REMARK VINA RESULT:      -4.4      5.380      7.617
REMARK  3 active torsions:
REMARK  status: ('A' for Active; 'I' for Inactive)
REMARK    1  A    between atoms: C_5  and  C_6 
REMARK    2  A    between atoms: C_6  and  C_7 
REMARK       I    between atoms: C_7  and  N_9 
REMARK    3  A    between atoms: N_9  and  C_10 
ROOT
HETATM    1  C   UNL     1     -41.694 -52.345  12.047  1.00  0.00     0.160 C 
ENDROOT
BRANCH   1   2
HETATM    2  C   UNL     1     -42.834 -52.304  13.005  1.00  0.00     0.025 A 
HETATM    3  N   UNL     1     -44.060 -51.828  12.560  1.00  0.00    -0.357 N 
HETATM    4  C   UNL     1     -44.957 -51.919  13.518  1.00  0.00     0.047 A 
ATOM      5  HN  UNL     1     -44.239 -51.462  11.625  1.00  0.00     0.166 HD
HETATM    6  C   UNL     1     -46.387 -51.532  13.378  1.00  0.00     0.076 C 
HETATM    7  S   UNL     1     -44.380 -52.540  15.013  1.00  0.00    -0.087 SA
HETATM    8  C   UNL     1     -42.827 -52.731  14.321  1.00  0.00     0.077 A 
ENDBRANCH   1   2
BRANCH   1   9
HETATM    9  C   UNL     1     -41.055 -50.982  11.877  1.00  0.00     0.223 C 
HETATM   10  O   UNL     1     -41.723 -49.949  11.838  1.00  0.00    -0.273 OA
HETATM   11  N   UNL     1     -39.676 -51.010  11.770  1.00  0.00    -0.356 N 
HETATM   12  H   UNL     1     -39.223 -51.909  11.642  1.00  0.00     0.162 HD
BRANCH  11  13
HETATM   13  C   UNL     1     -38.898 -49.823  11.615  1.00  0.00     0.084 A 
HETATM   14  C   UNL     1     -37.442 -49.898  11.247  1.00  0.00     0.027 A 
HETATM   15  C   UNL     1     -37.844 -49.466  12.627  1.00  0.00     0.027 A 
ENDBRANCH  11  13
ENDBRANCH   1   9
TORSDOF 3
ENDMDL
MODEL 8
REMARK VINA RESULT:      -4.3      5.212      5.555
REMARK  3 active torsions:
REMARK  status: ('A' for Active; 'I' for Inactive)
REMARK    1  A    between atoms: C_5  and  C_6 
REMARK    2  A    between atoms: C_6  and  C_7 
REMARK       I    between atoms: C_7  and  N_9 
REMARK    3  A    between atoms: N_9  and  C_10 
ROOT
HETATM    1  C   UNL     1     -41.723 -52.485  12.572  1.00  0.00     0.160 C 
ENDROOT
BRANCH   1   2
HETATM    2  C   UNL     1     -40.373 -51.909  12.832  1.00  0.00     0.025 A 
HETATM    3  N   UNL     1     -39.782 -51.130  11.847  1.00  0.00    -0.357 N 
HETATM    4  C   UNL     1     -38.627 -50.663  12.271  1.00  0.00     0.047 A 
ATOM      5  HN  UNL     1     -40.184 -50.947  10.927  1.00  0.00     0.166 HD
HETATM    6  C   UNL     1     -37.740 -49.761  11.487  1.00  0.00     0.076 C 
HETATM    7  S   UNL     1     -38.167 -51.155  13.852  1.00  0.00    -0.087 SA
HETATM    8  C   UNL     1     -39.629 -52.032  13.992  1.00  0.00     0.077 A 
ENDBRANCH   1   2
BRANCH   1   9
HETATM    9  C   UNL     1     -42.815 -51.447  12.727  1.00  0.00     0.223 C 
HETATM   10  O   UNL     1     -42.586 -50.241  12.636  1.00  0.00    -0.273 OA
HETATM   11  N   UNL     1     -44.069 -51.975  12.977  1.00  0.00    -0.356 N 
HETATM   12  H   UNL     1     -44.138 -52.961  13.204  1.00  0.00     0.162 HD
BRANCH  11  13
HETATM   13  C   UNL     1     -45.224 -51.152  13.142  1.00  0.00     0.084 A 
HETATM   14  C   UNL     1     -46.306 -51.528  14.117  1.00  0.00     0.027 A 
HETATM   15  C   UNL     1     -46.565 -51.613  12.641  1.00  0.00     0.027 A 
ENDBRANCH  11  13
ENDBRANCH   1   9
TORSDOF 3
ENDMDL
MODEL 9
REMARK VINA RESULT:      -4.3      3.145      5.737
REMARK  3 active torsions:
REMARK  status: ('A' for Active; 'I' for Inactive)
REMARK    1  A    between atoms: C_5  and  C_6 
REMARK    2  A    between atoms: C_6  and  C_7 
REMARK       I    between atoms: C_7  and  N_9 
REMARK    3  A    between atoms: N_9  and  C_10 
ROOT
HETATM    1  C   UNL     1     -42.023 -47.688  12.186  1.00  0.00     0.160 C 
ENDROOT
BRANCH   1   2
HETATM    2  C   UNL     1     -42.800 -47.262  10.988  1.00  0.00     0.025 A 
HETATM    3  N   UNL     1     -43.952 -47.964  10.660  1.00  0.00    -0.357 N 
HETATM    4  C   UNL     1     -44.534 -47.415   9.615  1.00  0.00     0.047 A 
ATOM      5  HN  UNL     1     -44.296 -48.786  11.156  1.00  0.00     0.166 HD
HETATM    6  C   UNL     1     -45.811 -47.888   9.013  1.00  0.00     0.076 C 
HETATM    7  S   UNL     1     -43.723 -46.057   8.946  1.00  0.00    -0.087 SA
HETATM    8  C   UNL     1     -42.522 -46.192  10.157  1.00  0.00     0.077 A 
ENDBRANCH   1   2
BRANCH   1   9
HETATM    9  C   UNL     1     -41.289 -48.991  11.944  1.00  0.00     0.223 C 
HETATM   10  O   UNL     1     -41.883 -50.062  11.831  1.00  0.00    -0.273 OA
HETATM   11  N   UNL     1     -39.914 -48.862  11.865  1.00  0.00    -0.356 N 
HETATM   12  H   UNL     1     -39.498 -47.977  12.137  1.00  0.00     0.162 HD
BRANCH  11  13
HETATM   13  C   UNL     1     -39.055 -49.978  11.630  1.00  0.00     0.084 A 
HETATM   14  C   UNL     1     -38.016 -50.378  12.641  1.00  0.00     0.027 A 
HETATM   15  C   UNL     1     -37.595 -49.767  11.336  1.00  0.00     0.027 A 
ENDBRANCH  11  13
ENDBRANCH   1   9
TORSDOF 3
ENDMDL
