MODEL 1
REMARK VINA RESULT:      -6.7      0.000      0.000
REMARK  8 active torsions:
REMARK  status: ('A' for Active; 'I' for Inactive)
REMARK    1  A    between atoms: C_2  and  N_3 
REMARK    2  A    between atoms: C_2  and  C_17 
REMARK    3  A    between atoms: N_3  and  C_4 
REMARK    4  A    between atoms: C_4  and  C_5 
REMARK       I    between atoms: C_5  and  N_7 
REMARK    5  A    between atoms: N_7  and  C_8 
REMARK    6  A    between atoms: C_8  and  C_13 
REMARK    7  A    between atoms: C_13  and  N_14 
REMARK    8  A    between atoms: C_17  and  N_19 
ROOT
HETATM    1  C   UNL     1     -42.680 -49.615  13.038  1.00  0.00     0.372 C 
ENDROOT
BRANCH   1   2
HETATM    2  N   UNL     1     -42.062 -50.117  11.788  1.00  0.00     0.098 N 
HETATM    3  H   UNL     1     -41.436 -50.887  12.038  1.00  0.00     0.317 HD
BRANCH   2   4
HETATM    4  C   UNL     1     -41.270 -49.073  11.085  1.00  0.00     0.241 C 
HETATM    5  C   UNL     1     -39.863 -48.975  11.703  1.00  0.00     0.045 C 
BRANCH   4   6
HETATM    6  C   UNL     1     -41.965 -47.675  10.971  1.00  0.00     0.136 C 
HETATM    7  C   UNL     1     -40.973 -46.518  10.796  1.00  0.00     0.036 C 
BRANCH   6   8
HETATM    8  N   UNL     1     -42.965 -47.635   9.901  1.00  0.00    -0.297 N 
HETATM    9  C   UNL     1     -44.305 -47.380  10.020  1.00  0.00     0.112 A 
HETATM   10  C   UNL     1     -44.836 -47.522   8.759  1.00  0.00     0.037 A 
HETATM   11  C   UNL     1     -43.742 -47.872   7.950  1.00  0.00     0.108 A 
HETATM   12  N   UNL     1     -42.602 -47.949   8.639  1.00  0.00    -0.310 N 
ATOM     13  HN  UNL     1     -41.672 -48.188   8.293  1.00  0.00     0.186 HD
ENDBRANCH   6   8
ENDBRANCH   4   6
ENDBRANCH   2   4
ENDBRANCH   1   2
BRANCH   1  14
HETATM   14  C   UNL     1     -43.713 -50.596  13.582  1.00  0.00     0.247 C 
HETATM   15  O   UNL     1     -43.569 -51.135  14.675  1.00  0.00    -0.272 OA
HETATM   16  N   UNL     1     -44.816 -50.791  12.778  1.00  0.00    -0.339 N 
HETATM   17  H   UNL     1     -44.790 -50.338  11.868  1.00  0.00     0.164 HD
BRANCH  16  18
HETATM   18  C   UNL     1     -45.853 -51.761  13.129  1.00  0.00     0.104 C 
HETATM   19  C   UNL     1     -46.637 -51.335  14.382  1.00  0.00     0.045 C 
HETATM   20  C   UNL     1     -46.854 -52.601  15.222  1.00  0.00     0.004 C 
HETATM   21  C   UNL     1     -46.287 -53.759  14.419  1.00  0.00     0.004 C 
HETATM   22  C   UNL     1     -45.236 -53.113  13.535  1.00  0.00     0.045 C 
BRANCH  18  23
HETATM   23  C   UNL     1     -46.783 -51.941  11.941  1.00  0.00    -0.046 C 
BRANCH  23  24
HETATM   24  N   UNL     1     -47.555 -52.090  10.954  1.00  0.00    -0.367 N 
ATOM     25  HN2 UNL     1     -46.924 -51.991  11.750  1.00  0.00     0.165 HD
ATOM     26  HN1 UNL     1     -48.180 -52.209  10.157  1.00  0.00     0.165 HD
ENDBRANCH  23  24
ENDBRANCH  18  23
ENDBRANCH  16  18
ENDBRANCH   1  14
TORSDOF 8
ENDMDL
MODEL 2
REMARK VINA RESULT:      -6.2      1.461      1.947
REMARK  8 active torsions:
REMARK  status: ('A' for Active; 'I' for Inactive)
REMARK    1  A    between atoms: C_2  and  N_3 
REMARK    2  A    between atoms: C_2  and  C_17 
REMARK    3  A    between atoms: N_3  and  C_4 
REMARK    4  A    between atoms: C_4  and  C_5 
REMARK       I    between atoms: C_5  and  N_7 
REMARK    5  A    between atoms: N_7  and  C_8 
REMARK    6  A    between atoms: C_8  and  C_13 
REMARK    7  A    between atoms: C_13  and  N_14 
REMARK    8  A    between atoms: C_17  and  N_19 
ROOT
HETATM    1  C   UNL     1     -41.168 -50.702  12.285  1.00  0.00     0.372 C 
ENDROOT
BRANCH   1   2
HETATM    2  N   UNL     1     -41.862 -49.849  11.292  1.00  0.00     0.098 N 
HETATM    3  H   UNL     1     -41.969 -50.395  10.433  1.00  0.00     0.317 HD
BRANCH   2   4
HETATM    4  C   UNL     1     -41.100 -48.612  10.974  1.00  0.00     0.241 C 
HETATM    5  C   UNL     1     -39.961 -48.419  11.993  1.00  0.00     0.045 C 
BRANCH   4   6
HETATM    6  C   UNL     1     -41.969 -47.321  10.805  1.00  0.00     0.136 C 
HETATM    7  C   UNL     1     -41.136 -46.062  10.533  1.00  0.00     0.036 C 
BRANCH   6   8
HETATM    8  N   UNL     1     -42.993 -47.470   9.769  1.00  0.00    -0.297 N 
HETATM    9  C   UNL     1     -44.347 -47.321   9.906  1.00  0.00     0.112 A 
HETATM   10  C   UNL     1     -44.893 -47.628   8.681  1.00  0.00     0.037 A 
HETATM   11  C   UNL     1     -43.792 -47.958   7.874  1.00  0.00     0.108 A 
HETATM   12  N   UNL     1     -42.633 -47.869   8.530  1.00  0.00    -0.310 N 
ATOM     13  HN  UNL     1     -41.695 -48.060   8.178  1.00  0.00     0.186 HD
ENDBRANCH   6   8
ENDBRANCH   4   6
ENDBRANCH   2   4
ENDBRANCH   1   2
BRANCH   1  14
HETATM   14  C   UNL     1     -42.150 -51.310  13.281  1.00  0.00     0.247 C 
HETATM   15  O   UNL     1     -41.765 -51.813  14.332  1.00  0.00    -0.272 OA
HETATM   16  N   UNL     1     -43.479 -51.213  12.928  1.00  0.00    -0.339 N 
HETATM   17  H   UNL     1     -43.667 -50.832  12.004  1.00  0.00     0.164 HD
BRANCH  16  18
HETATM   18  C   UNL     1     -44.531 -51.818  13.744  1.00  0.00     0.104 C 
HETATM   19  C   UNL     1     -45.902 -51.760  13.049  1.00  0.00     0.045 C 
HETATM   20  C   UNL     1     -46.933 -51.400  14.127  1.00  0.00     0.004 C 
HETATM   21  C   UNL     1     -46.180 -51.346  15.447  1.00  0.00     0.004 C 
HETATM   22  C   UNL     1     -44.754 -51.021  15.043  1.00  0.00     0.045 C 
BRANCH  18  23
HETATM   23  C   UNL     1     -44.144 -53.252  14.064  1.00  0.00    -0.046 C 
BRANCH  23  24
HETATM   24  N   UNL     1     -43.822 -54.443  14.329  1.00  0.00    -0.367 N 
ATOM     25  HN2 UNL     1     -44.067 -53.473  14.129  1.00  0.00     0.165 HD
ATOM     26  HN1 UNL     1     -43.563 -55.406  14.543  1.00  0.00     0.165 HD
ENDBRANCH  23  24
ENDBRANCH  18  23
ENDBRANCH  16  18
ENDBRANCH   1  14
TORSDOF 8
ENDMDL
MODEL 3
REMARK VINA RESULT:      -6.2      1.991      2.629
REMARK  8 active torsions:
REMARK  status: ('A' for Active; 'I' for Inactive)
REMARK    1  A    between atoms: C_2  and  N_3 
REMARK    2  A    between atoms: C_2  and  C_17 
REMARK    3  A    between atoms: N_3  and  C_4 
REMARK    4  A    between atoms: C_4  and  C_5 
REMARK       I    between atoms: C_5  and  N_7 
REMARK    5  A    between atoms: N_7  and  C_8 
REMARK    6  A    between atoms: C_8  and  C_13 
REMARK    7  A    between atoms: C_13  and  N_14 
REMARK    8  A    between atoms: C_17  and  N_19 
ROOT
HETATM    1  C   UNL     1     -40.661 -52.007  12.495  1.00  0.00     0.372 C 
ENDROOT
BRANCH   1   2
HETATM    2  N   UNL     1     -40.854 -51.290  11.213  1.00  0.00     0.098 N 
HETATM    3  H   UNL     1     -40.374 -51.824  10.483  1.00  0.00     0.317 HD
BRANCH   2   4
HETATM    4  C   UNL     1     -40.293 -49.913  11.239  1.00  0.00     0.241 C 
HETATM    5  C   UNL     1     -38.870 -49.937  11.827  1.00  0.00     0.045 C 
BRANCH   4   6
HETATM    6  C   UNL     1     -41.201 -48.839  11.926  1.00  0.00     0.136 C 
HETATM    7  C   UNL     1     -40.403 -47.727  12.619  1.00  0.00     0.036 C 
BRANCH   6   8
HETATM    8  N   UNL     1     -42.168 -48.249  10.997  1.00  0.00    -0.297 N 
HETATM    9  C   UNL     1     -43.414 -47.762  11.287  1.00  0.00     0.112 A 
HETATM   10  C   UNL     1     -43.966 -47.382  10.086  1.00  0.00     0.037 A 
HETATM   11  C   UNL     1     -42.982 -47.685   9.130  1.00  0.00     0.108 A 
HETATM   12  N   UNL     1     -41.888 -48.218   9.677  1.00  0.00    -0.310 N 
ATOM     13  HN  UNL     1     -41.038 -48.530   9.206  1.00  0.00     0.186 HD
ENDBRANCH   6   8
ENDBRANCH   4   6
ENDBRANCH   2   4
ENDBRANCH   1   2
BRANCH   1  14
HETATM   14  C   UNL     1     -41.958 -52.646  12.978  1.00  0.00     0.247 C 
HETATM   15  O   UNL     1     -42.094 -53.865  13.018  1.00  0.00    -0.272 OA
HETATM   16  N   UNL     1     -42.930 -51.760  13.392  1.00  0.00    -0.339 N 
HETATM   17  H   UNL     1     -42.724 -50.775  13.250  1.00  0.00     0.164 HD
BRANCH  16  18
HETATM   18  C   UNL     1     -44.255 -52.221  13.807  1.00  0.00     0.104 C 
HETATM   19  C   UNL     1     -45.092 -52.714  12.614  1.00  0.00     0.045 C 
HETATM   20  C   UNL     1     -46.521 -52.200  12.830  1.00  0.00     0.004 C 
HETATM   21  C   UNL     1     -46.532 -51.500  14.179  1.00  0.00     0.004 C 
HETATM   22  C   UNL     1     -45.093 -51.060  14.376  1.00  0.00     0.045 C 
BRANCH  18  23
HETATM   23  C   UNL     1     -44.093 -53.316  14.848  1.00  0.00    -0.046 C 
BRANCH  23  24
HETATM   24  N   UNL     1     -43.959 -54.225  15.712  1.00  0.00    -0.367 N 
ATOM     25  HN2 UNL     1     -44.079 -53.504  15.000  1.00  0.00     0.165 HD
ATOM     26  HN1 UNL     1     -43.850 -54.960  16.411  1.00  0.00     0.165 HD
ENDBRANCH  23  24
ENDBRANCH  18  23
ENDBRANCH  16  18
ENDBRANCH   1  14
TORSDOF 8
ENDMDL
MODEL 4
REMARK VINA RESULT:      -6.2      1.462      3.066
REMARK  8 active torsions:
REMARK  status: ('A' for Active; 'I' for Inactive)
REMARK    1  A    between atoms: C_2  and  N_3 
REMARK    2  A    between atoms: C_2  and  C_17 
REMARK    3  A    between atoms: N_3  and  C_4 
REMARK    4  A    between atoms: C_4  and  C_5 
REMARK       I    between atoms: C_5  and  N_7 
REMARK    5  A    between atoms: N_7  and  C_8 
REMARK    6  A    between atoms: C_8  and  C_13 
REMARK    7  A    between atoms: C_13  and  N_14 
REMARK    8  A    between atoms: C_17  and  N_19 
ROOT
HETATM    1  C   UNL     1     -42.595 -49.772  13.519  1.00  0.00     0.372 C 
ENDROOT
BRANCH   1   2
HETATM    2  N   UNL     1     -42.602 -49.592  12.049  1.00  0.00     0.098 N 
HETATM    3  H   UNL     1     -41.844 -50.161  11.662  1.00  0.00     0.317 HD
BRANCH   2   4
HETATM    4  C   UNL     1     -42.383 -48.177  11.647  1.00  0.00     0.241 C 
HETATM    5  C   UNL     1     -43.595 -47.664  10.847  1.00  0.00     0.045 C 
BRANCH   4   6
HETATM    6  C   UNL     1     -41.028 -47.895  10.915  1.00  0.00     0.136 C 
HETATM    7  C   UNL     1     -40.696 -46.401  10.812  1.00  0.00     0.036 C 
BRANCH   6   8
HETATM    8  N   UNL     1     -39.906 -48.611  11.525  1.00  0.00    -0.297 N 
HETATM    9  C   UNL     1     -39.206 -48.263  12.649  1.00  0.00     0.112 A 
HETATM   10  C   UNL     1     -38.207 -49.199  12.784  1.00  0.00     0.037 A 
HETATM   11  C   UNL     1     -38.380 -50.064  11.691  1.00  0.00     0.108 A 
HETATM   12  N   UNL     1     -39.408 -49.709  10.918  1.00  0.00    -0.310 N 
ATOM     13  HN  UNL     1     -39.741 -50.162  10.066  1.00  0.00     0.186 HD
ENDBRANCH   6   8
ENDBRANCH   4   6
ENDBRANCH   2   4
ENDBRANCH   1   2
BRANCH   1  14
HETATM   14  C   UNL     1     -43.803 -50.575  13.989  1.00  0.00     0.247 C 
HETATM   15  O   UNL     1     -43.996 -50.801  15.180  1.00  0.00    -0.272 OA
HETATM   16  N   UNL     1     -44.660 -50.984  12.990  1.00  0.00    -0.339 N 
HETATM   17  H   UNL     1     -44.358 -50.791  12.038  1.00  0.00     0.164 HD
BRANCH  16  18
HETATM   18  C   UNL     1     -45.819 -51.829  13.277  1.00  0.00     0.104 C 
HETATM   19  C   UNL     1     -46.648 -51.286  14.453  1.00  0.00     0.045 C 
HETATM   20  C   UNL     1     -47.064 -52.496  15.300  1.00  0.00     0.004 C 
HETATM   21  C   UNL     1     -46.562 -53.731  14.569  1.00  0.00     0.004 C 
HETATM   22  C   UNL     1     -45.383 -53.224  13.760  1.00  0.00     0.045 C 
BRANCH  18  23
HETATM   23  C   UNL     1     -46.667 -51.945  12.021  1.00  0.00    -0.046 C 
BRANCH  23  24
HETATM   24  N   UNL     1     -47.372 -52.041  10.979  1.00  0.00    -0.367 N 
ATOM     25  HN2 UNL     1     -46.821 -51.965  11.834  1.00  0.00     0.165 HD
ATOM     26  HN1 UNL     1     -47.941 -52.119  10.137  1.00  0.00     0.165 HD
ENDBRANCH  23  24
ENDBRANCH  18  23
ENDBRANCH  16  18
ENDBRANCH   1  14
TORSDOF 8
ENDMDL
MODEL 5
REMARK VINA RESULT:      -6.1      1.603      1.916
REMARK  8 active torsions:
REMARK  status: ('A' for Active; 'I' for Inactive)
REMARK    1  A    between atoms: C_2  and  N_3 
REMARK    2  A    between atoms: C_2  and  C_17 
REMARK    3  A    between atoms: N_3  and  C_4 
REMARK    4  A    between atoms: C_4  and  C_5 
REMARK       I    between atoms: C_5  and  N_7 
REMARK    5  A    between atoms: N_7  and  C_8 
REMARK    6  A    between atoms: C_8  and  C_13 
REMARK    7  A    between atoms: C_13  and  N_14 
REMARK    8  A    between atoms: C_17  and  N_19 
ROOT
HETATM    1  C   UNL     1     -41.261 -50.637  11.955  1.00  0.00     0.372 C 
ENDROOT
BRANCH   1   2
HETATM    2  N   UNL     1     -42.140 -49.588  11.386  1.00  0.00     0.098 N 
HETATM    3  H   UNL     1     -42.579 -49.972  10.545  1.00  0.00     0.317 HD
BRANCH   2   4
HETATM    4  C   UNL     1     -41.391 -48.359  11.010  1.00  0.00     0.241 C 
HETATM    5  C   UNL     1     -40.313 -48.057  12.068  1.00  0.00     0.045 C 
BRANCH   4   6
HETATM    6  C   UNL     1     -42.279 -47.110  10.695  1.00  0.00     0.136 C 
HETATM    7  C   UNL     1     -41.462 -45.867  10.320  1.00  0.00     0.036 C 
BRANCH   6   8
HETATM    8  N   UNL     1     -43.273 -47.380   9.654  1.00  0.00    -0.297 N 
HETATM    9  C   UNL     1     -44.636 -47.339   9.772  1.00  0.00     0.112 A 
HETATM   10  C   UNL     1     -45.138 -47.735   8.554  1.00  0.00     0.037 A 
HETATM   11  C   UNL     1     -44.003 -48.002   7.770  1.00  0.00     0.108 A 
HETATM   12  N   UNL     1     -42.865 -47.794   8.436  1.00  0.00    -0.310 N 
ATOM     13  HN  UNL     1     -41.909 -47.919   8.101  1.00  0.00     0.186 HD
ENDBRANCH   6   8
ENDBRANCH   4   6
ENDBRANCH   2   4
ENDBRANCH   1   2
BRANCH   1  14
HETATM   14  C   UNL     1     -42.073 -51.785  12.544  1.00  0.00     0.247 C 
HETATM   15  O   UNL     1     -41.609 -52.918  12.630  1.00  0.00    -0.272 OA
HETATM   16  N   UNL     1     -43.328 -51.443  12.999  1.00  0.00    -0.339 N 
HETATM   17  H   UNL     1     -43.623 -50.487  12.815  1.00  0.00     0.164 HD
BRANCH  16  18
HETATM   18  C   UNL     1     -44.253 -52.451  13.519  1.00  0.00     0.104 C 
HETATM   19  C   UNL     1     -43.705 -53.135  14.783  1.00  0.00     0.045 C 
HETATM   20  C   UNL     1     -44.037 -54.628  14.659  1.00  0.00     0.004 C 
HETATM   21  C   UNL     1     -44.851 -54.789  13.386  1.00  0.00     0.004 C 
HETATM   22  C   UNL     1     -44.420 -53.615  12.525  1.00  0.00     0.045 C 
BRANCH  18  23
HETATM   23  C   UNL     1     -45.595 -51.793  13.794  1.00  0.00    -0.046 C 
BRANCH  23  24
HETATM   24  N   UNL     1     -46.709 -51.247  14.023  1.00  0.00    -0.367 N 
ATOM     25  HN2 UNL     1     -45.798 -51.669  13.840  1.00  0.00     0.165 HD
ATOM     26  HN1 UNL     1     -47.610 -50.806  14.207  1.00  0.00     0.165 HD
ENDBRANCH  23  24
ENDBRANCH  18  23
ENDBRANCH  16  18
ENDBRANCH   1  14
TORSDOF 8
ENDMDL
MODEL 6
REMARK VINA RESULT:      -6.1      1.770      2.563
REMARK  8 active torsions:
REMARK  status: ('A' for Active; 'I' for Inactive)
REMARK    1  A    between atoms: C_2  and  N_3 
REMARK    2  A    between atoms: C_2  and  C_17 
REMARK    3  A    between atoms: N_3  and  C_4 
REMARK    4  A    between atoms: C_4  and  C_5 
REMARK       I    between atoms: C_5  and  N_7 
REMARK    5  A    between atoms: N_7  and  C_8 
REMARK    6  A    between atoms: C_8  and  C_13 
REMARK    7  A    between atoms: C_13  and  N_14 
REMARK    8  A    between atoms: C_17  and  N_19 
ROOT
HETATM    1  C   UNL     1     -41.220 -51.237  12.454  1.00  0.00     0.372 C 
ENDROOT
BRANCH   1   2
HETATM    2  N   UNL     1     -41.794 -50.310  11.450  1.00  0.00     0.098 N 
HETATM    3  H   UNL     1     -41.577 -50.683  10.522  1.00  0.00     0.317 HD
BRANCH   2   4
HETATM    4  C   UNL     1     -41.229 -48.938  11.552  1.00  0.00     0.241 C 
HETATM    5  C   UNL     1     -41.168 -48.504  13.029  1.00  0.00     0.045 C 
BRANCH   4   6
HETATM    6  C   UNL     1     -41.920 -47.865  10.647  1.00  0.00     0.136 C 
HETATM    7  C   UNL     1     -43.423 -47.722  10.917  1.00  0.00     0.036 C 
BRANCH   6   8
HETATM    8  N   UNL     1     -41.273 -46.554  10.743  1.00  0.00    -0.297 N 
HETATM    9  C   UNL     1     -41.854 -45.359  11.071  1.00  0.00     0.112 A 
HETATM   10  C   UNL     1     -40.866 -44.409  10.959  1.00  0.00     0.037 A 
HETATM   11  C   UNL     1     -39.728 -45.125  10.552  1.00  0.00     0.108 A 
HETATM   12  N   UNL     1     -39.970 -46.430  10.413  1.00  0.00    -0.310 N 
ATOM     13  HN  UNL     1     -39.321 -47.163  10.124  1.00  0.00     0.186 HD
ENDBRANCH   6   8
ENDBRANCH   4   6
ENDBRANCH   2   4
ENDBRANCH   1   2
BRANCH   1  14
HETATM   14  C   UNL     1     -42.295 -52.120  13.076  1.00  0.00     0.247 C 
HETATM   15  O   UNL     1     -42.031 -52.908  13.980  1.00  0.00    -0.272 OA
HETATM   16  N   UNL     1     -43.567 -51.937  12.577  1.00  0.00    -0.339 N 
HETATM   17  H   UNL     1     -43.648 -51.302  11.787  1.00  0.00     0.164 HD
BRANCH  16  18
HETATM   18  C   UNL     1     -44.688 -52.766  13.020  1.00  0.00     0.104 C 
HETATM   19  C   UNL     1     -44.947 -52.624  14.529  1.00  0.00     0.045 C 
HETATM   20  C   UNL     1     -45.255 -54.029  15.062  1.00  0.00     0.004 C 
HETATM   21  C   UNL     1     -45.269 -54.957  13.858  1.00  0.00     0.004 C 
HETATM   22  C   UNL     1     -44.371 -54.264  12.850  1.00  0.00     0.045 C 
BRANCH  18  23
HETATM   23  C   UNL     1     -45.924 -52.393  12.218  1.00  0.00    -0.046 C 
BRANCH  23  24
HETATM   24  N   UNL     1     -46.950 -52.084  11.553  1.00  0.00    -0.367 N 
ATOM     25  HN2 UNL     1     -46.133 -52.338  12.109  1.00  0.00     0.165 HD
ATOM     26  HN1 UNL     1     -47.780 -51.834  11.015  1.00  0.00     0.165 HD
ENDBRANCH  23  24
ENDBRANCH  18  23
ENDBRANCH  16  18
ENDBRANCH   1  14
TORSDOF 8
ENDMDL
MODEL 7
REMARK VINA RESULT:      -6.0      1.761      3.500
REMARK  8 active torsions:
REMARK  status: ('A' for Active; 'I' for Inactive)
REMARK    1  A    between atoms: C_2  and  N_3 
REMARK    2  A    between atoms: C_2  and  C_17 
REMARK    3  A    between atoms: N_3  and  C_4 
REMARK    4  A    between atoms: C_4  and  C_5 
REMARK       I    between atoms: C_5  and  N_7 
REMARK    5  A    between atoms: N_7  and  C_8 
REMARK    6  A    between atoms: C_8  and  C_13 
REMARK    7  A    between atoms: C_13  and  N_14 
REMARK    8  A    between atoms: C_17  and  N_19 
ROOT
HETATM    1  C   UNL     1     -42.861 -49.501  13.593  1.00  0.00     0.372 C 
ENDROOT
BRANCH   1   2
HETATM    2  N   UNL     1     -42.693 -49.484  12.121  1.00  0.00     0.098 N 
HETATM    3  H   UNL     1     -42.796 -50.446  11.785  1.00  0.00     0.317 HD
BRANCH   2   4
HETATM    4  C   UNL     1     -41.358 -48.977  11.705  1.00  0.00     0.241 C 
HETATM    5  C   UNL     1     -41.523 -47.880  10.637  1.00  0.00     0.045 C 
BRANCH   4   6
HETATM    6  C   UNL     1     -40.334 -50.078  11.271  1.00  0.00     0.136 C 
HETATM    7  C   UNL     1     -38.873 -49.632  11.405  1.00  0.00     0.036 C 
BRANCH   6   8
HETATM    8  N   UNL     1     -40.534 -51.340  11.988  1.00  0.00    -0.297 N 
HETATM    9  C   UNL     1     -40.049 -51.685  13.221  1.00  0.00     0.112 A 
HETATM   10  C   UNL     1     -40.441 -52.986  13.436  1.00  0.00     0.037 A 
HETATM   11  C   UNL     1     -41.149 -53.341  12.276  1.00  0.00     0.108 A 
HETATM   12  N   UNL     1     -41.204 -52.346  11.388  1.00  0.00    -0.310 N 
ATOM     13  HN  UNL     1     -41.649 -52.347  10.470  1.00  0.00     0.186 HD
ENDBRANCH   6   8
ENDBRANCH   4   6
ENDBRANCH   2   4
ENDBRANCH   1   2
BRANCH   1  14
HETATM   14  C   UNL     1     -43.965 -50.462  14.018  1.00  0.00     0.247 C 
HETATM   15  O   UNL     1     -44.125 -50.772  15.195  1.00  0.00    -0.272 OA
HETATM   16  N   UNL     1     -44.775 -50.912  12.998  1.00  0.00    -0.339 N 
HETATM   17  H   UNL     1     -44.503 -50.635  12.058  1.00  0.00     0.164 HD
BRANCH  16  18
HETATM   18  C   UNL     1     -45.828 -51.899  13.238  1.00  0.00     0.104 C 
HETATM   19  C   UNL     1     -46.632 -51.583  14.511  1.00  0.00     0.045 C 
HETATM   20  C   UNL     1     -46.876 -52.919  15.226  1.00  0.00     0.004 C 
HETATM   21  C   UNL     1     -46.304 -54.003  14.328  1.00  0.00     0.004 C 
HETATM   22  C   UNL     1     -45.231 -53.289  13.528  1.00  0.00     0.045 C 
BRANCH  18  23
HETATM   23  C   UNL     1     -46.736 -51.958  12.021  1.00  0.00    -0.046 C 
BRANCH  23  24
HETATM   24  N   UNL     1     -47.491 -52.006  11.011  1.00  0.00    -0.367 N 
ATOM     25  HN2 UNL     1     -46.898 -51.972  11.841  1.00  0.00     0.165 HD
ATOM     26  HN1 UNL     1     -48.101 -52.045  10.195  1.00  0.00     0.165 HD
ENDBRANCH  23  24
ENDBRANCH  18  23
ENDBRANCH  16  18
ENDBRANCH   1  14
TORSDOF 8
ENDMDL
MODEL 8
REMARK VINA RESULT:      -6.0      3.075      7.060
REMARK  8 active torsions:
REMARK  status: ('A' for Active; 'I' for Inactive)
REMARK    1  A    between atoms: C_2  and  N_3 
REMARK    2  A    between atoms: C_2  and  C_17 
REMARK    3  A    between atoms: N_3  and  C_4 
REMARK    4  A    between atoms: C_4  and  C_5 
REMARK       I    between atoms: C_5  and  N_7 
REMARK    5  A    between atoms: N_7  and  C_8 
REMARK    6  A    between atoms: C_8  and  C_13 
REMARK    7  A    between atoms: C_13  and  N_14 
REMARK    8  A    between atoms: C_17  and  N_19 
ROOT
HETATM    1  C   UNL     1     -42.431 -50.612  12.623  1.00  0.00     0.372 C 
ENDROOT
BRANCH   1   2
HETATM    2  N   UNL     1     -42.405 -51.972  12.035  1.00  0.00     0.098 N 
HETATM    3  H   UNL     1     -43.197 -52.048  11.391  1.00  0.00     0.317 HD
BRANCH   2   4
HETATM    4  C   UNL     1     -42.527 -53.040  13.064  1.00  0.00     0.241 C 
HETATM    5  C   UNL     1     -41.364 -54.039  12.924  1.00  0.00     0.045 C 
BRANCH   4   6
HETATM    6  C   UNL     1     -43.918 -53.753  13.120  1.00  0.00     0.136 C 
HETATM    7  C   UNL     1     -44.029 -54.774  14.259  1.00  0.00     0.036 C 
BRANCH   6   8
HETATM    8  N   UNL     1     -45.030 -52.803  13.198  1.00  0.00    -0.297 N 
HETATM    9  C   UNL     1     -45.542 -52.207  14.318  1.00  0.00     0.112 A 
HETATM   10  C   UNL     1     -46.615 -51.457  13.897  1.00  0.00     0.037 A 
HETATM   11  C   UNL     1     -46.677 -51.670  12.510  1.00  0.00     0.108 A 
HETATM   12  N   UNL     1     -45.719 -52.493  12.079  1.00  0.00    -0.310 N 
ATOM     13  HN  UNL     1     -45.547 -52.813  11.125  1.00  0.00     0.186 HD
ENDBRANCH   6   8
ENDBRANCH   4   6
ENDBRANCH   2   4
ENDBRANCH   1   2
BRANCH   1  14
HETATM   14  C   UNL     1     -41.062 -50.210  13.160  1.00  0.00     0.247 C 
HETATM   15  O   UNL     1     -40.914 -49.841  14.321  1.00  0.00    -0.272 OA
HETATM   16  N   UNL     1     -40.022 -50.330  12.263  1.00  0.00    -0.339 N 
HETATM   17  H   UNL     1     -40.280 -50.584  11.313  1.00  0.00     0.164 HD
BRANCH  16  18
HETATM   18  C   UNL     1     -38.665 -49.908  12.608  1.00  0.00     0.104 C 
HETATM   19  C   UNL     1     -38.063 -50.770  13.732  1.00  0.00     0.045 C 
HETATM   20  C   UNL     1     -37.311 -49.817  14.669  1.00  0.00     0.004 C 
HETATM   21  C   UNL     1     -37.396 -48.434  14.044  1.00  0.00     0.004 C 
HETATM   22  C   UNL     1     -38.659 -48.488  13.205  1.00  0.00     0.045 C 
BRANCH  18  23
HETATM   23  C   UNL     1     -37.800 -49.960  11.360  1.00  0.00    -0.046 C 
BRANCH  23  24
HETATM   24  N   UNL     1     -37.082 -50.003  10.323  1.00  0.00    -0.367 N 
ATOM     25  HN2 UNL     1     -37.680 -49.974  11.149  1.00  0.00     0.165 HD
ATOM     26  HN1 UNL     1     -36.502 -50.038   9.486  1.00  0.00     0.165 HD
ENDBRANCH  23  24
ENDBRANCH  18  23
ENDBRANCH  16  18
ENDBRANCH   1  14
TORSDOF 8
ENDMDL
MODEL 9
REMARK VINA RESULT:      -6.0      2.355      2.794
REMARK  8 active torsions:
REMARK  status: ('A' for Active; 'I' for Inactive)
REMARK    1  A    between atoms: C_2  and  N_3 
REMARK    2  A    between atoms: C_2  and  C_17 
REMARK    3  A    between atoms: N_3  and  C_4 
REMARK    4  A    between atoms: C_4  and  C_5 
REMARK       I    between atoms: C_5  and  N_7 
REMARK    5  A    between atoms: N_7  and  C_8 
REMARK    6  A    between atoms: C_8  and  C_13 
REMARK    7  A    between atoms: C_13  and  N_14 
REMARK    8  A    between atoms: C_17  and  N_19 
ROOT
HETATM    1  C   UNL     1     -39.884 -50.700  12.127  1.00  0.00     0.372 C 
ENDROOT
BRANCH   1   2
HETATM    2  N   UNL     1     -40.255 -50.118  10.816  1.00  0.00     0.098 N 
HETATM    3  H   UNL     1     -39.428 -50.156  10.214  1.00  0.00     0.317 HD
BRANCH   2   4
HETATM    4  C   UNL     1     -40.697 -48.702  10.926  1.00  0.00     0.241 C 
HETATM    5  C   UNL     1     -39.898 -47.987  12.032  1.00  0.00     0.045 C 
BRANCH   4   6
HETATM    6  C   UNL     1     -42.241 -48.497  11.083  1.00  0.00     0.136 C 
HETATM    7  C   UNL     1     -42.637 -47.897  12.437  1.00  0.00     0.036 C 
BRANCH   6   8
HETATM    8  N   UNL     1     -42.809 -47.693   9.999  1.00  0.00    -0.297 N 
HETATM    9  C   UNL     1     -43.409 -46.466  10.097  1.00  0.00     0.112 A 
HETATM   10  C   UNL     1     -43.842 -46.150   8.830  1.00  0.00     0.037 A 
HETATM   11  C   UNL     1     -43.466 -47.248   8.040  1.00  0.00     0.108 A 
HETATM   12  N   UNL     1     -42.843 -48.194   8.746  1.00  0.00    -0.310 N 
ATOM     13  HN  UNL     1     -42.477 -49.087   8.415  1.00  0.00     0.186 HD
ENDBRANCH   6   8
ENDBRANCH   4   6
ENDBRANCH   2   4
ENDBRANCH   1   2
BRANCH   1  14
HETATM   14  C   UNL     1     -40.749 -51.910  12.465  1.00  0.00     0.247 C 
HETATM   15  O   UNL     1     -40.638 -52.967  11.851  1.00  0.00    -0.272 OA
HETATM   16  N   UNL     1     -41.619 -51.732  13.519  1.00  0.00    -0.339 N 
HETATM   17  H   UNL     1     -41.664 -50.793  13.906  1.00  0.00     0.164 HD
BRANCH  16  18
HETATM   18  C   UNL     1     -42.567 -52.776  13.910  1.00  0.00     0.104 C 
HETATM   19  C   UNL     1     -43.104 -52.560  15.336  1.00  0.00     0.045 C 
HETATM   20  C   UNL     1     -43.153 -53.939  16.006  1.00  0.00     0.004 C 
HETATM   21  C   UNL     1     -42.741 -54.951  14.949  1.00  0.00     0.004 C 
HETATM   22  C   UNL     1     -41.878 -54.151  13.991  1.00  0.00     0.045 C 
BRANCH  18  23
HETATM   23  C   UNL     1     -43.703 -52.813  12.901  1.00  0.00    -0.046 C 
BRANCH  23  24
HETATM   24  N   UNL     1     -44.646 -52.843  12.064  1.00  0.00    -0.367 N 
ATOM     25  HN2 UNL     1     -43.890 -52.839  12.748  1.00  0.00     0.165 HD
ATOM     26  HN1 UNL     1     -45.409 -52.867  11.387  1.00  0.00     0.165 HD
ENDBRANCH  23  24
ENDBRANCH  18  23
ENDBRANCH  16  18
ENDBRANCH   1  14
TORSDOF 8
ENDMDL
