MODEL 1
REMARK VINA RESULT:      -6.0      0.000      0.000
REMARK  7 active torsions:
REMARK  status: ('A' for Active; 'I' for Inactive)
REMARK    1  A    between atoms: O_2  and  C_3 
REMARK    2  A    between atoms: C_3  and  C_4 
REMARK    3  A    between atoms: C_4  and  O_5 
REMARK    4  A    between atoms: O_5  and  C_6 
REMARK    5  A    between atoms: C_9  and  N_10 
REMARK       I    between atoms: N_10  and  C_11 
REMARK    6  A    between atoms: C_11  and  C_13 
REMARK    7  A    between atoms: N_17  and  S_18 
ROOT
HETATM    1  N   UNL     1     -41.036 -50.021  11.362  1.00  0.00    -0.325 N 
HETATM    2  C   UNL     1     -41.842 -50.615  12.330  1.00  0.00     0.241 C 
HETATM    3  O   UNL     1     -42.477 -49.999  13.179  1.00  0.00    -0.271 OA
HETATM    4  H   UNL     1     -40.371 -50.610  10.872  1.00  0.00     0.169 HD
ENDROOT
BRANCH   1   5
HETATM    5  C   UNL     1     -41.015 -48.630  11.067  1.00  0.00     0.050 A 
HETATM    6  C   UNL     1     -40.092 -47.754  11.635  1.00  0.00     0.035 A 
HETATM    7  C   UNL     1     -40.092 -46.409  11.281  1.00  0.00     0.058 A 
HETATM    8  C   UNL     1     -41.048 -45.960  10.392  1.00  0.00     0.141 A 
HETATM    9  N   UNL     1     -41.994 -46.753   9.844  1.00  0.00    -0.345 N 
HETATM   10  C   UNL     1     -41.948 -48.066  10.191  1.00  0.00     0.119 A 
ATOM     11  HN  UNL     1     -42.701 -46.388   9.206  1.00  0.00     0.167 HD
BRANCH   8  12
HETATM   12  O   UNL     1     -40.931 -44.639  10.019  1.00  0.00    -0.334 OA
BRANCH  12  13
HETATM   13  C   UNL     1     -40.128 -43.858  10.901  1.00  0.00     0.203 C 
BRANCH  13  14
HETATM   14  C   UNL     1     -40.978 -42.674  11.364  1.00  0.00     0.193 C 
BRANCH  14  15
HETATM   15  O   UNL     1     -42.086 -42.494  10.485  1.00  0.00    -0.394 OA
HETATM   16  C   UNL     1     -43.301 -42.331  11.207  1.00  0.00     0.201 C 
ENDBRANCH  14  15
ENDBRANCH  13  14
ENDBRANCH  12  13
ENDBRANCH   8  12
ENDBRANCH   1   5
BRANCH   2  17
HETATM   17  C   UNL     1     -41.867 -52.128  12.283  1.00  0.00     0.166 C 
HETATM   18  C   UNL     1     -42.889 -52.729  13.254  1.00  0.00     0.031 C 
HETATM   19  C   UNL     1     -42.407 -54.147  13.526  1.00  0.00     0.018 C 
HETATM   20  C   UNL     1     -41.134 -54.307  12.700  1.00  0.00     0.108 C 
HETATM   21  N   UNL     1     -40.610 -52.903  12.512  1.00  0.00    -0.197 NA
BRANCH  21  22
HETATM   22  S   UNL     1     -39.536 -52.488  13.777  1.00  0.00     0.208 S 
HETATM   23  O   UNL     1     -38.416 -51.774  13.209  1.00  0.00    -0.212 OA
HETATM   24  O   UNL     1     -40.357 -51.865  14.798  1.00  0.00    -0.212 OA
HETATM   25  C   UNL     1     -38.952 -54.027  14.452  1.00  0.00     0.180 C 
ENDBRANCH  21  22
ENDBRANCH   2  17
TORSDOF 7
ENDMDL
MODEL 2
REMARK VINA RESULT:      -5.7      1.817      2.183
REMARK  7 active torsions:
REMARK  status: ('A' for Active; 'I' for Inactive)
REMARK    1  A    between atoms: O_2  and  C_3 
REMARK    2  A    between atoms: C_3  and  C_4 
REMARK    3  A    between atoms: C_4  and  O_5 
REMARK    4  A    between atoms: O_5  and  C_6 
REMARK    5  A    between atoms: C_9  and  N_10 
REMARK       I    between atoms: N_10  and  C_11 
REMARK    6  A    between atoms: C_11  and  C_13 
REMARK    7  A    between atoms: N_17  and  S_18 
ROOT
HETATM    1  N   UNL     1     -42.353 -49.915  12.276  1.00  0.00    -0.325 N 
HETATM    2  C   UNL     1     -41.270 -50.596  11.725  1.00  0.00     0.241 C 
HETATM    3  O   UNL     1     -40.360 -50.062  11.101  1.00  0.00    -0.271 OA
HETATM    4  H   UNL     1     -43.163 -50.460  12.553  1.00  0.00     0.169 HD
ENDROOT
BRANCH   1   5
HETATM    5  C   UNL     1     -42.444 -48.502  12.402  1.00  0.00     0.050 A 
HETATM    6  C   UNL     1     -41.905 -47.807  13.483  1.00  0.00     0.035 A 
HETATM    7  C   UNL     1     -41.989 -46.420  13.537  1.00  0.00     0.058 A 
HETATM    8  C   UNL     1     -42.651 -45.758  12.522  1.00  0.00     0.141 A 
HETATM    9  N   UNL     1     -43.230 -46.382  11.473  1.00  0.00    -0.345 N 
HETATM   10  C   UNL     1     -43.106 -47.735  11.438  1.00  0.00     0.119 A 
ATOM     11  HN  UNL     1     -43.731 -45.867  10.749  1.00  0.00     0.167 HD
BRANCH   8  12
HETATM   12  O   UNL     1     -42.616 -44.383  12.595  1.00  0.00    -0.334 OA
BRANCH  12  13
HETATM   13  C   UNL     1     -42.295 -43.746  11.361  1.00  0.00     0.203 C 
BRANCH  13  14
HETATM   14  C   UNL     1     -40.809 -43.386  11.407  1.00  0.00     0.193 C 
BRANCH  14  15
HETATM   15  O   UNL     1     -40.158 -43.842  10.223  1.00  0.00    -0.394 OA
HETATM   16  C   UNL     1     -39.756 -45.201  10.341  1.00  0.00     0.201 C 
ENDBRANCH  14  15
ENDBRANCH  13  14
ENDBRANCH  12  13
ENDBRANCH   8  12
ENDBRANCH   1   5
BRANCH   2  17
HETATM   17  C   UNL     1     -41.301 -52.095  11.931  1.00  0.00     0.166 C 
HETATM   18  C   UNL     1     -42.600 -52.572  12.591  1.00  0.00     0.031 C 
HETATM   19  C   UNL     1     -42.259 -53.902  13.245  1.00  0.00     0.018 C 
HETATM   20  C   UNL     1     -40.785 -54.141  12.933  1.00  0.00     0.108 C 
HETATM   21  N   UNL     1     -40.207 -52.766  12.697  1.00  0.00    -0.197 NA
BRANCH  21  22
HETATM   22  S   UNL     1     -39.618 -52.102  14.158  1.00  0.00     0.208 S 
HETATM   23  O   UNL     1     -40.604 -51.179  14.671  1.00  0.00    -0.212 OA
HETATM   24  O   UNL     1     -39.192 -53.235  14.959  1.00  0.00    -0.212 OA
HETATM   25  C   UNL     1     -38.150 -51.192  13.730  1.00  0.00     0.180 C 
ENDBRANCH  21  22
ENDBRANCH   2  17
TORSDOF 7
ENDMDL
MODEL 3
REMARK VINA RESULT:      -5.6      2.811      7.929
REMARK  7 active torsions:
REMARK  status: ('A' for Active; 'I' for Inactive)
REMARK    1  A    between atoms: O_2  and  C_3 
REMARK    2  A    between atoms: C_3  and  C_4 
REMARK    3  A    between atoms: C_4  and  O_5 
REMARK    4  A    between atoms: O_5  and  C_6 
REMARK    5  A    between atoms: C_9  and  N_10 
REMARK       I    between atoms: N_10  and  C_11 
REMARK    6  A    between atoms: C_11  and  C_13 
REMARK    7  A    between atoms: N_17  and  S_18 
ROOT
HETATM    1  N   UNL     1     -39.790 -47.323  11.470  1.00  0.00    -0.325 N 
HETATM    2  C   UNL     1     -40.946 -47.052  10.743  1.00  0.00     0.241 C 
HETATM    3  O   UNL     1     -41.663 -47.907  10.235  1.00  0.00    -0.271 OA
HETATM    4  H   UNL     1     -39.144 -46.557  11.635  1.00  0.00     0.169 HD
ENDROOT
BRANCH   1   5
HETATM    5  C   UNL     1     -39.403 -48.612  11.928  1.00  0.00     0.050 A 
HETATM    6  C   UNL     1     -38.229 -49.238  11.512  1.00  0.00     0.035 A 
HETATM    7  C   UNL     1     -37.879 -50.483  12.022  1.00  0.00     0.058 A 
HETATM    8  C   UNL     1     -38.738 -51.097  12.912  1.00  0.00     0.141 A 
HETATM    9  N   UNL     1     -39.909 -50.559  13.317  1.00  0.00    -0.345 N 
HETATM   10  C   UNL     1     -40.207 -49.330  12.820  1.00  0.00     0.119 A 
ATOM     11  HN  UNL     1     -40.533 -51.046  13.960  1.00  0.00     0.167 HD
BRANCH   8  12
HETATM   12  O   UNL     1     -38.285 -52.285  13.444  1.00  0.00    -0.334 OA
BRANCH  12  13
HETATM   13  C   UNL     1     -38.954 -52.675  14.640  1.00  0.00     0.203 C 
BRANCH  13  14
HETATM   14  C   UNL     1     -39.417 -54.120  14.454  1.00  0.00     0.193 C 
BRANCH  14  15
HETATM   15  O   UNL     1     -39.931 -54.304  13.136  1.00  0.00    -0.394 OA
HETATM   16  C   UNL     1     -41.338 -54.102  13.094  1.00  0.00     0.201 C 
ENDBRANCH  14  15
ENDBRANCH  13  14
ENDBRANCH  12  13
ENDBRANCH   8  12
ENDBRANCH   1   5
BRANCH   2  17
HETATM   17  C   UNL     1     -41.261 -45.580  10.590  1.00  0.00     0.166 C 
HETATM   18  C   UNL     1     -40.011 -44.698  10.687  1.00  0.00     0.031 C 
HETATM   19  C   UNL     1     -40.513 -43.323  11.102  1.00  0.00     0.018 C 
HETATM   20  C   UNL     1     -42.028 -43.465  11.222  1.00  0.00     0.108 C 
HETATM   21  N   UNL     1     -42.263 -44.933  11.490  1.00  0.00    -0.197 NA
BRANCH  21  22
HETATM   22  S   UNL     1     -42.268 -45.244  13.172  1.00  0.00     0.208 S 
HETATM   23  O   UNL     1     -40.902 -45.405  13.611  1.00  0.00    -0.212 OA
HETATM   24  O   UNL     1     -43.106 -44.214  13.757  1.00  0.00    -0.212 OA
HETATM   25  C   UNL     1     -43.124 -46.789  13.385  1.00  0.00     0.180 C 
ENDBRANCH  21  22
ENDBRANCH   2  17
TORSDOF 7
ENDMDL
MODEL 4
REMARK VINA RESULT:      -5.5      3.112      8.139
REMARK  7 active torsions:
REMARK  status: ('A' for Active; 'I' for Inactive)
REMARK    1  A    between atoms: O_2  and  C_3 
REMARK    2  A    between atoms: C_3  and  C_4 
REMARK    3  A    between atoms: C_4  and  O_5 
REMARK    4  A    between atoms: O_5  and  C_6 
REMARK    5  A    between atoms: C_9  and  N_10 
REMARK       I    between atoms: N_10  and  C_11 
REMARK    6  A    between atoms: C_11  and  C_13 
REMARK    7  A    between atoms: N_17  and  S_18 
ROOT
HETATM    1  N   UNL     1     -41.561 -49.667  12.911  1.00  0.00    -0.325 N 
HETATM    2  C   UNL     1     -40.944 -49.119  11.789  1.00  0.00     0.241 C 
HETATM    3  O   UNL     1     -40.982 -49.610  10.666  1.00  0.00    -0.271 OA
HETATM    4  H   UNL     1     -41.273 -49.328  13.823  1.00  0.00     0.169 HD
ENDROOT
BRANCH   1   5
HETATM    5  C   UNL     1     -42.508 -50.727  12.879  1.00  0.00     0.050 A 
HETATM    6  C   UNL     1     -43.824 -50.575  13.313  1.00  0.00     0.035 A 
HETATM    7  C   UNL     1     -44.719 -51.635  13.224  1.00  0.00     0.058 A 
HETATM    8  C   UNL     1     -44.264 -52.845  12.738  1.00  0.00     0.141 A 
HETATM    9  N   UNL     1     -42.991 -53.064  12.345  1.00  0.00    -0.345 N 
HETATM   10  C   UNL     1     -42.149 -51.999  12.420  1.00  0.00     0.119 A 
ATOM     11  HN  UNL     1     -42.678 -53.975  12.010  1.00  0.00     0.167 HD
BRANCH   8  12
HETATM   12  O   UNL     1     -45.226 -53.821  12.593  1.00  0.00    -0.334 OA
BRANCH  12  13
HETATM   13  C   UNL     1     -45.166 -54.842  13.586  1.00  0.00     0.203 C 
BRANCH  13  14
HETATM   14  C   UNL     1     -46.318 -54.598  14.562  1.00  0.00     0.193 C 
BRANCH  14  15
HETATM   15  O   UNL     1     -45.828 -54.577  15.901  1.00  0.00    -0.394 OA
HETATM   16  C   UNL     1     -45.840 -53.260  16.438  1.00  0.00     0.201 C 
ENDBRANCH  14  15
ENDBRANCH  13  14
ENDBRANCH  12  13
ENDBRANCH   8  12
ENDBRANCH   1   5
BRANCH   2  17
HETATM   17  C   UNL     1     -40.173 -47.845  12.057  1.00  0.00     0.166 C 
HETATM   18  C   UNL     1     -39.987 -47.573  13.554  1.00  0.00     0.031 C 
HETATM   19  C   UNL     1     -39.758 -46.074  13.670  1.00  0.00     0.018 C 
HETATM   20  C   UNL     1     -39.815 -45.544  12.241  1.00  0.00     0.108 C 
HETATM   21  N   UNL     1     -40.649 -46.550  11.484  1.00  0.00    -0.197 NA
BRANCH  21  22
HETATM   22  S   UNL     1     -42.303 -46.118  11.531  1.00  0.00     0.208 S 
HETATM   23  O   UNL     1     -42.957 -46.928  12.533  1.00  0.00    -0.212 OA
HETATM   24  O   UNL     1     -42.327 -44.671  11.634  1.00  0.00    -0.212 OA
HETATM   25  C   UNL     1     -42.967 -46.534   9.935  1.00  0.00     0.180 C 
ENDBRANCH  21  22
ENDBRANCH   2  17
TORSDOF 7
ENDMDL
MODEL 5
REMARK VINA RESULT:      -5.4      6.627      9.476
REMARK  7 active torsions:
REMARK  status: ('A' for Active; 'I' for Inactive)
REMARK    1  A    between atoms: O_2  and  C_3 
REMARK    2  A    between atoms: C_3  and  C_4 
REMARK    3  A    between atoms: C_4  and  O_5 
REMARK    4  A    between atoms: O_5  and  C_6 
REMARK    5  A    between atoms: C_9  and  N_10 
REMARK       I    between atoms: N_10  and  C_11 
REMARK    6  A    between atoms: C_11  and  C_13 
REMARK    7  A    between atoms: N_17  and  S_18 
ROOT
HETATM    1  N   UNL     1     -42.568 -53.906  14.178  1.00  0.00    -0.325 N 
HETATM    2  C   UNL     1     -43.793 -54.537  14.377  1.00  0.00     0.241 C 
HETATM    3  O   UNL     1     -43.925 -55.681  14.798  1.00  0.00    -0.271 OA
HETATM    4  H   UNL     1     -42.556 -53.068  13.606  1.00  0.00     0.169 HD
ENDROOT
BRANCH   1   5
HETATM    5  C   UNL     1     -41.319 -54.394  14.647  1.00  0.00     0.050 A 
HETATM    6  C   UNL     1     -41.141 -54.890  15.937  1.00  0.00     0.035 A 
HETATM    7  C   UNL     1     -39.905 -55.392  16.332  1.00  0.00     0.058 A 
HETATM    8  C   UNL     1     -38.857 -55.347  15.434  1.00  0.00     0.141 A 
HETATM    9  N   UNL     1     -38.959 -54.838  14.187  1.00  0.00    -0.345 N 
HETATM   10  C   UNL     1     -40.186 -54.381  13.825  1.00  0.00     0.119 A 
ATOM     11  HN  UNL     1     -38.161 -54.799  13.553  1.00  0.00     0.167 HD
BRANCH   8  12
HETATM   12  O   UNL     1     -37.690 -55.942  15.861  1.00  0.00    -0.334 OA
BRANCH  12  13
HETATM   13  C   UNL     1     -37.613 -56.115  17.274  1.00  0.00     0.203 C 
BRANCH  13  14
HETATM   14  C   UNL     1     -36.222 -55.658  17.715  1.00  0.00     0.193 C 
BRANCH  14  15
HETATM   15  O   UNL     1     -35.222 -56.465  17.095  1.00  0.00    -0.394 OA
HETATM   16  C   UNL     1     -33.919 -55.943  17.323  1.00  0.00     0.201 C 
ENDBRANCH  14  15
ENDBRANCH  13  14
ENDBRANCH  12  13
ENDBRANCH   8  12
ENDBRANCH   1   5
BRANCH   2  17
HETATM   17  C   UNL     1     -44.998 -53.701  14.004  1.00  0.00     0.166 C 
HETATM   18  C   UNL     1     -44.615 -52.413  13.265  1.00  0.00     0.031 C 
HETATM   19  C   UNL     1     -45.777 -51.457  13.485  1.00  0.00     0.018 C 
HETATM   20  C   UNL     1     -46.783 -52.229  14.333  1.00  0.00     0.108 C 
HETATM   21  N   UNL     1     -45.964 -53.270  15.059  1.00  0.00    -0.197 NA
BRANCH  21  22
HETATM   22  S   UNL     1     -45.417 -52.663  16.562  1.00  0.00     0.208 S 
HETATM   23  O   UNL     1     -44.028 -52.288  16.424  1.00  0.00    -0.212 OA
HETATM   24  O   UNL     1     -46.401 -51.678  16.968  1.00  0.00    -0.212 OA
HETATM   25  C   UNL     1     -45.533 -54.015  17.712  1.00  0.00     0.180 C 
ENDBRANCH  21  22
ENDBRANCH   2  17
TORSDOF 7
ENDMDL
MODEL 6
REMARK VINA RESULT:      -5.4      2.602      3.754
REMARK  7 active torsions:
REMARK  status: ('A' for Active; 'I' for Inactive)
REMARK    1  A    between atoms: O_2  and  C_3 
REMARK    2  A    between atoms: C_3  and  C_4 
REMARK    3  A    between atoms: C_4  and  O_5 
REMARK    4  A    between atoms: O_5  and  C_6 
REMARK    5  A    between atoms: C_9  and  N_10 
REMARK       I    between atoms: N_10  and  C_11 
REMARK    6  A    between atoms: C_11  and  C_13 
REMARK    7  A    between atoms: N_17  and  S_18 
ROOT
HETATM    1  N   UNL     1     -42.553 -51.379  12.588  1.00  0.00    -0.325 N 
HETATM    2  C   UNL     1     -42.342 -52.022  13.805  1.00  0.00     0.241 C 
HETATM    3  O   UNL     1     -41.447 -51.739  14.594  1.00  0.00    -0.271 OA
HETATM    4  H   UNL     1     -43.152 -51.836  11.909  1.00  0.00     0.169 HD
ENDROOT
BRANCH   1   5
HETATM    5  C   UNL     1     -41.925 -50.167  12.192  1.00  0.00     0.050 A 
HETATM    6  C   UNL     1     -42.486 -48.914  12.434  1.00  0.00     0.035 A 
HETATM    7  C   UNL     1     -41.810 -47.758  12.059  1.00  0.00     0.058 A 
HETATM    8  C   UNL     1     -40.598 -47.883  11.408  1.00  0.00     0.141 A 
HETATM    9  N   UNL     1     -40.028 -49.070  11.108  1.00  0.00    -0.345 N 
HETATM   10  C   UNL     1     -40.702 -50.178  11.512  1.00  0.00     0.119 A 
ATOM     11  HN  UNL     1     -39.141 -49.131  10.607  1.00  0.00     0.167 HD
BRANCH   8  12
HETATM   12  O   UNL     1     -39.944 -46.699  11.148  1.00  0.00    -0.334 OA
BRANCH  12  13
HETATM   13  C   UNL     1     -40.735 -45.745  10.443  1.00  0.00     0.203 C 
BRANCH  13  14
HETATM   14  C   UNL     1     -40.048 -44.387  10.588  1.00  0.00     0.193 C 
BRANCH  14  15
HETATM   15  O   UNL     1     -41.025 -43.352  10.687  1.00  0.00    -0.394 OA
HETATM   16  C   UNL     1     -42.224 -43.825  11.287  1.00  0.00     0.201 C 
ENDBRANCH  14  15
ENDBRANCH  13  14
ENDBRANCH  12  13
ENDBRANCH   8  12
ENDBRANCH   1   5
BRANCH   2  17
HETATM   17  C   UNL     1     -43.308 -53.151  14.094  1.00  0.00     0.166 C 
HETATM   18  C   UNL     1     -43.903 -53.756  12.818  1.00  0.00     0.031 C 
HETATM   19  C   UNL     1     -45.211 -54.405  13.247  1.00  0.00     0.018 C 
HETATM   20  C   UNL     1     -45.314 -54.153  14.748  1.00  0.00     0.108 C 
HETATM   21  N   UNL     1     -44.476 -52.922  14.997  1.00  0.00    -0.197 NA
BRANCH  21  22
HETATM   22  S   UNL     1     -45.430 -51.509  14.864  1.00  0.00     0.208 S 
HETATM   23  O   UNL     1     -44.916 -50.523  15.787  1.00  0.00    -0.212 OA
HETATM   24  O   UNL     1     -45.498 -51.215  13.445  1.00  0.00    -0.212 OA
HETATM   25  C   UNL     1     -47.070 -51.971  15.375  1.00  0.00     0.180 C 
ENDBRANCH  21  22
ENDBRANCH   2  17
TORSDOF 7
ENDMDL
MODEL 7
REMARK VINA RESULT:      -5.4      3.424      7.063
REMARK  7 active torsions:
REMARK  status: ('A' for Active; 'I' for Inactive)
REMARK    1  A    between atoms: O_2  and  C_3 
REMARK    2  A    between atoms: C_3  and  C_4 
REMARK    3  A    between atoms: C_4  and  O_5 
REMARK    4  A    between atoms: O_5  and  C_6 
REMARK    5  A    between atoms: C_9  and  N_10 
REMARK       I    between atoms: N_10  and  C_11 
REMARK    6  A    between atoms: C_11  and  C_13 
REMARK    7  A    between atoms: N_17  and  S_18 
ROOT
HETATM    1  N   UNL     1     -40.183 -51.303  14.138  1.00  0.00    -0.325 N 
HETATM    2  C   UNL     1     -39.078 -50.973  13.358  1.00  0.00     0.241 C 
HETATM    3  O   UNL     1     -38.912 -51.338  12.199  1.00  0.00    -0.271 OA
HETATM    4  H   UNL     1     -40.113 -51.163  15.141  1.00  0.00     0.169 HD
ENDROOT
BRANCH   1   5
HETATM    5  C   UNL     1     -41.375 -51.901  13.645  1.00  0.00     0.050 A 
HETATM    6  C   UNL     1     -41.640 -53.264  13.769  1.00  0.00     0.035 A 
HETATM    7  C   UNL     1     -42.840 -53.790  13.302  1.00  0.00     0.058 A 
HETATM    8  C   UNL     1     -43.736 -52.943  12.682  1.00  0.00     0.141 A 
HETATM    9  N   UNL     1     -43.514 -51.624  12.495  1.00  0.00    -0.345 N 
HETATM   10  C   UNL     1     -42.344 -51.138  12.986  1.00  0.00     0.119 A 
ATOM     11  HN  UNL     1     -44.186 -51.026  12.013  1.00  0.00     0.167 HD
BRANCH   8  12
HETATM   12  O   UNL     1     -44.938 -53.514  12.327  1.00  0.00    -0.334 OA
BRANCH  12  13
HETATM   13  C   UNL     1     -46.041 -52.612  12.366  1.00  0.00     0.203 C 
BRANCH  13  14
HETATM   14  C   UNL     1     -46.505 -52.521  13.820  1.00  0.00     0.193 C 
BRANCH  14  15
HETATM   15  O   UNL     1     -46.254 -51.214  14.333  1.00  0.00    -0.394 OA
HETATM   16  C   UNL     1     -45.513 -51.265  15.546  1.00  0.00     0.201 C 
ENDBRANCH  14  15
ENDBRANCH  13  14
ENDBRANCH  12  13
ENDBRANCH   8  12
ENDBRANCH   1   5
BRANCH   2  17
HETATM   17  C   UNL     1     -38.043 -50.125  14.064  1.00  0.00     0.166 C 
HETATM   18  C   UNL     1     -38.181 -50.176  15.590  1.00  0.00     0.031 C 
HETATM   19  C   UNL     1     -37.529 -48.900  16.101  1.00  0.00     0.018 C 
HETATM   20  C   UNL     1     -37.037 -48.170  14.854  1.00  0.00     0.108 C 
HETATM   21  N   UNL     1     -37.915 -48.673  13.734  1.00  0.00    -0.197 NA
BRANCH  21  22
HETATM   22  S   UNL     1     -39.299 -47.682  13.564  1.00  0.00     0.208 S 
HETATM   23  O   UNL     1     -40.388 -48.291  14.292  1.00  0.00    -0.212 OA
HETATM   24  O   UNL     1     -38.861 -46.339  13.893  1.00  0.00    -0.212 OA
HETATM   25  C   UNL     1     -39.697 -47.685  11.830  1.00  0.00     0.180 C 
ENDBRANCH  21  22
ENDBRANCH   2  17
TORSDOF 7
ENDMDL
MODEL 8
REMARK VINA RESULT:      -5.4      2.456      8.220
REMARK  7 active torsions:
REMARK  status: ('A' for Active; 'I' for Inactive)
REMARK    1  A    between atoms: O_2  and  C_3 
REMARK    2  A    between atoms: C_3  and  C_4 
REMARK    3  A    between atoms: C_4  and  O_5 
REMARK    4  A    between atoms: O_5  and  C_6 
REMARK    5  A    between atoms: C_9  and  N_10 
REMARK       I    between atoms: N_10  and  C_11 
REMARK    6  A    between atoms: C_11  and  C_13 
REMARK    7  A    between atoms: N_17  and  S_18 
ROOT
HETATM    1  N   UNL     1     -42.470 -49.708  11.781  1.00  0.00    -0.325 N 
HETATM    2  C   UNL     1     -42.764 -48.583  12.547  1.00  0.00     0.241 C 
HETATM    3  O   UNL     1     -42.814 -48.570  13.772  1.00  0.00    -0.271 OA
HETATM    4  H   UNL     1     -42.691 -49.677  10.791  1.00  0.00     0.169 HD
ENDROOT
BRANCH   1   5
HETATM    5  C   UNL     1     -41.959 -50.929  12.298  1.00  0.00     0.050 A 
HETATM    6  C   UNL     1     -42.777 -52.015  12.609  1.00  0.00     0.035 A 
HETATM    7  C   UNL     1     -42.220 -53.201  13.075  1.00  0.00     0.058 A 
HETATM    8  C   UNL     1     -40.853 -53.261  13.261  1.00  0.00     0.141 A 
HETATM    9  N   UNL     1     -40.017 -52.228  13.019  1.00  0.00    -0.345 N 
HETATM   10  C   UNL     1     -40.591 -51.093  12.539  1.00  0.00     0.119 A 
ATOM     11  HN  UNL     1     -39.014 -52.295  13.186  1.00  0.00     0.167 HD
BRANCH   8  12
HETATM   12  O   UNL     1     -40.364 -54.492  13.638  1.00  0.00    -0.334 OA
BRANCH  12  13
HETATM   13  C   UNL     1     -39.045 -54.450  14.178  1.00  0.00     0.203 C 
BRANCH  13  14
HETATM   14  C   UNL     1     -39.154 -54.752  15.673  1.00  0.00     0.193 C 
BRANCH  14  15
HETATM   15  O   UNL     1     -38.864 -56.127  15.916  1.00  0.00    -0.394 OA
HETATM   16  C   UNL     1     -39.689 -56.657  16.947  1.00  0.00     0.201 C 
ENDBRANCH  14  15
ENDBRANCH  13  14
ENDBRANCH  12  13
ENDBRANCH   8  12
ENDBRANCH   1   5
BRANCH   2  17
HETATM   17  C   UNL     1     -43.054 -47.334  11.742  1.00  0.00     0.166 C 
HETATM   18  C   UNL     1     -43.356 -47.640  10.270  1.00  0.00     0.031 C 
HETATM   19  C   UNL     1     -43.043 -46.356   9.515  1.00  0.00     0.018 C 
HETATM   20  C   UNL     1     -42.581 -45.364  10.578  1.00  0.00     0.108 C 
HETATM   21  N   UNL     1     -42.062 -46.217  11.711  1.00  0.00    -0.197 NA
BRANCH  21  22
HETATM   22  S   UNL     1     -40.391 -46.528  11.514  1.00  0.00     0.208 S 
HETATM   23  O   UNL     1     -40.229 -47.898  11.086  1.00  0.00    -0.212 OA
HETATM   24  O   UNL     1     -39.886 -45.443  10.693  1.00  0.00    -0.212 OA
HETATM   25  C   UNL     1     -39.662 -46.339  13.125  1.00  0.00     0.180 C 
ENDBRANCH  21  22
ENDBRANCH   2  17
TORSDOF 7
ENDMDL
MODEL 9
REMARK VINA RESULT:      -5.4      2.895      7.924
REMARK  7 active torsions:
REMARK  status: ('A' for Active; 'I' for Inactive)
REMARK    1  A    between atoms: O_2  and  C_3 
REMARK    2  A    between atoms: C_3  and  C_4 
REMARK    3  A    between atoms: C_4  and  O_5 
REMARK    4  A    between atoms: O_5  and  C_6 
REMARK    5  A    between atoms: C_9  and  N_10 
REMARK       I    between atoms: N_10  and  C_11 
REMARK    6  A    between atoms: C_11  and  C_13 
REMARK    7  A    between atoms: N_17  and  S_18 
ROOT
HETATM    1  N   UNL     1     -41.001 -48.533  13.149  1.00  0.00    -0.325 N 
HETATM    2  C   UNL     1     -40.553 -48.438  11.834  1.00  0.00     0.241 C 
HETATM    3  O   UNL     1     -40.599 -49.351  11.017  1.00  0.00    -0.271 OA
HETATM    4  H   UNL     1     -40.700 -47.819  13.804  1.00  0.00     0.169 HD
ENDROOT
BRANCH   1   5
HETATM    5  C   UNL     1     -41.783 -49.602  13.664  1.00  0.00     0.050 A 
HETATM    6  C   UNL     1     -43.152 -49.487  13.903  1.00  0.00     0.035 A 
HETATM    7  C   UNL     1     -43.876 -50.578  14.371  1.00  0.00     0.058 A 
HETATM    8  C   UNL     1     -43.203 -51.755  14.631  1.00  0.00     0.141 A 
HETATM    9  N   UNL     1     -41.873 -51.912  14.462  1.00  0.00    -0.345 N 
HETATM   10  C   UNL     1     -41.200 -50.835  13.977  1.00  0.00     0.119 A 
ATOM     11  HN  UNL     1     -41.400 -52.788  14.683  1.00  0.00     0.167 HD
BRANCH   8  12
HETATM   12  O   UNL     1     -43.998 -52.817  15.006  1.00  0.00    -0.334 OA
BRANCH  12  13
HETATM   13  C   UNL     1     -43.953 -53.919  14.104  1.00  0.00     0.203 C 
BRANCH  13  14
HETATM   14  C   UNL     1     -45.364 -54.113  13.549  1.00  0.00     0.193 C 
BRANCH  14  15
HETATM   15  O   UNL     1     -45.499 -53.432  12.303  1.00  0.00    -0.394 OA
HETATM   16  C   UNL     1     -46.352 -52.300  12.418  1.00  0.00     0.201 C 
ENDBRANCH  14  15
ENDBRANCH  13  14
ENDBRANCH  12  13
ENDBRANCH   8  12
ENDBRANCH   1   5
BRANCH   2  17
HETATM   17  C   UNL     1     -39.958 -47.096  11.469  1.00  0.00     0.166 C 
HETATM   18  C   UNL     1     -39.645 -46.236  12.700  1.00  0.00     0.031 C 
HETATM   19  C   UNL     1     -39.634 -44.799  12.201  1.00  0.00     0.018 C 
HETATM   20  C   UNL     1     -39.934 -44.887  10.707  1.00  0.00     0.108 C 
HETATM   21  N   UNL     1     -40.686 -46.185  10.535  1.00  0.00    -0.197 NA
BRANCH  21  22
HETATM   22  S   UNL     1     -42.370 -45.928  10.687  1.00  0.00     0.208 S 
HETATM   23  O   UNL     1     -42.759 -46.241  12.043  1.00  0.00    -0.212 OA
HETATM   24  O   UNL     1     -42.615 -44.605  10.145  1.00  0.00    -0.212 OA
HETATM   25  C   UNL     1     -43.147 -47.090   9.587  1.00  0.00     0.180 C 
ENDBRANCH  21  22
ENDBRANCH   2  17
TORSDOF 7
ENDMDL
