MODEL 1
REMARK VINA RESULT:      -5.8      0.000      0.000
REMARK  5 active torsions:
REMARK  status: ('A' for Active; 'I' for Inactive)
REMARK    1  A    between atoms: C_2  and  C_3 
REMARK    2  A    between atoms: C_2  and  N_10 
REMARK    3  A    between atoms: C_3  and  N_4 
REMARK    4  A    between atoms: N_10  and  C_11 
REMARK    5  A    between atoms: C_11  and  C_12 
REMARK       I    between atoms: N_15  and  C_18 
ROOT
HETATM    1  N   UNL     1     -41.576 -47.596   9.954  1.00  0.00     0.089 N 
HETATM    2  H   UNL     1     -40.971 -47.171   9.248  1.00  0.00     0.316 HD
ENDROOT
BRANCH   1   3
HETATM    3  C   UNL     1     -42.885 -46.901   9.920  1.00  0.00     0.236 C 
HETATM    4  C   UNL     1     -42.612 -45.457  10.368  1.00  0.00     0.044 C 
BRANCH   3   5
HETATM    5  C   UNL     1     -43.556 -46.930   8.530  1.00  0.00     0.183 C 
BRANCH   5   6
HETATM    6  N   UNL     1     -44.856 -47.579   8.517  1.00  0.00    -0.302 N 
HETATM    7  C   UNL     1     -45.877 -47.381   9.401  1.00  0.00     0.111 A 
HETATM    8  C   UNL     1     -46.898 -48.207   8.993  1.00  0.00     0.037 A 
HETATM    9  C   UNL     1     -46.398 -48.853   7.849  1.00  0.00     0.108 A 
HETATM   10  N   UNL     1     -45.156 -48.466   7.549  1.00  0.00    -0.310 N 
ATOM     11  HN  UNL     1     -44.572 -48.770   6.770  1.00  0.00     0.186 HD
ENDBRANCH   5   6
ENDBRANCH   3   5
ENDBRANCH   1   3
BRANCH   1  12
HETATM   12  C   UNL     1     -40.898 -47.526  11.249  1.00  0.00     0.274 C 
BRANCH  12  13
HETATM   13  C   UNL     1     -41.160 -48.809  12.066  1.00  0.00     0.017 C 
HETATM   14  C   UNL     1     -40.694 -48.713  13.531  1.00  0.00     0.026 C 
HETATM   15  C   UNL     1     -39.174 -48.762  13.686  1.00  0.00     0.126 C 
HETATM   16  N   UNL     1     -38.589 -49.901  12.977  1.00  0.00    -0.352 N 
HETATM   17  C   UNL     1     -38.990 -50.047  11.576  1.00  0.00     0.126 C 
HETATM   18  C   UNL     1     -37.512 -50.658  13.421  1.00  0.00     0.215 C 
HETATM   19  C   UNL     1     -40.506 -50.036  11.416  1.00  0.00     0.026 C 
HETATM   20  O   UNL     1     -37.015 -51.557  12.735  1.00  0.00    -0.274 OA
HETATM   21  C   UNL     1     -36.948 -50.409  14.798  1.00  0.00     0.117 C 
ENDBRANCH  12  13
ENDBRANCH   1  12
TORSDOF 5
ENDMDL
MODEL 2
REMARK VINA RESULT:      -5.6      4.659      6.370
REMARK  5 active torsions:
REMARK  status: ('A' for Active; 'I' for Inactive)
REMARK    1  A    between atoms: C_2  and  C_3 
REMARK    2  A    between atoms: C_2  and  N_10 
REMARK    3  A    between atoms: C_3  and  N_4 
REMARK    4  A    between atoms: N_10  and  C_11 
REMARK    5  A    between atoms: C_11  and  C_12 
REMARK       I    between atoms: N_15  and  C_18 
ROOT
HETATM    1  N   UNL     1     -40.991 -52.273  12.166  1.00  0.00     0.089 N 
HETATM    2  H   UNL     1     -40.278 -52.719  11.584  1.00  0.00     0.316 HD
ENDROOT
BRANCH   1   3
HETATM    3  C   UNL     1     -40.514 -50.916  12.522  1.00  0.00     0.236 C 
HETATM    4  C   UNL     1     -39.179 -51.113  13.257  1.00  0.00     0.044 C 
BRANCH   3   5
HETATM    5  C   UNL     1     -40.339 -49.990  11.300  1.00  0.00     0.183 C 
BRANCH   5   6
HETATM    6  N   UNL     1     -41.458 -49.089  11.079  1.00  0.00    -0.302 N 
HETATM    7  C   UNL     1     -42.447 -48.781  11.968  1.00  0.00     0.111 A 
HETATM    8  C   UNL     1     -43.278 -47.896  11.321  1.00  0.00     0.037 A 
HETATM    9  C   UNL     1     -42.697 -47.727  10.051  1.00  0.00     0.108 A 
HETATM   10  N   UNL     1     -41.582 -48.445   9.902  1.00  0.00    -0.310 N 
ATOM     11  HN  UNL     1     -40.968 -48.495   9.089  1.00  0.00     0.186 HD
ENDBRANCH   5   6
ENDBRANCH   3   5
ENDBRANCH   1   3
BRANCH   1  12
HETATM   12  C   UNL     1     -41.253 -53.134  13.320  1.00  0.00     0.274 C 
BRANCH  12  13
HETATM   13  C   UNL     1     -42.550 -53.943  13.108  1.00  0.00     0.017 C 
HETATM   14  C   UNL     1     -43.688 -53.126  12.467  1.00  0.00     0.026 C 
HETATM   15  C   UNL     1     -44.316 -52.111  13.422  1.00  0.00     0.126 C 
HETATM   16  N   UNL     1     -44.703 -52.724  14.693  1.00  0.00    -0.352 N 
HETATM   17  C   UNL     1     -43.664 -53.514  15.357  1.00  0.00     0.126 C 
HETATM   18  C   UNL     1     -45.836 -52.401  15.431  1.00  0.00     0.215 C 
HETATM   19  C   UNL     1     -43.057 -54.553  14.422  1.00  0.00     0.026 C 
HETATM   20  O   UNL     1     -46.062 -52.900  16.538  1.00  0.00    -0.274 OA
HETATM   21  C   UNL     1     -46.847 -51.441  14.855  1.00  0.00     0.117 C 
ENDBRANCH  12  13
ENDBRANCH   1  12
TORSDOF 5
ENDMDL
MODEL 3
REMARK VINA RESULT:      -5.5      5.406      7.909
REMARK  5 active torsions:
REMARK  status: ('A' for Active; 'I' for Inactive)
REMARK    1  A    between atoms: C_2  and  C_3 
REMARK    2  A    between atoms: C_2  and  N_10 
REMARK    3  A    between atoms: C_3  and  N_4 
REMARK    4  A    between atoms: N_10  and  C_11 
REMARK    5  A    between atoms: C_11  and  C_12 
REMARK       I    between atoms: N_15  and  C_18 
ROOT
HETATM    1  N   UNL     1     -42.632 -52.690  11.749  1.00  0.00     0.089 N 
HETATM    2  H   UNL     1     -42.290 -53.278  10.986  1.00  0.00     0.316 HD
ENDROOT
BRANCH   1   3
HETATM    3  C   UNL     1     -41.678 -51.570  11.932  1.00  0.00     0.236 C 
HETATM    4  C   UNL     1     -42.405 -50.529  12.798  1.00  0.00     0.044 C 
BRANCH   3   5
HETATM    5  C   UNL     1     -40.349 -52.000  12.586  1.00  0.00     0.183 C 
BRANCH   5   6
HETATM    6  N   UNL     1     -39.318 -50.977  12.552  1.00  0.00    -0.302 N 
HETATM    7  C   UNL     1     -38.628 -50.476  13.619  1.00  0.00     0.111 A 
HETATM    8  C   UNL     1     -37.764 -49.536  13.105  1.00  0.00     0.037 A 
HETATM    9  C   UNL     1     -38.003 -49.553  11.720  1.00  0.00     0.108 A 
HETATM   10  N   UNL     1     -38.943 -50.437  11.376  1.00  0.00    -0.310 N 
ATOM     11  HN  UNL     1     -39.295 -50.653  10.443  1.00  0.00     0.186 HD
ENDBRANCH   5   6
ENDBRANCH   3   5
ENDBRANCH   1   3
BRANCH   1  12
HETATM   12  C   UNL     1     -42.802 -53.526  12.938  1.00  0.00     0.274 C 
BRANCH  12  13
HETATM   13  C   UNL     1     -44.239 -54.086  13.003  1.00  0.00     0.017 C 
HETATM   14  C   UNL     1     -45.329 -53.010  12.837  1.00  0.00     0.026 C 
HETATM   15  C   UNL     1     -45.479 -52.108  14.062  1.00  0.00     0.126 C 
HETATM   16  N   UNL     1     -45.629 -52.882  15.295  1.00  0.00    -0.352 N 
HETATM   17  C   UNL     1     -44.621 -53.922  15.515  1.00  0.00     0.126 C 
HETATM   18  C   UNL     1     -46.445 -52.541  16.366  1.00  0.00     0.215 C 
HETATM   19  C   UNL     1     -44.490 -54.848  14.312  1.00  0.00     0.026 C 
HETATM   20  O   UNL     1     -46.464 -53.197  17.412  1.00  0.00    -0.274 OA
HETATM   21  C   UNL     1     -47.371 -51.355  16.244  1.00  0.00     0.117 C 
ENDBRANCH  12  13
ENDBRANCH   1  12
TORSDOF 5
ENDMDL
MODEL 4
REMARK VINA RESULT:      -5.5      3.092      6.533
REMARK  5 active torsions:
REMARK  status: ('A' for Active; 'I' for Inactive)
REMARK    1  A    between atoms: C_2  and  C_3 
REMARK    2  A    between atoms: C_2  and  N_10 
REMARK    3  A    between atoms: C_3  and  N_4 
REMARK    4  A    between atoms: N_10  and  C_11 
REMARK    5  A    between atoms: C_11  and  C_12 
REMARK       I    between atoms: N_15  and  C_18 
ROOT
HETATM    1  N   UNL     1     -39.027 -48.657  12.549  1.00  0.00     0.089 N 
HETATM    2  H   UNL     1     -38.118 -48.367  12.919  1.00  0.00     0.316 HD
ENDROOT
BRANCH   1   3
HETATM    3  C   UNL     1     -38.829 -49.894  11.758  1.00  0.00     0.236 C 
HETATM    4  C   UNL     1     -37.387 -49.837  11.230  1.00  0.00     0.044 C 
BRANCH   3   5
HETATM    5  C   UNL     1     -39.068 -51.184  12.571  1.00  0.00     0.183 C 
BRANCH   5   6
HETATM    6  N   UNL     1     -40.468 -51.554  12.691  1.00  0.00    -0.302 N 
HETATM    7  C   UNL     1     -41.262 -51.403  13.791  1.00  0.00     0.111 A 
HETATM    8  C   UNL     1     -42.499 -51.891  13.438  1.00  0.00     0.037 A 
HETATM    9  C   UNL     1     -42.349 -52.302  12.101  1.00  0.00     0.108 A 
HETATM   10  N   UNL     1     -41.115 -52.090  11.638  1.00  0.00    -0.310 N 
ATOM     11  HN  UNL     1     -40.749 -52.288  10.707  1.00  0.00     0.186 HD
ENDBRANCH   5   6
ENDBRANCH   3   5
ENDBRANCH   1   3
BRANCH   1  12
HETATM   12  C   UNL     1     -39.593 -47.545  11.785  1.00  0.00     0.274 C 
BRANCH  12  13
HETATM   13  C   UNL     1     -40.971 -47.145  12.354  1.00  0.00     0.017 C 
HETATM   14  C   UNL     1     -42.114 -48.081  11.921  1.00  0.00     0.026 C 
HETATM   15  C   UNL     1     -42.517 -47.907  10.457  1.00  0.00     0.126 C 
HETATM   16  N   UNL     1     -42.775 -46.504  10.125  1.00  0.00    -0.352 N 
HETATM   17  C   UNL     1     -41.723 -45.561  10.508  1.00  0.00     0.126 C 
HETATM   18  C   UNL     1     -43.764 -46.051   9.261  1.00  0.00     0.215 C 
HETATM   19  C   UNL     1     -41.340 -45.703  11.977  1.00  0.00     0.026 C 
HETATM   20  O   UNL     1     -43.876 -44.858   8.961  1.00  0.00    -0.274 OA
HETATM   21  C   UNL     1     -44.761 -47.031   8.695  1.00  0.00     0.117 C 
ENDBRANCH  12  13
ENDBRANCH   1  12
TORSDOF 5
ENDMDL
MODEL 5
REMARK VINA RESULT:      -5.4      4.422      5.396
REMARK  5 active torsions:
REMARK  status: ('A' for Active; 'I' for Inactive)
REMARK    1  A    between atoms: C_2  and  C_3 
REMARK    2  A    between atoms: C_2  and  N_10 
REMARK    3  A    between atoms: C_3  and  N_4 
REMARK    4  A    between atoms: N_10  and  C_11 
REMARK    5  A    between atoms: C_11  and  C_12 
REMARK       I    between atoms: N_15  and  C_18 
ROOT
HETATM    1  N   UNL     1     -42.214 -50.436  11.796  1.00  0.00     0.089 N 
HETATM    2  H   UNL     1     -41.766 -50.715  10.920  1.00  0.00     0.316 HD
ENDROOT
BRANCH   1   3
HETATM    3  C   UNL     1     -42.056 -48.970  11.948  1.00  0.00     0.236 C 
HETATM    4  C   UNL     1     -41.079 -48.766  13.115  1.00  0.00     0.044 C 
BRANCH   3   5
HETATM    5  C   UNL     1     -41.541 -48.276  10.669  1.00  0.00     0.183 C 
BRANCH   5   6
HETATM    6  N   UNL     1     -42.597 -47.795   9.794  1.00  0.00    -0.302 N 
HETATM    7  C   UNL     1     -43.548 -46.863  10.095  1.00  0.00     0.111 A 
HETATM    8  C   UNL     1     -44.324 -46.733   8.967  1.00  0.00     0.037 A 
HETATM    9  C   UNL     1     -43.754 -47.622   8.039  1.00  0.00     0.108 A 
HETATM   10  N   UNL     1     -42.694 -48.265   8.535  1.00  0.00    -0.310 N 
ATOM     11  HN  UNL     1     -42.099 -48.951   8.071  1.00  0.00     0.186 HD
ENDBRANCH   5   6
ENDBRANCH   3   5
ENDBRANCH   1   3
BRANCH   1  12
HETATM   12  C   UNL     1     -41.626 -51.214  12.887  1.00  0.00     0.274 C 
BRANCH  12  13
HETATM   13  C   UNL     1     -41.910 -52.719  12.691  1.00  0.00     0.017 C 
HETATM   14  C   UNL     1     -43.340 -53.019  12.204  1.00  0.00     0.026 C 
HETATM   15  C   UNL     1     -44.401 -52.820  13.285  1.00  0.00     0.126 C 
HETATM   16  N   UNL     1     -44.062 -53.530  14.520  1.00  0.00    -0.352 N 
HETATM   17  C   UNL     1     -42.715 -53.285  15.039  1.00  0.00     0.126 C 
HETATM   18  C   UNL     1     -44.969 -54.167  15.358  1.00  0.00     0.215 C 
HETATM   19  C   UNL     1     -41.646 -53.515  13.977  1.00  0.00     0.026 C 
HETATM   20  O   UNL     1     -44.625 -54.678  16.429  1.00  0.00    -0.274 OA
HETATM   21  C   UNL     1     -46.414 -54.278  14.939  1.00  0.00     0.117 C 
ENDBRANCH  12  13
ENDBRANCH   1  12
TORSDOF 5
ENDMDL
MODEL 6
REMARK VINA RESULT:      -5.4      4.295      4.858
REMARK  5 active torsions:
REMARK  status: ('A' for Active; 'I' for Inactive)
REMARK    1  A    between atoms: C_2  and  C_3 
REMARK    2  A    between atoms: C_2  and  N_10 
REMARK    3  A    between atoms: C_3  and  N_4 
REMARK    4  A    between atoms: N_10  and  C_11 
REMARK    5  A    between atoms: C_11  and  C_12 
REMARK       I    between atoms: N_15  and  C_18 
ROOT
HETATM    1  N   UNL     1     -41.105 -51.983  11.453  1.00  0.00     0.089 N 
HETATM    2  H   UNL     1     -41.464 -51.634  10.561  1.00  0.00     0.316 HD
ENDROOT
BRANCH   1   3
HETATM    3  C   UNL     1     -42.235 -52.577  12.205  1.00  0.00     0.236 C 
HETATM    4  C   UNL     1     -41.654 -53.772  12.975  1.00  0.00     0.044 C 
BRANCH   3   5
HETATM    5  C   UNL     1     -42.918 -51.582  13.167  1.00  0.00     0.183 C 
BRANCH   5   6
HETATM    6  N   UNL     1     -44.367 -51.691  13.196  1.00  0.00    -0.302 N 
HETATM    7  C   UNL     1     -45.207 -51.177  14.142  1.00  0.00     0.111 A 
HETATM    8  C   UNL     1     -46.479 -51.532  13.754  1.00  0.00     0.037 A 
HETATM    9  C   UNL     1     -46.299 -52.247  12.557  1.00  0.00     0.108 A 
HETATM   10  N   UNL     1     -45.013 -52.339  12.207  1.00  0.00    -0.310 N 
ATOM     11  HN  UNL     1     -44.615 -52.794  11.386  1.00  0.00     0.186 HD
ENDBRANCH   5   6
ENDBRANCH   3   5
ENDBRANCH   1   3
BRANCH   1  12
HETATM   12  C   UNL     1     -40.441 -50.879  12.149  1.00  0.00     0.274 C 
BRANCH  12  13
HETATM   13  C   UNL     1     -38.952 -51.210  12.388  1.00  0.00     0.017 C 
HETATM   14  C   UNL     1     -38.635 -51.612  13.840  1.00  0.00     0.026 C 
HETATM   15  C   UNL     1     -38.672 -50.436  14.816  1.00  0.00     0.126 C 
HETATM   16  N   UNL     1     -37.858 -49.313  14.347  1.00  0.00    -0.352 N 
HETATM   17  C   UNL     1     -38.113 -48.878  12.972  1.00  0.00     0.126 C 
HETATM   18  C   UNL     1     -37.096 -48.478  15.156  1.00  0.00     0.215 C 
HETATM   19  C   UNL     1     -38.043 -50.039  11.988  1.00  0.00     0.026 C 
HETATM   20  O   UNL     1     -36.496 -47.497  14.705  1.00  0.00    -0.274 OA
HETATM   21  C   UNL     1     -36.960 -48.791  16.625  1.00  0.00     0.117 C 
ENDBRANCH  12  13
ENDBRANCH   1  12
TORSDOF 5
ENDMDL
MODEL 7
REMARK VINA RESULT:      -5.4      4.074      6.239
REMARK  5 active torsions:
REMARK  status: ('A' for Active; 'I' for Inactive)
REMARK    1  A    between atoms: C_2  and  C_3 
REMARK    2  A    between atoms: C_2  and  N_10 
REMARK    3  A    between atoms: C_3  and  N_4 
REMARK    4  A    between atoms: N_10  and  C_11 
REMARK    5  A    between atoms: C_11  and  C_12 
REMARK       I    between atoms: N_15  and  C_18 
ROOT
HETATM    1  N   UNL     1     -40.195 -50.610  13.553  1.00  0.00     0.089 N 
HETATM    2  H   UNL     1     -40.874 -50.450  12.806  1.00  0.00     0.316 HD
ENDROOT
BRANCH   1   3
HETATM    3  C   UNL     1     -38.930 -49.934  13.179  1.00  0.00     0.236 C 
HETATM    4  C   UNL     1     -37.802 -50.917  13.527  1.00  0.00     0.044 C 
BRANCH   3   5
HETATM    5  C   UNL     1     -38.870 -49.530  11.691  1.00  0.00     0.183 C 
BRANCH   5   6
HETATM    6  N   UNL     1     -39.971 -48.683  11.266  1.00  0.00    -0.302 N 
HETATM    7  C   UNL     1     -40.125 -47.351  11.523  1.00  0.00     0.111 A 
HETATM    8  C   UNL     1     -41.309 -46.983  10.927  1.00  0.00     0.037 A 
HETATM    9  C   UNL     1     -41.787 -48.162  10.327  1.00  0.00     0.108 A 
HETATM   10  N   UNL     1     -40.970 -49.200  10.523  1.00  0.00    -0.310 N 
ATOM     11  HN  UNL     1     -41.077 -50.158  10.189  1.00  0.00     0.186 HD
ENDBRANCH   5   6
ENDBRANCH   3   5
ENDBRANCH   1   3
BRANCH   1  12
HETATM   12  C   UNL     1     -40.060 -52.054  13.756  1.00  0.00     0.274 C 
BRANCH  12  13
HETATM   13  C   UNL     1     -40.814 -52.827  12.653  1.00  0.00     0.017 C 
HETATM   14  C   UNL     1     -42.150 -52.177  12.247  1.00  0.00     0.026 C 
HETATM   15  C   UNL     1     -43.246 -52.339  13.300  1.00  0.00     0.126 C 
HETATM   16  N   UNL     1     -43.398 -53.734  13.720  1.00  0.00    -0.352 N 
HETATM   17  C   UNL     1     -42.162 -54.410  14.122  1.00  0.00     0.126 C 
HETATM   18  C   UNL     1     -44.601 -54.356  14.026  1.00  0.00     0.215 C 
HETATM   19  C   UNL     1     -41.075 -54.283  13.062  1.00  0.00     0.026 C 
HETATM   20  O   UNL     1     -44.651 -55.514  14.453  1.00  0.00    -0.274 OA
HETATM   21  C   UNL     1     -45.897 -53.618  13.797  1.00  0.00     0.117 C 
ENDBRANCH  12  13
ENDBRANCH   1  12
TORSDOF 5
ENDMDL
MODEL 8
REMARK VINA RESULT:      -5.3      3.364      4.048
REMARK  5 active torsions:
REMARK  status: ('A' for Active; 'I' for Inactive)
REMARK    1  A    between atoms: C_2  and  C_3 
REMARK    2  A    between atoms: C_2  and  N_10 
REMARK    3  A    between atoms: C_3  and  N_4 
REMARK    4  A    between atoms: N_10  and  C_11 
REMARK    5  A    between atoms: C_11  and  C_12 
REMARK       I    between atoms: N_15  and  C_18 
ROOT
HETATM    1  N   UNL     1     -41.921 -50.073  11.563  1.00  0.00     0.089 N 
HETATM    2  H   UNL     1     -41.198 -50.562  11.029  1.00  0.00     0.316 HD
ENDROOT
BRANCH   1   3
HETATM    3  C   UNL     1     -41.407 -48.727  11.910  1.00  0.00     0.236 C 
HETATM    4  C   UNL     1     -40.003 -48.945  12.495  1.00  0.00     0.044 C 
BRANCH   3   5
HETATM    5  C   UNL     1     -41.359 -47.763  10.706  1.00  0.00     0.183 C 
BRANCH   5   6
HETATM    6  N   UNL     1     -42.617 -47.655   9.987  1.00  0.00    -0.302 N 
HETATM    7  C   UNL     1     -43.830 -47.310  10.509  1.00  0.00     0.111 A 
HETATM    8  C   UNL     1     -44.719 -47.343   9.460  1.00  0.00     0.037 A 
HETATM    9  C   UNL     1     -43.942 -47.709   8.347  1.00  0.00     0.108 A 
HETATM   10  N   UNL     1     -42.657 -47.891   8.661  1.00  0.00    -0.310 N 
ATOM     11  HN  UNL     1     -41.887 -48.149   8.043  1.00  0.00     0.186 HD
ENDBRANCH   5   6
ENDBRANCH   3   5
ENDBRANCH   1   3
BRANCH   1  12
HETATM   12  C   UNL     1     -42.276 -50.892  12.723  1.00  0.00     0.274 C 
BRANCH  12  13
HETATM   13  C   UNL     1     -42.238 -52.391  12.357  1.00  0.00     0.017 C 
HETATM   14  C   UNL     1     -42.980 -53.291  13.363  1.00  0.00     0.026 C 
HETATM   15  C   UNL     1     -42.237 -53.456  14.689  1.00  0.00     0.126 C 
HETATM   16  N   UNL     1     -40.844 -53.858  14.487  1.00  0.00    -0.352 N 
HETATM   17  C   UNL     1     -40.081 -53.041  13.542  1.00  0.00     0.126 C 
HETATM   18  C   UNL     1     -40.136 -54.740  15.295  1.00  0.00     0.215 C 
HETATM   19  C   UNL     1     -40.798 -52.900  12.205  1.00  0.00     0.026 C 
HETATM   20  O   UNL     1     -38.936 -54.974  15.115  1.00  0.00    -0.274 OA
HETATM   21  C   UNL     1     -40.852 -55.467  16.405  1.00  0.00     0.117 C 
ENDBRANCH  12  13
ENDBRANCH   1  12
TORSDOF 5
ENDMDL
MODEL 9
REMARK VINA RESULT:      -5.2      2.873      6.893
REMARK  5 active torsions:
REMARK  status: ('A' for Active; 'I' for Inactive)
REMARK    1  A    between atoms: C_2  and  C_3 
REMARK    2  A    between atoms: C_2  and  N_10 
REMARK    3  A    between atoms: C_3  and  N_4 
REMARK    4  A    between atoms: N_10  and  C_11 
REMARK    5  A    between atoms: C_11  and  C_12 
REMARK       I    between atoms: N_15  and  C_18 
ROOT
HETATM    1  N   UNL     1     -41.233 -48.627  14.091  1.00  0.00     0.089 N 
HETATM    2  H   UNL     1     -40.700 -48.638  14.963  1.00  0.00     0.316 HD
ENDROOT
BRANCH   1   3
HETATM    3  C   UNL     1     -41.221 -49.996  13.525  1.00  0.00     0.236 C 
HETATM    4  C   UNL     1     -42.671 -50.499  13.595  1.00  0.00     0.044 C 
BRANCH   3   5
HETATM    5  C   UNL     1     -40.686 -50.055  12.079  1.00  0.00     0.183 C 
BRANCH   5   6
HETATM    6  N   UNL     1     -39.257 -50.300  11.989  1.00  0.00    -0.302 N 
HETATM    7  C   UNL     1     -38.484 -50.971  12.893  1.00  0.00     0.111 A 
HETATM    8  C   UNL     1     -37.204 -50.950  12.388  1.00  0.00     0.037 A 
HETATM    9  C   UNL     1     -37.313 -50.252  11.172  1.00  0.00     0.108 A 
HETATM   10  N   UNL     1     -38.564 -49.862  10.919  1.00  0.00    -0.310 N 
ATOM     11  HN  UNL     1     -38.914 -49.352  10.108  1.00  0.00     0.186 HD
ENDBRANCH   5   6
ENDBRANCH   3   5
ENDBRANCH   1   3
BRANCH   1  12
HETATM   12  C   UNL     1     -40.655 -47.613  13.207  1.00  0.00     0.274 C 
BRANCH  12  13
HETATM   13  C   UNL     1     -41.625 -46.423  13.045  1.00  0.00     0.017 C 
HETATM   14  C   UNL     1     -43.098 -46.844  12.885  1.00  0.00     0.026 C 
HETATM   15  C   UNL     1     -43.406 -47.458  11.520  1.00  0.00     0.126 C 
HETATM   16  N   UNL     1     -42.936 -46.612  10.421  1.00  0.00    -0.352 N 
HETATM   17  C   UNL     1     -41.540 -46.179  10.511  1.00  0.00     0.126 C 
HETATM   18  C   UNL     1     -43.590 -46.428   9.210  1.00  0.00     0.215 C 
HETATM   19  C   UNL     1     -41.232 -45.532  11.857  1.00  0.00     0.026 C 
HETATM   20  O   UNL     1     -43.097 -45.763   8.293  1.00  0.00    -0.274 OA
HETATM   21  C   UNL     1     -44.963 -47.020   9.011  1.00  0.00     0.117 C 
ENDBRANCH  12  13
ENDBRANCH   1  12
TORSDOF 5
ENDMDL
