MODEL 1
REMARK VINA RESULT:      -6.5      0.000      0.000
REMARK  2 active torsions:
REMARK  status: ('A' for Active; 'I' for Inactive)
REMARK    1  A    between atoms: C_4  and  N_5 
REMARK       I    between atoms: N_5  and  C_6 
REMARK       I    between atoms: C_6  and  N_8 
REMARK    2  A    between atoms: N_8  and  C_9 
ROOT
HETATM    1  N   UNL     1     -41.516 -47.761  10.093  1.00  0.00    -0.293 N 
HETATM    2  C   UNL     1     -41.129 -48.730  10.984  1.00  0.00     0.322 C 
HETATM    3  O   UNL     1     -41.831 -49.613  11.457  1.00  0.00    -0.247 OA
HETATM    4  N   UNL     1     -39.799 -48.622  11.328  1.00  0.00    -0.330 N 
HETATM    5  H   UNL     1     -40.912 -46.969   9.951  1.00  0.00     0.172 HD
HETATM    6  H   UNL     1     -39.195 -47.932  10.905  1.00  0.00     0.165 HD
ENDROOT
BRANCH   1   7
HETATM    7  C   UNL     1     -42.756 -47.735   9.482  1.00  0.00     0.132 A 
HETATM    8  C   UNL     1     -43.957 -47.347  10.131  1.00  0.00     0.084 A 
HETATM    9  C   UNL     1     -44.918 -47.405   9.151  1.00  0.00     0.076 A 
HETATM   10  C   UNL     1     -46.357 -47.104   9.081  1.00  0.00     0.079 C 
HETATM   11  O   UNL     1     -44.345 -47.829   7.997  1.00  0.00    -0.241 OA
HETATM   12  N   UNL     1     -42.999 -48.030   8.200  1.00  0.00    -0.245 N 
ATOM     13  HN  UNL     1     -42.319 -48.342   7.507  1.00  0.00     0.196 HD
ENDBRANCH   1   7
BRANCH   4  14
HETATM   14  C   UNL     1     -39.229 -49.492  12.348  1.00  0.00     0.178 C 
HETATM   15  C   UNL     1     -37.884 -50.079  11.919  1.00  0.00     0.036 C 
HETATM   16  C   UNL     1     -37.344 -50.966  13.035  1.00  0.00     0.022 C 
HETATM   17  C   UNL     1     -37.166 -50.154  14.307  1.00  0.00     0.122 C 
HETATM   18  N   UNL     1     -38.321 -49.346  14.641  1.00  0.00    -0.359 N 
HETATM   19  C   UNL     1     -39.087 -48.734  13.677  1.00  0.00     0.240 C 
HETATM   20  H   UNL     1     -38.280 -48.814  15.503  1.00  0.00     0.162 HD
HETATM   21  O   UNL     1     -39.682 -47.687  13.925  1.00  0.00    -0.271 OA
ENDBRANCH   4  14
TORSDOF 2
ENDMDL
MODEL 2
REMARK VINA RESULT:      -6.1      2.835      3.130
REMARK  2 active torsions:
REMARK  status: ('A' for Active; 'I' for Inactive)
REMARK    1  A    between atoms: C_4  and  N_5 
REMARK       I    between atoms: N_5  and  C_6 
REMARK       I    between atoms: C_6  and  N_8 
REMARK    2  A    between atoms: N_8  and  C_9 
ROOT
HETATM    1  N   UNL     1     -41.231 -49.143  10.276  1.00  0.00    -0.293 N 
HETATM    2  C   UNL     1     -41.289 -49.742  11.509  1.00  0.00     0.322 C 
HETATM    3  O   UNL     1     -41.681 -49.235  12.552  1.00  0.00    -0.247 OA
HETATM    4  N   UNL     1     -40.840 -51.043  11.479  1.00  0.00    -0.330 N 
HETATM    5  H   UNL     1     -40.690 -49.584   9.551  1.00  0.00     0.172 HD
HETATM    6  H   UNL     1     -40.564 -51.491  10.617  1.00  0.00     0.165 HD
ENDROOT
BRANCH   1   7
HETATM    7  C   UNL     1     -41.755 -47.891  10.007  1.00  0.00     0.132 A 
HETATM    8  C   UNL     1     -43.054 -47.667   9.481  1.00  0.00     0.084 A 
HETATM    9  C   UNL     1     -43.180 -46.300   9.436  1.00  0.00     0.076 A 
HETATM   10  C   UNL     1     -44.249 -45.363   9.053  1.00  0.00     0.079 C 
HETATM   11  O   UNL     1     -42.028 -45.736   9.876  1.00  0.00    -0.241 OA
HETATM   12  N   UNL     1     -41.142 -46.724  10.237  1.00  0.00    -0.245 N 
ATOM     13  HN  UNL     1     -40.201 -46.593  10.607  1.00  0.00     0.196 HD
ENDBRANCH   1   7
BRANCH   4  14
HETATM   14  C   UNL     1     -40.719 -51.810  12.712  1.00  0.00     0.178 C 
HETATM   15  C   UNL     1     -41.406 -53.172  12.614  1.00  0.00     0.036 C 
HETATM   16  C   UNL     1     -41.231 -53.920  13.931  1.00  0.00     0.022 C 
HETATM   17  C   UNL     1     -39.753 -54.112  14.229  1.00  0.00     0.122 C 
HETATM   18  N   UNL     1     -38.973 -52.900  14.078  1.00  0.00    -0.359 N 
HETATM   19  C   UNL     1     -39.240 -51.978  13.093  1.00  0.00     0.240 C 
HETATM   20  H   UNL     1     -37.986 -52.954  14.305  1.00  0.00     0.162 HD
HETATM   21  O   UNL     1     -38.339 -51.282  12.629  1.00  0.00    -0.271 OA
ENDBRANCH   4  14
TORSDOF 2
ENDMDL
MODEL 3
REMARK VINA RESULT:      -6.0      5.304      7.440
REMARK  2 active torsions:
REMARK  status: ('A' for Active; 'I' for Inactive)
REMARK    1  A    between atoms: C_4  and  N_5 
REMARK       I    between atoms: N_5  and  C_6 
REMARK       I    between atoms: C_6  and  N_8 
REMARK    2  A    between atoms: N_8  and  C_9 
ROOT
HETATM    1  N   UNL     1     -42.055 -51.320  11.968  1.00  0.00    -0.293 N 
HETATM    2  C   UNL     1     -42.732 -51.788  13.066  1.00  0.00     0.322 C 
HETATM    3  O   UNL     1     -42.241 -52.209  14.105  1.00  0.00    -0.247 OA
HETATM    4  N   UNL     1     -44.098 -51.746  12.895  1.00  0.00    -0.330 N 
HETATM    5  H   UNL     1     -42.557 -51.210  11.103  1.00  0.00     0.172 HD
HETATM    6  H   UNL     1     -44.517 -51.351  12.065  1.00  0.00     0.165 HD
ENDROOT
BRANCH   1   7
HETATM    7  C   UNL     1     -40.686 -51.124  11.939  1.00  0.00     0.132 A 
HETATM    8  C   UNL     1     -40.057 -49.974  11.397  1.00  0.00     0.084 A 
HETATM    9  C   UNL     1     -38.717 -50.165  11.634  1.00  0.00     0.076 A 
HETATM   10  C   UNL     1     -37.493 -49.383  11.395  1.00  0.00     0.079 C 
HETATM   11  O   UNL     1     -38.544 -51.361  12.249  1.00  0.00    -0.241 OA
HETATM   12  N   UNL     1     -39.769 -51.957  12.445  1.00  0.00    -0.245 N 
ATOM     13  HN  UNL     1     -39.944 -52.858  12.889  1.00  0.00     0.196 HD
ENDBRANCH   1   7
BRANCH   4  14
HETATM   14  C   UNL     1     -44.985 -52.304  13.906  1.00  0.00     0.178 C 
HETATM   15  C   UNL     1     -46.173 -51.388  14.201  1.00  0.00     0.036 C 
HETATM   16  C   UNL     1     -47.060 -52.039  15.256  1.00  0.00     0.022 C 
HETATM   17  C   UNL     1     -47.562 -53.384  14.757  1.00  0.00     0.122 C 
HETATM   18  N   UNL     1     -46.516 -54.220  14.204  1.00  0.00    -0.359 N 
HETATM   19  C   UNL     1     -45.472 -53.697  13.478  1.00  0.00     0.240 C 
HETATM   20  H   UNL     1     -46.781 -55.149  13.894  1.00  0.00     0.162 HD
HETATM   21  O   UNL     1     -44.923 -54.366  12.604  1.00  0.00    -0.271 OA
ENDBRANCH   4  14
TORSDOF 2
ENDMDL
MODEL 4
REMARK VINA RESULT:      -6.0      3.679      4.395
REMARK  2 active torsions:
REMARK  status: ('A' for Active; 'I' for Inactive)
REMARK    1  A    between atoms: C_4  and  N_5 
REMARK       I    between atoms: N_5  and  C_6 
REMARK       I    between atoms: C_6  and  N_8 
REMARK    2  A    between atoms: N_8  and  C_9 
ROOT
HETATM    1  N   UNL     1     -41.238 -48.889  10.636  1.00  0.00    -0.293 N 
HETATM    2  C   UNL     1     -41.651 -49.553  11.764  1.00  0.00     0.322 C 
HETATM    3  O   UNL     1     -41.982 -49.051  12.830  1.00  0.00    -0.247 OA
HETATM    4  N   UNL     1     -41.660 -50.919  11.590  1.00  0.00    -0.330 N 
HETATM    5  H   UNL     1     -40.788 -49.413   9.905  1.00  0.00     0.172 HD
HETATM    6  H   UNL     1     -41.442 -51.344  10.701  1.00  0.00     0.165 HD
ENDROOT
BRANCH   1   7
HETATM    7  C   UNL     1     -41.277 -47.512  10.502  1.00  0.00     0.132 A 
HETATM    8  C   UNL     1     -40.323 -46.629  11.069  1.00  0.00     0.084 A 
HETATM    9  C   UNL     1     -40.703 -45.381  10.637  1.00  0.00     0.076 A 
HETATM   10  C   UNL     1     -40.170 -44.017  10.789  1.00  0.00     0.079 C 
HETATM   11  O   UNL     1     -41.826 -45.498   9.886  1.00  0.00    -0.241 OA
HETATM   12  N   UNL     1     -42.182 -46.824   9.797  1.00  0.00    -0.245 N 
ATOM     13  HN  UNL     1     -42.980 -47.207   9.290  1.00  0.00     0.196 HD
ENDBRANCH   1   7
BRANCH   4  14
HETATM   14  C   UNL     1     -41.961 -51.802  12.710  1.00  0.00     0.178 C 
HETATM   15  C   UNL     1     -43.129 -52.740  12.407  1.00  0.00     0.036 C 
HETATM   16  C   UNL     1     -43.380 -53.638  13.613  1.00  0.00     0.022 C 
HETATM   17  C   UNL     1     -42.135 -54.453  13.923  1.00  0.00     0.122 C 
HETATM   18  N   UNL     1     -40.922 -53.661  13.961  1.00  0.00    -0.359 N 
HETATM   19  C   UNL     1     -40.713 -52.606  13.106  1.00  0.00     0.240 C 
HETATM   20  H   UNL     1     -40.064 -54.141  14.207  1.00  0.00     0.162 HD
HETATM   21  O   UNL     1     -39.573 -52.294  12.766  1.00  0.00    -0.271 OA
ENDBRANCH   4  14
TORSDOF 2
ENDMDL
MODEL 5
REMARK VINA RESULT:      -5.9      4.229      5.842
REMARK  2 active torsions:
REMARK  status: ('A' for Active; 'I' for Inactive)
REMARK    1  A    between atoms: C_4  and  N_5 
REMARK       I    between atoms: N_5  and  C_6 
REMARK       I    between atoms: C_6  and  N_8 
REMARK    2  A    between atoms: N_8  and  C_9 
ROOT
HETATM    1  N   UNL     1     -42.656 -51.666  11.980  1.00  0.00    -0.293 N 
HETATM    2  C   UNL     1     -42.419 -50.362  12.335  1.00  0.00     0.322 C 
HETATM    3  O   UNL     1     -42.798 -49.799  13.352  1.00  0.00    -0.247 OA
HETATM    4  N   UNL     1     -41.672 -49.692  11.391  1.00  0.00    -0.330 N 
HETATM    5  H   UNL     1     -42.482 -51.946  11.030  1.00  0.00     0.172 HD
HETATM    6  H   UNL     1     -41.307 -50.159  10.573  1.00  0.00     0.165 HD
ENDROOT
BRANCH   1   7
HETATM    7  C   UNL     1     -43.256 -52.590  12.817  1.00  0.00     0.132 A 
HETATM    8  C   UNL     1     -44.335 -53.429  12.436  1.00  0.00     0.084 A 
HETATM    9  C   UNL     1     -44.568 -54.218  13.536  1.00  0.00     0.076 A 
HETATM   10  C   UNL     1     -45.486 -55.325  13.850  1.00  0.00     0.079 C 
HETATM   11  O   UNL     1     -43.710 -53.862  14.524  1.00  0.00    -0.241 OA
HETATM   12  N   UNL     1     -42.890 -52.852  14.077  1.00  0.00    -0.245 N 
ATOM     13  HN  UNL     1     -42.147 -52.393  14.604  1.00  0.00     0.196 HD
ENDBRANCH   1   7
BRANCH   4  14
HETATM   14  C   UNL     1     -41.411 -48.266  11.533  1.00  0.00     0.178 C 
HETATM   15  C   UNL     1     -39.940 -47.975  11.829  1.00  0.00     0.036 C 
HETATM   16  C   UNL     1     -39.740 -46.469  11.955  1.00  0.00     0.022 C 
HETATM   17  C   UNL     1     -40.149 -45.780  10.663  1.00  0.00     0.122 C 
HETATM   18  N   UNL     1     -41.440 -46.209  10.164  1.00  0.00    -0.359 N 
HETATM   19  C   UNL     1     -41.868 -47.511  10.275  1.00  0.00     0.240 C 
HETATM   20  H   UNL     1     -41.788 -45.754   9.329  1.00  0.00     0.162 HD
HETATM   21  O   UNL     1     -42.641 -47.987   9.446  1.00  0.00    -0.271 OA
ENDBRANCH   4  14
TORSDOF 2
ENDMDL
MODEL 6
REMARK VINA RESULT:      -5.7      5.003      6.616
REMARK  2 active torsions:
REMARK  status: ('A' for Active; 'I' for Inactive)
REMARK    1  A    between atoms: C_4  and  N_5 
REMARK       I    between atoms: N_5  and  C_6 
REMARK       I    between atoms: C_6  and  N_8 
REMARK    2  A    between atoms: N_8  and  C_9 
ROOT
HETATM    1  N   UNL     1     -42.762 -49.816  11.810  1.00  0.00    -0.293 N 
HETATM    2  C   UNL     1     -43.301 -50.374  12.942  1.00  0.00     0.322 C 
HETATM    3  O   UNL     1     -42.929 -50.198  14.094  1.00  0.00    -0.247 OA
HETATM    4  N   UNL     1     -44.362 -51.206  12.659  1.00  0.00    -0.330 N 
HETATM    5  H   UNL     1     -43.010 -50.205  10.916  1.00  0.00     0.172 HD
HETATM    6  H   UNL     1     -44.713 -51.319  11.719  1.00  0.00     0.165 HD
ENDROOT
BRANCH   1   7
HETATM    7  C   UNL     1     -41.784 -48.837  11.831  1.00  0.00     0.132 A 
HETATM    8  C   UNL     1     -41.566 -47.906  10.783  1.00  0.00     0.084 A 
HETATM    9  C   UNL     1     -40.560 -47.092  11.244  1.00  0.00     0.076 A 
HETATM   10  C   UNL     1     -39.859 -45.905  10.728  1.00  0.00     0.079 C 
HETATM   11  O   UNL     1     -40.174 -47.520  12.472  1.00  0.00    -0.241 OA
HETATM   12  N   UNL     1     -40.939 -48.602  12.841  1.00  0.00    -0.245 N 
ATOM     13  HN  UNL     1     -40.874 -49.124  13.714  1.00  0.00     0.196 HD
ENDBRANCH   1   7
BRANCH   4  14
HETATM   14  C   UNL     1     -44.995 -51.980  13.719  1.00  0.00     0.178 C 
HETATM   15  C   UNL     1     -46.318 -51.363  14.172  1.00  0.00     0.036 C 
HETATM   16  C   UNL     1     -46.926 -52.227  15.270  1.00  0.00     0.022 C 
HETATM   17  C   UNL     1     -47.168 -53.636  14.751  1.00  0.00     0.122 C 
HETATM   18  N   UNL     1     -46.026 -54.199  14.060  1.00  0.00    -0.359 N 
HETATM   19  C   UNL     1     -45.203 -53.433  13.267  1.00  0.00     0.240 C 
HETATM   20  H   UNL     1     -46.110 -55.153  13.728  1.00  0.00     0.162 HD
HETATM   21  O   UNL     1     -44.614 -53.935  12.311  1.00  0.00    -0.271 OA
ENDBRANCH   4  14
TORSDOF 2
ENDMDL
MODEL 7
REMARK VINA RESULT:      -5.6      3.281      6.100
REMARK  2 active torsions:
REMARK  status: ('A' for Active; 'I' for Inactive)
REMARK    1  A    between atoms: C_4  and  N_5 
REMARK       I    between atoms: N_5  and  C_6 
REMARK       I    between atoms: C_6  and  N_8 
REMARK    2  A    between atoms: N_8  and  C_9 
ROOT
HETATM    1  N   UNL     1     -40.641 -49.533  10.937  1.00  0.00    -0.293 N 
HETATM    2  C   UNL     1     -40.750 -48.319  11.569  1.00  0.00     0.322 C 
HETATM    3  O   UNL     1     -40.800 -48.123  12.775  1.00  0.00    -0.247 OA
HETATM    4  N   UNL     1     -40.804 -47.270  10.677  1.00  0.00    -0.330 N 
HETATM    5  H   UNL     1     -40.829 -49.581   9.950  1.00  0.00     0.172 HD
HETATM    6  H   UNL     1     -40.709 -47.413   9.682  1.00  0.00     0.165 HD
ENDROOT
BRANCH   1   7
HETATM    7  C   UNL     1     -40.425 -50.725  11.604  1.00  0.00     0.132 A 
HETATM    8  C   UNL     1     -41.415 -51.724  11.793  1.00  0.00     0.084 A 
HETATM    9  C   UNL     1     -40.761 -52.747  12.436  1.00  0.00     0.076 A 
HETATM   10  C   UNL     1     -41.132 -54.093  12.901  1.00  0.00     0.079 C 
HETATM   11  O   UNL     1     -39.473 -52.380  12.650  1.00  0.00    -0.241 OA
HETATM   12  N   UNL     1     -39.261 -51.125  12.128  1.00  0.00    -0.245 N 
ATOM     13  HN  UNL     1     -38.386 -50.601  12.139  1.00  0.00     0.196 HD
ENDBRANCH   1   7
BRANCH   4  14
HETATM   14  C   UNL     1     -41.032 -45.911  11.151  1.00  0.00     0.178 C 
HETATM   15  C   UNL     1     -40.053 -44.913  10.534  1.00  0.00     0.036 C 
HETATM   16  C   UNL     1     -40.357 -43.517  11.065  1.00  0.00     0.022 C 
HETATM   17  C   UNL     1     -41.783 -43.123  10.710  1.00  0.00     0.122 C 
HETATM   18  N   UNL     1     -42.758 -44.148  11.023  1.00  0.00    -0.359 N 
HETATM   19  C   UNL     1     -42.482 -45.487  10.874  1.00  0.00     0.240 C 
HETATM   20  H   UNL     1     -43.732 -43.928  10.850  1.00  0.00     0.162 HD
HETATM   21  O   UNL     1     -43.383 -46.284  10.619  1.00  0.00    -0.271 OA
ENDBRANCH   4  14
TORSDOF 2
ENDMDL
MODEL 8
REMARK VINA RESULT:      -5.5      3.683      6.003
REMARK  2 active torsions:
REMARK  status: ('A' for Active; 'I' for Inactive)
REMARK    1  A    between atoms: C_4  and  N_5 
REMARK       I    between atoms: N_5  and  C_6 
REMARK       I    between atoms: C_6  and  N_8 
REMARK    2  A    between atoms: N_8  and  C_9 
ROOT
HETATM    1  N   UNL     1     -39.643 -48.757  11.431  1.00  0.00    -0.293 N 
HETATM    2  C   UNL     1     -40.332 -47.660  11.883  1.00  0.00     0.322 C 
HETATM    3  O   UNL     1     -41.394 -47.660  12.491  1.00  0.00    -0.247 OA
HETATM    4  N   UNL     1     -39.693 -46.479  11.575  1.00  0.00    -0.330 N 
HETATM    5  H   UNL     1     -38.905 -48.621  10.761  1.00  0.00     0.172 HD
HETATM    6  H   UNL     1     -38.791 -46.466  11.121  1.00  0.00     0.165 HD
ENDROOT
BRANCH   1   7
HETATM    7  C   UNL     1     -39.996 -50.060  11.735  1.00  0.00     0.132 A 
HETATM    8  C   UNL     1     -39.417 -50.818  12.786  1.00  0.00     0.084 A 
HETATM    9  C   UNL     1     -40.098 -52.011  12.771  1.00  0.00     0.076 A 
HETATM   10  C   UNL     1     -40.072 -53.238  13.584  1.00  0.00     0.079 C 
HETATM   11  O   UNL     1     -41.004 -51.989  11.762  1.00  0.00    -0.241 OA
HETATM   12  N   UNL     1     -40.945 -50.774  11.120  1.00  0.00    -0.245 N 
ATOM     13  HN  UNL     1     -41.515 -50.475  10.328  1.00  0.00     0.196 HD
ENDBRANCH   1   7
BRANCH   4  14
HETATM   14  C   UNL     1     -40.324 -45.200  11.871  1.00  0.00     0.178 C 
HETATM   15  C   UNL     1     -39.811 -44.592  13.177  1.00  0.00     0.036 C 
HETATM   16  C   UNL     1     -40.504 -43.256  13.417  1.00  0.00     0.022 C 
HETATM   17  C   UNL     1     -40.220 -42.307  12.263  1.00  0.00     0.122 C 
HETATM   18  N   UNL     1     -40.428 -42.906  10.960  1.00  0.00    -0.359 N 
HETATM   19  C   UNL     1     -40.120 -44.221  10.705  1.00  0.00     0.240 C 
HETATM   20  H   UNL     1     -40.297 -42.310  10.151  1.00  0.00     0.162 HD
HETATM   21  O   UNL     1     -39.790 -44.577   9.574  1.00  0.00    -0.271 OA
ENDBRANCH   4  14
TORSDOF 2
ENDMDL
MODEL 9
REMARK VINA RESULT:      -5.3      3.371      4.345
REMARK  2 active torsions:
REMARK  status: ('A' for Active; 'I' for Inactive)
REMARK    1  A    between atoms: C_4  and  N_5 
REMARK       I    between atoms: N_5  and  C_6 
REMARK       I    between atoms: C_6  and  N_8 
REMARK    2  A    between atoms: N_8  and  C_9 
ROOT
HETATM    1  N   UNL     1     -41.010 -48.230  12.441  1.00  0.00    -0.293 N 
HETATM    2  C   UNL     1     -40.283 -49.379  12.259  1.00  0.00     0.322 C 
HETATM    3  O   UNL     1     -39.400 -49.565  11.431  1.00  0.00    -0.247 OA
HETATM    4  N   UNL     1     -40.651 -50.375  13.137  1.00  0.00    -0.330 N 
HETATM    5  H   UNL     1     -41.847 -48.273  12.998  1.00  0.00     0.172 HD
HETATM    6  H   UNL     1     -41.339 -50.219  13.859  1.00  0.00     0.165 HD
ENDROOT
BRANCH   1   7
HETATM    7  C   UNL     1     -40.739 -47.041  11.787  1.00  0.00     0.132 A 
HETATM    8  C   UNL     1     -40.972 -45.756  12.340  1.00  0.00     0.084 A 
HETATM    9  C   UNL     1     -40.506 -44.878  11.392  1.00  0.00     0.076 A 
HETATM   10  C   UNL     1     -40.382 -43.415  11.296  1.00  0.00     0.079 C 
HETATM   11  O   UNL     1     -40.050 -45.582  10.326  1.00  0.00    -0.241 OA
HETATM   12  N   UNL     1     -40.189 -46.929  10.573  1.00  0.00    -0.245 N 
ATOM     13  HN  UNL     1     -39.925 -47.692   9.950  1.00  0.00     0.196 HD
ENDBRANCH   1   7
BRANCH   4  14
HETATM   14  C   UNL     1     -40.071 -51.707  13.026  1.00  0.00     0.178 C 
HETATM   15  C   UNL     1     -39.570 -52.231  14.371  1.00  0.00     0.036 C 
HETATM   16  C   UNL     1     -38.989 -53.628  14.182  1.00  0.00     0.022 C 
HETATM   17  C   UNL     1     -40.052 -54.564  13.631  1.00  0.00     0.122 C 
HETATM   18  N   UNL     1     -40.771 -54.017  12.499  1.00  0.00    -0.359 N 
HETATM   19  C   UNL     1     -41.088 -52.682  12.412  1.00  0.00     0.240 C 
HETATM   20  H   UNL     1     -41.464 -54.612  12.059  1.00  0.00     0.162 HD
HETATM   21  O   UNL     1     -42.088 -52.316  11.797  1.00  0.00    -0.271 OA
ENDBRANCH   4  14
TORSDOF 2
ENDMDL
