MODEL 1
REMARK VINA RESULT:      -5.9      0.000      0.000
REMARK  3 active torsions:
REMARK  status: ('A' for Active; 'I' for Inactive)
REMARK       I    between atoms: N_2  and  C_3 
REMARK    1  A    between atoms: C_3  and  C_5 
REMARK    2  A    between atoms: C_5  and  C_6 
REMARK    3  A    between atoms: C_10  and  C_13 
ROOT
HETATM    1  C   UNL     1     -41.974 -52.236  12.205  1.00  0.00     0.112 A 
HETATM    2  N   UNL     1     -41.880 -53.556  12.411  1.00  0.00    -0.247 N 
ATOM      3  HN  UNL     1     -41.058 -54.154  12.322  1.00  0.00     0.196 HD
HETATM    4  O   UNL     1     -43.177 -53.918  12.777  1.00  0.00    -0.222 OA
HETATM    5  C   UNL     1     -43.919 -52.773  12.768  1.00  0.00     0.152 A 
HETATM    6  N   UNL     1     -43.223 -51.705  12.438  1.00  0.00    -0.326 N 
ATOM      7  HN  UNL     1     -43.529 -50.735  12.373  1.00  0.00     0.169 HD
ENDROOT
BRANCH   5   8
HETATM    8  C   UNL     1     -45.352 -52.912  13.116  1.00  0.00     0.067 C 
HETATM    9  C   UNL     1     -46.146 -51.589  13.024  1.00  0.00     0.018 C 
HETATM   10  C   UNL     1     -46.761 -51.457  14.429  1.00  0.00    -0.013 C 
HETATM   11  C   UNL     1     -45.644 -51.119  15.432  1.00  0.00     0.005 C 
HETATM   12  C   UNL     1     -47.072 -52.914  14.768  1.00  0.00     0.010 C 
HETATM   13  C   UNL     1     -44.910 -52.456  15.596  1.00  0.00     0.006 C 
HETATM   14  C   UNL     1     -45.620 -53.365  14.575  1.00  0.00    -0.002 C 
ENDBRANCH   5   8
BRANCH   1  15
HETATM   15  C   UNL     1     -40.816 -51.398  11.825  1.00  0.00     0.181 C 
BRANCH  15  16
HETATM   16  C   UNL     1     -41.161 -49.923  11.864  1.00  0.00     0.224 C 
HETATM   17  N   UNL     1     -41.184 -49.300  10.631  1.00  0.00    -0.365 N 
HETATM   18  C   UNL     1     -41.428 -47.885  10.525  1.00  0.00     0.149 C 
HETATM   19  H   UNL     1     -40.706 -49.767   9.864  1.00  0.00     0.161 HD
HETATM   20  O   UNL     1     -41.461 -49.346  12.907  1.00  0.00    -0.273 OA
ENDBRANCH  15  16
ENDBRANCH   1  15
TORSDOF 3
ENDMDL
MODEL 2
REMARK VINA RESULT:      -5.8      1.841      2.574
REMARK  3 active torsions:
REMARK  status: ('A' for Active; 'I' for Inactive)
REMARK       I    between atoms: N_2  and  C_3 
REMARK    1  A    between atoms: C_3  and  C_5 
REMARK    2  A    between atoms: C_5  and  C_6 
REMARK    3  A    between atoms: C_10  and  C_13 
ROOT
HETATM    1  C   UNL     1     -40.823 -50.509  11.750  1.00  0.00     0.112 A 
HETATM    2  N   UNL     1     -39.771 -51.322  11.914  1.00  0.00    -0.247 N 
ATOM      3  HN  UNL     1     -38.780 -51.106  11.798  1.00  0.00     0.196 HD
HETATM    4  O   UNL     1     -40.354 -52.535  12.281  1.00  0.00    -0.222 OA
HETATM    5  C   UNL     1     -41.702 -52.325  12.315  1.00  0.00     0.152 A 
HETATM    6  N   UNL     1     -42.043 -51.090  12.013  1.00  0.00    -0.326 N 
ATOM      7  HN  UNL     1     -42.973 -50.671  11.981  1.00  0.00     0.169 HD
ENDROOT
BRANCH   5   8
HETATM    8  C   UNL     1     -42.543 -53.490  12.674  1.00  0.00     0.067 C 
HETATM    9  C   UNL     1     -44.053 -53.266  12.434  1.00  0.00     0.018 C 
HETATM   10  C   UNL     1     -44.669 -53.557  13.814  1.00  0.00    -0.013 C 
HETATM   11  C   UNL     1     -44.299 -52.414  14.776  1.00  0.00     0.005 C 
HETATM   12  C   UNL     1     -43.784 -54.699  14.312  1.00  0.00     0.010 C 
HETATM   13  C   UNL     1     -42.822 -52.689  15.089  1.00  0.00     0.006 C 
HETATM   14  C   UNL     1     -42.494 -53.883  14.173  1.00  0.00    -0.002 C 
ENDBRANCH   5   8
BRANCH   1  15
HETATM   15  C   UNL     1     -40.687 -49.082  11.386  1.00  0.00     0.181 C 
BRANCH  15  16
HETATM   16  C   UNL     1     -41.997 -48.510  10.885  1.00  0.00     0.224 C 
HETATM   17  N   UNL     1     -42.022 -48.212   9.536  1.00  0.00    -0.365 N 
HETATM   18  C   UNL     1     -43.180 -47.597   8.940  1.00  0.00     0.149 C 
HETATM   19  H   UNL     1     -41.127 -48.120   9.062  1.00  0.00     0.161 HD
HETATM   20  O   UNL     1     -42.979 -48.383  11.614  1.00  0.00    -0.273 OA
ENDBRANCH  15  16
ENDBRANCH   1  15
TORSDOF 3
ENDMDL
MODEL 3
REMARK VINA RESULT:      -5.7      4.761      6.395
REMARK  3 active torsions:
REMARK  status: ('A' for Active; 'I' for Inactive)
REMARK       I    between atoms: N_2  and  C_3 
REMARK    1  A    between atoms: C_3  and  C_5 
REMARK    2  A    between atoms: C_5  and  C_6 
REMARK    3  A    between atoms: C_10  and  C_13 
ROOT
HETATM    1  C   UNL     1     -42.429 -47.831  10.560  1.00  0.00     0.112 A 
HETATM    2  N   UNL     1     -43.049 -48.638  11.430  1.00  0.00    -0.247 N 
ATOM      3  HN  UNL     1     -44.019 -48.602  11.745  1.00  0.00     0.196 HD
HETATM    4  O   UNL     1     -42.052 -49.539  11.803  1.00  0.00    -0.222 OA
HETATM    5  C   UNL     1     -40.932 -49.191  11.105  1.00  0.00     0.152 A 
HETATM    6  N   UNL     1     -41.114 -48.156  10.313  1.00  0.00    -0.326 N 
ATOM      7  HN  UNL     1     -40.451 -47.709   9.678  1.00  0.00     0.169 HD
ENDROOT
BRANCH   5   8
HETATM    8  C   UNL     1     -39.721 -50.010  11.349  1.00  0.00     0.067 C 
HETATM    9  C   UNL     1     -39.902 -51.076  12.454  1.00  0.00     0.018 C 
HETATM   10  C   UNL     1     -38.763 -50.751  13.436  1.00  0.00    -0.013 C 
HETATM   11  C   UNL     1     -39.093 -49.437  14.166  1.00  0.00     0.005 C 
HETATM   12  C   UNL     1     -37.647 -50.321  12.483  1.00  0.00     0.010 C 
HETATM   13  C   UNL     1     -38.825 -48.370  13.097  1.00  0.00     0.006 C 
HETATM   14  C   UNL     1     -38.492 -49.209  11.850  1.00  0.00    -0.002 C 
ENDBRANCH   5   8
BRANCH   1  15
HETATM   15  C   UNL     1     -43.114 -46.721   9.863  1.00  0.00     0.181 C 
BRANCH  15  16
HETATM   16  C   UNL     1     -44.340 -47.207   9.117  1.00  0.00     0.224 C 
HETATM   17  N   UNL     1     -45.544 -46.756   9.623  1.00  0.00    -0.365 N 
HETATM   18  C   UNL     1     -46.792 -47.196   9.055  1.00  0.00     0.149 C 
HETATM   19  H   UNL     1     -45.545 -46.399  10.575  1.00  0.00     0.161 HD
HETATM   20  O   UNL     1     -44.260 -47.896   8.102  1.00  0.00    -0.273 OA
ENDBRANCH  15  16
ENDBRANCH   1  15
TORSDOF 3
ENDMDL
MODEL 4
REMARK VINA RESULT:      -5.6      1.674      1.972
REMARK  3 active torsions:
REMARK  status: ('A' for Active; 'I' for Inactive)
REMARK       I    between atoms: N_2  and  C_3 
REMARK    1  A    between atoms: C_3  and  C_5 
REMARK    2  A    between atoms: C_5  and  C_6 
REMARK    3  A    between atoms: C_10  and  C_13 
ROOT
HETATM    1  C   UNL     1     -42.047 -52.360  12.267  1.00  0.00     0.112 A 
HETATM    2  N   UNL     1     -42.001 -53.683  12.476  1.00  0.00    -0.247 N 
ATOM      3  HN  UNL     1     -41.200 -54.309  12.387  1.00  0.00     0.196 HD
HETATM    4  O   UNL     1     -43.309 -53.998  12.842  1.00  0.00    -0.222 OA
HETATM    5  C   UNL     1     -44.010 -52.827  12.831  1.00  0.00     0.152 A 
HETATM    6  N   UNL     1     -43.277 -51.785  12.500  1.00  0.00    -0.326 N 
ATOM      7  HN  UNL     1     -43.549 -50.804  12.433  1.00  0.00     0.169 HD
ENDROOT
BRANCH   5   8
HETATM    8  C   UNL     1     -45.447 -52.914  13.181  1.00  0.00     0.067 C 
HETATM    9  C   UNL     1     -46.189 -51.560  13.110  1.00  0.00     0.018 C 
HETATM   10  C   UNL     1     -46.796 -51.425  14.518  1.00  0.00    -0.013 C 
HETATM   11  C   UNL     1     -45.665 -51.147  15.524  1.00  0.00     0.005 C 
HETATM   12  C   UNL     1     -47.164 -52.874  14.836  1.00  0.00     0.010 C 
HETATM   13  C   UNL     1     -44.984 -52.515  15.666  1.00  0.00     0.006 C 
HETATM   14  C   UNL     1     -45.731 -53.379  14.633  1.00  0.00    -0.002 C 
ENDBRANCH   5   8
BRANCH   1  15
HETATM   15  C   UNL     1     -40.861 -51.564  11.886  1.00  0.00     0.181 C 
BRANCH  15  16
HETATM   16  C   UNL     1     -39.783 -51.630  12.948  1.00  0.00     0.224 C 
HETATM   17  N   UNL     1     -39.506 -50.427  13.569  1.00  0.00    -0.365 N 
HETATM   18  C   UNL     1     -38.455 -50.329  14.549  1.00  0.00     0.149 C 
HETATM   19  H   UNL     1     -39.807 -49.578  13.096  1.00  0.00     0.161 HD
HETATM   20  O   UNL     1     -39.246 -52.687  13.275  1.00  0.00    -0.273 OA
ENDBRANCH  15  16
ENDBRANCH   1  15
TORSDOF 3
ENDMDL
MODEL 5
REMARK VINA RESULT:      -5.5      1.757      2.595
REMARK  3 active torsions:
REMARK  status: ('A' for Active; 'I' for Inactive)
REMARK       I    between atoms: N_2  and  C_3 
REMARK    1  A    between atoms: C_3  and  C_5 
REMARK    2  A    between atoms: C_5  and  C_6 
REMARK    3  A    between atoms: C_10  and  C_13 
ROOT
HETATM    1  C   UNL     1     -42.090 -49.808  12.075  1.00  0.00     0.112 A 
HETATM    2  N   UNL     1     -41.516 -50.902  12.593  1.00  0.00    -0.247 N 
ATOM      3  HN  UNL     1     -40.586 -51.278  12.406  1.00  0.00     0.196 HD
HETATM    4  O   UNL     1     -42.495 -51.405  13.451  1.00  0.00    -0.222 OA
HETATM    5  C   UNL     1     -43.557 -50.552  13.373  1.00  0.00     0.152 A 
HETATM    6  N   UNL     1     -43.354 -49.542  12.552  1.00  0.00    -0.326 N 
ATOM      7  HN  UNL     1     -43.973 -48.763  12.328  1.00  0.00     0.169 HD
ENDROOT
BRANCH   5   8
HETATM    8  C   UNL     1     -44.739 -50.891  14.199  1.00  0.00     0.067 C 
HETATM    9  C   UNL     1     -44.503 -52.073  15.168  1.00  0.00     0.018 C 
HETATM   10  C   UNL     1     -45.627 -53.055  14.793  1.00  0.00    -0.013 C 
HETATM   11  C   UNL     1     -45.315 -53.669  13.417  1.00  0.00     0.005 C 
HETATM   12  C   UNL     1     -46.776 -52.101  14.469  1.00  0.00     0.010 C 
HETATM   13  C   UNL     1     -45.637 -52.525  12.446  1.00  0.00     0.006 C 
HETATM   14  C   UNL     1     -45.977 -51.358  13.392  1.00  0.00    -0.002 C 
ENDBRANCH   5   8
BRANCH   1  15
HETATM   15  C   UNL     1     -41.400 -48.914  11.120  1.00  0.00     0.181 C 
BRANCH  15  16
HETATM   16  C   UNL     1     -42.353 -47.900  10.521  1.00  0.00     0.224 C 
HETATM   17  N   UNL     1     -42.636 -48.090   9.182  1.00  0.00    -0.365 N 
HETATM   18  C   UNL     1     -43.471 -47.160   8.467  1.00  0.00     0.149 C 
HETATM   19  H   UNL     1     -41.997 -48.676   8.649  1.00  0.00     0.161 HD
HETATM   20  O   UNL     1     -42.880 -47.018  11.195  1.00  0.00    -0.273 OA
ENDBRANCH  15  16
ENDBRANCH   1  15
TORSDOF 3
ENDMDL
MODEL 6
REMARK VINA RESULT:      -5.4      5.053      6.568
REMARK  3 active torsions:
REMARK  status: ('A' for Active; 'I' for Inactive)
REMARK       I    between atoms: N_2  and  C_3 
REMARK    1  A    between atoms: C_3  and  C_5 
REMARK    2  A    between atoms: C_5  and  C_6 
REMARK    3  A    between atoms: C_10  and  C_13 
ROOT
HETATM    1  C   UNL     1     -41.372 -47.950  10.826  1.00  0.00     0.112 A 
HETATM    2  N   UNL     1     -41.214 -49.165  10.286  1.00  0.00    -0.247 N 
ATOM      3  HN  UNL     1     -41.800 -49.630   9.592  1.00  0.00     0.196 HD
HETATM    4  O   UNL     1     -40.057 -49.644  10.900  1.00  0.00    -0.222 OA
HETATM    5  C   UNL     1     -39.625 -48.659  11.740  1.00  0.00     0.152 A 
HETATM    6  N   UNL     1     -40.389 -47.587  11.721  1.00  0.00    -0.326 N 
ATOM      7  HN  UNL     1     -40.282 -46.713  12.236  1.00  0.00     0.169 HD
ENDROOT
BRANCH   5   8
HETATM    8  C   UNL     1     -38.399 -48.947  12.521  1.00  0.00     0.067 C 
HETATM    9  C   UNL     1     -37.622 -50.188  12.025  1.00  0.00     0.018 C 
HETATM   10  C   UNL     1     -37.529 -51.064  13.287  1.00  0.00    -0.013 C 
HETATM   11  C   UNL     1     -38.923 -51.634  13.602  1.00  0.00     0.005 C 
HETATM   12  C   UNL     1     -37.354 -50.012  14.382  1.00  0.00     0.010 C 
HETATM   13  C   UNL     1     -39.669 -50.425  14.181  1.00  0.00     0.006 C 
HETATM   14  C   UNL     1     -38.651 -49.281  14.014  1.00  0.00    -0.002 C 
ENDBRANCH   5   8
BRANCH   1  15
HETATM   15  C   UNL     1     -42.471 -47.037  10.445  1.00  0.00     0.181 C 
BRANCH  15  16
HETATM   16  C   UNL     1     -42.037 -45.588  10.509  1.00  0.00     0.224 C 
HETATM   17  N   UNL     1     -42.867 -44.765  11.247  1.00  0.00    -0.365 N 
HETATM   18  C   UNL     1     -42.614 -43.350  11.334  1.00  0.00     0.149 C 
HETATM   19  H   UNL     1     -43.809 -45.100  11.433  1.00  0.00     0.161 HD
HETATM   20  O   UNL     1     -40.992 -45.192   9.998  1.00  0.00    -0.273 OA
ENDBRANCH  15  16
ENDBRANCH   1  15
TORSDOF 3
ENDMDL
MODEL 7
REMARK VINA RESULT:      -5.3      2.640      3.260
REMARK  3 active torsions:
REMARK  status: ('A' for Active; 'I' for Inactive)
REMARK       I    between atoms: N_2  and  C_3 
REMARK    1  A    between atoms: C_3  and  C_5 
REMARK    2  A    between atoms: C_5  and  C_6 
REMARK    3  A    between atoms: C_10  and  C_13 
ROOT
HETATM    1  C   UNL     1     -39.930 -51.148  12.543  1.00  0.00     0.112 A 
HETATM    2  N   UNL     1     -40.629 -51.206  11.401  1.00  0.00    -0.247 N 
ATOM      3  HN  UNL     1     -40.464 -50.699  10.532  1.00  0.00     0.196 HD
HETATM    4  O   UNL     1     -41.637 -52.128  11.687  1.00  0.00    -0.222 OA
HETATM    5  C   UNL     1     -41.433 -52.543  12.971  1.00  0.00     0.152 A 
HETATM    6  N   UNL     1     -40.386 -51.983  13.539  1.00  0.00    -0.326 N 
ATOM      7  HN  UNL     1     -40.008 -52.129  14.475  1.00  0.00     0.169 HD
ENDROOT
BRANCH   5   8
HETATM    8  C   UNL     1     -42.401 -53.528  13.508  1.00  0.00     0.067 C 
HETATM    9  C   UNL     1     -43.579 -53.828  12.552  1.00  0.00     0.018 C 
HETATM   10  C   UNL     1     -44.812 -53.518  13.419  1.00  0.00    -0.013 C 
HETATM   11  C   UNL     1     -44.910 -51.995  13.619  1.00  0.00     0.005 C 
HETATM   12  C   UNL     1     -44.352 -53.997  14.795  1.00  0.00     0.010 C 
HETATM   13  C   UNL     1     -43.800 -51.708  14.639  1.00  0.00     0.006 C 
HETATM   14  C   UNL     1     -43.123 -53.081  14.805  1.00  0.00    -0.002 C 
ENDBRANCH   5   8
BRANCH   1  15
HETATM   15  C   UNL     1     -38.723 -50.308  12.704  1.00  0.00     0.181 C 
BRANCH  15  16
HETATM   16  C   UNL     1     -37.611 -50.752  11.777  1.00  0.00     0.224 C 
HETATM   17  N   UNL     1     -37.476 -49.994  10.629  1.00  0.00    -0.365 N 
HETATM   18  C   UNL     1     -36.505 -50.346   9.625  1.00  0.00     0.149 C 
HETATM   19  H   UNL     1     -38.268 -49.418  10.355  1.00  0.00     0.161 HD
HETATM   20  O   UNL     1     -36.849 -51.674  12.059  1.00  0.00    -0.273 OA
ENDBRANCH  15  16
ENDBRANCH   1  15
TORSDOF 3
ENDMDL
MODEL 8
REMARK VINA RESULT:      -5.3      6.014      8.471
REMARK  3 active torsions:
REMARK  status: ('A' for Active; 'I' for Inactive)
REMARK       I    between atoms: N_2  and  C_3 
REMARK    1  A    between atoms: C_3  and  C_5 
REMARK    2  A    between atoms: C_5  and  C_6 
REMARK    3  A    between atoms: C_10  and  C_13 
ROOT
HETATM    1  C   UNL     1     -42.002 -46.959  10.280  1.00  0.00     0.112 A 
HETATM    2  N   UNL     1     -41.470 -47.409  11.424  1.00  0.00    -0.247 N 
ATOM      3  HN  UNL     1     -41.577 -48.329  11.852  1.00  0.00     0.196 HD
HETATM    4  O   UNL     1     -40.735 -46.319  11.890  1.00  0.00    -0.222 OA
HETATM    5  C   UNL     1     -40.887 -45.324  10.968  1.00  0.00     0.152 A 
HETATM    6  N   UNL     1     -41.645 -45.671   9.949  1.00  0.00    -0.326 N 
ATOM      7  HN  UNL     1     -41.901 -45.126   9.125  1.00  0.00     0.169 HD
ENDROOT
BRANCH   5   8
HETATM    8  C   UNL     1     -40.198 -44.045  11.257  1.00  0.00     0.067 C 
HETATM    9  C   UNL     1     -39.442 -44.036  12.606  1.00  0.00     0.018 C 
HETATM   10  C   UNL     1     -40.043 -42.818  13.330  1.00  0.00    -0.013 C 
HETATM   11  C   UNL     1     -41.487 -43.148  13.746  1.00  0.00     0.005 C 
HETATM   12  C   UNL     1     -40.254 -41.843  12.171  1.00  0.00     0.010 C 
HETATM   13  C   UNL     1     -42.257 -43.067  12.421  1.00  0.00     0.006 C 
HETATM   14  C   UNL     1     -41.140 -42.820  11.390  1.00  0.00    -0.002 C 
ENDBRANCH   5   8
BRANCH   1  15
HETATM   15  C   UNL     1     -42.848 -47.796   9.403  1.00  0.00     0.181 C 
BRANCH  15  16
HETATM   16  C   UNL     1     -44.174 -47.126   9.106  1.00  0.00     0.224 C 
HETATM   17  N   UNL     1     -45.288 -47.895   9.382  1.00  0.00    -0.365 N 
HETATM   18  C   UNL     1     -46.610 -47.411   9.083  1.00  0.00     0.149 C 
HETATM   19  H   UNL     1     -45.150 -48.899   9.475  1.00  0.00     0.161 HD
HETATM   20  O   UNL     1     -44.248 -45.964   8.712  1.00  0.00    -0.273 OA
ENDBRANCH  15  16
ENDBRANCH   1  15
TORSDOF 3
ENDMDL
MODEL 9
REMARK VINA RESULT:      -5.2      2.664      6.451
REMARK  3 active torsions:
REMARK  status: ('A' for Active; 'I' for Inactive)
REMARK       I    between atoms: N_2  and  C_3 
REMARK    1  A    between atoms: C_3  and  C_5 
REMARK    2  A    between atoms: C_5  and  C_6 
REMARK    3  A    between atoms: C_10  and  C_13 
ROOT
HETATM    1  C   UNL     1     -41.436 -53.575  13.548  1.00  0.00     0.112 A 
HETATM    2  N   UNL     1     -40.937 -53.786  12.323  1.00  0.00    -0.247 N 
ATOM      3  HN  UNL     1     -40.957 -54.644  11.771  1.00  0.00     0.196 HD
HETATM    4  O   UNL     1     -40.383 -52.552  11.983  1.00  0.00    -0.222 OA
HETATM    5  C   UNL     1     -40.618 -51.715  13.035  1.00  0.00     0.152 A 
HETATM    6  N   UNL     1     -41.278 -52.290  14.019  1.00  0.00    -0.326 N 
ATOM      7  HN  UNL     1     -41.592 -51.888  14.902  1.00  0.00     0.169 HD
ENDROOT
BRANCH   5   8
HETATM    8  C   UNL     1     -40.104 -50.332  12.907  1.00  0.00     0.067 C 
HETATM    9  C   UNL     1     -39.657 -49.964  11.474  1.00  0.00     0.018 C 
HETATM   10  C   UNL     1     -38.200 -49.510  11.673  1.00  0.00    -0.013 C 
HETATM   11  C   UNL     1     -37.334 -50.740  11.999  1.00  0.00     0.005 C 
HETATM   12  C   UNL     1     -38.279 -48.801  13.025  1.00  0.00     0.010 C 
HETATM   13  C   UNL     1     -37.709 -51.051  13.454  1.00  0.00     0.006 C 
HETATM   14  C   UNL     1     -38.832 -50.037  13.744  1.00  0.00    -0.002 C 
ENDBRANCH   5   8
BRANCH   1  15
HETATM   15  C   UNL     1     -42.162 -54.614  14.310  1.00  0.00     0.181 C 
BRANCH  15  16
HETATM   16  C   UNL     1     -43.566 -54.167  14.658  1.00  0.00     0.224 C 
HETATM   17  N   UNL     1     -44.572 -54.972  14.158  1.00  0.00    -0.365 N 
HETATM   18  C   UNL     1     -45.957 -54.627  14.353  1.00  0.00     0.149 C 
HETATM   19  H   UNL     1     -44.332 -55.596  13.392  1.00  0.00     0.161 HD
HETATM   20  O   UNL     1     -43.787 -53.199  15.384  1.00  0.00    -0.273 OA
ENDBRANCH  15  16
ENDBRANCH   1  15
TORSDOF 3
ENDMDL
