MODEL 1
REMARK VINA RESULT:      -6.5      0.000      0.000
REMARK  3 active torsions:
REMARK  status: ('A' for Active; 'I' for Inactive)
REMARK    1  A    between atoms: C_6  and  N_7 
REMARK       I    between atoms: N_7  and  C_8 
REMARK       I    between atoms: C_8  and  N_10 
REMARK    2  A    between atoms: N_10  and  C_11 
REMARK    3  A    between atoms: C_11  and  C_12 
ROOT
HETATM    1  N   UNL     1     -40.720 -49.488  10.443  1.00  0.00    -0.304 N 
HETATM    2  C   UNL     1     -41.533 -48.395  10.610  1.00  0.00     0.320 C 
HETATM    3  O   UNL     1     -41.562 -47.678  11.608  1.00  0.00    -0.247 OA
HETATM    4  N   UNL     1     -42.319 -48.146   9.514  1.00  0.00    -0.340 N 
HETATM    5  H   UNL     1     -40.515 -49.769   9.491  1.00  0.00     0.171 HD
HETATM    6  H   UNL     1     -42.554 -48.913   8.898  1.00  0.00     0.164 HD
ENDROOT
BRANCH   1   7
HETATM    7  C   UNL     1     -39.888 -50.040  11.402  1.00  0.00     0.105 A 
HETATM    8  C   UNL     1     -38.652 -49.605  11.690  1.00  0.00     0.037 A 
HETATM    9  C   UNL     1     -37.856 -50.214  12.725  1.00  0.00     0.020 A 
HETATM   10  C   UNL     1     -38.361 -51.205  13.463  1.00  0.00     0.094 A 
HETATM   11  N   UNL     1     -39.636 -51.687  13.234  1.00  0.00    -0.327 N 
HETATM   12  C   UNL     1     -40.153 -52.763  14.060  1.00  0.00     0.159 C 
HETATM   13  C   UNL     1     -40.442 -51.204  12.197  1.00  0.00     0.274 A 
HETATM   14  O   UNL     1     -41.550 -51.659  11.913  1.00  0.00    -0.266 OA
ENDBRANCH   1   7
BRANCH   4  15
HETATM   15  C   UNL     1     -43.171 -46.968   9.456  1.00  0.00     0.156 C 
BRANCH  15  16
HETATM   16  C   UNL     1     -44.472 -47.184   8.682  1.00  0.00     0.139 C 
HETATM   17  C   UNL     1     -45.697 -47.546   9.508  1.00  0.00     0.035 C 
HETATM   18  C   UNL     1     -46.491 -48.475   8.610  1.00  0.00     0.029 C 
HETATM   19  C   UNL     1     -45.648 -48.633   7.362  1.00  0.00     0.168 C 
HETATM   20  O   UNL     1     -44.320 -48.258   7.736  1.00  0.00    -0.384 OA
ENDBRANCH  15  16
ENDBRANCH   4  15
TORSDOF 3
ENDMDL
MODEL 2
REMARK VINA RESULT:      -6.1      2.070      3.015
REMARK  3 active torsions:
REMARK  status: ('A' for Active; 'I' for Inactive)
REMARK    1  A    between atoms: C_6  and  N_7 
REMARK       I    between atoms: N_7  and  C_8 
REMARK       I    between atoms: C_8  and  N_10 
REMARK    2  A    between atoms: N_10  and  C_11 
REMARK    3  A    between atoms: C_11  and  C_12 
ROOT
HETATM    1  N   UNL     1     -41.394 -50.921  11.331  1.00  0.00    -0.304 N 
HETATM    2  C   UNL     1     -41.525 -49.596  11.661  1.00  0.00     0.320 C 
HETATM    3  O   UNL     1     -41.703 -49.162  12.797  1.00  0.00    -0.247 OA
HETATM    4  N   UNL     1     -41.409 -48.765  10.576  1.00  0.00    -0.340 N 
HETATM    5  H   UNL     1     -40.903 -51.135  10.471  1.00  0.00     0.171 HD
HETATM    6  H   UNL     1     -41.637 -49.125   9.659  1.00  0.00     0.164 HD
ENDROOT
BRANCH   1   7
HETATM    7  C   UNL     1     -41.555 -51.996  12.189  1.00  0.00     0.105 A 
HETATM    8  C   UNL     1     -42.722 -52.601  12.453  1.00  0.00     0.037 A 
HETATM    9  C   UNL     1     -42.806 -53.736  13.337  1.00  0.00     0.020 A 
HETATM   10  C   UNL     1     -41.697 -54.245  13.878  1.00  0.00     0.094 A 
HETATM   11  N   UNL     1     -40.458 -53.685  13.632  1.00  0.00    -0.327 N 
HETATM   12  C   UNL     1     -39.275 -54.269  14.235  1.00  0.00     0.159 C 
HETATM   13  C   UNL     1     -40.303 -52.535  12.849  1.00  0.00     0.274 A 
HETATM   14  O   UNL     1     -39.228 -51.961  12.670  1.00  0.00    -0.266 OA
ENDBRANCH   1   7
BRANCH   4  15
HETATM   15  C   UNL     1     -41.414 -47.319  10.737  1.00  0.00     0.156 C 
BRANCH  15  16
HETATM   16  C   UNL     1     -42.767 -46.669  10.448  1.00  0.00     0.139 C 
HETATM   17  C   UNL     1     -43.942 -47.615  10.250  1.00  0.00     0.035 C 
HETATM   18  C   UNL     1     -44.813 -46.920   9.221  1.00  0.00     0.029 C 
HETATM   19  C   UNL     1     -44.058 -45.660   8.853  1.00  0.00     0.168 C 
HETATM   20  O   UNL     1     -42.701 -45.889   9.239  1.00  0.00    -0.384 OA
ENDBRANCH  15  16
ENDBRANCH   4  15
TORSDOF 3
ENDMDL
MODEL 3
REMARK VINA RESULT:      -5.9      3.021      4.088
REMARK  3 active torsions:
REMARK  status: ('A' for Active; 'I' for Inactive)
REMARK    1  A    between atoms: C_6  and  N_7 
REMARK       I    between atoms: N_7  and  C_8 
REMARK       I    between atoms: C_8  and  N_10 
REMARK    2  A    between atoms: N_10  and  C_11 
REMARK    3  A    between atoms: C_11  and  C_12 
ROOT
HETATM    1  N   UNL     1     -42.361 -51.954  12.099  1.00  0.00    -0.304 N 
HETATM    2  C   UNL     1     -42.321 -50.622  12.427  1.00  0.00     0.320 C 
HETATM    3  O   UNL     1     -42.414 -50.169  13.567  1.00  0.00    -0.247 OA
HETATM    4  N   UNL     1     -42.136 -49.811  11.336  1.00  0.00    -0.340 N 
HETATM    5  H   UNL     1     -41.923 -52.226  11.226  1.00  0.00     0.171 HD
HETATM    6  H   UNL     1     -42.431 -50.141  10.428  1.00  0.00     0.164 HD
ENDROOT
BRANCH   1   7
HETATM    7  C   UNL     1     -42.627 -53.000  12.965  1.00  0.00     0.105 A 
HETATM    8  C   UNL     1     -41.755 -53.510  13.847  1.00  0.00     0.037 A 
HETATM    9  C   UNL     1     -42.116 -54.582  14.739  1.00  0.00     0.020 A 
HETATM   10  C   UNL     1     -43.362 -55.063  14.737  1.00  0.00     0.094 A 
HETATM   11  N   UNL     1     -44.317 -54.569  13.870  1.00  0.00    -0.327 N 
HETATM   12  C   UNL     1     -45.662 -55.113  13.901  1.00  0.00     0.159 C 
HETATM   13  C   UNL     1     -44.024 -53.584  12.920  1.00  0.00     0.274 A 
HETATM   14  O   UNL     1     -44.826 -53.173  12.080  1.00  0.00    -0.266 OA
ENDBRANCH   1   7
BRANCH   4  15
HETATM   15  C   UNL     1     -41.961 -48.375  11.492  1.00  0.00     0.156 C 
BRANCH  15  16
HETATM   16  C   UNL     1     -42.728 -47.544  10.465  1.00  0.00     0.139 C 
HETATM   17  C   UNL     1     -44.242 -47.513  10.616  1.00  0.00     0.035 C 
HETATM   18  C   UNL     1     -44.758 -47.431   9.192  1.00  0.00     0.029 C 
HETATM   19  C   UNL     1     -43.521 -47.480   8.321  1.00  0.00     0.168 C 
HETATM   20  O   UNL     1     -42.490 -48.044   9.136  1.00  0.00    -0.384 OA
ENDBRANCH  15  16
ENDBRANCH   4  15
TORSDOF 3
ENDMDL
MODEL 4
REMARK VINA RESULT:      -5.9      3.004      4.347
REMARK  3 active torsions:
REMARK  status: ('A' for Active; 'I' for Inactive)
REMARK    1  A    between atoms: C_6  and  N_7 
REMARK       I    between atoms: N_7  and  C_8 
REMARK       I    between atoms: C_8  and  N_10 
REMARK    2  A    between atoms: N_10  and  C_11 
REMARK    3  A    between atoms: C_11  and  C_12 
ROOT
HETATM    1  N   UNL     1     -41.054 -50.870  11.309  1.00  0.00    -0.304 N 
HETATM    2  C   UNL     1     -41.584 -49.617  11.487  1.00  0.00     0.320 C 
HETATM    3  O   UNL     1     -42.231 -49.253  12.467  1.00  0.00    -0.247 OA
HETATM    4  N   UNL     1     -41.296 -48.767  10.450  1.00  0.00    -0.340 N 
HETATM    5  H   UNL     1     -40.264 -50.951  10.679  1.00  0.00     0.171 HD
HETATM    6  H   UNL     1     -41.111 -49.157   9.536  1.00  0.00     0.164 HD
ENDROOT
BRANCH   1   7
HETATM    7  C   UNL     1     -41.251 -51.964  12.134  1.00  0.00     0.105 A 
HETATM    8  C   UNL     1     -42.410 -52.624  12.272  1.00  0.00     0.037 A 
HETATM    9  C   UNL     1     -42.530 -53.776  13.129  1.00  0.00     0.020 A 
HETATM   10  C   UNL     1     -41.459 -54.245  13.773  1.00  0.00     0.094 A 
HETATM   11  N   UNL     1     -40.228 -53.627  13.659  1.00  0.00    -0.327 N 
HETATM   12  C   UNL     1     -39.086 -54.168  14.371  1.00  0.00     0.159 C 
HETATM   13  C   UNL     1     -40.048 -52.459  12.910  1.00  0.00     0.274 A 
HETATM   14  O   UNL     1     -38.987 -51.835  12.846  1.00  0.00    -0.266 OA
ENDBRANCH   1   7
BRANCH   4  15
HETATM   15  C   UNL     1     -41.681 -47.364  10.503  1.00  0.00     0.156 C 
BRANCH  15  16
HETATM   16  C   UNL     1     -40.509 -46.410  10.731  1.00  0.00     0.139 C 
HETATM   17  C   UNL     1     -40.202 -46.051  12.177  1.00  0.00     0.035 C 
HETATM   18  C   UNL     1     -39.711 -44.617  12.110  1.00  0.00     0.029 C 
HETATM   19  C   UNL     1     -39.824 -44.230  10.651  1.00  0.00     0.168 C 
HETATM   20  O   UNL     1     -40.748 -45.154  10.071  1.00  0.00    -0.384 OA
ENDBRANCH  15  16
ENDBRANCH   4  15
TORSDOF 3
ENDMDL
MODEL 5
REMARK VINA RESULT:      -5.8      3.588      5.322
REMARK  3 active torsions:
REMARK  status: ('A' for Active; 'I' for Inactive)
REMARK    1  A    between atoms: C_6  and  N_7 
REMARK       I    between atoms: N_7  and  C_8 
REMARK       I    between atoms: C_8  and  N_10 
REMARK    2  A    between atoms: N_10  and  C_11 
REMARK    3  A    between atoms: C_11  and  C_12 
ROOT
HETATM    1  N   UNL     1     -41.934 -51.501  11.668  1.00  0.00    -0.304 N 
HETATM    2  C   UNL     1     -42.478 -52.398  12.552  1.00  0.00     0.320 C 
HETATM    3  O   UNL     1     -42.143 -52.528  13.727  1.00  0.00    -0.247 OA
HETATM    4  N   UNL     1     -43.485 -53.146  11.996  1.00  0.00    -0.340 N 
HETATM    5  H   UNL     1     -42.505 -51.230  10.876  1.00  0.00     0.171 HD
HETATM    6  H   UNL     1     -43.489 -53.294  10.996  1.00  0.00     0.164 HD
ENDROOT
BRANCH   1   7
HETATM    7  C   UNL     1     -40.846 -50.679  11.905  1.00  0.00     0.105 A 
HETATM    8  C   UNL     1     -39.652 -51.093  12.352  1.00  0.00     0.037 A 
HETATM    9  C   UNL     1     -38.555 -50.180  12.548  1.00  0.00     0.020 A 
HETATM   10  C   UNL     1     -38.695 -48.890  12.233  1.00  0.00     0.094 A 
HETATM   11  N   UNL     1     -39.891 -48.398  11.747  1.00  0.00    -0.327 N 
HETATM   12  C   UNL     1     -40.004 -46.991  11.412  1.00  0.00     0.159 C 
HETATM   13  C   UNL     1     -41.026 -49.205  11.604  1.00  0.00     0.274 A 
HETATM   14  O   UNL     1     -42.130 -48.790  11.248  1.00  0.00    -0.266 OA
ENDBRANCH   1   7
BRANCH   4  15
HETATM   15  C   UNL     1     -44.258 -54.077  12.804  1.00  0.00     0.156 C 
BRANCH  15  16
HETATM   16  C   UNL     1     -45.544 -53.481  13.375  1.00  0.00     0.139 C 
HETATM   17  C   UNL     1     -46.059 -52.216  12.703  1.00  0.00     0.035 C 
HETATM   18  C   UNL     1     -46.688 -51.423  13.833  1.00  0.00     0.029 C 
HETATM   19  C   UNL     1     -46.443 -52.248  15.078  1.00  0.00     0.168 C 
HETATM   20  O   UNL     1     -45.362 -53.128  14.759  1.00  0.00    -0.384 OA
ENDBRANCH  15  16
ENDBRANCH   4  15
TORSDOF 3
ENDMDL
MODEL 6
REMARK VINA RESULT:      -5.7      3.746      6.264
REMARK  3 active torsions:
REMARK  status: ('A' for Active; 'I' for Inactive)
REMARK    1  A    between atoms: C_6  and  N_7 
REMARK       I    between atoms: N_7  and  C_8 
REMARK       I    between atoms: C_8  and  N_10 
REMARK    2  A    between atoms: N_10  and  C_11 
REMARK    3  A    between atoms: C_11  and  C_12 
ROOT
HETATM    1  N   UNL     1     -41.939 -52.639  12.006  1.00  0.00    -0.304 N 
HETATM    2  C   UNL     1     -41.679 -51.296  12.113  1.00  0.00     0.320 C 
HETATM    3  O   UNL     1     -42.128 -50.554  12.984  1.00  0.00    -0.247 OA
HETATM    4  N   UNL     1     -40.822 -50.843  11.143  1.00  0.00    -0.340 N 
HETATM    5  H   UNL     1     -41.260 -53.201  11.506  1.00  0.00     0.171 HD
HETATM    6  H   UNL     1     -40.771 -51.341  10.265  1.00  0.00     0.164 HD
ENDROOT
BRANCH   1   7
HETATM    7  C   UNL     1     -42.833 -53.361  12.777  1.00  0.00     0.105 A 
HETATM    8  C   UNL     1     -44.141 -53.498  12.514  1.00  0.00     0.037 A 
HETATM    9  C   UNL     1     -45.005 -54.292  13.350  1.00  0.00     0.020 A 
HETATM   10  C   UNL     1     -44.501 -54.960  14.390  1.00  0.00     0.094 A 
HETATM   11  N   UNL     1     -43.157 -54.882  14.706  1.00  0.00    -0.327 N 
HETATM   12  C   UNL     1     -42.645 -55.626  15.841  1.00  0.00     0.159 C 
HETATM   13  C   UNL     1     -42.269 -54.070  13.992  1.00  0.00     0.274 A 
HETATM   14  O   UNL     1     -41.084 -53.914  14.288  1.00  0.00    -0.266 OA
ENDBRANCH   1   7
BRANCH   4  15
HETATM   15  C   UNL     1     -40.342 -49.469  11.151  1.00  0.00     0.156 C 
BRANCH  15  16
HETATM   16  C   UNL     1     -38.993 -49.290  11.849  1.00  0.00     0.139 C 
HETATM   17  C   UNL     1     -38.027 -50.462  11.762  1.00  0.00     0.035 C 
HETATM   18  C   UNL     1     -37.285 -50.432  13.085  1.00  0.00     0.029 C 
HETATM   19  C   UNL     1     -37.910 -49.292  13.862  1.00  0.00     0.168 C 
HETATM   20  O   UNL     1     -39.184 -49.057  13.256  1.00  0.00    -0.384 OA
ENDBRANCH  15  16
ENDBRANCH   4  15
TORSDOF 3
ENDMDL
MODEL 7
REMARK VINA RESULT:      -5.7      4.130      6.167
REMARK  3 active torsions:
REMARK  status: ('A' for Active; 'I' for Inactive)
REMARK    1  A    between atoms: C_6  and  N_7 
REMARK       I    between atoms: N_7  and  C_8 
REMARK       I    between atoms: C_8  and  N_10 
REMARK    2  A    between atoms: N_10  and  C_11 
REMARK    3  A    between atoms: C_11  and  C_12 
ROOT
HETATM    1  N   UNL     1     -43.518 -52.558  12.193  1.00  0.00    -0.304 N 
HETATM    2  C   UNL     1     -42.349 -51.985  12.628  1.00  0.00     0.320 C 
HETATM    3  O   UNL     1     -41.914 -52.046  13.776  1.00  0.00    -0.247 OA
HETATM    4  N   UNL     1     -41.671 -51.337  11.628  1.00  0.00    -0.340 N 
HETATM    5  H   UNL     1     -43.592 -52.757  11.202  1.00  0.00     0.171 HD
HETATM    6  H   UNL     1     -42.190 -50.985  10.835  1.00  0.00     0.164 HD
ENDROOT
BRANCH   1   7
HETATM    7  C   UNL     1     -44.458 -53.195  12.984  1.00  0.00     0.105 A 
HETATM    8  C   UNL     1     -44.566 -54.523  13.133  1.00  0.00     0.037 A 
HETATM    9  C   UNL     1     -45.554 -55.113  13.999  1.00  0.00     0.020 A 
HETATM   10  C   UNL     1     -46.362 -54.333  14.721  1.00  0.00     0.094 A 
HETATM   11  N   UNL     1     -46.291 -52.955  14.633  1.00  0.00    -0.327 N 
HETATM   12  C   UNL     1     -47.183 -52.140  15.436  1.00  0.00     0.159 C 
HETATM   13  C   UNL     1     -45.414 -52.309  13.756  1.00  0.00     0.274 A 
HETATM   14  O   UNL     1     -45.374 -51.088  13.592  1.00  0.00    -0.266 OA
ENDBRANCH   1   7
BRANCH   4  15
HETATM   15  C   UNL     1     -40.358 -50.757  11.868  1.00  0.00     0.156 C 
BRANCH  15  16
HETATM   16  C   UNL     1     -40.180 -49.362  11.270  1.00  0.00     0.139 C 
HETATM   17  C   UNL     1     -39.512 -48.326  12.160  1.00  0.00     0.035 C 
HETATM   18  C   UNL     1     -40.185 -47.020  11.784  1.00  0.00     0.029 C 
HETATM   19  C   UNL     1     -41.229 -47.397  10.754  1.00  0.00     0.168 C 
HETATM   20  O   UNL     1     -41.458 -48.798  10.924  1.00  0.00    -0.384 OA
ENDBRANCH  15  16
ENDBRANCH   4  15
TORSDOF 3
ENDMDL
MODEL 8
REMARK VINA RESULT:      -5.6      3.887      5.209
REMARK  3 active torsions:
REMARK  status: ('A' for Active; 'I' for Inactive)
REMARK    1  A    between atoms: C_6  and  N_7 
REMARK       I    between atoms: N_7  and  C_8 
REMARK       I    between atoms: C_8  and  N_10 
REMARK    2  A    between atoms: N_10  and  C_11 
REMARK    3  A    between atoms: C_11  and  C_12 
ROOT
HETATM    1  N   UNL     1     -42.045 -51.797  11.748  1.00  0.00    -0.304 N 
HETATM    2  C   UNL     1     -42.697 -52.496  12.733  1.00  0.00     0.320 C 
HETATM    3  O   UNL     1     -42.608 -52.273  13.939  1.00  0.00    -0.247 OA
HETATM    4  N   UNL     1     -43.507 -53.484  12.235  1.00  0.00    -0.340 N 
HETATM    5  H   UNL     1     -42.455 -51.816  10.822  1.00  0.00     0.171 HD
HETATM    6  H   UNL     1     -43.288 -53.886  11.333  1.00  0.00     0.164 HD
ENDROOT
BRANCH   1   7
HETATM    7  C   UNL     1     -41.095 -50.809  11.941  1.00  0.00     0.105 A 
HETATM    8  C   UNL     1     -41.287 -49.502  11.716  1.00  0.00     0.037 A 
HETATM    9  C   UNL     1     -40.257 -48.527  11.969  1.00  0.00     0.020 A 
HETATM   10  C   UNL     1     -39.088 -48.910  12.490  1.00  0.00     0.094 A 
HETATM   11  N   UNL     1     -38.830 -50.239  12.767  1.00  0.00    -0.327 N 
HETATM   12  C   UNL     1     -37.550 -50.615  13.337  1.00  0.00     0.159 C 
HETATM   13  C   UNL     1     -39.748 -51.253  12.476  1.00  0.00     0.274 A 
HETATM   14  O   UNL     1     -39.526 -52.454  12.636  1.00  0.00    -0.266 OA
ENDBRANCH   1   7
BRANCH   4  15
HETATM   15  C   UNL     1     -44.362 -54.265  13.116  1.00  0.00     0.156 C 
BRANCH  15  16
HETATM   16  C   UNL     1     -45.686 -53.581  13.458  1.00  0.00     0.139 C 
HETATM   17  C   UNL     1     -46.061 -52.374  12.611  1.00  0.00     0.035 C 
HETATM   18  C   UNL     1     -46.796 -51.459  13.571  1.00  0.00     0.029 C 
HETATM   19  C   UNL     1     -46.743 -52.166  14.909  1.00  0.00     0.168 C 
HETATM   20  O   UNL     1     -45.666 -53.102  14.815  1.00  0.00    -0.384 OA
ENDBRANCH  15  16
ENDBRANCH   4  15
TORSDOF 3
ENDMDL
MODEL 9
REMARK VINA RESULT:      -5.5      2.987      4.915
REMARK  3 active torsions:
REMARK  status: ('A' for Active; 'I' for Inactive)
REMARK    1  A    between atoms: C_6  and  N_7 
REMARK       I    between atoms: N_7  and  C_8 
REMARK       I    between atoms: C_8  and  N_10 
REMARK    2  A    between atoms: N_10  and  C_11 
REMARK    3  A    between atoms: C_11  and  C_12 
ROOT
HETATM    1  N   UNL     1     -42.132 -52.412  11.790  1.00  0.00    -0.304 N 
HETATM    2  C   UNL     1     -41.614 -51.174  12.077  1.00  0.00     0.320 C 
HETATM    3  O   UNL     1     -41.741 -50.582  13.147  1.00  0.00    -0.247 OA
HETATM    4  N   UNL     1     -40.893 -50.646  11.036  1.00  0.00    -0.340 N 
HETATM    5  H   UNL     1     -41.678 -52.941  11.055  1.00  0.00     0.171 HD
HETATM    6  H   UNL     1     -41.106 -50.944  10.094  1.00  0.00     0.164 HD
ENDROOT
BRANCH   1   7
HETATM    7  C   UNL     1     -42.976 -53.151  12.600  1.00  0.00     0.105 A 
HETATM    8  C   UNL     1     -44.303 -53.254  12.437  1.00  0.00     0.037 A 
HETATM    9  C   UNL     1     -45.114 -54.069  13.306  1.00  0.00     0.020 A 
HETATM   10  C   UNL     1     -44.542 -54.789  14.274  1.00  0.00     0.094 A 
HETATM   11  N   UNL     1     -43.176 -54.747  14.484  1.00  0.00    -0.327 N 
HETATM   12  C   UNL     1     -42.590 -55.546  15.543  1.00  0.00     0.159 C 
HETATM   13  C   UNL     1     -42.332 -53.920  13.735  1.00  0.00     0.274 A 
HETATM   14  O   UNL     1     -41.124 -53.796  13.942  1.00  0.00    -0.266 OA
ENDBRANCH   1   7
BRANCH   4  15
HETATM   15  C   UNL     1     -40.177 -49.388  11.185  1.00  0.00     0.156 C 
BRANCH  15  16
HETATM   16  C   UNL     1     -41.089 -48.163  11.264  1.00  0.00     0.139 C 
HETATM   17  C   UNL     1     -42.117 -48.014  10.153  1.00  0.00     0.035 C 
HETATM   18  C   UNL     1     -42.236 -46.515   9.953  1.00  0.00     0.029 C 
HETATM   19  C   UNL     1     -41.233 -45.909  10.912  1.00  0.00     0.168 C 
HETATM   20  O   UNL     1     -40.309 -46.954  11.225  1.00  0.00    -0.384 OA
ENDBRANCH  15  16
ENDBRANCH   4  15
TORSDOF 3
ENDMDL
