MODEL 1
REMARK VINA RESULT:      -6.9      0.000      0.000
REMARK  6 active torsions:
REMARK  status: ('A' for Active; 'I' for Inactive)
REMARK    1  A    between atoms: O_1  and  C_2 
REMARK    2  A    between atoms: C_2  and  C_3 
REMARK    3  A    between atoms: N_12  and  C_13 
REMARK    4  A    between atoms: C_13  and  C_14 
REMARK    5  A    between atoms: C_14  and  O_15 
REMARK    6  A    between atoms: C_14  and  C_16 
ROOT
HETATM    1  C   UNL     1     -39.055 -49.745  12.040  1.00  0.00     0.108 A 
HETATM    2  N   UNL     1     -39.179 -48.604  11.388  1.00  0.00    -0.342 N 
ATOM      3  HN  UNL     1     -38.429 -48.050  10.974  1.00  0.00     0.167 HD
HETATM    4  C   UNL     1     -40.516 -48.314  11.381  1.00  0.00     0.060 A 
HETATM    5  C   UNL     1     -41.180 -47.212  10.821  1.00  0.00     0.032 A 
HETATM    6  C   UNL     1     -42.571 -47.125  10.943  1.00  0.00     0.002 A 
HETATM    7  C   UNL     1     -43.288 -48.125  11.601  1.00  0.00     0.002 A 
HETATM    8  C   UNL     1     -42.644 -49.243  12.149  1.00  0.00     0.032 A 
HETATM    9  C   UNL     1     -41.249 -49.306  12.029  1.00  0.00     0.062 A 
HETATM   10  N   UNL     1     -40.294 -50.218  12.435  1.00  0.00    -0.330 N 
ENDROOT
BRANCH  10  11
HETATM   11  C   UNL     1     -40.560 -51.516  13.044  1.00  0.00     0.167 C 
BRANCH  11  12
HETATM   12  C   UNL     1     -41.334 -52.493  12.141  1.00  0.00     0.172 C 
BRANCH  12  13
HETATM   13  O   UNL     1     -40.454 -53.458  11.548  1.00  0.00    -0.389 OA
HETATM   14  H   UNL     1     -40.490 -53.351  10.583  1.00  0.00     0.210 HD
ENDBRANCH  12  13
BRANCH  12  15
HETATM   15  C   UNL     1     -42.469 -53.281  12.779  1.00  0.00     0.011 A 
HETATM   16  C   UNL     1     -43.781 -53.057  12.311  1.00  0.00     0.016 A 
HETATM   17  C   UNL     1     -44.873 -53.729  12.867  1.00  0.00     0.043 A 
HETATM   18  C   UNL     1     -44.665 -54.627  13.904  1.00  0.00     0.119 A 
HETATM   19  F   UNL     1     -45.711 -55.267  14.442  1.00  0.00    -0.206 F 
HETATM   20  C   UNL     1     -43.390 -54.871  14.388  1.00  0.00     0.085 A 
HETATM   21  C   UNL     1     -42.305 -54.202  13.822  1.00  0.00     0.128 A 
HETATM   22  F   UNL     1     -41.089 -54.478  14.312  1.00  0.00    -0.205 F 
ENDBRANCH  12  15
ENDBRANCH  11  12
ENDBRANCH  10  11
BRANCH   1  23
HETATM   23  C   UNL     1     -37.762 -50.447  12.273  1.00  0.00     0.240 C 
BRANCH  23  24
HETATM   24  O   UNL     1     -37.454 -51.208  11.113  1.00  0.00    -0.393 OA
HETATM   25  H   UNL     1     -37.413 -52.137  11.396  1.00  0.00     0.209 HD
ENDBRANCH  23  24
ENDBRANCH   1  23
TORSDOF 6
ENDMDL
MODEL 2
REMARK VINA RESULT:      -6.6      3.108      5.820
REMARK  6 active torsions:
REMARK  status: ('A' for Active; 'I' for Inactive)
REMARK    1  A    between atoms: O_1  and  C_2 
REMARK    2  A    between atoms: C_2  and  C_3 
REMARK    3  A    between atoms: N_12  and  C_13 
REMARK    4  A    between atoms: C_13  and  C_14 
REMARK    5  A    between atoms: C_14  and  O_15 
REMARK    6  A    between atoms: C_14  and  C_16 
ROOT
HETATM    1  C   UNL     1     -42.234 -53.364  12.932  1.00  0.00     0.108 A 
HETATM    2  N   UNL     1     -43.338 -53.554  12.233  1.00  0.00    -0.342 N 
ATOM      3  HN  UNL     1     -43.444 -54.130  11.399  1.00  0.00     0.167 HD
HETATM    4  C   UNL     1     -44.312 -52.820  12.856  1.00  0.00     0.060 A 
HETATM    5  C   UNL     1     -45.664 -52.675  12.513  1.00  0.00     0.032 A 
HETATM    6  C   UNL     1     -46.480 -51.858  13.305  1.00  0.00     0.002 A 
HETATM    7  C   UNL     1     -45.958 -51.208  14.423  1.00  0.00     0.002 A 
HETATM    8  C   UNL     1     -44.614 -51.358  14.791  1.00  0.00     0.032 A 
HETATM    9  C   UNL     1     -43.809 -52.169  13.979  1.00  0.00     0.062 A 
HETATM   10  N   UNL     1     -42.479 -52.539  14.016  1.00  0.00    -0.330 N 
ENDROOT
BRANCH  10  11
HETATM   11  C   UNL     1     -41.537 -52.230  15.085  1.00  0.00     0.167 C 
BRANCH  11  12
HETATM   12  C   UNL     1     -40.867 -50.849  14.960  1.00  0.00     0.172 C 
BRANCH  12  13
HETATM   13  O   UNL     1     -40.149 -50.513  16.156  1.00  0.00    -0.389 OA
HETATM   14  H   UNL     1     -40.155 -51.286  16.742  1.00  0.00     0.210 HD
ENDBRANCH  12  13
BRANCH  12  15
HETATM   15  C   UNL     1     -39.898 -50.648  13.805  1.00  0.00     0.011 A 
HETATM   16  C   UNL     1     -38.549 -51.011  13.997  1.00  0.00     0.016 A 
HETATM   17  C   UNL     1     -37.599 -50.833  12.987  1.00  0.00     0.043 A 
HETATM   18  C   UNL     1     -37.989 -50.281  11.775  1.00  0.00     0.119 A 
HETATM   19  F   UNL     1     -37.079 -50.104  10.808  1.00  0.00    -0.206 F 
HETATM   20  C   UNL     1     -39.306 -49.913  11.552  1.00  0.00     0.085 A 
HETATM   21  C   UNL     1     -40.248 -50.102  12.562  1.00  0.00     0.128 A 
HETATM   22  F   UNL     1     -41.512 -49.744  12.300  1.00  0.00    -0.205 F 
ENDBRANCH  12  15
ENDBRANCH  11  12
ENDBRANCH  10  11
BRANCH   1  23
HETATM   23  C   UNL     1     -40.921 -53.992  12.620  1.00  0.00     0.240 C 
BRANCH  23  24
HETATM   24  O   UNL     1     -40.454 -53.458  11.388  1.00  0.00    -0.393 OA
HETATM   25  H   UNL     1     -39.483 -53.471  11.432  1.00  0.00     0.209 HD
ENDBRANCH  23  24
ENDBRANCH   1  23
TORSDOF 6
ENDMDL
MODEL 3
REMARK VINA RESULT:      -6.6      2.760      5.841
REMARK  6 active torsions:
REMARK  status: ('A' for Active; 'I' for Inactive)
REMARK    1  A    between atoms: O_1  and  C_2 
REMARK    2  A    between atoms: C_2  and  C_3 
REMARK    3  A    between atoms: N_12  and  C_13 
REMARK    4  A    between atoms: C_13  and  C_14 
REMARK    5  A    between atoms: C_14  and  O_15 
REMARK    6  A    between atoms: C_14  and  C_16 
ROOT
HETATM    1  C   UNL     1     -40.759 -54.164  14.041  1.00  0.00     0.108 A 
HETATM    2  N   UNL     1     -41.589 -54.715  14.908  1.00  0.00    -0.342 N 
ATOM      3  HN  UNL     1     -41.343 -55.182  15.781  1.00  0.00     0.167 HD
HETATM    4  C   UNL     1     -42.845 -54.532  14.398  1.00  0.00     0.060 A 
HETATM    5  C   UNL     1     -44.081 -54.932  14.927  1.00  0.00     0.032 A 
HETATM    6  C   UNL     1     -45.251 -54.636  14.217  1.00  0.00     0.002 A 
HETATM    7  C   UNL     1     -45.188 -53.943  13.008  1.00  0.00     0.002 A 
HETATM    8  C   UNL     1     -43.963 -53.519  12.474  1.00  0.00     0.032 A 
HETATM    9  C   UNL     1     -42.802 -53.836  13.192  1.00  0.00     0.062 A 
HETATM   10  N   UNL     1     -41.457 -53.601  12.988  1.00  0.00    -0.330 N 
ENDROOT
BRANCH  10  11
HETATM   11  C   UNL     1     -40.886 -52.783  11.924  1.00  0.00     0.167 C 
BRANCH  11  12
HETATM   12  C   UNL     1     -40.401 -51.396  12.383  1.00  0.00     0.172 C 
BRANCH  12  13
HETATM   13  O   UNL     1     -39.093 -51.110  11.870  1.00  0.00    -0.389 OA
HETATM   14  H   UNL     1     -39.009 -51.528  10.998  1.00  0.00     0.210 HD
ENDBRANCH  12  13
BRANCH  12  15
HETATM   15  C   UNL     1     -41.274 -50.201  12.029  1.00  0.00     0.011 A 
HETATM   16  C   UNL     1     -40.862 -49.368  10.967  1.00  0.00     0.016 A 
HETATM   17  C   UNL     1     -41.603 -48.240  10.601  1.00  0.00     0.043 A 
HETATM   18  C   UNL     1     -42.761 -47.930  11.300  1.00  0.00     0.119 A 
HETATM   19  F   UNL     1     -43.469 -46.846  10.955  1.00  0.00    -0.206 F 
HETATM   20  C   UNL     1     -43.195 -48.726  12.348  1.00  0.00     0.085 A 
HETATM   21  C   UNL     1     -42.454 -49.853  12.700  1.00  0.00     0.128 A 
HETATM   22  F   UNL     1     -42.916 -50.602  13.710  1.00  0.00    -0.205 F 
ENDBRANCH  12  15
ENDBRANCH  11  12
ENDBRANCH  10  11
BRANCH   1  23
HETATM   23  C   UNL     1     -39.279 -54.115  14.206  1.00  0.00     0.240 C 
BRANCH  23  24
HETATM   24  O   UNL     1     -38.704 -55.091  13.347  1.00  0.00    -0.393 OA
HETATM   25  H   UNL     1     -39.244 -55.098  12.538  1.00  0.00     0.209 HD
ENDBRANCH  23  24
ENDBRANCH   1  23
TORSDOF 6
ENDMDL
MODEL 4
REMARK VINA RESULT:      -6.4      3.369      5.854
REMARK  6 active torsions:
REMARK  status: ('A' for Active; 'I' for Inactive)
REMARK    1  A    between atoms: O_1  and  C_2 
REMARK    2  A    between atoms: C_2  and  C_3 
REMARK    3  A    between atoms: N_12  and  C_13 
REMARK    4  A    between atoms: C_13  and  C_14 
REMARK    5  A    between atoms: C_14  and  O_15 
REMARK    6  A    between atoms: C_14  and  C_16 
ROOT
HETATM    1  C   UNL     1     -42.268 -52.754  12.590  1.00  0.00     0.108 A 
HETATM    2  N   UNL     1     -43.515 -52.867  12.170  1.00  0.00    -0.342 N 
ATOM      3  HN  UNL     1     -43.866 -52.672  11.233  1.00  0.00     0.167 HD
HETATM    4  C   UNL     1     -44.240 -53.297  13.248  1.00  0.00     0.060 A 
HETATM    5  C   UNL     1     -45.613 -53.569  13.339  1.00  0.00     0.032 A 
HETATM    6  C   UNL     1     -46.140 -53.999  14.562  1.00  0.00     0.002 A 
HETATM    7  C   UNL     1     -45.310 -54.164  15.671  1.00  0.00     0.002 A 
HETATM    8  C   UNL     1     -43.933 -53.915  15.594  1.00  0.00     0.032 A 
HETATM    9  C   UNL     1     -43.425 -53.473  14.364  1.00  0.00     0.062 A 
HETATM   10  N   UNL     1     -42.164 -53.130  13.918  1.00  0.00    -0.330 N 
ENDROOT
BRANCH  10  11
HETATM   11  C   UNL     1     -40.924 -53.274  14.671  1.00  0.00     0.167 C 
BRANCH  11  12
HETATM   12  C   UNL     1     -40.180 -54.598  14.418  1.00  0.00     0.172 C 
BRANCH  12  13
HETATM   13  O   UNL     1     -39.041 -54.398  13.570  1.00  0.00    -0.389 OA
HETATM   14  H   UNL     1     -39.209 -53.620  13.013  1.00  0.00     0.210 HD
ENDBRANCH  12  13
BRANCH  12  15
HETATM   15  C   UNL     1     -39.680 -55.360  15.637  1.00  0.00     0.011 A 
HETATM   16  C   UNL     1     -38.304 -55.302  15.940  1.00  0.00     0.016 A 
HETATM   17  C   UNL     1     -37.772 -55.994  17.031  1.00  0.00     0.043 A 
HETATM   18  C   UNL     1     -38.612 -56.760  17.827  1.00  0.00     0.119 A 
HETATM   19  F   UNL     1     -38.103 -57.429  18.870  1.00  0.00    -0.206 F 
HETATM   20  C   UNL     1     -39.969 -56.839  17.559  1.00  0.00     0.085 A 
HETATM   21  C   UNL     1     -40.492 -56.139  16.473  1.00  0.00     0.128 A 
HETATM   22  F   UNL     1     -41.811 -56.233  16.258  1.00  0.00    -0.205 F 
ENDBRANCH  12  15
ENDBRANCH  11  12
ENDBRANCH  10  11
BRANCH   1  23
HETATM   23  C   UNL     1     -41.126 -52.327  11.734  1.00  0.00     0.240 C 
BRANCH  23  24
HETATM   24  O   UNL     1     -40.533 -53.490  11.172  1.00  0.00    -0.393 OA
HETATM   25  H   UNL     1     -41.221 -53.917  10.632  1.00  0.00     0.209 HD
ENDBRANCH  23  24
ENDBRANCH   1  23
TORSDOF 6
ENDMDL
MODEL 5
REMARK VINA RESULT:      -6.2      2.781      4.669
REMARK  6 active torsions:
REMARK  status: ('A' for Active; 'I' for Inactive)
REMARK    1  A    between atoms: O_1  and  C_2 
REMARK    2  A    between atoms: C_2  and  C_3 
REMARK    3  A    between atoms: N_12  and  C_13 
REMARK    4  A    between atoms: C_13  and  C_14 
REMARK    5  A    between atoms: C_14  and  O_15 
REMARK    6  A    between atoms: C_14  and  C_16 
ROOT
HETATM    1  C   UNL     1     -39.737 -51.708  13.348  1.00  0.00     0.108 A 
HETATM    2  N   UNL     1     -38.792 -52.557  13.707  1.00  0.00    -0.342 N 
ATOM      3  HN  UNL     1     -37.810 -52.535  13.429  1.00  0.00     0.167 HD
HETATM    4  C   UNL     1     -39.395 -53.472  14.527  1.00  0.00     0.060 A 
HETATM    5  C   UNL     1     -38.836 -54.583  15.174  1.00  0.00     0.032 A 
HETATM    6  C   UNL     1     -39.659 -55.390  15.969  1.00  0.00     0.002 A 
HETATM    7  C   UNL     1     -41.011 -55.085  16.124  1.00  0.00     0.002 A 
HETATM    8  C   UNL     1     -41.582 -53.967  15.501  1.00  0.00     0.032 A 
HETATM    9  C   UNL     1     -40.746 -53.179  14.698  1.00  0.00     0.062 A 
HETATM   10  N   UNL     1     -40.942 -52.040  13.942  1.00  0.00    -0.330 N 
ENDROOT
BRANCH  10  11
HETATM   11  C   UNL     1     -42.165 -51.248  13.895  1.00  0.00     0.167 C 
BRANCH  11  12
HETATM   12  C   UNL     1     -43.209 -51.755  12.883  1.00  0.00     0.172 C 
BRANCH  12  13
HETATM   13  O   UNL     1     -42.582 -52.464  11.805  1.00  0.00    -0.389 OA
HETATM   14  H   UNL     1     -42.672 -51.934  10.997  1.00  0.00     0.210 HD
ENDBRANCH  12  13
BRANCH  12  15
HETATM   15  C   UNL     1     -44.309 -52.662  13.413  1.00  0.00     0.011 A 
HETATM   16  C   UNL     1     -44.204 -54.048  13.172  1.00  0.00     0.016 A 
HETATM   17  C   UNL     1     -45.188 -54.937  13.611  1.00  0.00     0.043 A 
HETATM   18  C   UNL     1     -46.295 -54.447  14.289  1.00  0.00     0.119 A 
HETATM   19  F   UNL     1     -47.243 -55.298  14.706  1.00  0.00    -0.206 F 
HETATM   20  C   UNL     1     -46.431 -53.092  14.544  1.00  0.00     0.085 A 
HETATM   21  C   UNL     1     -45.440 -52.214  14.109  1.00  0.00     0.128 A 
HETATM   22  F   UNL     1     -45.605 -50.914  14.388  1.00  0.00    -0.205 F 
ENDBRANCH  12  15
ENDBRANCH  11  12
ENDBRANCH  10  11
BRANCH   1  23
HETATM   23  C   UNL     1     -39.520 -50.530  12.463  1.00  0.00     0.240 C 
BRANCH  23  24
HETATM   24  O   UNL     1     -40.091 -50.816  11.194  1.00  0.00    -0.393 OA
HETATM   25  H   UNL     1     -41.056 -50.790  11.313  1.00  0.00     0.209 HD
ENDBRANCH  23  24
ENDBRANCH   1  23
TORSDOF 6
ENDMDL
MODEL 6
REMARK VINA RESULT:      -6.2      3.647      6.728
REMARK  6 active torsions:
REMARK  status: ('A' for Active; 'I' for Inactive)
REMARK    1  A    between atoms: O_1  and  C_2 
REMARK    2  A    between atoms: C_2  and  C_3 
REMARK    3  A    between atoms: N_12  and  C_13 
REMARK    4  A    between atoms: C_13  and  C_14 
REMARK    5  A    between atoms: C_14  and  O_15 
REMARK    6  A    between atoms: C_14  and  C_16 
ROOT
HETATM    1  C   UNL     1     -42.360 -52.087  12.350  1.00  0.00     0.108 A 
HETATM    2  N   UNL     1     -43.224 -53.061  12.132  1.00  0.00    -0.342 N 
ATOM      3  HN  UNL     1     -43.081 -53.891  11.557  1.00  0.00     0.167 HD
HETATM    4  C   UNL     1     -44.351 -52.731  12.835  1.00  0.00     0.060 A 
HETATM    5  C   UNL     1     -45.565 -53.427  12.938  1.00  0.00     0.032 A 
HETATM    6  C   UNL     1     -46.592 -52.887  13.721  1.00  0.00     0.002 A 
HETATM    7  C   UNL     1     -46.407 -51.681  14.396  1.00  0.00     0.002 A 
HETATM    8  C   UNL     1     -45.195 -50.981  14.320  1.00  0.00     0.032 A 
HETATM    9  C   UNL     1     -44.182 -51.531  13.521  1.00  0.00     0.062 A 
HETATM   10  N   UNL     1     -42.896 -51.140  13.205  1.00  0.00    -0.330 N 
ENDROOT
BRANCH  10  11
HETATM   11  C   UNL     1     -42.182 -50.008  13.782  1.00  0.00     0.167 C 
BRANCH  11  12
HETATM   12  C   UNL     1     -42.749 -48.632  13.385  1.00  0.00     0.172 C 
BRANCH  12  13
HETATM   13  O   UNL     1     -42.994 -47.820  14.542  1.00  0.00    -0.389 OA
HETATM   14  H   UNL     1     -43.233 -46.928  14.243  1.00  0.00     0.210 HD
ENDBRANCH  12  13
BRANCH  12  15
HETATM   15  C   UNL     1     -41.916 -47.786  12.433  1.00  0.00     0.011 A 
HETATM   16  C   UNL     1     -40.527 -47.698  12.661  1.00  0.00     0.016 A 
HETATM   17  C   UNL     1     -39.705 -46.921  11.840  1.00  0.00     0.043 A 
HETATM   18  C   UNL     1     -40.267 -46.215  10.786  1.00  0.00     0.119 A 
HETATM   19  F   UNL     1     -39.482 -45.465  10.001  1.00  0.00    -0.206 F 
HETATM   20  C   UNL     1     -41.628 -46.279  10.532  1.00  0.00     0.085 A 
HETATM   21  C   UNL     1     -42.439 -47.063  11.352  1.00  0.00     0.128 A 
HETATM   22  F   UNL     1     -43.746 -47.106  11.064  1.00  0.00    -0.205 F 
ENDBRANCH  12  15
ENDBRANCH  11  12
ENDBRANCH  10  11
BRANCH   1  23
HETATM   23  C   UNL     1     -40.981 -52.043  11.788  1.00  0.00     0.240 C 
BRANCH  23  24
HETATM   24  O   UNL     1     -40.661 -53.338  11.295  1.00  0.00    -0.393 OA
HETATM   25  H   UNL     1     -41.153 -53.446  10.464  1.00  0.00     0.209 HD
ENDBRANCH  23  24
ENDBRANCH   1  23
TORSDOF 6
ENDMDL
MODEL 7
REMARK VINA RESULT:      -6.1      3.349      6.197
REMARK  6 active torsions:
REMARK  status: ('A' for Active; 'I' for Inactive)
REMARK    1  A    between atoms: O_1  and  C_2 
REMARK    2  A    between atoms: C_2  and  C_3 
REMARK    3  A    between atoms: N_12  and  C_13 
REMARK    4  A    between atoms: C_13  and  C_14 
REMARK    5  A    between atoms: C_14  and  O_15 
REMARK    6  A    between atoms: C_14  and  C_16 
ROOT
HETATM    1  C   UNL     1     -42.186 -53.314  13.133  1.00  0.00     0.108 A 
HETATM    2  N   UNL     1     -43.260 -54.079  13.083  1.00  0.00    -0.342 N 
ATOM      3  HN  UNL     1     -43.299 -55.066  12.828  1.00  0.00     0.167 HD
HETATM    4  C   UNL     1     -44.312 -53.280  13.443  1.00  0.00     0.060 A 
HETATM    5  C   UNL     1     -45.673 -53.603  13.546  1.00  0.00     0.032 A 
HETATM    6  C   UNL     1     -46.578 -52.608  13.932  1.00  0.00     0.002 A 
HETATM    7  C   UNL     1     -46.131 -51.318  14.220  1.00  0.00     0.002 A 
HETATM    8  C   UNL     1     -44.773 -50.983  14.142  1.00  0.00     0.032 A 
HETATM    9  C   UNL     1     -43.883 -51.989  13.741  1.00  0.00     0.062 A 
HETATM   10  N   UNL     1     -42.516 -52.036  13.546  1.00  0.00    -0.330 N 
ENDROOT
BRANCH  10  11
HETATM   11  C   UNL     1     -41.574 -50.967  13.857  1.00  0.00     0.167 C 
BRANCH  11  12
HETATM   12  C   UNL     1     -41.133 -50.136  12.639  1.00  0.00     0.172 C 
BRANCH  12  13
HETATM   13  O   UNL     1     -41.713 -50.644  11.429  1.00  0.00    -0.389 OA
HETATM   14  H   UNL     1     -41.632 -49.963  10.742  1.00  0.00     0.210 HD
ENDBRANCH  12  13
BRANCH  12  15
HETATM   15  C   UNL     1     -41.434 -48.645  12.667  1.00  0.00     0.011 A 
HETATM   16  C   UNL     1     -42.775 -48.240  12.833  1.00  0.00     0.016 A 
HETATM   17  C   UNL     1     -43.127 -46.887  12.847  1.00  0.00     0.043 A 
HETATM   18  C   UNL     1     -42.141 -45.925  12.686  1.00  0.00     0.119 A 
HETATM   19  F   UNL     1     -42.477 -44.628  12.692  1.00  0.00    -0.206 F 
HETATM   20  C   UNL     1     -40.814 -46.287  12.520  1.00  0.00     0.085 A 
HETATM   21  C   UNL     1     -40.471 -47.638  12.516  1.00  0.00     0.128 A 
HETATM   22  F   UNL     1     -39.175 -47.944  12.367  1.00  0.00    -0.205 F 
ENDBRANCH  12  15
ENDBRANCH  11  12
ENDBRANCH  10  11
BRANCH   1  23
HETATM   23  C   UNL     1     -40.804 -53.782  12.833  1.00  0.00     0.240 C 
BRANCH  23  24
HETATM   24  O   UNL     1     -40.496 -53.426  11.492  1.00  0.00    -0.393 OA
HETATM   25  H   UNL     1     -40.875 -52.542  11.347  1.00  0.00     0.209 HD
ENDBRANCH  23  24
ENDBRANCH   1  23
TORSDOF 6
ENDMDL
MODEL 8
REMARK VINA RESULT:      -6.1      3.116      4.752
REMARK  6 active torsions:
REMARK  status: ('A' for Active; 'I' for Inactive)
REMARK    1  A    between atoms: O_1  and  C_2 
REMARK    2  A    between atoms: C_2  and  C_3 
REMARK    3  A    between atoms: N_12  and  C_13 
REMARK    4  A    between atoms: C_13  and  C_14 
REMARK    5  A    between atoms: C_14  and  O_15 
REMARK    6  A    between atoms: C_14  and  C_16 
ROOT
HETATM    1  C   UNL     1     -42.338 -50.965  15.152  1.00  0.00     0.108 A 
HETATM    2  N   UNL     1     -43.371 -50.699  15.931  1.00  0.00    -0.342 N 
ATOM      3  HN  UNL     1     -43.346 -50.305  16.871  1.00  0.00     0.167 HD
HETATM    4  C   UNL     1     -44.484 -51.061  15.220  1.00  0.00     0.060 A 
HETATM    5  C   UNL     1     -45.834 -50.988  15.593  1.00  0.00     0.032 A 
HETATM    6  C   UNL     1     -46.811 -51.426  14.692  1.00  0.00     0.002 A 
HETATM    7  C   UNL     1     -46.448 -51.918  13.438  1.00  0.00     0.002 A 
HETATM    8  C   UNL     1     -45.105 -51.980  13.041  1.00  0.00     0.032 A 
HETATM    9  C   UNL     1     -44.140 -51.549  13.962  1.00  0.00     0.062 A 
HETATM   10  N   UNL     1     -42.761 -51.470  13.936  1.00  0.00    -0.330 N 
ENDROOT
BRANCH  10  11
HETATM   11  C   UNL     1     -41.914 -51.735  12.779  1.00  0.00     0.167 C 
BRANCH  11  12
HETATM   12  C   UNL     1     -41.557 -53.220  12.583  1.00  0.00     0.172 C 
BRANCH  12  13
HETATM   13  O   UNL     1     -40.609 -53.388  11.520  1.00  0.00    -0.389 OA
HETATM   14  H   UNL     1     -39.830 -53.846  11.874  1.00  0.00     0.210 HD
ENDBRANCH  12  13
BRANCH  12  15
HETATM   15  C   UNL     1     -40.993 -53.965  13.784  1.00  0.00     0.011 A 
HETATM   16  C   UNL     1     -39.591 -54.029  13.930  1.00  0.00     0.016 A 
HETATM   17  C   UNL     1     -39.003 -54.714  14.996  1.00  0.00     0.043 A 
HETATM   18  C   UNL     1     -39.814 -55.352  15.925  1.00  0.00     0.119 A 
HETATM   19  F   UNL     1     -39.252 -56.015  16.945  1.00  0.00    -0.206 F 
HETATM   20  C   UNL     1     -41.194 -55.309  15.814  1.00  0.00     0.085 A 
HETATM   21  C   UNL     1     -41.771 -54.616  14.751  1.00  0.00     0.128 A 
HETATM   22  F   UNL     1     -43.109 -54.589  14.688  1.00  0.00    -0.205 F 
ENDBRANCH  12  15
ENDBRANCH  11  12
ENDBRANCH  10  11
BRANCH   1  23
HETATM   23  C   UNL     1     -40.918 -50.709  15.521  1.00  0.00     0.240 C 
BRANCH  23  24
HETATM   24  O   UNL     1     -40.524 -51.686  16.475  1.00  0.00    -0.393 OA
HETATM   25  H   UNL     1     -41.119 -51.583  17.238  1.00  0.00     0.209 HD
ENDBRANCH  23  24
ENDBRANCH   1  23
TORSDOF 6
ENDMDL
MODEL 9
REMARK VINA RESULT:      -6.0      2.826      3.437
REMARK  6 active torsions:
REMARK  status: ('A' for Active; 'I' for Inactive)
REMARK    1  A    between atoms: O_1  and  C_2 
REMARK    2  A    between atoms: C_2  and  C_3 
REMARK    3  A    between atoms: N_12  and  C_13 
REMARK    4  A    between atoms: C_13  and  C_14 
REMARK    5  A    between atoms: C_14  and  O_15 
REMARK    6  A    between atoms: C_14  and  C_16 
ROOT
HETATM    1  C   UNL     1     -40.594 -49.909  12.000  1.00  0.00     0.108 A 
HETATM    2  N   UNL     1     -40.172 -48.999  11.141  1.00  0.00    -0.342 N 
ATOM      3  HN  UNL     1     -39.471 -49.124  10.411  1.00  0.00     0.167 HD
HETATM    4  C   UNL     1     -40.866 -47.855  11.428  1.00  0.00     0.060 A 
HETATM    5  C   UNL     1     -40.791 -46.597  10.814  1.00  0.00     0.032 A 
HETATM    6  C   UNL     1     -41.604 -45.561  11.287  1.00  0.00     0.002 A 
HETATM    7  C   UNL     1     -42.484 -45.781  12.348  1.00  0.00     0.002 A 
HETATM    8  C   UNL     1     -42.586 -47.037  12.961  1.00  0.00     0.032 A 
HETATM    9  C   UNL     1     -41.755 -48.058  12.482  1.00  0.00     0.062 A 
HETATM   10  N   UNL     1     -41.571 -49.383  12.826  1.00  0.00    -0.330 N 
ENDROOT
BRANCH  10  11
HETATM   11  C   UNL     1     -42.367 -50.131  13.792  1.00  0.00     0.167 C 
BRANCH  11  12
HETATM   12  C   UNL     1     -43.697 -50.671  13.235  1.00  0.00     0.172 C 
BRANCH  12  13
HETATM   13  O   UNL     1     -43.503 -51.916  12.550  1.00  0.00    -0.389 OA
HETATM   14  H   UNL     1     -42.920 -51.758  11.790  1.00  0.00     0.210 HD
ENDBRANCH  12  13
BRANCH  12  15
HETATM   15  C   UNL     1     -44.827 -50.897  14.228  1.00  0.00     0.011 A 
HETATM   16  C   UNL     1     -44.552 -50.723  15.601  1.00  0.00     0.016 A 
HETATM   17  C   UNL     1     -45.537 -50.935  16.570  1.00  0.00     0.043 A 
HETATM   18  C   UNL     1     -46.806 -51.333  16.176  1.00  0.00     0.119 A 
HETATM   19  F   UNL     1     -47.749 -51.543  17.104  1.00  0.00    -0.206 F 
HETATM   20  C   UNL     1     -47.111 -51.513  14.836  1.00  0.00     0.085 A 
HETATM   21  C   UNL     1     -46.125 -51.291  13.876  1.00  0.00     0.128 A 
HETATM   22  F   UNL     1     -46.466 -51.465  12.592  1.00  0.00    -0.205 F 
ENDBRANCH  12  15
ENDBRANCH  11  12
ENDBRANCH  10  11
BRANCH   1  23
HETATM   23  C   UNL     1     -40.114 -51.318  12.038  1.00  0.00     0.240 C 
BRANCH  23  24
HETATM   24  O   UNL     1     -40.961 -52.099  11.205  1.00  0.00    -0.393 OA
HETATM   25  H   UNL     1     -41.832 -51.665  11.214  1.00  0.00     0.209 HD
ENDBRANCH  23  24
ENDBRANCH   1  23
TORSDOF 6
ENDMDL
