MODEL 1
REMARK VINA RESULT:      -6.5      0.000      0.000
REMARK  8 active torsions:
REMARK  status: ('A' for Active; 'I' for Inactive)
REMARK    1  A    between atoms: N_2  and  C_10 
REMARK    2  A    between atoms: C_4  and  N_5 
REMARK    3  A    between atoms: C_9  and  C_21 
REMARK    4  A    between atoms: C_16  and  C_25 
REMARK    5  A    between atoms: C_16  and  C_26 
REMARK    6  A    between atoms: C_21  and  C_29 
REMARK    7  A    between atoms: C_25  and  O_27 
REMARK    8  A    between atoms: C_26  and  O_28 
ROOT
HETATM    1  C   UNL     1     -41.697 -48.967  12.350  1.00  0.00     0.122 A 
HETATM    2  N   UNL     1     -42.859 -50.740  12.905  1.00  0.00    -0.322 N 
HETATM    3  C   UNL     1     -41.723 -50.354  12.239  1.00  0.00     0.140 A 
HETATM    4  C   UNL     1     -40.604 -48.267  11.757  1.00  0.00     0.136 A 
HETATM    5  N   UNL     1     -42.780 -48.522  13.092  1.00  0.00    -0.346 N 
ATOM      6  HN  UNL     1     -43.011 -47.559  13.336  1.00  0.00     0.167 HD
HETATM    7  C   UNL     1     -43.444 -49.608  13.412  1.00  0.00     0.185 A 
HETATM    8  N   UNL     1     -40.819 -51.131  11.618  1.00  0.00    -0.336 N 
ATOM      9  HN  UNL     1     -40.879 -52.147  11.551  1.00  0.00     0.168 HD
HETATM   10  N   UNL     1     -39.665 -49.046  11.141  1.00  0.00    -0.337 N 
ATOM     11  HN  UNL     1     -38.845 -48.617  10.715  1.00  0.00     0.168 HD
HETATM   12  C   UNL     1     -39.824 -50.388  11.098  1.00  0.00     0.183 A 
ENDROOT
BRANCH   4  13
HETATM   13  N   UNL     1     -40.405 -46.885  11.818  1.00  0.00    -0.350 N 
HETATM   14  C   UNL     1     -40.865 -46.051  10.666  1.00  0.00     0.178 C 
HETATM   15  C   UNL     1     -40.097 -44.705  10.659  1.00  0.00     0.240 C 
HETATM   16  O   UNL     1     -39.771 -44.113   9.630  1.00  0.00    -0.271 OA
HETATM   17  N   UNL     1     -39.913 -44.088  11.879  1.00  0.00    -0.358 N 
HETATM   18  C   UNL     1     -39.667 -44.887  13.066  1.00  0.00     0.142 C 
HETATM   19  H   UNL     1     -39.406 -43.215  11.792  1.00  0.00     0.162 HD
HETATM   20  C   UNL     1     -40.431 -46.222  13.127  1.00  0.00     0.145 C 
BRANCH  14  21
HETATM   21  C   UNL     1     -42.382 -45.746  10.747  1.00  0.00     0.039 C 
BRANCH  21  22
HETATM   22  C   UNL     1     -43.228 -46.263   9.560  1.00  0.00    -0.020 C 
HETATM   23  C   UNL     1     -44.005 -47.537   9.886  1.00  0.00     0.009 C 
HETATM   24  C   UNL     1     -44.203 -45.174   9.101  1.00  0.00     0.009 C 
ENDBRANCH  21  22
ENDBRANCH  14  21
ENDBRANCH   4  13
BRANCH   2  25
HETATM   25  C   UNL     1     -43.439 -52.036  13.141  1.00  0.00     0.094 C 
HETATM   26  C   UNL     1     -44.994 -52.053  13.261  1.00  0.00     0.039 C 
HETATM   27  C   UNL     1     -44.821 -53.272  14.239  1.00  0.00     0.006 C 
HETATM   28  C   UNL     1     -43.451 -52.581  14.597  1.00  0.00     0.039 C 
BRANCH  27  29
HETATM   29  C   UNL     1     -45.870 -53.319  15.350  1.00  0.00     0.175 C 
BRANCH  29  30
HETATM   30  O   UNL     1     -45.692 -54.487  16.147  1.00  0.00    -0.400 OA
HETATM   31  H   UNL     1     -45.614 -54.191  17.078  1.00  0.00     0.209 HD
ENDBRANCH  29  30
ENDBRANCH  27  29
BRANCH  27  32
HETATM   32  C   UNL     1     -44.748 -54.627  13.508  1.00  0.00     0.175 C 
BRANCH  32  33
HETATM   33  O   UNL     1     -46.010 -55.284  13.581  1.00  0.00    -0.400 OA
HETATM   34  H   UNL     1     -45.911 -56.042  14.186  1.00  0.00     0.209 HD
ENDBRANCH  32  33
ENDBRANCH  27  32
ENDBRANCH   2  25
TORSDOF 8
ENDMDL
MODEL 2
REMARK VINA RESULT:      -6.4      2.340      8.128
REMARK  8 active torsions:
REMARK  status: ('A' for Active; 'I' for Inactive)
REMARK    1  A    between atoms: N_2  and  C_10 
REMARK    2  A    between atoms: C_4  and  N_5 
REMARK    3  A    between atoms: C_9  and  C_21 
REMARK    4  A    between atoms: C_16  and  C_25 
REMARK    5  A    between atoms: C_16  and  C_26 
REMARK    6  A    between atoms: C_21  and  C_29 
REMARK    7  A    between atoms: C_25  and  O_27 
REMARK    8  A    between atoms: C_26  and  O_28 
ROOT
HETATM    1  C   UNL     1     -42.000 -51.325  13.850  1.00  0.00     0.122 A 
HETATM    2  N   UNL     1     -42.096 -49.362  12.881  1.00  0.00    -0.322 N 
HETATM    3  C   UNL     1     -41.714 -50.661  12.660  1.00  0.00     0.140 A 
HETATM    4  C   UNL     1     -41.721 -52.722  13.923  1.00  0.00     0.136 A 
HETATM    5  N   UNL     1     -42.568 -50.451  14.764  1.00  0.00    -0.346 N 
ATOM      6  HN  UNL     1     -42.881 -50.662  15.712  1.00  0.00     0.167 HD
HETATM    7  C   UNL     1     -42.617 -49.294  14.147  1.00  0.00     0.185 A 
HETATM    8  N   UNL     1     -41.188 -51.196  11.545  1.00  0.00    -0.336 N 
ATOM      9  HN  UNL     1     -40.985 -50.673  10.693  1.00  0.00     0.168 HD
HETATM   10  N   UNL     1     -41.206 -53.283  12.789  1.00  0.00    -0.337 N 
ATOM     11  HN  UNL     1     -41.002 -54.282  12.760  1.00  0.00     0.168 HD
HETATM   12  C   UNL     1     -40.966 -52.514  11.703  1.00  0.00     0.183 A 
ENDROOT
BRANCH   4  13
HETATM   13  N   UNL     1     -41.990 -53.540  15.024  1.00  0.00    -0.350 N 
HETATM   14  C   UNL     1     -43.415 -53.853  15.344  1.00  0.00     0.178 C 
HETATM   15  C   UNL     1     -43.536 -54.273  16.830  1.00  0.00     0.240 C 
HETATM   16  O   UNL     1     -44.509 -54.006  17.536  1.00  0.00    -0.271 OA
HETATM   17  N   UNL     1     -42.557 -55.113  17.319  1.00  0.00    -0.358 N 
HETATM   18  C   UNL     1     -41.185 -54.969  16.869  1.00  0.00     0.142 C 
HETATM   19  H   UNL     1     -42.706 -55.343  18.295  1.00  0.00     0.162 HD
HETATM   20  C   UNL     1     -41.018 -54.578  15.390  1.00  0.00     0.145 C 
BRANCH  14  21
HETATM   21  C   UNL     1     -43.960 -55.008  14.466  1.00  0.00     0.039 C 
BRANCH  21  22
HETATM   22  C   UNL     1     -45.281 -54.708  13.718  1.00  0.00    -0.020 C 
HETATM   23  C   UNL     1     -46.489 -54.610  14.648  1.00  0.00     0.009 C 
HETATM   24  C   UNL     1     -45.146 -53.408  12.919  1.00  0.00     0.009 C 
ENDBRANCH  21  22
ENDBRANCH  14  21
ENDBRANCH   4  13
BRANCH   2  25
HETATM   25  C   UNL     1     -42.053 -48.194  12.040  1.00  0.00     0.094 C 
HETATM   26  C   UNL     1     -43.401 -47.831  11.344  1.00  0.00     0.039 C 
HETATM   27  C   UNL     1     -42.539 -47.243  10.169  1.00  0.00     0.006 C 
HETATM   28  C   UNL     1     -41.500 -48.349  10.596  1.00  0.00     0.039 C 
BRANCH  27  29
HETATM   29  C   UNL     1     -43.184 -47.413   8.792  1.00  0.00     0.175 C 
BRANCH  29  30
HETATM   30  O   UNL     1     -42.964 -46.250   7.998  1.00  0.00    -0.400 OA
HETATM   31  H   UNL     1     -43.691 -46.208   7.343  1.00  0.00     0.209 HD
ENDBRANCH  29  30
ENDBRANCH  27  29
BRANCH  27  32
HETATM   32  C   UNL     1     -42.127 -45.776  10.395  1.00  0.00     0.175 C 
BRANCH  32  33
HETATM   33  O   UNL     1     -40.956 -45.481   9.639  1.00  0.00    -0.400 OA
HETATM   34  H   UNL     1     -40.913 -46.120   8.903  1.00  0.00     0.209 HD
ENDBRANCH  32  33
ENDBRANCH  27  32
ENDBRANCH   2  25
TORSDOF 8
ENDMDL
MODEL 3
REMARK VINA RESULT:      -6.3      1.830      8.294
REMARK  8 active torsions:
REMARK  status: ('A' for Active; 'I' for Inactive)
REMARK    1  A    between atoms: N_2  and  C_10 
REMARK    2  A    between atoms: C_4  and  N_5 
REMARK    3  A    between atoms: C_9  and  C_21 
REMARK    4  A    between atoms: C_16  and  C_25 
REMARK    5  A    between atoms: C_16  and  C_26 
REMARK    6  A    between atoms: C_21  and  C_29 
REMARK    7  A    between atoms: C_25  and  O_27 
REMARK    8  A    between atoms: C_26  and  O_28 
ROOT
HETATM    1  C   UNL     1     -42.371 -50.509  12.674  1.00  0.00     0.122 A 
HETATM    2  N   UNL     1     -41.668 -48.616  11.823  1.00  0.00    -0.322 N 
HETATM    3  C   UNL     1     -41.218 -49.806  12.339  1.00  0.00     0.140 A 
HETATM    4  C   UNL     1     -42.222 -51.815  13.231  1.00  0.00     0.136 A 
HETATM    5  N   UNL     1     -43.498 -49.773  12.343  1.00  0.00    -0.346 N 
ATOM      6  HN  UNL     1     -44.474 -50.042  12.470  1.00  0.00     0.167 HD
HETATM    7  C   UNL     1     -43.038 -48.655  11.831  1.00  0.00     0.185 A 
HETATM    8  N   UNL     1     -39.948 -50.220  12.487  1.00  0.00    -0.336 N 
ATOM      9  HN  UNL     1     -39.127 -49.670  12.236  1.00  0.00     0.168 HD
HETATM   10  N   UNL     1     -40.937 -52.258  13.367  1.00  0.00    -0.337 N 
ATOM     11  HN  UNL     1     -40.755 -53.190  13.737  1.00  0.00     0.168 HD
HETATM   12  C   UNL     1     -39.906 -51.460  13.010  1.00  0.00     0.183 A 
ENDROOT
BRANCH   4  13
HETATM   13  N   UNL     1     -43.275 -52.666  13.577  1.00  0.00    -0.350 N 
HETATM   14  C   UNL     1     -43.868 -52.543  14.943  1.00  0.00     0.178 C 
HETATM   15  C   UNL     1     -44.589 -53.862  15.320  1.00  0.00     0.240 C 
HETATM   16  O   UNL     1     -44.625 -54.314  16.464  1.00  0.00    -0.271 OA
HETATM   17  N   UNL     1     -45.342 -54.461  14.332  1.00  0.00    -0.358 N 
HETATM   18  C   UNL     1     -44.895 -54.421  12.952  1.00  0.00     0.142 C 
HETATM   19  H   UNL     1     -45.782 -55.315  14.655  1.00  0.00     0.162 HD
HETATM   20  C   UNL     1     -44.197 -53.117  12.527  1.00  0.00     0.145 C 
BRANCH  14  21
HETATM   21  C   UNL     1     -44.897 -51.387  15.020  1.00  0.00     0.039 C 
BRANCH  21  22
HETATM   22  C   UNL     1     -45.705 -51.302  16.336  1.00  0.00    -0.020 C 
HETATM   23  C   UNL     1     -45.387 -50.052  17.156  1.00  0.00     0.009 C 
HETATM   24  C   UNL     1     -47.206 -51.344  16.031  1.00  0.00     0.009 C 
ENDBRANCH  21  22
ENDBRANCH  14  21
ENDBRANCH   4  13
BRANCH   2  25
HETATM   25  C   UNL     1     -40.968 -47.470  11.305  1.00  0.00     0.094 C 
HETATM   26  C   UNL     1     -40.904 -46.243  12.266  1.00  0.00     0.039 C 
HETATM   27  C   UNL     1     -40.890 -45.342  10.978  1.00  0.00     0.006 C 
HETATM   28  C   UNL     1     -41.732 -46.514  10.346  1.00  0.00     0.039 C 
BRANCH  27  29
HETATM   29  C   UNL     1     -41.613 -44.006  11.158  1.00  0.00     0.175 C 
BRANCH  29  30
HETATM   30  O   UNL     1     -40.828 -42.944  10.620  1.00  0.00    -0.400 OA
HETATM   31  H   UNL     1     -40.001 -42.904  11.144  1.00  0.00     0.209 HD
ENDBRANCH  29  30
ENDBRANCH  27  29
BRANCH  27  32
HETATM   32  C   UNL     1     -39.474 -45.117  10.412  1.00  0.00     0.175 C 
BRANCH  32  33
HETATM   33  O   UNL     1     -39.558 -44.722   9.046  1.00  0.00    -0.400 OA
HETATM   34  H   UNL     1     -40.187 -43.979   8.994  1.00  0.00     0.209 HD
ENDBRANCH  32  33
ENDBRANCH  27  32
ENDBRANCH   2  25
TORSDOF 8
ENDMDL
MODEL 4
REMARK VINA RESULT:      -6.3      2.067      8.225
REMARK  8 active torsions:
REMARK  status: ('A' for Active; 'I' for Inactive)
REMARK    1  A    between atoms: N_2  and  C_10 
REMARK    2  A    between atoms: C_4  and  N_5 
REMARK    3  A    between atoms: C_9  and  C_21 
REMARK    4  A    between atoms: C_16  and  C_25 
REMARK    5  A    between atoms: C_16  and  C_26 
REMARK    6  A    between atoms: C_21  and  C_29 
REMARK    7  A    between atoms: C_25  and  O_27 
REMARK    8  A    between atoms: C_26  and  O_28 
ROOT
HETATM    1  C   UNL     1     -42.916 -49.630  13.691  1.00  0.00     0.122 A 
HETATM    2  N   UNL     1     -42.833 -47.635  12.787  1.00  0.00    -0.322 N 
HETATM    3  C   UNL     1     -42.872 -48.274  14.001  1.00  0.00     0.140 A 
HETATM    4  C   UNL     1     -42.948 -50.565  14.769  1.00  0.00     0.136 A 
HETATM    5  N   UNL     1     -42.877 -49.811  12.317  1.00  0.00    -0.346 N 
ATOM      6  HN  UNL     1     -42.891 -50.695  11.807  1.00  0.00     0.167 HD
HETATM    7  C   UNL     1     -42.819 -48.600  11.813  1.00  0.00     0.185 A 
HETATM    8  N   UNL     1     -42.861 -47.727  15.229  1.00  0.00    -0.336 N 
ATOM      9  HN  UNL     1     -42.837 -46.725  15.415  1.00  0.00     0.168 HD
HETATM   10  N   UNL     1     -42.915 -50.023  16.023  1.00  0.00    -0.337 N 
ATOM     11  HN  UNL     1     -42.913 -50.631  16.841  1.00  0.00     0.168 HD
HETATM   12  C   UNL     1     -42.885 -48.681  16.179  1.00  0.00     0.183 A 
ENDROOT
BRANCH   4  13
HETATM   13  N   UNL     1     -42.948 -51.955  14.628  1.00  0.00    -0.350 N 
HETATM   14  C   UNL     1     -44.262 -52.665  14.593  1.00  0.00     0.178 C 
HETATM   15  C   UNL     1     -44.062 -54.151  14.982  1.00  0.00     0.240 C 
HETATM   16  O   UNL     1     -44.889 -54.805  15.618  1.00  0.00    -0.271 OA
HETATM   17  N   UNL     1     -42.961 -54.789  14.451  1.00  0.00    -0.358 N 
HETATM   18  C   UNL     1     -41.714 -54.065  14.279  1.00  0.00     0.142 C 
HETATM   19  H   UNL     1     -42.900 -55.756  14.750  1.00  0.00     0.162 HD
HETATM   20  C   UNL     1     -41.866 -52.590  13.865  1.00  0.00     0.145 C 
BRANCH  14  21
HETATM   21  C   UNL     1     -44.905 -52.613  13.184  1.00  0.00     0.039 C 
BRANCH  21  22
HETATM   22  C   UNL     1     -46.010 -51.547  12.996  1.00  0.00    -0.020 C 
HETATM   23  C   UNL     1     -46.957 -51.862  11.840  1.00  0.00     0.009 C 
HETATM   24  C   UNL     1     -46.817 -51.398  14.290  1.00  0.00     0.009 C 
ENDBRANCH  21  22
ENDBRANCH  14  21
ENDBRANCH   4  13
BRANCH   2  25
HETATM   25  C   UNL     1     -42.781 -46.239  12.439  1.00  0.00     0.094 C 
HETATM   26  C   UNL     1     -42.349 -45.939  10.971  1.00  0.00     0.039 C 
HETATM   27  C   UNL     1     -41.730 -44.601  11.515  1.00  0.00     0.006 C 
HETATM   28  C   UNL     1     -41.516 -45.429  12.839  1.00  0.00     0.039 C 
BRANCH  27  29
HETATM   29  C   UNL     1     -40.466 -44.165  10.773  1.00  0.00     0.175 C 
BRANCH  29  30
HETATM   30  O   UNL     1     -40.517 -42.769  10.489  1.00  0.00    -0.400 OA
HETATM   31  H   UNL     1     -40.447 -42.299  11.346  1.00  0.00     0.209 HD
ENDBRANCH  29  30
ENDBRANCH  27  29
BRANCH  27  32
HETATM   32  C   UNL     1     -42.747 -43.444  11.574  1.00  0.00     0.175 C 
BRANCH  32  33
HETATM   33  O   UNL     1     -43.369 -43.283  10.303  1.00  0.00    -0.400 OA
HETATM   34  H   UNL     1     -44.183 -43.819  10.304  1.00  0.00     0.209 HD
ENDBRANCH  32  33
ENDBRANCH  27  32
ENDBRANCH   2  25
TORSDOF 8
ENDMDL
MODEL 5
REMARK VINA RESULT:      -6.2      1.908      8.650
REMARK  8 active torsions:
REMARK  status: ('A' for Active; 'I' for Inactive)
REMARK    1  A    between atoms: N_2  and  C_10 
REMARK    2  A    between atoms: C_4  and  N_5 
REMARK    3  A    between atoms: C_9  and  C_21 
REMARK    4  A    between atoms: C_16  and  C_25 
REMARK    5  A    between atoms: C_16  and  C_26 
REMARK    6  A    between atoms: C_21  and  C_29 
REMARK    7  A    between atoms: C_25  and  O_27 
REMARK    8  A    between atoms: C_26  and  O_28 
ROOT
HETATM    1  C   UNL     1     -42.897 -50.503  12.694  1.00  0.00     0.122 A 
HETATM    2  N   UNL     1     -41.933 -48.665  11.990  1.00  0.00    -0.322 N 
HETATM    3  C   UNL     1     -41.807 -50.031  11.968  1.00  0.00     0.140 A 
HETATM    4  C   UNL     1     -43.048 -51.915  12.836  1.00  0.00     0.136 A 
HETATM    5  N   UNL     1     -43.683 -49.446  13.124  1.00  0.00    -0.346 N 
ATOM      6  HN  UNL     1     -44.544 -49.494  13.670  1.00  0.00     0.167 HD
HETATM    7  C   UNL     1     -43.082 -48.368  12.677  1.00  0.00     0.185 A 
HETATM    8  N   UNL     1     -40.853 -50.769  11.374  1.00  0.00    -0.336 N 
ATOM      9  HN  UNL     1     -40.063 -50.384  10.857  1.00  0.00     0.168 HD
HETATM   10  N   UNL     1     -42.097 -52.678  12.219  1.00  0.00    -0.337 N 
ATOM     11  HN  UNL     1     -42.154 -53.695  12.259  1.00  0.00     0.168 HD
HETATM   12  C   UNL     1     -41.081 -52.083  11.554  1.00  0.00     0.183 A 
ENDROOT
BRANCH   4  13
HETATM   13  N   UNL     1     -44.107 -52.549  13.492  1.00  0.00    -0.350 N 
HETATM   14  C   UNL     1     -43.932 -53.973  13.910  1.00  0.00     0.178 C 
HETATM   15  C   UNL     1     -45.320 -54.635  14.097  1.00  0.00     0.240 C 
HETATM   16  O   UNL     1     -45.552 -55.815  13.833  1.00  0.00    -0.271 OA
HETATM   17  N   UNL     1     -46.287 -53.883  14.731  1.00  0.00    -0.358 N 
HETATM   18  C   UNL     1     -46.356 -52.450  14.505  1.00  0.00     0.142 C 
HETATM   19  H   UNL     1     -47.164 -54.384  14.816  1.00  0.00     0.162 HD
HETATM   20  C   UNL     1     -44.997 -51.747  14.340  1.00  0.00     0.145 C 
BRANCH  14  21
HETATM   21  C   UNL     1     -43.154 -54.088  15.245  1.00  0.00     0.039 C 
BRANCH  21  22
HETATM   22  C   UNL     1     -41.914 -55.012  15.215  1.00  0.00    -0.020 C 
HETATM   23  C   UNL     1     -40.601 -54.249  15.049  1.00  0.00     0.009 C 
HETATM   24  C   UNL     1     -41.858 -55.852  16.495  1.00  0.00     0.009 C 
ENDBRANCH  21  22
ENDBRANCH  14  21
ENDBRANCH   4  13
BRANCH   2  25
HETATM   25  C   UNL     1     -41.124 -47.618  11.423  1.00  0.00     0.094 C 
HETATM   26  C   UNL     1     -40.977 -46.343  12.309  1.00  0.00     0.039 C 
HETATM   27  C   UNL     1     -40.853 -45.529  10.970  1.00  0.00     0.006 C 
HETATM   28  C   UNL     1     -41.780 -46.663  10.386  1.00  0.00     0.039 C 
BRANCH  27  29
HETATM   29  C   UNL     1     -41.461 -44.127  11.047  1.00  0.00     0.175 C 
BRANCH  29  30
HETATM   30  O   UNL     1     -40.490 -43.149  10.686  1.00  0.00    -0.400 OA
HETATM   31  H   UNL     1     -39.978 -43.515   9.935  1.00  0.00     0.209 HD
ENDBRANCH  29  30
ENDBRANCH  27  29
BRANCH  27  32
HETATM   32  C   UNL     1     -39.411 -45.463  10.432  1.00  0.00     0.175 C 
BRANCH  32  33
HETATM   33  O   UNL     1     -39.419 -45.008   9.083  1.00  0.00    -0.400 OA
HETATM   34  H   UNL     1     -38.888 -44.191   9.045  1.00  0.00     0.209 HD
ENDBRANCH  32  33
ENDBRANCH  27  32
ENDBRANCH   2  25
TORSDOF 8
ENDMDL
MODEL 6
REMARK VINA RESULT:      -5.9      2.739      8.472
REMARK  8 active torsions:
REMARK  status: ('A' for Active; 'I' for Inactive)
REMARK    1  A    between atoms: N_2  and  C_10 
REMARK    2  A    between atoms: C_4  and  N_5 
REMARK    3  A    between atoms: C_9  and  C_21 
REMARK    4  A    between atoms: C_16  and  C_25 
REMARK    5  A    between atoms: C_16  and  C_26 
REMARK    6  A    between atoms: C_21  and  C_29 
REMARK    7  A    between atoms: C_25  and  O_27 
REMARK    8  A    between atoms: C_26  and  O_28 
ROOT
HETATM    1  C   UNL     1     -43.320 -51.196  14.221  1.00  0.00     0.122 A 
HETATM    2  N   UNL     1     -43.060 -49.456  12.915  1.00  0.00    -0.322 N 
HETATM    3  C   UNL     1     -43.912 -50.501  13.171  1.00  0.00     0.140 A 
HETATM    4  C   UNL     1     -43.994 -52.348  14.728  1.00  0.00     0.136 A 
HETATM    5  N   UNL     1     -42.147 -50.570  14.613  1.00  0.00    -0.346 N 
ATOM      6  HN  UNL     1     -41.512 -50.854  15.359  1.00  0.00     0.167 HD
HETATM    7  C   UNL     1     -42.031 -49.532  13.818  1.00  0.00     0.185 A 
HETATM    8  N   UNL     1     -45.071 -50.798  12.558  1.00  0.00    -0.336 N 
ATOM      9  HN  UNL     1     -45.468 -50.266  11.783  1.00  0.00     0.168 HD
HETATM   10  N   UNL     1     -45.184 -52.649  14.128  1.00  0.00    -0.337 N 
ATOM     11  HN  UNL     1     -45.732 -53.445  14.453  1.00  0.00     0.168 HD
HETATM   12  C   UNL     1     -45.636 -51.890  13.105  1.00  0.00     0.183 A 
ENDROOT
BRANCH   4  13
HETATM   13  N   UNL     1     -43.559 -53.126  15.803  1.00  0.00    -0.350 N 
HETATM   14  C   UNL     1     -42.559 -54.205  15.541  1.00  0.00     0.178 C 
HETATM   15  C   UNL     1     -42.623 -55.262  16.672  1.00  0.00     0.240 C 
HETATM   16  O   UNL     1     -42.440 -56.466  16.489  1.00  0.00    -0.271 OA
HETATM   17  N   UNL     1     -42.745 -54.786  17.961  1.00  0.00    -0.358 N 
HETATM   18  C   UNL     1     -43.550 -53.607  18.225  1.00  0.00     0.142 C 
HETATM   19  H   UNL     1     -42.779 -55.535  18.642  1.00  0.00     0.162 HD
HETATM   20  C   UNL     1     -43.495 -52.518  17.138  1.00  0.00     0.145 C 
BRANCH  14  21
HETATM   21  C   UNL     1     -41.115 -53.646  15.477  1.00  0.00     0.039 C 
BRANCH  21  22
HETATM   22  C   UNL     1     -40.425 -53.741  14.095  1.00  0.00    -0.020 C 
HETATM   23  C   UNL     1     -39.190 -54.640  14.101  1.00  0.00     0.009 C 
HETATM   24  C   UNL     1     -41.422 -54.248  13.048  1.00  0.00     0.009 C 
ENDBRANCH  21  22
ENDBRANCH  14  21
ENDBRANCH   4  13
BRANCH   2  25
HETATM   25  C   UNL     1     -43.113 -48.389  11.950  1.00  0.00     0.094 C 
HETATM   26  C   UNL     1     -41.867 -48.277  11.019  1.00  0.00     0.039 C 
HETATM   27  C   UNL     1     -42.148 -46.731  10.970  1.00  0.00     0.006 C 
HETATM   28  C   UNL     1     -42.731 -46.956  12.417  1.00  0.00     0.039 C 
BRANCH  27  29
HETATM   29  C   UNL     1     -40.880 -45.881  10.873  1.00  0.00     0.175 C 
BRANCH  29  30
HETATM   30  O   UNL     1     -40.740 -45.352   9.557  1.00  0.00    -0.400 OA
HETATM   31  H   UNL     1     -40.669 -44.379   9.645  1.00  0.00     0.209 HD
ENDBRANCH  29  30
ENDBRANCH  27  29
BRANCH  27  32
HETATM   32  C   UNL     1     -43.150 -46.332   9.869  1.00  0.00     0.175 C 
BRANCH  32  33
HETATM   33  O   UNL     1     -43.393 -44.930   9.922  1.00  0.00    -0.400 OA
HETATM   34  H   UNL     1     -43.291 -44.580   9.017  1.00  0.00     0.209 HD
ENDBRANCH  32  33
ENDBRANCH  27  32
ENDBRANCH   2  25
TORSDOF 8
ENDMDL
MODEL 7
REMARK VINA RESULT:      -5.9      1.882      3.188
REMARK  8 active torsions:
REMARK  status: ('A' for Active; 'I' for Inactive)
REMARK    1  A    between atoms: N_2  and  C_10 
REMARK    2  A    between atoms: C_4  and  N_5 
REMARK    3  A    between atoms: C_9  and  C_21 
REMARK    4  A    between atoms: C_16  and  C_25 
REMARK    5  A    between atoms: C_16  and  C_26 
REMARK    6  A    between atoms: C_21  and  C_29 
REMARK    7  A    between atoms: C_25  and  O_27 
REMARK    8  A    between atoms: C_26  and  O_28 
ROOT
HETATM    1  C   UNL     1     -41.805 -48.842  12.523  1.00  0.00     0.122 A 
HETATM    2  N   UNL     1     -42.908 -50.694  12.919  1.00  0.00    -0.322 N 
HETATM    3  C   UNL     1     -41.826 -50.203  12.232  1.00  0.00     0.140 A 
HETATM    4  C   UNL     1     -40.764 -48.050  11.953  1.00  0.00     0.136 A 
HETATM    5  N   UNL     1     -42.837 -48.519  13.391  1.00  0.00    -0.346 N 
ATOM      6  HN  UNL     1     -43.059 -47.601  13.776  1.00  0.00     0.167 HD
HETATM    7  C   UNL     1     -43.466 -49.650  13.610  1.00  0.00     0.185 A 
HETATM    8  N   UNL     1     -40.962 -50.875  11.452  1.00  0.00    -0.336 N 
ATOM      9  HN  UNL     1     -41.016 -51.874  11.256  1.00  0.00     0.168 HD
HETATM   10  N   UNL     1     -39.865 -48.724  11.176  1.00  0.00    -0.337 N 
ATOM     11  HN  UNL     1     -39.081 -48.227  10.753  1.00  0.00     0.168 HD
HETATM   12  C   UNL     1     -40.014 -50.051  10.967  1.00  0.00     0.183 A 
ENDROOT
BRANCH   4  13
HETATM   13  N   UNL     1     -40.575 -46.684  12.182  1.00  0.00    -0.350 N 
HETATM   14  C   UNL     1     -40.249 -46.236  13.569  1.00  0.00     0.178 C 
HETATM   15  C   UNL     1     -40.614 -44.739  13.733  1.00  0.00     0.240 C 
HETATM   16  O   UNL     1     -41.045 -44.254  14.779  1.00  0.00    -0.271 OA
HETATM   17  N   UNL     1     -40.292 -43.903  12.684  1.00  0.00    -0.358 N 
HETATM   18  C   UNL     1     -40.402 -44.378  11.316  1.00  0.00     0.142 C 
HETATM   19  H   UNL     1     -40.561 -42.943  12.867  1.00  0.00     0.162 HD
HETATM   20  C   UNL     1     -40.022 -45.855  11.104  1.00  0.00     0.145 C 
BRANCH  14  21
HETATM   21  C   UNL     1     -38.742 -46.407  13.889  1.00  0.00     0.039 C 
BRANCH  21  22
HETATM   22  C   UNL     1     -38.392 -47.579  14.836  1.00  0.00    -0.020 C 
HETATM   23  C   UNL     1     -39.615 -48.175  15.531  1.00  0.00     0.009 C 
HETATM   24  C   UNL     1     -37.661 -48.678  14.058  1.00  0.00     0.009 C 
ENDBRANCH  21  22
ENDBRANCH  14  21
ENDBRANCH   4  13
BRANCH   2  25
HETATM   25  C   UNL     1     -43.457 -52.021  13.022  1.00  0.00     0.094 C 
HETATM   26  C   UNL     1     -44.314 -52.285  14.298  1.00  0.00     0.039 C 
HETATM   27  C   UNL     1     -43.835 -53.779  14.208  1.00  0.00     0.006 C 
HETATM   28  C   UNL     1     -42.541 -53.155  13.561  1.00  0.00     0.039 C 
BRANCH  27  29
HETATM   29  C   UNL     1     -43.658 -54.449  15.571  1.00  0.00     0.175 C 
BRANCH  29  30
HETATM   30  O   UNL     1     -43.230 -55.799  15.406  1.00  0.00    -0.400 OA
HETATM   31  H   UNL     1     -43.703 -56.156  14.626  1.00  0.00     0.209 HD
ENDBRANCH  29  30
ENDBRANCH  27  29
BRANCH  27  32
HETATM   32  C   UNL     1     -44.724 -54.644  13.293  1.00  0.00     0.175 C 
BRANCH  32  33
HETATM   33  O   UNL     1     -45.589 -55.452  14.084  1.00  0.00    -0.400 OA
HETATM   34  H   UNL     1     -45.239 -55.452  14.995  1.00  0.00     0.209 HD
ENDBRANCH  32  33
ENDBRANCH  27  32
ENDBRANCH   2  25
TORSDOF 8
ENDMDL
MODEL 8
REMARK VINA RESULT:      -5.9      5.146      6.480
REMARK  8 active torsions:
REMARK  status: ('A' for Active; 'I' for Inactive)
REMARK    1  A    between atoms: N_2  and  C_10 
REMARK    2  A    between atoms: C_4  and  N_5 
REMARK    3  A    between atoms: C_9  and  C_21 
REMARK    4  A    between atoms: C_16  and  C_25 
REMARK    5  A    between atoms: C_16  and  C_26 
REMARK    6  A    between atoms: C_21  and  C_29 
REMARK    7  A    between atoms: C_25  and  O_27 
REMARK    8  A    between atoms: C_26  and  O_28 
ROOT
HETATM    1  C   UNL     1     -38.939 -48.983  13.360  1.00  0.00     0.122 A 
HETATM    2  N   UNL     1     -37.953 -49.771  15.152  1.00  0.00    -0.322 N 
HETATM    3  C   UNL     1     -38.004 -49.921  13.788  1.00  0.00     0.140 A 
HETATM    4  C   UNL     1     -39.203 -48.889  11.961  1.00  0.00     0.136 A 
HETATM    5  N   UNL     1     -39.424 -48.260  14.439  1.00  0.00    -0.346 N 
ATOM      6  HN  UNL     1     -40.113 -47.507  14.421  1.00  0.00     0.167 HD
HETATM    7  C   UNL     1     -38.806 -48.752  15.487  1.00  0.00     0.185 A 
HETATM    8  N   UNL     1     -37.307 -50.774  13.019  1.00  0.00    -0.336 N 
ATOM      9  HN  UNL     1     -36.635 -51.455  13.373  1.00  0.00     0.168 HD
HETATM   10  N   UNL     1     -38.484 -49.735  11.165  1.00  0.00    -0.337 N 
ATOM     11  HN  UNL     1     -38.604 -49.709  10.152  1.00  0.00     0.168 HD
HETATM   12  C   UNL     1     -37.614 -50.609  11.719  1.00  0.00     0.183 A 
ENDROOT
BRANCH   4  13
HETATM   13  N   UNL     1     -40.075 -47.973  11.366  1.00  0.00    -0.350 N 
HETATM   14  C   UNL     1     -41.491 -48.388  11.136  1.00  0.00     0.178 C 
HETATM   15  C   UNL     1     -42.118 -47.510  10.024  1.00  0.00     0.240 C 
HETATM   16  O   UNL     1     -42.942 -47.927   9.210  1.00  0.00    -0.271 OA
HETATM   17  N   UNL     1     -41.831 -46.161  10.063  1.00  0.00    -0.358 N 
HETATM   18  C   UNL     1     -40.517 -45.710  10.484  1.00  0.00     0.142 C 
HETATM   19  H   UNL     1     -42.277 -45.656   9.306  1.00  0.00     0.162 HD
HETATM   20  C   UNL     1     -39.869 -46.539  11.606  1.00  0.00     0.145 C 
BRANCH  14  21
HETATM   21  C   UNL     1     -42.350 -48.237  12.417  1.00  0.00     0.039 C 
BRANCH  21  22
HETATM   22  C   UNL     1     -42.939 -49.552  12.981  1.00  0.00    -0.020 C 
HETATM   23  C   UNL     1     -42.191 -50.797  12.508  1.00  0.00     0.009 C 
HETATM   24  C   UNL     1     -42.940 -49.508  14.513  1.00  0.00     0.009 C 
ENDBRANCH  21  22
ENDBRANCH  14  21
ENDBRANCH   4  13
BRANCH   2  25
HETATM   25  C   UNL     1     -37.183 -50.447  16.162  1.00  0.00     0.094 C 
HETATM   26  C   UNL     1     -37.362 -49.896  17.610  1.00  0.00     0.039 C 
HETATM   27  C   UNL     1     -35.878 -50.342  17.874  1.00  0.00     0.006 C 
HETATM   28  C   UNL     1     -35.690 -50.051  16.337  1.00  0.00     0.039 C 
BRANCH  27  29
HETATM   29  C   UNL     1     -35.125 -49.424  18.837  1.00  0.00     0.175 C 
BRANCH  29  30
HETATM   30  O   UNL     1     -33.900 -50.030  19.240  1.00  0.00    -0.400 OA
HETATM   31  H   UNL     1     -33.710 -49.717  20.149  1.00  0.00     0.209 HD
ENDBRANCH  29  30
ENDBRANCH  27  29
BRANCH  27  32
HETATM   32  C   UNL     1     -35.759 -51.811  18.325  1.00  0.00     0.175 C 
BRANCH  32  33
HETATM   33  O   UNL     1     -34.484 -52.327  17.956  1.00  0.00    -0.400 OA
HETATM   34  H   UNL     1     -33.843 -52.035  18.631  1.00  0.00     0.209 HD
ENDBRANCH  32  33
ENDBRANCH  27  32
ENDBRANCH   2  25
TORSDOF 8
ENDMDL
MODEL 9
REMARK VINA RESULT:      -5.7      4.195      8.536
REMARK  8 active torsions:
REMARK  status: ('A' for Active; 'I' for Inactive)
REMARK    1  A    between atoms: N_2  and  C_10 
REMARK    2  A    between atoms: C_4  and  N_5 
REMARK    3  A    between atoms: C_9  and  C_21 
REMARK    4  A    between atoms: C_16  and  C_25 
REMARK    5  A    between atoms: C_16  and  C_26 
REMARK    6  A    between atoms: C_21  and  C_29 
REMARK    7  A    between atoms: C_25  and  O_27 
REMARK    8  A    between atoms: C_26  and  O_28 
ROOT
HETATM    1  C   UNL     1     -42.024 -51.391  14.132  1.00  0.00     0.122 A 
HETATM    2  N   UNL     1     -40.293 -50.229  14.807  1.00  0.00    -0.322 N 
HETATM    3  C   UNL     1     -40.786 -50.906  13.720  1.00  0.00     0.140 A 
HETATM    4  C   UNL     1     -42.799 -52.138  13.195  1.00  0.00     0.136 A 
HETATM    5  N   UNL     1     -42.288 -50.993  15.433  1.00  0.00    -0.346 N 
ATOM      6  HN  UNL     1     -43.120 -51.197  15.988  1.00  0.00     0.167 HD
HETATM    7  C   UNL     1     -41.238 -50.295  15.797  1.00  0.00     0.185 A 
HETATM    8  N   UNL     1     -40.218 -51.068  12.512  1.00  0.00    -0.336 N 
ATOM      9  HN  UNL     1     -39.302 -50.704  12.251  1.00  0.00     0.168 HD
HETATM   10  N   UNL     1     -42.242 -52.292  11.956  1.00  0.00    -0.337 N 
ATOM     11  HN  UNL     1     -42.749 -52.795  11.228  1.00  0.00     0.168 HD
HETATM   12  C   UNL     1     -41.020 -51.775  11.695  1.00  0.00     0.183 A 
ENDROOT
BRANCH   4  13
HETATM   13  N   UNL     1     -44.076 -52.652  13.434  1.00  0.00    -0.350 N 
HETATM   14  C   UNL     1     -44.192 -53.951  14.165  1.00  0.00     0.178 C 
HETATM   15  C   UNL     1     -45.564 -54.602  13.855  1.00  0.00     0.240 C 
HETATM   16  O   UNL     1     -45.734 -55.817  13.760  1.00  0.00    -0.271 OA
HETATM   17  N   UNL     1     -46.659 -53.763  13.836  1.00  0.00    -0.358 N 
HETATM   18  C   UNL     1     -46.530 -52.413  13.318  1.00  0.00     0.142 C 
HETATM   19  H   UNL     1     -47.516 -54.262  13.629  1.00  0.00     0.162 HD
HETATM   20  C   UNL     1     -45.192 -51.718  13.626  1.00  0.00     0.145 C 
BRANCH  14  21
HETATM   21  C   UNL     1     -44.079 -53.759  15.698  1.00  0.00     0.039 C 
BRANCH  21  22
HETATM   22  C   UNL     1     -42.990 -54.608  16.396  1.00  0.00    -0.020 C 
HETATM   23  C   UNL     1     -41.798 -54.916  15.492  1.00  0.00     0.009 C 
HETATM   24  C   UNL     1     -42.502 -53.894  17.660  1.00  0.00     0.009 C 
ENDBRANCH  21  22
ENDBRANCH  14  21
ENDBRANCH   4  13
BRANCH   2  25
HETATM   25  C   UNL     1     -39.062 -49.512  15.011  1.00  0.00     0.094 C 
HETATM   26  C   UNL     1     -37.764 -50.346  14.780  1.00  0.00     0.039 C 
HETATM   27  C   UNL     1     -37.085 -49.435  15.867  1.00  0.00     0.006 C 
HETATM   28  C   UNL     1     -38.540 -49.348  16.467  1.00  0.00     0.039 C 
BRANCH  27  29
HETATM   29  C   UNL     1     -36.044 -50.167  16.715  1.00  0.00     0.175 C 
BRANCH  29  30
HETATM   30  O   UNL     1     -34.801 -50.233  16.020  1.00  0.00    -0.400 OA
HETATM   31  H   UNL     1     -34.866 -50.978  15.387  1.00  0.00     0.209 HD
ENDBRANCH  29  30
ENDBRANCH  27  29
BRANCH  27  32
HETATM   32  C   UNL     1     -36.493 -48.138  15.284  1.00  0.00     0.175 C 
BRANCH  32  33
HETATM   33  O   UNL     1     -35.489 -47.631  16.158  1.00  0.00    -0.400 OA
HETATM   34  H   UNL     1     -35.742 -47.875  17.068  1.00  0.00     0.209 HD
ENDBRANCH  32  33
ENDBRANCH  27  32
ENDBRANCH   2  25
TORSDOF 8
ENDMDL
