MODEL 1
REMARK VINA RESULT:      -6.1      0.000      0.000
REMARK  3 active torsions:
REMARK  status: ('A' for Active; 'I' for Inactive)
REMARK    1  A    between atoms: C_5  and  C_6 
REMARK    2  A    between atoms: C_6  and  N_7 
REMARK       I    between atoms: N_7  and  C_8 
REMARK       I    between atoms: C_8  and  N_10 
REMARK    3  A    between atoms: N_10  and  C_11 
ROOT
HETATM    1  N   UNL     1     -40.732 -49.370  10.527  1.00  0.00    -0.342 N 
HETATM    2  C   UNL     1     -41.788 -48.500  10.619  1.00  0.00     0.320 C 
HETATM    3  O   UNL     1     -42.148 -48.043  11.696  1.00  0.00    -0.247 OA
HETATM    4  N   UNL     1     -42.380 -48.255   9.400  1.00  0.00    -0.309 N 
HETATM    5  H   UNL     1     -40.336 -49.629   9.629  1.00  0.00     0.164 HD
HETATM    6  H   UNL     1     -42.203 -48.943   8.683  1.00  0.00     0.170 HD
ENDROOT
BRANCH   1   7
HETATM    7  C   UNL     1     -40.044 -49.819  11.720  1.00  0.00     0.130 C 
BRANCH   7   8
HETATM    8  C   UNL     1     -38.608 -49.301  11.861  1.00  0.00     0.033 C 
HETATM    9  C   UNL     1     -37.572 -50.361  11.484  1.00  0.00     0.038 C 
HETATM   10  C   UNL     1     -37.076 -50.938  12.809  1.00  0.00     0.272 C 
HETATM   11  N   UNL     1     -37.850 -50.254  13.855  1.00  0.00     0.084 N 
HETATM   12  C   UNL     1     -37.093 -50.111  15.093  1.00  0.00     0.309 C 
HETATM   13  C   UNL     1     -38.227 -48.950  13.294  1.00  0.00     0.278 C 
ENDBRANCH   7   8
ENDBRANCH   1   7
BRANCH   4  14
HETATM   14  C   UNL     1     -43.459 -47.361   9.202  1.00  0.00     0.038 A 
HETATM   15  C   UNL     1     -43.284 -45.981   9.120  1.00  0.00     0.046 A 
HETATM   16  C   UNL     1     -44.401 -45.175   8.993  1.00  0.00     0.090 A 
HETATM   17  N   UNL     1     -45.660 -45.647   8.919  1.00  0.00    -0.375 N 
HETATM   18  C   UNL     1     -45.803 -46.989   8.963  1.00  0.00     0.090 A 
ATOM     19  HN  UNL     1     -46.463 -45.024   8.833  1.00  0.00     0.164 HD
HETATM   20  C   UNL     1     -44.746 -47.878   9.088  1.00  0.00     0.046 A 
ENDBRANCH   4  14
TORSDOF 3
ENDMDL
MODEL 2
REMARK VINA RESULT:      -5.9      1.766      7.424
REMARK  3 active torsions:
REMARK  status: ('A' for Active; 'I' for Inactive)
REMARK    1  A    between atoms: C_5  and  C_6 
REMARK    2  A    between atoms: C_6  and  N_7 
REMARK       I    between atoms: N_7  and  C_8 
REMARK       I    between atoms: C_8  and  N_10 
REMARK    3  A    between atoms: N_10  and  C_11 
ROOT
HETATM    1  N   UNL     1     -41.734 -48.135   9.891  1.00  0.00    -0.342 N 
HETATM    2  C   UNL     1     -41.564 -48.906  11.012  1.00  0.00     0.320 C 
HETATM    3  O   UNL     1     -42.118 -48.628  12.069  1.00  0.00    -0.247 OA
HETATM    4  N   UNL     1     -40.699 -49.958  10.806  1.00  0.00    -0.309 N 
HETATM    5  H   UNL     1     -41.404 -48.444   8.982  1.00  0.00     0.164 HD
HETATM    6  H   UNL     1     -40.075 -49.862  10.019  1.00  0.00     0.170 HD
ENDROOT
BRANCH   1   7
HETATM    7  C   UNL     1     -42.536 -46.930   9.943  1.00  0.00     0.130 C 
BRANCH   7   8
HETATM    8  C   UNL     1     -43.298 -46.615   8.650  1.00  0.00     0.033 C 
HETATM    9  C   UNL     1     -44.410 -45.589   8.870  1.00  0.00     0.038 C 
HETATM   10  C   UNL     1     -45.701 -46.402   8.970  1.00  0.00     0.272 C 
HETATM   11  N   UNL     1     -45.295 -47.809   8.859  1.00  0.00     0.084 N 
HETATM   12  C   UNL     1     -46.324 -48.631   8.233  1.00  0.00     0.309 C 
HETATM   13  C   UNL     1     -44.049 -47.813   8.081  1.00  0.00     0.278 C 
ENDBRANCH   7   8
ENDBRANCH   1   7
BRANCH   4  14
HETATM   14  C   UNL     1     -40.383 -50.933  11.781  1.00  0.00     0.038 A 
HETATM   15  C   UNL     1     -39.308 -50.797  12.657  1.00  0.00     0.046 A 
HETATM   16  C   UNL     1     -39.029 -51.829  13.535  1.00  0.00     0.090 A 
HETATM   17  N   UNL     1     -39.755 -52.961  13.614  1.00  0.00    -0.375 N 
HETATM   18  C   UNL     1     -40.815 -53.056  12.782  1.00  0.00     0.090 A 
ATOM     19  HN  UNL     1     -39.518 -53.707  14.268  1.00  0.00     0.164 HD
HETATM   20  C   UNL     1     -41.174 -52.075  11.869  1.00  0.00     0.046 A 
ENDBRANCH   4  14
TORSDOF 3
ENDMDL
MODEL 3
REMARK VINA RESULT:      -5.7      2.896      3.450
REMARK  3 active torsions:
REMARK  status: ('A' for Active; 'I' for Inactive)
REMARK    1  A    between atoms: C_5  and  C_6 
REMARK    2  A    between atoms: C_6  and  N_7 
REMARK       I    between atoms: N_7  and  C_8 
REMARK       I    between atoms: C_8  and  N_10 
REMARK    3  A    between atoms: N_10  and  C_11 
ROOT
HETATM    1  N   UNL     1     -40.617 -50.391  11.085  1.00  0.00    -0.342 N 
HETATM    2  C   UNL     1     -41.459 -49.313  11.181  1.00  0.00     0.320 C 
HETATM    3  O   UNL     1     -42.055 -49.057  12.220  1.00  0.00    -0.247 OA
HETATM    4  N   UNL     1     -41.565 -48.616   9.998  1.00  0.00    -0.309 N 
HETATM    5  H   UNL     1     -40.009 -50.517  10.283  1.00  0.00     0.164 HD
HETATM    6  H   UNL     1     -41.300 -49.124   9.168  1.00  0.00     0.170 HD
ENDROOT
BRANCH   1   7
HETATM    7  C   UNL     1     -40.454 -51.297  12.203  1.00  0.00     0.130 C 
BRANCH   7   8
HETATM    8  C   UNL     1     -41.157 -52.649  12.037  1.00  0.00     0.033 C 
HETATM    9  C   UNL     1     -42.650 -52.567  12.360  1.00  0.00     0.038 C 
HETATM   10  C   UNL     1     -42.791 -53.113  13.781  1.00  0.00     0.272 C 
HETATM   11  N   UNL     1     -41.425 -53.428  14.223  1.00  0.00     0.084 N 
HETATM   12  C   UNL     1     -41.394 -54.547  15.158  1.00  0.00     0.309 C 
HETATM   13  C   UNL     1     -40.659 -53.716  13.003  1.00  0.00     0.278 C 
ENDBRANCH   7   8
ENDBRANCH   1   7
BRANCH   4  14
HETATM   14  C   UNL     1     -42.329 -47.437   9.833  1.00  0.00     0.038 A 
HETATM   15  C   UNL     1     -41.994 -46.233  10.449  1.00  0.00     0.046 A 
HETATM   16  C   UNL     1     -42.834 -45.145  10.287  1.00  0.00     0.090 A 
HETATM   17  N   UNL     1     -43.956 -45.171   9.543  1.00  0.00    -0.375 N 
HETATM   18  C   UNL     1     -44.242 -46.337   8.925  1.00  0.00     0.090 A 
ATOM     19  HN  UNL     1     -44.558 -44.353   9.450  1.00  0.00     0.164 HD
HETATM   20  C   UNL     1     -43.463 -47.480   9.026  1.00  0.00     0.046 A 
ENDBRANCH   4  14
TORSDOF 3
ENDMDL
MODEL 4
REMARK VINA RESULT:      -5.6      4.609      6.022
REMARK  3 active torsions:
REMARK  status: ('A' for Active; 'I' for Inactive)
REMARK    1  A    between atoms: C_5  and  C_6 
REMARK    2  A    between atoms: C_6  and  N_7 
REMARK       I    between atoms: N_7  and  C_8 
REMARK       I    between atoms: C_8  and  N_10 
REMARK    3  A    between atoms: N_10  and  C_11 
ROOT
HETATM    1  N   UNL     1     -41.334 -51.674  11.534  1.00  0.00    -0.342 N 
HETATM    2  C   UNL     1     -42.293 -51.980  12.464  1.00  0.00     0.320 C 
HETATM    3  O   UNL     1     -42.203 -51.598  13.625  1.00  0.00    -0.247 OA
HETATM    4  N   UNL     1     -43.300 -52.765  11.949  1.00  0.00    -0.309 N 
HETATM    5  H   UNL     1     -41.479 -51.855  10.546  1.00  0.00     0.164 HD
HETATM    6  H   UNL     1     -43.072 -53.269  11.106  1.00  0.00     0.170 HD
ENDROOT
BRANCH   1   7
HETATM    7  C   UNL     1     -40.149 -50.934  11.917  1.00  0.00     0.130 C 
BRANCH   7   8
HETATM    8  C   UNL     1     -39.982 -49.586  11.205  1.00  0.00     0.033 C 
HETATM    9  C   UNL     1     -39.147 -48.601  12.024  1.00  0.00     0.038 C 
HETATM   10  C   UNL     1     -40.157 -47.674  12.700  1.00  0.00     0.272 C 
HETATM   11  N   UNL     1     -41.481 -48.171  12.303  1.00  0.00     0.084 N 
HETATM   12  C   UNL     1     -42.469 -47.101  12.222  1.00  0.00     0.309 C 
HETATM   13  C   UNL     1     -41.294 -48.838  11.008  1.00  0.00     0.278 C 
ENDBRANCH   7   8
ENDBRANCH   1   7
BRANCH   4  14
HETATM   14  C   UNL     1     -44.437 -53.185  12.680  1.00  0.00     0.038 A 
HETATM   15  C   UNL     1     -45.531 -52.353  12.910  1.00  0.00     0.046 A 
HETATM   16  C   UNL     1     -46.572 -52.821  13.691  1.00  0.00     0.090 A 
HETATM   17  N   UNL     1     -46.607 -54.055  14.230  1.00  0.00    -0.375 N 
HETATM   18  C   UNL     1     -45.554 -54.858  13.963  1.00  0.00     0.090 A 
ATOM     19  HN  UNL     1     -47.387 -54.367  14.808  1.00  0.00     0.164 HD
HETATM   20  C   UNL     1     -44.465 -54.479  13.192  1.00  0.00     0.046 A 
ENDBRANCH   4  14
TORSDOF 3
ENDMDL
MODEL 5
REMARK VINA RESULT:      -5.5      3.995      5.771
REMARK  3 active torsions:
REMARK  status: ('A' for Active; 'I' for Inactive)
REMARK    1  A    between atoms: C_5  and  C_6 
REMARK    2  A    between atoms: C_6  and  N_7 
REMARK       I    between atoms: N_7  and  C_8 
REMARK       I    between atoms: C_8  and  N_10 
REMARK    3  A    between atoms: N_10  and  C_11 
ROOT
HETATM    1  N   UNL     1     -40.531 -51.022  11.275  1.00  0.00    -0.342 N 
HETATM    2  C   UNL     1     -41.473 -51.457  12.170  1.00  0.00     0.320 C 
HETATM    3  O   UNL     1     -42.022 -50.685  12.946  1.00  0.00    -0.247 OA
HETATM    4  N   UNL     1     -41.679 -52.817  12.105  1.00  0.00    -0.309 N 
HETATM    5  H   UNL     1     -40.188 -51.625  10.533  1.00  0.00     0.164 HD
HETATM    6  H   UNL     1     -40.936 -53.351  11.679  1.00  0.00     0.170 HD
ENDROOT
BRANCH   1   7
HETATM    7  C   UNL     1     -40.114 -49.635  11.262  1.00  0.00     0.130 C 
BRANCH   7   8
HETATM    8  C   UNL     1     -38.674 -49.397  11.732  1.00  0.00     0.033 C 
HETATM    9  C   UNL     1     -37.968 -50.699  12.112  1.00  0.00     0.038 C 
HETATM   10  C   UNL     1     -38.037 -50.771  13.638  1.00  0.00     0.272 C 
HETATM   11  N   UNL     1     -38.793 -49.582  14.057  1.00  0.00     0.084 N 
HETATM   12  C   UNL     1     -38.373 -49.098  15.367  1.00  0.00     0.309 C 
HETATM   13  C   UNL     1     -38.581 -48.575  13.011  1.00  0.00     0.278 C 
ENDBRANCH   7   8
ENDBRANCH   1   7
BRANCH   4  14
HETATM   14  C   UNL     1     -42.629 -53.519  12.885  1.00  0.00     0.038 A 
HETATM   15  C   UNL     1     -42.290 -54.183  14.062  1.00  0.00     0.046 A 
HETATM   16  C   UNL     1     -43.267 -54.901  14.727  1.00  0.00     0.090 A 
HETATM   17  N   UNL     1     -44.548 -54.979  14.316  1.00  0.00    -0.375 N 
HETATM   18  C   UNL     1     -44.862 -54.299  13.194  1.00  0.00     0.090 A 
ATOM     19  HN  UNL     1     -45.243 -55.524  14.826  1.00  0.00     0.164 HD
HETATM   20  C   UNL     1     -43.953 -53.551  12.459  1.00  0.00     0.046 A 
ENDBRANCH   4  14
TORSDOF 3
ENDMDL
MODEL 6
REMARK VINA RESULT:      -5.3      4.962      6.427
REMARK  3 active torsions:
REMARK  status: ('A' for Active; 'I' for Inactive)
REMARK    1  A    between atoms: C_5  and  C_6 
REMARK    2  A    between atoms: C_6  and  N_7 
REMARK       I    between atoms: N_7  and  C_8 
REMARK       I    between atoms: C_8  and  N_10 
REMARK    3  A    between atoms: N_10  and  C_11 
ROOT
HETATM    1  N   UNL     1     -43.973 -50.631  12.890  1.00  0.00    -0.342 N 
HETATM    2  C   UNL     1     -43.277 -49.455  12.788  1.00  0.00     0.320 C 
HETATM    3  O   UNL     1     -43.259 -48.641  13.703  1.00  0.00    -0.247 OA
HETATM    4  N   UNL     1     -42.663 -49.306  11.565  1.00  0.00    -0.309 N 
HETATM    5  H   UNL     1     -43.866 -51.371  12.202  1.00  0.00     0.164 HD
HETATM    6  H   UNL     1     -43.037 -49.872  10.817  1.00  0.00     0.170 HD
ENDROOT
BRANCH   1   7
HETATM    7  C   UNL     1     -44.761 -50.920  14.071  1.00  0.00     0.130 C 
BRANCH   7   8
HETATM    8  C   UNL     1     -46.060 -51.687  13.799  1.00  0.00     0.033 C 
HETATM    9  C   UNL     1     -46.769 -52.098  15.090  1.00  0.00     0.038 C 
HETATM   10  C   UNL     1     -46.408 -53.567  15.305  1.00  0.00     0.272 C 
HETATM   11  N   UNL     1     -45.501 -53.919  14.203  1.00  0.00     0.084 N 
HETATM   12  C   UNL     1     -45.621 -55.321  13.819  1.00  0.00     0.309 C 
HETATM   13  C   UNL     1     -45.842 -53.020  13.094  1.00  0.00     0.278 C 
ENDBRANCH   7   8
ENDBRANCH   1   7
BRANCH   4  14
HETATM   14  C   UNL     1     -41.843 -48.208  11.211  1.00  0.00     0.038 A 
HETATM   15  C   UNL     1     -42.323 -47.115  10.493  1.00  0.00     0.046 A 
HETATM   16  C   UNL     1     -41.438 -46.115  10.132  1.00  0.00     0.090 A 
HETATM   17  N   UNL     1     -40.130 -46.120  10.455  1.00  0.00    -0.375 N 
HETATM   18  C   UNL     1     -39.695 -47.171  11.182  1.00  0.00     0.090 A 
ATOM     19  HN  UNL     1     -39.502 -45.371  10.166  1.00  0.00     0.164 HD
HETATM   20  C   UNL     1     -40.505 -48.220  11.593  1.00  0.00     0.046 A 
ENDBRANCH   4  14
TORSDOF 3
ENDMDL
MODEL 7
REMARK VINA RESULT:      -5.3      4.804      6.763
REMARK  3 active torsions:
REMARK  status: ('A' for Active; 'I' for Inactive)
REMARK    1  A    between atoms: C_5  and  C_6 
REMARK    2  A    between atoms: C_6  and  N_7 
REMARK       I    between atoms: N_7  and  C_8 
REMARK       I    between atoms: C_8  and  N_10 
REMARK    3  A    between atoms: N_10  and  C_11 
ROOT
HETATM    1  N   UNL     1     -43.405 -49.314  12.181  1.00  0.00    -0.342 N 
HETATM    2  C   UNL     1     -43.736 -50.375  12.983  1.00  0.00     0.320 C 
HETATM    3  O   UNL     1     -43.020 -50.722  13.914  1.00  0.00    -0.247 OA
HETATM    4  N   UNL     1     -44.905 -50.990  12.592  1.00  0.00    -0.309 N 
HETATM    5  H   UNL     1     -44.064 -48.931  11.511  1.00  0.00     0.164 HD
HETATM    6  H   UNL     1     -45.190 -50.820  11.640  1.00  0.00     0.170 HD
ENDROOT
BRANCH   1   7
HETATM    7  C   UNL     1     -42.159 -48.603  12.381  1.00  0.00     0.130 C 
BRANCH   7   8
HETATM    8  C   UNL     1     -41.448 -48.185  11.089  1.00  0.00     0.033 C 
HETATM    9  C   UNL     1     -40.745 -46.834  11.226  1.00  0.00     0.038 C 
HETATM   10  C   UNL     1     -41.682 -45.817  10.576  1.00  0.00     0.272 C 
HETATM   11  N   UNL     1     -42.864 -46.581  10.150  1.00  0.00     0.084 N 
HETATM   12  C   UNL     1     -43.485 -46.014   8.959  1.00  0.00     0.309 C 
HETATM   13  C   UNL     1     -42.399 -47.955   9.920  1.00  0.00     0.278 C 
ENDBRANCH   7   8
ENDBRANCH   1   7
BRANCH   4  14
HETATM   14  C   UNL     1     -45.499 -52.080  13.272  1.00  0.00     0.038 A 
HETATM   15  C   UNL     1     -46.494 -51.912  14.233  1.00  0.00     0.046 A 
HETATM   16  C   UNL     1     -46.973 -53.026  14.898  1.00  0.00     0.090 A 
HETATM   17  N   UNL     1     -46.550 -54.282  14.654  1.00  0.00    -0.375 N 
HETATM   18  C   UNL     1     -45.613 -54.425  13.693  1.00  0.00     0.090 A 
ATOM     19  HN  UNL     1     -46.919 -55.082  15.168  1.00  0.00     0.164 HD
HETATM   20  C   UNL     1     -45.072 -53.370  12.973  1.00  0.00     0.046 A 
ENDBRANCH   4  14
TORSDOF 3
ENDMDL
MODEL 8
REMARK VINA RESULT:      -5.3      4.853      5.856
REMARK  3 active torsions:
REMARK  status: ('A' for Active; 'I' for Inactive)
REMARK    1  A    between atoms: C_5  and  C_6 
REMARK    2  A    between atoms: C_6  and  N_7 
REMARK       I    between atoms: N_7  and  C_8 
REMARK       I    between atoms: C_8  and  N_10 
REMARK    3  A    between atoms: N_10  and  C_11 
ROOT
HETATM    1  N   UNL     1     -42.053 -51.064  11.868  1.00  0.00    -0.342 N 
HETATM    2  C   UNL     1     -42.667 -51.948  12.716  1.00  0.00     0.320 C 
HETATM    3  O   UNL     1     -42.053 -52.493  13.626  1.00  0.00    -0.247 OA
HETATM    4  N   UNL     1     -43.991 -52.157  12.399  1.00  0.00    -0.309 N 
HETATM    5  H   UNL     1     -42.588 -50.498  11.216  1.00  0.00     0.164 HD
HETATM    6  H   UNL     1     -44.255 -51.918  11.455  1.00  0.00     0.170 HD
ENDROOT
BRANCH   1   7
HETATM    7  C   UNL     1     -40.636 -50.791  11.990  1.00  0.00     0.130 C 
BRANCH   7   8
HETATM    8  C   UNL     1     -40.293 -49.570  12.852  1.00  0.00     0.033 C 
HETATM    9  C   UNL     1     -39.224 -48.689  12.205  1.00  0.00     0.038 C 
HETATM   10  C   UNL     1     -37.915 -49.057  12.902  1.00  0.00     0.272 C 
HETATM   11  N   UNL     1     -38.256 -50.128  13.849  1.00  0.00     0.084 N 
HETATM   12  C   UNL     1     -37.403 -50.109  15.031  1.00  0.00     0.309 C 
HETATM   13  C   UNL     1     -39.669 -49.931  14.194  1.00  0.00     0.278 C 
ENDBRANCH   7   8
ENDBRANCH   1   7
BRANCH   4  14
HETATM   14  C   UNL     1     -44.868 -52.985  13.138  1.00  0.00     0.038 A 
HETATM   15  C   UNL     1     -44.727 -54.370  13.190  1.00  0.00     0.046 A 
HETATM   16  C   UNL     1     -45.669 -55.110  13.882  1.00  0.00     0.090 A 
HETATM   17  N   UNL     1     -46.713 -54.567  14.538  1.00  0.00    -0.375 N 
HETATM   18  C   UNL     1     -46.809 -53.221  14.505  1.00  0.00     0.090 A 
ATOM     19  HN  UNL     1     -47.394 -55.142  15.032  1.00  0.00     0.164 HD
HETATM   20  C   UNL     1     -45.915 -52.394  13.840  1.00  0.00     0.046 A 
ENDBRANCH   4  14
TORSDOF 3
ENDMDL
MODEL 9
REMARK VINA RESULT:      -5.1      1.501      1.973
REMARK  3 active torsions:
REMARK  status: ('A' for Active; 'I' for Inactive)
REMARK    1  A    between atoms: C_5  and  C_6 
REMARK    2  A    between atoms: C_6  and  N_7 
REMARK       I    between atoms: N_7  and  C_8 
REMARK       I    between atoms: C_8  and  N_10 
REMARK    3  A    between atoms: N_10  and  C_11 
ROOT
HETATM    1  N   UNL     1     -40.349 -48.951  10.937  1.00  0.00    -0.342 N 
HETATM    2  C   UNL     1     -41.346 -48.013  10.861  1.00  0.00     0.320 C 
HETATM    3  O   UNL     1     -41.438 -47.110  11.683  1.00  0.00    -0.247 OA
HETATM    4  N   UNL     1     -42.206 -48.237   9.809  1.00  0.00    -0.309 N 
HETATM    5  H   UNL     1     -40.178 -49.604  10.179  1.00  0.00     0.164 HD
HETATM    6  H   UNL     1     -42.209 -49.176   9.441  1.00  0.00     0.170 HD
ENDROOT
BRANCH   1   7
HETATM    7  C   UNL     1     -39.404 -48.932  12.035  1.00  0.00     0.130 C 
BRANCH   7   8
HETATM    8  C   UNL     1     -39.906 -49.603  13.320  1.00  0.00     0.033 C 
HETATM    9  C   UNL     1     -38.772 -50.256  14.111  1.00  0.00     0.038 C 
HETATM   10  C   UNL     1     -38.843 -51.745  13.774  1.00  0.00     0.272 C 
HETATM   11  N   UNL     1     -39.937 -51.880  12.802  1.00  0.00     0.084 N 
HETATM   12  C   UNL     1     -40.609 -53.171  12.906  1.00  0.00     0.309 C 
HETATM   13  C   UNL     1     -40.856 -50.766  13.066  1.00  0.00     0.278 C 
ENDBRANCH   7   8
ENDBRANCH   1   7
BRANCH   4  14
HETATM   14  C   UNL     1     -43.292 -47.395   9.474  1.00  0.00     0.038 A 
HETATM   15  C   UNL     1     -43.126 -46.054   9.135  1.00  0.00     0.046 A 
HETATM   16  C   UNL     1     -44.248 -45.285   8.886  1.00  0.00     0.090 A 
HETATM   17  N   UNL     1     -45.507 -45.763   8.927  1.00  0.00    -0.375 N 
HETATM   18  C   UNL     1     -45.643 -47.074   9.221  1.00  0.00     0.090 A 
ATOM     19  HN  UNL     1     -46.314 -45.167   8.746  1.00  0.00     0.164 HD
HETATM   20  C   UNL     1     -44.580 -47.925   9.485  1.00  0.00     0.046 A 
ENDBRANCH   4  14
TORSDOF 3
ENDMDL
