MODEL 1
REMARK VINA RESULT:      -6.6      0.000      0.000
REMARK  8 active torsions:
REMARK  status: ('A' for Active; 'I' for Inactive)
REMARK    1  A    between atoms: N_6  and  C_7 
REMARK    2  A    between atoms: C_7  and  C_8 
REMARK    3  A    between atoms: C_8  and  N_9 
REMARK    4  A    between atoms: N_9  and  C_10 
REMARK    5  A    between atoms: C_10  and  C_11 
REMARK       I    between atoms: C_11  and  N_13 
REMARK    6  A    between atoms: N_13  and  C_14 
REMARK    7  A    between atoms: C_14  and  C_19 
REMARK    8  A    between atoms: C_19  and  N_20 
ROOT
HETATM    1  C   UNL     1     -42.499 -51.911  13.130  1.00  0.00     0.247 C 
HETATM    2  O   UNL     1     -42.229 -52.697  14.033  1.00  0.00    -0.272 OA
HETATM    3  N   UNL     1     -43.729 -51.857  12.507  1.00  0.00    -0.339 N 
HETATM    4  H   UNL     1     -43.758 -51.396  11.604  1.00  0.00     0.164 HD
ENDROOT
BRANCH   1   5
HETATM    5  C   UNL     1     -41.490 -50.887  12.627  1.00  0.00     0.371 C 
BRANCH   5   6
HETATM    6  N   UNL     1     -42.143 -49.960  11.689  1.00  0.00     0.093 N 
HETATM    7  H   UNL     1     -42.646 -50.510  10.988  1.00  0.00     0.316 HD
BRANCH   6   8
HETATM    8  C   UNL     1     -41.152 -49.109  10.999  1.00  0.00     0.291 C 
BRANCH   8   9
HETATM    9  C   UNL     1     -41.616 -47.677  10.697  1.00  0.00     0.178 C 
BRANCH   9  10
HETATM   10  N   UNL     1     -42.814 -47.660   9.878  1.00  0.00    -0.302 N 
HETATM   11  N   UNL     1     -42.733 -47.936   8.567  1.00  0.00    -0.310 N 
HETATM   12  C   UNL     1     -43.990 -47.784   8.139  1.00  0.00     0.115 A 
ATOM     13  HN  UNL     1     -41.909 -48.199   8.026  1.00  0.00     0.186 HD
HETATM   14  C   UNL     1     -44.878 -47.421   9.177  1.00  0.00    -0.028 A 
HETATM   15  C   UNL     1     -46.333 -47.171   9.088  1.00  0.00     0.051 C 
HETATM   16  C   UNL     1     -44.075 -47.347  10.294  1.00  0.00     0.118 A 
ENDBRANCH   9  10
ENDBRANCH   8   9
ENDBRANCH   6   8
ENDBRANCH   5   6
ENDBRANCH   1   5
BRANCH   3  17
HETATM   17  C   UNL     1     -44.837 -52.706  12.954  1.00  0.00     0.104 C 
HETATM   18  C   UNL     1     -45.139 -52.511  14.454  1.00  0.00     0.045 C 
HETATM   19  C   UNL     1     -45.503 -53.884  15.018  1.00  0.00     0.004 C 
HETATM   20  C   UNL     1     -45.390 -54.870  13.865  1.00  0.00     0.004 C 
HETATM   21  C   UNL     1     -44.476 -54.191  12.854  1.00  0.00     0.045 C 
BRANCH  17  22
HETATM   22  C   UNL     1     -46.063 -52.374  12.119  1.00  0.00    -0.046 C 
BRANCH  22  23
HETATM   23  N   UNL     1     -47.078 -52.098  11.425  1.00  0.00    -0.367 N 
ATOM     24  HN2 UNL     1     -46.257 -52.275  12.004  1.00  0.00     0.165 HD
ATOM     25  HN1 UNL     1     -47.900 -51.877  10.863  1.00  0.00     0.165 HD
ENDBRANCH  22  23
ENDBRANCH  17  22
ENDBRANCH   3  17
TORSDOF 8
ENDMDL
MODEL 2
REMARK VINA RESULT:      -6.1      2.916      5.067
REMARK  8 active torsions:
REMARK  status: ('A' for Active; 'I' for Inactive)
REMARK    1  A    between atoms: N_6  and  C_7 
REMARK    2  A    between atoms: C_7  and  C_8 
REMARK    3  A    between atoms: C_8  and  N_9 
REMARK    4  A    between atoms: N_9  and  C_10 
REMARK    5  A    between atoms: C_10  and  C_11 
REMARK       I    between atoms: C_11  and  N_13 
REMARK    6  A    between atoms: N_13  and  C_14 
REMARK    7  A    between atoms: C_14  and  C_19 
REMARK    8  A    between atoms: C_19  and  N_20 
ROOT
HETATM    1  C   UNL     1     -43.801 -50.671  13.707  1.00  0.00     0.247 C 
HETATM    2  O   UNL     1     -43.849 -50.986  14.892  1.00  0.00    -0.272 OA
HETATM    3  N   UNL     1     -44.722 -51.088  12.769  1.00  0.00    -0.339 N 
HETATM    4  H   UNL     1     -44.439 -51.021  11.797  1.00  0.00     0.164 HD
ENDROOT
BRANCH   1   5
HETATM    5  C   UNL     1     -42.717 -49.749  13.164  1.00  0.00     0.371 C 
BRANCH   5   6
HETATM    6  N   UNL     1     -42.248 -50.243  11.860  1.00  0.00     0.093 N 
HETATM    7  H   UNL     1     -42.900 -50.959  11.530  1.00  0.00     0.316 HD
BRANCH   6   8
HETATM    8  C   UNL     1     -40.902 -50.843  11.966  1.00  0.00     0.291 C 
BRANCH   8   9
HETATM    9  C   UNL     1     -40.859 -52.376  11.882  1.00  0.00     0.178 C 
BRANCH   9  10
HETATM   10  N   UNL     1     -41.209 -52.995  13.146  1.00  0.00    -0.302 N 
HETATM   11  N   UNL     1     -40.663 -52.544  14.287  1.00  0.00    -0.310 N 
HETATM   12  C   UNL     1     -41.168 -53.359  15.217  1.00  0.00     0.115 A 
ATOM     13  HN  UNL     1     -40.018 -51.764  14.413  1.00  0.00     0.186 HD
HETATM   14  C   UNL     1     -42.044 -54.327  14.675  1.00  0.00    -0.028 A 
HETATM   15  C   UNL     1     -42.787 -55.388  15.389  1.00  0.00     0.051 C 
HETATM   16  C   UNL     1     -42.044 -54.059  13.324  1.00  0.00     0.118 A 
ENDBRANCH   9  10
ENDBRANCH   8   9
ENDBRANCH   6   8
ENDBRANCH   5   6
ENDBRANCH   1   5
BRANCH   3  17
HETATM   17  C   UNL     1     -45.885 -51.890  13.159  1.00  0.00     0.104 C 
HETATM   18  C   UNL     1     -46.639 -51.264  14.351  1.00  0.00     0.045 C 
HETATM   19  C   UNL     1     -47.111 -52.418  15.235  1.00  0.00     0.004 C 
HETATM   20  C   UNL     1     -46.617 -53.699  14.577  1.00  0.00     0.004 C 
HETATM   21  C   UNL     1     -45.461 -53.263  13.688  1.00  0.00     0.045 C 
BRANCH  17  22
HETATM   22  C   UNL     1     -46.806 -52.017  11.956  1.00  0.00    -0.046 C 
BRANCH  22  23
HETATM   23  N   UNL     1     -47.569 -52.122  10.958  1.00  0.00    -0.367 N 
ATOM     24  HN2 UNL     1     -46.912 -52.040  11.735  1.00  0.00     0.165 HD
ATOM     25  HN1 UNL     1     -48.187 -52.206  10.152  1.00  0.00     0.165 HD
ENDBRANCH  22  23
ENDBRANCH  17  22
ENDBRANCH   3  17
TORSDOF 8
ENDMDL
MODEL 3
REMARK VINA RESULT:      -6.0      1.254      1.999
REMARK  8 active torsions:
REMARK  status: ('A' for Active; 'I' for Inactive)
REMARK    1  A    between atoms: N_6  and  C_7 
REMARK    2  A    between atoms: C_7  and  C_8 
REMARK    3  A    between atoms: C_8  and  N_9 
REMARK    4  A    between atoms: N_9  and  C_10 
REMARK    5  A    between atoms: C_10  and  C_11 
REMARK       I    between atoms: C_11  and  N_13 
REMARK    6  A    between atoms: N_13  and  C_14 
REMARK    7  A    between atoms: C_14  and  C_19 
REMARK    8  A    between atoms: C_19  and  N_20 
ROOT
HETATM    1  C   UNL     1     -42.107 -52.011  12.856  1.00  0.00     0.247 C 
HETATM    2  O   UNL     1     -41.803 -52.126  14.040  1.00  0.00    -0.272 OA
HETATM    3  N   UNL     1     -43.396 -52.150  12.383  1.00  0.00    -0.339 N 
HETATM    4  H   UNL     1     -43.495 -52.327  11.389  1.00  0.00     0.164 HD
ENDROOT
BRANCH   1   5
HETATM    5  C   UNL     1     -41.075 -51.670  11.790  1.00  0.00     0.371 C 
BRANCH   5   6
HETATM    6  N   UNL     1     -40.471 -50.360  12.080  1.00  0.00     0.093 N 
HETATM    7  H   UNL     1     -40.827 -50.031  12.981  1.00  0.00     0.316 HD
BRANCH   6   8
HETATM    8  C   UNL     1     -40.819 -49.366  11.044  1.00  0.00     0.291 C 
BRANCH   8   9
HETATM    9  C   UNL     1     -41.808 -48.278  11.485  1.00  0.00     0.178 C 
BRANCH   9  10
HETATM   10  N   UNL     1     -42.769 -47.970  10.444  1.00  0.00    -0.302 N 
HETATM   11  N   UNL     1     -42.402 -48.029   9.154  1.00  0.00    -0.310 N 
HETATM   12  C   UNL     1     -43.502 -47.647   8.499  1.00  0.00     0.115 A 
ATOM     13  HN  UNL     1     -41.499 -48.301   8.766  1.00  0.00     0.186 HD
HETATM   14  C   UNL     1     -44.579 -47.352   9.367  1.00  0.00    -0.028 A 
HETATM   15  C   UNL     1     -45.942 -46.905   9.012  1.00  0.00     0.051 C 
HETATM   16  C   UNL     1     -44.062 -47.572  10.625  1.00  0.00     0.118 A 
ENDBRANCH   9  10
ENDBRANCH   8   9
ENDBRANCH   6   8
ENDBRANCH   5   6
ENDBRANCH   1   5
BRANCH   3  17
HETATM   17  C   UNL     1     -44.516 -52.372  13.301  1.00  0.00     0.104 C 
HETATM   18  C   UNL     1     -45.877 -52.226  12.591  1.00  0.00     0.045 C 
HETATM   19  C   UNL     1     -46.825 -51.547  13.580  1.00  0.00     0.004 C 
HETATM   20  C   UNL     1     -46.018 -51.281  14.842  1.00  0.00     0.004 C 
HETATM   21  C   UNL     1     -44.564 -51.294  14.389  1.00  0.00     0.045 C 
BRANCH  17  22
HETATM   22  C   UNL     1     -44.377 -53.762  13.901  1.00  0.00    -0.046 C 
BRANCH  22  23
HETATM   23  N   UNL     1     -44.262 -54.914  14.399  1.00  0.00    -0.367 N 
ATOM     24  HN2 UNL     1     -44.404 -53.987  13.997  1.00  0.00     0.165 HD
ATOM     25  HN1 UNL     1     -44.167 -55.846  14.802  1.00  0.00     0.165 HD
ENDBRANCH  22  23
ENDBRANCH  17  22
ENDBRANCH   3  17
TORSDOF 8
ENDMDL
MODEL 4
REMARK VINA RESULT:      -5.9      1.897      2.604
REMARK  8 active torsions:
REMARK  status: ('A' for Active; 'I' for Inactive)
REMARK    1  A    between atoms: N_6  and  C_7 
REMARK    2  A    between atoms: C_7  and  C_8 
REMARK    3  A    between atoms: C_8  and  N_9 
REMARK    4  A    between atoms: N_9  and  C_10 
REMARK    5  A    between atoms: C_10  and  C_11 
REMARK       I    between atoms: C_11  and  N_13 
REMARK    6  A    between atoms: N_13  and  C_14 
REMARK    7  A    between atoms: C_14  and  C_19 
REMARK    8  A    between atoms: C_19  and  N_20 
ROOT
HETATM    1  C   UNL     1     -43.187 -52.807  13.197  1.00  0.00     0.247 C 
HETATM    2  O   UNL     1     -43.246 -52.944  14.415  1.00  0.00    -0.272 OA
HETATM    3  N   UNL     1     -44.284 -52.531  12.406  1.00  0.00    -0.339 N 
HETATM    4  H   UNL     1     -44.186 -52.725  11.415  1.00  0.00     0.164 HD
ENDROOT
BRANCH   1   5
HETATM    5  C   UNL     1     -41.869 -52.900  12.440  1.00  0.00     0.371 C 
BRANCH   5   6
HETATM    6  N   UNL     1     -41.669 -51.687  11.631  1.00  0.00     0.093 N 
HETATM    7  H   UNL     1     -41.318 -51.965  10.711  1.00  0.00     0.316 HD
BRANCH   6   8
HETATM    8  C   UNL     1     -40.686 -50.780  12.258  1.00  0.00     0.291 C 
BRANCH   8   9
HETATM    9  C   UNL     1     -39.898 -49.893  11.283  1.00  0.00     0.178 C 
BRANCH   9  10
HETATM   10  N   UNL     1     -40.571 -48.632  11.038  1.00  0.00    -0.302 N 
HETATM   11  N   UNL     1     -41.602 -48.578  10.179  1.00  0.00    -0.310 N 
HETATM   12  C   UNL     1     -41.933 -47.284  10.171  1.00  0.00     0.115 A 
ATOM     13  HN  UNL     1     -42.030 -49.343   9.658  1.00  0.00     0.186 HD
HETATM   14  C   UNL     1     -41.122 -46.508  11.032  1.00  0.00    -0.028 A 
HETATM   15  C   UNL     1     -41.191 -45.053  11.286  1.00  0.00     0.051 C 
HETATM   16  C   UNL     1     -40.246 -47.421  11.577  1.00  0.00     0.118 A 
ENDBRANCH   9  10
ENDBRANCH   8   9
ENDBRANCH   6   8
ENDBRANCH   5   6
ENDBRANCH   1   5
BRANCH   3  17
HETATM   17  C   UNL     1     -45.603 -52.305  13.001  1.00  0.00     0.104 C 
HETATM   18  C   UNL     1     -45.574 -51.171  14.047  1.00  0.00     0.045 C 
HETATM   19  C   UNL     1     -46.513 -51.585  15.180  1.00  0.00     0.004 C 
HETATM   20  C   UNL     1     -47.064 -52.954  14.808  1.00  0.00     0.004 C 
HETATM   21  C   UNL     1     -46.065 -53.522  13.808  1.00  0.00     0.045 C 
BRANCH  17  22
HETATM   22  C   UNL     1     -46.582 -51.973  11.886  1.00  0.00    -0.046 C 
BRANCH  22  23
HETATM   23  N   UNL     1     -47.394 -51.697  10.962  1.00  0.00    -0.367 N 
ATOM     24  HN2 UNL     1     -46.720 -51.874  11.708  1.00  0.00     0.165 HD
ATOM     25  HN1 UNL     1     -48.052 -51.476  10.215  1.00  0.00     0.165 HD
ENDBRANCH  22  23
ENDBRANCH  17  22
ENDBRANCH   3  17
TORSDOF 8
ENDMDL
MODEL 5
REMARK VINA RESULT:      -5.9      2.920      6.170
REMARK  8 active torsions:
REMARK  status: ('A' for Active; 'I' for Inactive)
REMARK    1  A    between atoms: N_6  and  C_7 
REMARK    2  A    between atoms: C_7  and  C_8 
REMARK    3  A    between atoms: C_8  and  N_9 
REMARK    4  A    between atoms: N_9  and  C_10 
REMARK    5  A    between atoms: C_10  and  C_11 
REMARK       I    between atoms: C_11  and  N_13 
REMARK    6  A    between atoms: N_13  and  C_14 
REMARK    7  A    between atoms: C_14  and  C_19 
REMARK    8  A    between atoms: C_19  and  N_20 
ROOT
HETATM    1  C   UNL     1     -41.844 -47.372  10.519  1.00  0.00     0.247 C 
HETATM    2  O   UNL     1     -41.769 -48.548  10.175  1.00  0.00    -0.272 OA
HETATM    3  N   UNL     1     -42.852 -46.522  10.114  1.00  0.00    -0.339 N 
HETATM    4  H   UNL     1     -42.668 -45.528  10.206  1.00  0.00     0.164 HD
ENDROOT
BRANCH   1   5
HETATM    5  C   UNL     1     -40.828 -46.745  11.464  1.00  0.00     0.371 C 
BRANCH   5   6
HETATM    6  N   UNL     1     -39.567 -47.501  11.418  1.00  0.00     0.093 N 
HETATM    7  H   UNL     1     -39.714 -48.341  10.853  1.00  0.00     0.316 HD
BRANCH   6   8
HETATM    8  C   UNL     1     -39.135 -47.909  12.770  1.00  0.00     0.291 C 
BRANCH   8   9
HETATM    9  C   UNL     1     -38.944 -49.420  12.968  1.00  0.00     0.178 C 
BRANCH   9  10
HETATM   10  N   UNL     1     -40.185 -50.148  12.786  1.00  0.00    -0.302 N 
HETATM   11  N   UNL     1     -40.295 -51.045  11.792  1.00  0.00    -0.310 N 
HETATM   12  C   UNL     1     -41.556 -51.474  11.899  1.00  0.00     0.115 A 
ATOM     13  HN  UNL     1     -39.586 -51.331  11.118  1.00  0.00     0.186 HD
HETATM   14  C   UNL     1     -42.252 -50.860  12.966  1.00  0.00    -0.028 A 
HETATM   15  C   UNL     1     -43.651 -51.081  13.391  1.00  0.00     0.051 C 
HETATM   16  C   UNL     1     -41.326 -50.002  13.518  1.00  0.00     0.118 A 
ENDBRANCH   9  10
ENDBRANCH   8   9
ENDBRANCH   6   8
ENDBRANCH   5   6
ENDBRANCH   1   5
BRANCH   3  17
HETATM   17  C   UNL     1     -43.962 -47.008   9.290  1.00  0.00     0.104 C 
HETATM   18  C   UNL     1     -44.883 -45.858   8.834  1.00  0.00     0.045 C 
HETATM   19  C   UNL     1     -46.315 -46.392   8.870  1.00  0.00     0.004 C 
HETATM   20  C   UNL     1     -46.229 -47.829   9.364  1.00  0.00     0.004 C 
HETATM   21  C   UNL     1     -44.897 -47.914  10.097  1.00  0.00     0.045 C 
BRANCH  17  22
HETATM   22  C   UNL     1     -43.384 -47.735   8.087  1.00  0.00    -0.046 C 
BRANCH  22  23
HETATM   23  N   UNL     1     -42.904 -48.338   7.089  1.00  0.00    -0.367 N 
ATOM     24  HN2 UNL     1     -43.294 -47.893   7.921  1.00  0.00     0.165 HD
ATOM     25  HN1 UNL     1     -42.516 -48.825   6.282  1.00  0.00     0.165 HD
ENDBRANCH  22  23
ENDBRANCH  17  22
ENDBRANCH   3  17
TORSDOF 8
ENDMDL
MODEL 6
REMARK VINA RESULT:      -5.9      1.662      2.358
REMARK  8 active torsions:
REMARK  status: ('A' for Active; 'I' for Inactive)
REMARK    1  A    between atoms: N_6  and  C_7 
REMARK    2  A    between atoms: C_7  and  C_8 
REMARK    3  A    between atoms: C_8  and  N_9 
REMARK    4  A    between atoms: N_9  and  C_10 
REMARK    5  A    between atoms: C_10  and  C_11 
REMARK       I    between atoms: C_11  and  N_13 
REMARK    6  A    between atoms: N_13  and  C_14 
REMARK    7  A    between atoms: C_14  and  C_19 
REMARK    8  A    between atoms: C_19  and  N_20 
ROOT
HETATM    1  C   UNL     1     -43.374 -50.722  13.475  1.00  0.00     0.247 C 
HETATM    2  O   UNL     1     -44.276 -50.931  14.281  1.00  0.00    -0.272 OA
HETATM    3  N   UNL     1     -42.587 -51.719  12.937  1.00  0.00    -0.339 N 
HETATM    4  H   UNL     1     -41.708 -51.426  12.524  1.00  0.00     0.164 HD
ENDROOT
BRANCH   1   5
HETATM    5  C   UNL     1     -43.059 -49.322  12.966  1.00  0.00     0.371 C 
BRANCH   5   6
HETATM    6  N   UNL     1     -41.626 -49.215  12.649  1.00  0.00     0.093 N 
HETATM    7  H   UNL     1     -41.251 -48.389  13.122  1.00  0.00     0.316 HD
BRANCH   6   8
HETATM    8  C   UNL     1     -41.407 -49.067  11.196  1.00  0.00     0.291 C 
BRANCH   8   9
HETATM    9  C   UNL     1     -41.684 -47.668  10.630  1.00  0.00     0.178 C 
BRANCH   9  10
HETATM   10  N   UNL     1     -42.878 -47.647   9.807  1.00  0.00    -0.302 N 
HETATM   11  N   UNL     1     -42.797 -47.950   8.501  1.00  0.00    -0.310 N 
HETATM   12  C   UNL     1     -44.050 -47.786   8.065  1.00  0.00     0.115 A 
ATOM     13  HN  UNL     1     -41.976 -48.238   7.969  1.00  0.00     0.186 HD
HETATM   14  C   UNL     1     -44.936 -47.387   9.093  1.00  0.00    -0.028 A 
HETATM   15  C   UNL     1     -46.386 -47.115   8.992  1.00  0.00     0.051 C 
HETATM   16  C   UNL     1     -44.136 -47.305  10.211  1.00  0.00     0.118 A 
ENDBRANCH   9  10
ENDBRANCH   8   9
ENDBRANCH   6   8
ENDBRANCH   5   6
ENDBRANCH   1   5
BRANCH   3  17
HETATM   17  C   UNL     1     -42.841 -53.128  13.246  1.00  0.00     0.104 C 
HETATM   18  C   UNL     1     -44.143 -53.634  12.592  1.00  0.00     0.045 C 
HETATM   19  C   UNL     1     -44.801 -54.588  13.589  1.00  0.00     0.004 C 
HETATM   20  C   UNL     1     -43.903 -54.618  14.817  1.00  0.00     0.004 C 
HETATM   21  C   UNL     1     -43.091 -53.333  14.743  1.00  0.00     0.045 C 
BRANCH  17  22
HETATM   22  C   UNL     1     -41.653 -53.946  12.764  1.00  0.00    -0.046 C 
BRANCH  22  23
HETATM   23  N   UNL     1     -40.669 -54.624  12.363  1.00  0.00    -0.367 N 
ATOM     24  HN2 UNL     1     -41.481 -54.073  12.641  1.00  0.00     0.165 HD
ATOM     25  HN1 UNL     1     -39.872 -55.172  12.040  1.00  0.00     0.165 HD
ENDBRANCH  22  23
ENDBRANCH  17  22
ENDBRANCH   3  17
TORSDOF 8
ENDMDL
MODEL 7
REMARK VINA RESULT:      -5.8      2.158      3.284
REMARK  8 active torsions:
REMARK  status: ('A' for Active; 'I' for Inactive)
REMARK    1  A    between atoms: N_6  and  C_7 
REMARK    2  A    between atoms: C_7  and  C_8 
REMARK    3  A    between atoms: C_8  and  N_9 
REMARK    4  A    between atoms: N_9  and  C_10 
REMARK    5  A    between atoms: C_10  and  C_11 
REMARK       I    between atoms: C_11  and  N_13 
REMARK    6  A    between atoms: N_13  and  C_14 
REMARK    7  A    between atoms: C_14  and  C_19 
REMARK    8  A    between atoms: C_19  and  N_20 
ROOT
HETATM    1  C   UNL     1     -43.816 -50.508  13.814  1.00  0.00     0.247 C 
HETATM    2  O   UNL     1     -44.026 -50.635  15.017  1.00  0.00    -0.272 OA
HETATM    3  N   UNL     1     -44.586 -51.105  12.838  1.00  0.00    -0.339 N 
HETATM    4  H   UNL     1     -44.168 -51.180  11.917  1.00  0.00     0.164 HD
ENDROOT
BRANCH   1   5
HETATM    5  C   UNL     1     -42.684 -49.639  13.283  1.00  0.00     0.371 C 
BRANCH   5   6
HETATM    6  N   UNL     1     -42.749 -49.574  11.815  1.00  0.00     0.093 N 
HETATM    7  H   UNL     1     -41.868 -49.929  11.435  1.00  0.00     0.316 HD
BRANCH   6   8
HETATM    8  C   UNL     1     -42.940 -48.186  11.346  1.00  0.00     0.291 C 
BRANCH   8   9
HETATM    9  C   UNL     1     -41.938 -47.708  10.286  1.00  0.00     0.178 C 
BRANCH   9  10
HETATM   10  N   UNL     1     -41.081 -46.653  10.792  1.00  0.00    -0.302 N 
HETATM   11  N   UNL     1     -40.594 -45.725   9.953  1.00  0.00    -0.310 N 
HETATM   12  C   UNL     1     -39.831 -44.962  10.740  1.00  0.00     0.115 A 
ATOM     13  HN  UNL     1     -40.765 -45.626   8.952  1.00  0.00     0.186 HD
HETATM   14  C   UNL     1     -39.836 -45.394  12.087  1.00  0.00    -0.028 A 
HETATM   15  C   UNL     1     -39.120 -44.803  13.238  1.00  0.00     0.051 C 
HETATM   16  C   UNL     1     -40.659 -46.498  12.081  1.00  0.00     0.118 A 
ENDBRANCH   9  10
ENDBRANCH   8   9
ENDBRANCH   6   8
ENDBRANCH   5   6
ENDBRANCH   1   5
BRANCH   3  17
HETATM   17  C   UNL     1     -45.777 -51.884  13.190  1.00  0.00     0.104 C 
HETATM   18  C   UNL     1     -46.548 -51.251  14.366  1.00  0.00     0.045 C 
HETATM   19  C   UNL     1     -47.071 -52.402  15.226  1.00  0.00     0.004 C 
HETATM   20  C   UNL     1     -46.588 -53.687  14.571  1.00  0.00     0.004 C 
HETATM   21  C   UNL     1     -45.398 -53.271  13.717  1.00  0.00     0.045 C 
BRANCH  17  22
HETATM   22  C   UNL     1     -46.667 -51.979  11.961  1.00  0.00    -0.046 C 
BRANCH  22  23
HETATM   23  N   UNL     1     -47.406 -52.058  10.943  1.00  0.00    -0.367 N 
ATOM     24  HN2 UNL     1     -46.810 -52.044  11.771  1.00  0.00     0.165 HD
ATOM     25  HN1 UNL     1     -48.003 -52.120  10.119  1.00  0.00     0.165 HD
ENDBRANCH  22  23
ENDBRANCH  17  22
ENDBRANCH   3  17
TORSDOF 8
ENDMDL
MODEL 8
REMARK VINA RESULT:      -5.8      3.527      6.947
REMARK  8 active torsions:
REMARK  status: ('A' for Active; 'I' for Inactive)
REMARK    1  A    between atoms: N_6  and  C_7 
REMARK    2  A    between atoms: C_7  and  C_8 
REMARK    3  A    between atoms: C_8  and  N_9 
REMARK    4  A    between atoms: N_9  and  C_10 
REMARK    5  A    between atoms: C_10  and  C_11 
REMARK       I    between atoms: C_11  and  N_13 
REMARK    6  A    between atoms: N_13  and  C_14 
REMARK    7  A    between atoms: C_14  and  C_19 
REMARK    8  A    between atoms: C_19  and  N_20 
ROOT
HETATM    1  C   UNL     1     -40.333 -51.503  12.604  1.00  0.00     0.247 C 
HETATM    2  O   UNL     1     -39.408 -52.310  12.630  1.00  0.00    -0.272 OA
HETATM    3  N   UNL     1     -40.168 -50.147  12.795  1.00  0.00    -0.339 N 
HETATM    4  H   UNL     1     -41.000 -49.622  13.043  1.00  0.00     0.164 HD
ENDROOT
BRANCH   1   5
HETATM    5  C   UNL     1     -41.767 -51.933  12.322  1.00  0.00     0.371 C 
BRANCH   5   6
HETATM    6  N   UNL     1     -41.857 -53.401  12.315  1.00  0.00     0.093 N 
HETATM    7  H   UNL     1     -42.097 -53.707  11.369  1.00  0.00     0.316 HD
BRANCH   6   8
HETATM    8  C   UNL     1     -42.901 -53.880  13.244  1.00  0.00     0.291 C 
BRANCH   8   9
HETATM    9  C   UNL     1     -44.291 -54.077  12.624  1.00  0.00     0.178 C 
BRANCH   9  10
HETATM   10  N   UNL     1     -45.251 -53.120  13.138  1.00  0.00    -0.302 N 
HETATM   11  N   UNL     1     -45.834 -52.241  12.307  1.00  0.00    -0.310 N 
HETATM   12  C   UNL     1     -46.603 -51.508  13.117  1.00  0.00     0.115 A 
ATOM     13  HN  UNL     1     -45.717 -52.154  11.297  1.00  0.00     0.186 HD
HETATM   14  C   UNL     1     -46.522 -51.922  14.467  1.00  0.00    -0.028 A 
HETATM   15  C   UNL     1     -47.226 -51.358  15.638  1.00  0.00     0.051 C 
HETATM   16  C   UNL     1     -45.630 -52.972  14.441  1.00  0.00     0.118 A 
ENDBRANCH   9  10
ENDBRANCH   8   9
ENDBRANCH   6   8
ENDBRANCH   5   6
ENDBRANCH   1   5
BRANCH   3  17
HETATM   17  C   UNL     1     -38.834 -49.567  12.968  1.00  0.00     0.104 C 
HETATM   18  C   UNL     1     -38.081 -50.205  14.154  1.00  0.00     0.045 C 
HETATM   19  C   UNL     1     -37.292 -49.087  14.835  1.00  0.00     0.004 C 
HETATM   20  C   UNL     1     -37.600 -47.810  14.067  1.00  0.00     0.004 C 
HETATM   21  C   UNL     1     -38.916 -48.087  13.354  1.00  0.00     0.045 C 
BRANCH  17  22
HETATM   22  C   UNL     1     -38.054 -49.764  11.678  1.00  0.00    -0.046 C 
BRANCH  22  23
HETATM   23  N   UNL     1     -37.406 -49.927  10.609  1.00  0.00    -0.367 N 
ATOM     24  HN2 UNL     1     -37.956 -49.836  11.464  1.00  0.00     0.165 HD
ATOM     25  HN1 UNL     1     -36.882 -50.058   9.744  1.00  0.00     0.165 HD
ENDBRANCH  22  23
ENDBRANCH  17  22
ENDBRANCH   3  17
TORSDOF 8
ENDMDL
MODEL 9
REMARK VINA RESULT:      -5.8      1.901      6.216
REMARK  8 active torsions:
REMARK  status: ('A' for Active; 'I' for Inactive)
REMARK    1  A    between atoms: N_6  and  C_7 
REMARK    2  A    between atoms: C_7  and  C_8 
REMARK    3  A    between atoms: C_8  and  N_9 
REMARK    4  A    between atoms: N_9  and  C_10 
REMARK    5  A    between atoms: C_10  and  C_11 
REMARK       I    between atoms: C_11  and  N_13 
REMARK    6  A    between atoms: N_13  and  C_14 
REMARK    7  A    between atoms: C_14  and  C_19 
REMARK    8  A    between atoms: C_19  and  N_20 
ROOT
HETATM    1  C   UNL     1     -41.514 -49.147  11.743  1.00  0.00     0.247 C 
HETATM    2  O   UNL     1     -41.993 -48.517  12.682  1.00  0.00    -0.272 OA
HETATM    3  N   UNL     1     -41.794 -48.875  10.420  1.00  0.00    -0.339 N 
HETATM    4  H   UNL     1     -41.591 -49.614   9.755  1.00  0.00     0.164 HD
ENDROOT
BRANCH   1   5
HETATM    5  C   UNL     1     -40.527 -50.287  11.960  1.00  0.00     0.371 C 
BRANCH   5   6
HETATM    6  N   UNL     1     -40.954 -51.471  11.199  1.00  0.00     0.093 N 
HETATM    7  H   UNL     1     -41.924 -51.333  10.903  1.00  0.00     0.316 HD
BRANCH   6   8
HETATM    8  C   UNL     1     -40.883 -52.694  12.025  1.00  0.00     0.291 C 
BRANCH   8   9
HETATM    9  C   UNL     1     -41.607 -52.616  13.376  1.00  0.00     0.178 C 
BRANCH   9  10
HETATM   10  N   UNL     1     -43.048 -52.605  13.215  1.00  0.00    -0.302 N 
HETATM   11  N   UNL     1     -43.639 -53.495  12.402  1.00  0.00    -0.310 N 
HETATM   12  C   UNL     1     -44.932 -53.165  12.465  1.00  0.00     0.115 A 
ATOM     13  HN  UNL     1     -43.204 -54.245  11.864  1.00  0.00     0.186 HD
HETATM   14  C   UNL     1     -45.173 -52.070  13.327  1.00  0.00    -0.028 A 
HETATM   15  C   UNL     1     -46.466 -51.429  13.649  1.00  0.00     0.051 C 
HETATM   16  C   UNL     1     -43.922 -51.731  13.794  1.00  0.00     0.118 A 
ENDBRANCH   9  10
ENDBRANCH   8   9
ENDBRANCH   6   8
ENDBRANCH   5   6
ENDBRANCH   1   5
BRANCH   3  17
HETATM   17  C   UNL     1     -42.641 -47.739  10.048  1.00  0.00     0.104 C 
HETATM   18  C   UNL     1     -44.002 -47.777  10.772  1.00  0.00     0.045 C 
HETATM   19  C   UNL     1     -45.051 -47.284   9.776  1.00  0.00     0.004 C 
HETATM   20  C   UNL     1     -44.312 -46.985   8.480  1.00  0.00     0.004 C 
HETATM   21  C   UNL     1     -43.024 -47.794   8.566  1.00  0.00     0.045 C 
BRANCH  17  22
HETATM   22  C   UNL     1     -41.897 -46.456  10.383  1.00  0.00    -0.046 C 
BRANCH  22  23
HETATM   23  N   UNL     1     -41.281 -45.391  10.660  1.00  0.00    -0.367 N 
ATOM     24  HN2 UNL     1     -41.781 -46.239  10.388  1.00  0.00     0.165 HD
ATOM     25  HN1 UNL     1     -40.783 -44.531  10.886  1.00  0.00     0.165 HD
ENDBRANCH  22  23
ENDBRANCH  17  22
ENDBRANCH   3  17
TORSDOF 8
ENDMDL
