MODEL 1
REMARK VINA RESULT:      -6.5      0.000      0.000
REMARK  6 active torsions:
REMARK  status: ('A' for Active; 'I' for Inactive)
REMARK    1  A    between atoms: N_11  and  C_12 
REMARK    2  A    between atoms: C_12  and  C_13 
REMARK    3  A    between atoms: C_13  and  O_14 
REMARK    4  A    between atoms: C_13  and  C_15 
REMARK    5  A    between atoms: C_15  and  O_16 
REMARK    6  A    between atoms: O_16  and  C_17 
ROOT
HETATM    1  C   UNL     1     -40.442 -51.413  12.732  1.00  0.00     0.164 C 
ENDROOT
BRANCH   1   2
HETATM    2  N   UNL     1     -40.315 -50.067  12.181  1.00  0.00    -0.332 N 
HETATM    3  C   UNL     1     -39.096 -49.546  11.763  1.00  0.00     0.080 A 
HETATM    4  C   UNL     1     -37.793 -50.253  11.881  1.00  0.00     0.089 C 
HETATM    5  N   UNL     1     -39.246 -48.349  11.238  1.00  0.00    -0.344 N 
HETATM    6  C   UNL     1     -40.580 -48.065  11.332  1.00  0.00     0.060 A 
ATOM      7  HN  UNL     1     -38.516 -47.755  10.842  1.00  0.00     0.167 HD
HETATM    8  C   UNL     1     -41.263 -46.914  10.903  1.00  0.00     0.032 A 
HETATM    9  C   UNL     1     -41.279 -49.109  11.940  1.00  0.00     0.062 A 
HETATM   10  C   UNL     1     -42.643 -46.827  11.095  1.00  0.00     0.002 A 
HETATM   11  C   UNL     1     -43.332 -47.862  11.715  1.00  0.00     0.002 A 
HETATM   12  C   UNL     1     -42.665 -49.011  12.153  1.00  0.00     0.032 A 
ENDBRANCH   1   2
BRANCH   1  13
HETATM   13  C   UNL     1     -41.291 -52.441  11.970  1.00  0.00     0.160 C 
BRANCH  13  14
HETATM   14  O   UNL     1     -40.489 -53.467  11.372  1.00  0.00    -0.392 OA
HETATM   15  H   UNL     1     -39.764 -53.701  11.976  1.00  0.00     0.210 HD
ENDBRANCH  13  14
BRANCH  13  16
HETATM   16  C   UNL     1     -42.322 -53.140  12.859  1.00  0.00     0.209 C 
BRANCH  16  17
HETATM   17  O   UNL     1     -43.605 -53.063  12.249  1.00  0.00    -0.349 OA
BRANCH  17  18
HETATM   18  C   UNL     1     -44.582 -52.484  13.010  1.00  0.00     0.068 A 
HETATM   19  C   UNL     1     -44.165 -52.042  14.264  1.00  0.00     0.037 A 
HETATM   20  C   UNL     1     -45.065 -51.428  15.132  1.00  0.00     0.003 A 
HETATM   21  C   UNL     1     -46.387 -51.238  14.738  1.00  0.00     0.000 A 
HETATM   22  C   UNL     1     -46.806 -51.657  13.477  1.00  0.00     0.003 A 
HETATM   23  C   UNL     1     -45.904 -52.279  12.612  1.00  0.00     0.037 A 
ENDBRANCH  17  18
ENDBRANCH  16  17
ENDBRANCH  13  16
ENDBRANCH   1  13
TORSDOF 6
ENDMDL
MODEL 2
REMARK VINA RESULT:      -6.1      3.550      4.768
REMARK  6 active torsions:
REMARK  status: ('A' for Active; 'I' for Inactive)
REMARK    1  A    between atoms: N_11  and  C_12 
REMARK    2  A    between atoms: C_12  and  C_13 
REMARK    3  A    between atoms: C_13  and  O_14 
REMARK    4  A    between atoms: C_13  and  C_15 
REMARK    5  A    between atoms: C_15  and  O_16 
REMARK    6  A    between atoms: O_16  and  C_17 
ROOT
HETATM    1  C   UNL     1     -41.780 -52.459  13.803  1.00  0.00     0.164 C 
ENDROOT
BRANCH   1   2
HETATM    2  N   UNL     1     -42.491 -52.515  15.077  1.00  0.00    -0.332 N 
HETATM    3  C   UNL     1     -42.512 -53.658  15.868  1.00  0.00     0.080 A 
HETATM    4  C   UNL     1     -41.882 -54.953  15.493  1.00  0.00     0.089 C 
HETATM    5  N   UNL     1     -43.152 -53.444  16.997  1.00  0.00    -0.344 N 
HETATM    6  C   UNL     1     -43.581 -52.147  16.942  1.00  0.00     0.060 A 
ATOM      7  HN  UNL     1     -43.298 -54.109  17.757  1.00  0.00     0.167 HD
HETATM    8  C   UNL     1     -44.302 -51.421  17.905  1.00  0.00     0.032 A 
HETATM    9  C   UNL     1     -43.205 -51.540  15.742  1.00  0.00     0.062 A 
HETATM   10  C   UNL     1     -44.641 -50.092  17.647  1.00  0.00     0.002 A 
HETATM   11  C   UNL     1     -44.278 -49.496  16.445  1.00  0.00     0.002 A 
HETATM   12  C   UNL     1     -43.566 -50.208  15.474  1.00  0.00     0.032 A 
ENDBRANCH   1   2
BRANCH   1  13
HETATM   13  C   UNL     1     -42.598 -52.510  12.504  1.00  0.00     0.160 C 
BRANCH  13  14
HETATM   14  O   UNL     1     -41.762 -52.575  11.343  1.00  0.00    -0.392 OA
HETATM   15  H   UNL     1     -42.054 -53.311  10.777  1.00  0.00     0.210 HD
ENDBRANCH  13  14
BRANCH  13  16
HETATM   16  C   UNL     1     -43.546 -53.709  12.443  1.00  0.00     0.209 C 
BRANCH  16  17
HETATM   17  O   UNL     1     -44.859 -53.261  12.128  1.00  0.00    -0.349 OA
BRANCH  17  18
HETATM   18  C   UNL     1     -45.613 -52.863  13.196  1.00  0.00     0.068 A 
HETATM   19  C   UNL     1     -45.770 -53.822  14.195  1.00  0.00     0.037 A 
HETATM   20  C   UNL     1     -46.512 -53.537  15.339  1.00  0.00     0.003 A 
HETATM   21  C   UNL     1     -47.087 -52.278  15.495  1.00  0.00     0.000 A 
HETATM   22  C   UNL     1     -46.916 -51.307  14.512  1.00  0.00     0.003 A 
HETATM   23  C   UNL     1     -46.178 -51.598  13.362  1.00  0.00     0.037 A 
ENDBRANCH  17  18
ENDBRANCH  16  17
ENDBRANCH  13  16
ENDBRANCH   1  13
TORSDOF 6
ENDMDL
MODEL 3
REMARK VINA RESULT:      -6.0      2.631      4.881
REMARK  6 active torsions:
REMARK  status: ('A' for Active; 'I' for Inactive)
REMARK    1  A    between atoms: N_11  and  C_12 
REMARK    2  A    between atoms: C_12  and  C_13 
REMARK    3  A    between atoms: C_13  and  O_14 
REMARK    4  A    between atoms: C_13  and  C_15 
REMARK    5  A    between atoms: C_15  and  O_16 
REMARK    6  A    between atoms: O_16  and  C_17 
ROOT
HETATM    1  C   UNL     1     -41.481 -51.781  11.936  1.00  0.00     0.164 C 
ENDROOT
BRANCH   1   2
HETATM    2  N   UNL     1     -41.701 -52.778  12.978  1.00  0.00    -0.332 N 
HETATM    3  C   UNL     1     -40.751 -53.056  13.954  1.00  0.00     0.080 A 
HETATM    4  C   UNL     1     -39.402 -52.434  14.018  1.00  0.00     0.089 C 
HETATM    5  N   UNL     1     -41.205 -53.935  14.822  1.00  0.00    -0.344 N 
HETATM    6  C   UNL     1     -42.464 -54.260  14.401  1.00  0.00     0.060 A 
ATOM      7  HN  UNL     1     -40.717 -54.299  15.641  1.00  0.00     0.167 HD
HETATM    8  C   UNL     1     -43.383 -55.147  14.987  1.00  0.00     0.032 A 
HETATM    9  C   UNL     1     -42.801 -53.572  13.234  1.00  0.00     0.062 A 
HETATM   10  C   UNL     1     -44.630 -55.333  14.389  1.00  0.00     0.002 A 
HETATM   11  C   UNL     1     -44.955 -54.658  13.219  1.00  0.00     0.002 A 
HETATM   12  C   UNL     1     -44.048 -53.778  12.619  1.00  0.00     0.032 A 
ENDBRANCH   1   2
BRANCH   1  13
HETATM   13  C   UNL     1     -41.833 -50.316  12.236  1.00  0.00     0.160 C 
BRANCH  13  14
HETATM   14  O   UNL     1     -41.652 -49.472  11.092  1.00  0.00    -0.392 OA
HETATM   15  H   UNL     1     -40.824 -48.971  11.189  1.00  0.00     0.210 HD
ENDBRANCH  13  14
BRANCH  13  16
HETATM   16  C   UNL     1     -43.278 -50.134  12.703  1.00  0.00     0.209 C 
BRANCH  16  17
HETATM   17  O   UNL     1     -43.325 -50.165  14.125  1.00  0.00    -0.349 OA
BRANCH  17  18
HETATM   18  C   UNL     1     -44.389 -50.834  14.662  1.00  0.00     0.068 A 
HETATM   19  C   UNL     1     -45.507 -50.920  13.835  1.00  0.00     0.037 A 
HETATM   20  C   UNL     1     -46.655 -51.583  14.264  1.00  0.00     0.003 A 
HETATM   21  C   UNL     1     -46.680 -52.181  15.522  1.00  0.00     0.000 A 
HETATM   22  C   UNL     1     -45.558 -52.119  16.345  1.00  0.00     0.003 A 
HETATM   23  C   UNL     1     -44.411 -51.447  15.916  1.00  0.00     0.037 A 
ENDBRANCH  17  18
ENDBRANCH  16  17
ENDBRANCH  13  16
ENDBRANCH   1  13
TORSDOF 6
ENDMDL
MODEL 4
REMARK VINA RESULT:      -6.0      3.499      5.060
REMARK  6 active torsions:
REMARK  status: ('A' for Active; 'I' for Inactive)
REMARK    1  A    between atoms: N_11  and  C_12 
REMARK    2  A    between atoms: C_12  and  C_13 
REMARK    3  A    between atoms: C_13  and  O_14 
REMARK    4  A    between atoms: C_13  and  C_15 
REMARK    5  A    between atoms: C_15  and  O_16 
REMARK    6  A    between atoms: O_16  and  C_17 
ROOT
HETATM    1  C   UNL     1     -43.219 -53.078  17.055  1.00  0.00     0.164 C 
ENDROOT
BRANCH   1   2
HETATM    2  N   UNL     1     -43.009 -52.339  15.814  1.00  0.00    -0.332 N 
HETATM    3  C   UNL     1     -43.428 -51.023  15.652  1.00  0.00     0.080 A 
HETATM    4  C   UNL     1     -44.179 -50.247  16.674  1.00  0.00     0.089 C 
HETATM    5  N   UNL     1     -43.064 -50.549  14.480  1.00  0.00    -0.344 N 
HETATM    6  C   UNL     1     -42.416 -51.574  13.849  1.00  0.00     0.060 A 
ATOM      7  HN  UNL     1     -43.231 -49.611  14.117  1.00  0.00     0.167 HD
HETATM    8  C   UNL     1     -41.821 -51.582  12.576  1.00  0.00     0.032 A 
HETATM    9  C   UNL     1     -42.383 -52.720  14.645  1.00  0.00     0.062 A 
HETATM   10  C   UNL     1     -41.201 -52.746  12.118  1.00  0.00     0.002 A 
HETATM   11  C   UNL     1     -41.184 -53.889  12.908  1.00  0.00     0.002 A 
HETATM   12  C   UNL     1     -41.779 -53.899  14.174  1.00  0.00     0.032 A 
ENDBRANCH   1   2
BRANCH   1  13
HETATM   13  C   UNL     1     -44.075 -54.353  17.014  1.00  0.00     0.160 C 
BRANCH  13  14
HETATM   14  O   UNL     1     -43.818 -55.212  18.132  1.00  0.00    -0.392 OA
HETATM   15  H   UNL     1     -42.901 -55.532  18.087  1.00  0.00     0.210 HD
ENDBRANCH  13  14
BRANCH  13  16
HETATM   16  C   UNL     1     -45.577 -54.063  17.007  1.00  0.00     0.209 C 
BRANCH  16  17
HETATM   17  O   UNL     1     -46.143 -54.522  15.785  1.00  0.00    -0.349 OA
BRANCH  17  18
HETATM   18  C   UNL     1     -46.138 -53.616  14.761  1.00  0.00     0.068 A 
HETATM   19  C   UNL     1     -46.744 -52.395  15.054  1.00  0.00     0.037 A 
HETATM   20  C   UNL     1     -46.799 -51.385  14.095  1.00  0.00     0.003 A 
HETATM   21  C   UNL     1     -46.227 -51.589  12.842  1.00  0.00     0.000 A 
HETATM   22  C   UNL     1     -45.600 -52.797  12.550  1.00  0.00     0.003 A 
HETATM   23  C   UNL     1     -45.554 -53.811  13.509  1.00  0.00     0.037 A 
ENDBRANCH  17  18
ENDBRANCH  16  17
ENDBRANCH  13  16
ENDBRANCH   1  13
TORSDOF 6
ENDMDL
MODEL 5
REMARK VINA RESULT:      -5.9      3.298      5.465
REMARK  6 active torsions:
REMARK  status: ('A' for Active; 'I' for Inactive)
REMARK    1  A    between atoms: N_11  and  C_12 
REMARK    2  A    between atoms: C_12  and  C_13 
REMARK    3  A    between atoms: C_13  and  O_14 
REMARK    4  A    between atoms: C_13  and  C_15 
REMARK    5  A    between atoms: C_15  and  O_16 
REMARK    6  A    between atoms: O_16  and  C_17 
ROOT
HETATM    1  C   UNL     1     -41.658 -52.050  13.596  1.00  0.00     0.164 C 
ENDROOT
BRANCH   1   2
HETATM    2  N   UNL     1     -42.293 -52.359  14.873  1.00  0.00    -0.332 N 
HETATM    3  C   UNL     1     -43.103 -51.448  15.541  1.00  0.00     0.080 A 
HETATM    4  C   UNL     1     -43.363 -50.058  15.081  1.00  0.00     0.089 C 
HETATM    5  N   UNL     1     -43.619 -51.978  16.629  1.00  0.00    -0.344 N 
HETATM    6  C   UNL     1     -43.124 -53.251  16.693  1.00  0.00     0.060 A 
ATOM      7  HN  UNL     1     -44.256 -51.531  17.288  1.00  0.00     0.167 HD
HETATM    8  C   UNL     1     -43.378 -54.242  17.657  1.00  0.00     0.032 A 
HETATM    9  C   UNL     1     -42.271 -53.518  15.622  1.00  0.00     0.062 A 
HETATM   10  C   UNL     1     -42.766 -55.490  17.532  1.00  0.00     0.002 A 
HETATM   11  C   UNL     1     -41.905 -55.746  16.472  1.00  0.00     0.002 A 
HETATM   12  C   UNL     1     -41.637 -54.768  15.509  1.00  0.00     0.032 A 
ENDBRANCH   1   2
BRANCH   1  13
HETATM   13  C   UNL     1     -42.416 -52.376  12.300  1.00  0.00     0.160 C 
BRANCH  13  14
HETATM   14  O   UNL     1     -41.531 -52.581  11.193  1.00  0.00    -0.392 OA
HETATM   15  H   UNL     1     -41.163 -53.481  11.238  1.00  0.00     0.210 HD
ENDBRANCH  13  14
BRANCH  13  16
HETATM   16  C   UNL     1     -43.285 -53.630  12.418  1.00  0.00     0.209 C 
BRANCH  16  17
HETATM   17  O   UNL     1     -44.624 -53.316  12.051  1.00  0.00    -0.349 OA
BRANCH  17  18
HETATM   18  C   UNL     1     -45.437 -52.929  13.079  1.00  0.00     0.068 A 
HETATM   19  C   UNL     1     -45.661 -53.903  14.050  1.00  0.00     0.037 A 
HETATM   20  C   UNL     1     -46.467 -53.630  15.153  1.00  0.00     0.003 A 
HETATM   21  C   UNL     1     -47.040 -52.369  15.296  1.00  0.00     0.000 A 
HETATM   22  C   UNL     1     -46.803 -51.383  14.342  1.00  0.00     0.003 A 
HETATM   23  C   UNL     1     -46.001 -51.661  13.233  1.00  0.00     0.037 A 
ENDBRANCH  17  18
ENDBRANCH  16  17
ENDBRANCH  13  16
ENDBRANCH   1  13
TORSDOF 6
ENDMDL
MODEL 6
REMARK VINA RESULT:      -5.7      2.198      5.731
REMARK  6 active torsions:
REMARK  status: ('A' for Active; 'I' for Inactive)
REMARK    1  A    between atoms: N_11  and  C_12 
REMARK    2  A    between atoms: C_12  and  C_13 
REMARK    3  A    between atoms: C_13  and  O_14 
REMARK    4  A    between atoms: C_13  and  C_15 
REMARK    5  A    between atoms: C_15  and  O_16 
REMARK    6  A    between atoms: O_16  and  C_17 
ROOT
HETATM    1  C   UNL     1     -42.005 -54.170  13.300  1.00  0.00     0.164 C 
ENDROOT
BRANCH   1   2
HETATM    2  N   UNL     1     -43.011 -53.545  14.154  1.00  0.00    -0.332 N 
HETATM    3  C   UNL     1     -42.864 -53.456  15.533  1.00  0.00     0.080 A 
HETATM    4  C   UNL     1     -41.724 -54.028  16.298  1.00  0.00     0.089 C 
HETATM    5  N   UNL     1     -43.861 -52.789  16.075  1.00  0.00    -0.344 N 
HETATM    6  C   UNL     1     -44.690 -52.453  15.042  1.00  0.00     0.060 A 
ATOM      7  HN  UNL     1     -43.988 -52.569  17.063  1.00  0.00     0.167 HD
HETATM    8  C   UNL     1     -45.891 -51.724  15.083  1.00  0.00     0.032 A 
HETATM    9  C   UNL     1     -44.201 -52.931  13.824  1.00  0.00     0.062 A 
HETATM   10  C   UNL     1     -46.588 -51.487  13.897  1.00  0.00     0.002 A 
HETATM   11  C   UNL     1     -46.106 -51.978  12.690  1.00  0.00     0.002 A 
HETATM   12  C   UNL     1     -44.916 -52.712  12.634  1.00  0.00     0.032 A 
ENDBRANCH   1   2
BRANCH   1  13
HETATM   13  C   UNL     1     -40.840 -53.309  12.788  1.00  0.00     0.160 C 
BRANCH  13  14
HETATM   14  O   UNL     1     -40.661 -53.432  11.372  1.00  0.00    -0.392 OA
HETATM   15  H   UNL     1     -40.401 -52.570  11.004  1.00  0.00     0.210 HD
ENDBRANCH  13  14
BRANCH  13  16
HETATM   16  C   UNL     1     -41.022 -51.820  13.089  1.00  0.00     0.209 C 
BRANCH  16  17
HETATM   17  O   UNL     1     -41.496 -51.155  11.924  1.00  0.00    -0.349 OA
BRANCH  17  18
HETATM   18  C   UNL     1     -41.055 -49.871  11.762  1.00  0.00     0.068 A 
HETATM   19  C   UNL     1     -39.708 -49.671  12.057  1.00  0.00     0.037 A 
HETATM   20  C   UNL     1     -39.136 -48.407  11.925  1.00  0.00     0.003 A 
HETATM   21  C   UNL     1     -39.911 -47.339  11.479  1.00  0.00     0.000 A 
HETATM   22  C   UNL     1     -41.252 -47.536  11.162  1.00  0.00     0.003 A 
HETATM   23  C   UNL     1     -41.826 -48.802  11.301  1.00  0.00     0.037 A 
ENDBRANCH  17  18
ENDBRANCH  16  17
ENDBRANCH  13  16
ENDBRANCH   1  13
TORSDOF 6
ENDMDL
MODEL 7
REMARK VINA RESULT:      -5.7      1.969      3.225
REMARK  6 active torsions:
REMARK  status: ('A' for Active; 'I' for Inactive)
REMARK    1  A    between atoms: N_11  and  C_12 
REMARK    2  A    between atoms: C_12  and  C_13 
REMARK    3  A    between atoms: C_13  and  O_14 
REMARK    4  A    between atoms: C_13  and  C_15 
REMARK    5  A    between atoms: C_15  and  O_16 
REMARK    6  A    between atoms: O_16  and  C_17 
ROOT
HETATM    1  C   UNL     1     -41.603 -52.535  14.005  1.00  0.00     0.164 C 
ENDROOT
BRANCH   1   2
HETATM    2  N   UNL     1     -41.144 -51.200  13.634  1.00  0.00    -0.332 N 
HETATM    3  C   UNL     1     -41.974 -50.086  13.687  1.00  0.00     0.080 A 
HETATM    4  C   UNL     1     -43.414 -50.126  14.057  1.00  0.00     0.089 C 
HETATM    5  N   UNL     1     -41.319 -48.988  13.377  1.00  0.00    -0.344 N 
HETATM    6  C   UNL     1     -40.042 -49.385  13.093  1.00  0.00     0.060 A 
ATOM      7  HN  UNL     1     -41.688 -48.037  13.354  1.00  0.00     0.167 HD
HETATM    8  C   UNL     1     -38.942 -48.594  12.719  1.00  0.00     0.032 A 
HETATM    9  C   UNL     1     -39.900 -50.768  13.220  1.00  0.00     0.062 A 
HETATM   10  C   UNL     1     -37.711 -49.207  12.475  1.00  0.00     0.002 A 
HETATM   11  C   UNL     1     -37.579 -50.586  12.587  1.00  0.00     0.002 A 
HETATM   12  C   UNL     1     -38.667 -51.386  12.951  1.00  0.00     0.032 A 
ENDBRANCH   1   2
BRANCH   1  13
HETATM   13  C   UNL     1     -42.068 -53.486  12.892  1.00  0.00     0.160 C 
BRANCH  13  14
HETATM   14  O   UNL     1     -40.983 -54.239  12.337  1.00  0.00    -0.392 OA
HETATM   15  H   UNL     1     -40.158 -53.995  12.790  1.00  0.00     0.210 HD
ENDBRANCH  13  14
BRANCH  13  16
HETATM   16  C   UNL     1     -43.116 -54.494  13.369  1.00  0.00     0.209 C 
BRANCH  16  17
HETATM   17  O   UNL     1     -44.355 -54.234  12.719  1.00  0.00    -0.349 OA
BRANCH  17  18
HETATM   18  C   UNL     1     -45.170 -53.336  13.349  1.00  0.00     0.068 A 
HETATM   19  C   UNL     1     -45.869 -52.480  12.501  1.00  0.00     0.037 A 
HETATM   20  C   UNL     1     -46.739 -51.524  13.021  1.00  0.00     0.003 A 
HETATM   21  C   UNL     1     -46.926 -51.434  14.398  1.00  0.00     0.000 A 
HETATM   22  C   UNL     1     -46.248 -52.301  15.251  1.00  0.00     0.003 A 
HETATM   23  C   UNL     1     -45.371 -53.254  14.728  1.00  0.00     0.037 A 
ENDBRANCH  17  18
ENDBRANCH  16  17
ENDBRANCH  13  16
ENDBRANCH   1  13
TORSDOF 6
ENDMDL
MODEL 8
REMARK VINA RESULT:      -5.6      2.598      6.218
REMARK  6 active torsions:
REMARK  status: ('A' for Active; 'I' for Inactive)
REMARK    1  A    between atoms: N_11  and  C_12 
REMARK    2  A    between atoms: C_12  and  C_13 
REMARK    3  A    between atoms: C_13  and  O_14 
REMARK    4  A    between atoms: C_13  and  C_15 
REMARK    5  A    between atoms: C_15  and  O_16 
REMARK    6  A    between atoms: O_16  and  C_17 
ROOT
HETATM    1  C   UNL     1     -40.817 -52.813  12.001  1.00  0.00     0.164 C 
ENDROOT
BRANCH   1   2
HETATM    2  N   UNL     1     -41.539 -53.567  13.021  1.00  0.00    -0.332 N 
HETATM    3  C   UNL     1     -40.889 -54.216  14.065  1.00  0.00     0.080 A 
HETATM    4  C   UNL     1     -39.413 -54.275  14.232  1.00  0.00     0.089 C 
HETATM    5  N   UNL     1     -41.752 -54.764  14.895  1.00  0.00    -0.344 N 
HETATM    6  C   UNL     1     -42.988 -54.493  14.379  1.00  0.00     0.060 A 
ATOM      7  HN  UNL     1     -41.540 -55.283  15.747  1.00  0.00     0.167 HD
HETATM    8  C   UNL     1     -44.248 -54.845  14.893  1.00  0.00     0.032 A 
HETATM    9  C   UNL     1     -42.894 -53.765  13.192  1.00  0.00     0.062 A 
HETATM   10  C   UNL     1     -45.399 -54.462  14.202  1.00  0.00     0.002 A 
HETATM   11  C   UNL     1     -45.300 -53.751  13.013  1.00  0.00     0.002 A 
HETATM   12  C   UNL     1     -44.053 -53.400  12.485  1.00  0.00     0.032 A 
ENDBRANCH   1   2
BRANCH   1  13
HETATM   13  C   UNL     1     -40.273 -51.424  12.364  1.00  0.00     0.160 C 
BRANCH  13  14
HETATM   14  O   UNL     1     -38.904 -51.261  11.972  1.00  0.00    -0.392 OA
HETATM   15  H   UNL     1     -38.446 -50.706  12.627  1.00  0.00     0.210 HD
ENDBRANCH  13  14
BRANCH  13  16
HETATM   16  C   UNL     1     -41.063 -50.285  11.714  1.00  0.00     0.209 C 
BRANCH  16  17
HETATM   17  O   UNL     1     -40.328 -49.072  11.829  1.00  0.00    -0.349 OA
BRANCH  17  18
HETATM   18  C   UNL     1     -40.908 -47.979  11.248  1.00  0.00     0.068 A 
HETATM   19  C   UNL     1     -42.211 -48.177  10.795  1.00  0.00     0.037 A 
HETATM   20  C   UNL     1     -42.914 -47.137  10.190  1.00  0.00     0.003 A 
HETATM   21  C   UNL     1     -42.318 -45.886  10.053  1.00  0.00     0.000 A 
HETATM   22  C   UNL     1     -41.024 -45.675  10.523  1.00  0.00     0.003 A 
HETATM   23  C   UNL     1     -40.318 -46.720  11.123  1.00  0.00     0.037 A 
ENDBRANCH  17  18
ENDBRANCH  16  17
ENDBRANCH  13  16
ENDBRANCH   1  13
TORSDOF 6
ENDMDL
MODEL 9
REMARK VINA RESULT:      -5.5      2.967      6.207
REMARK  6 active torsions:
REMARK  status: ('A' for Active; 'I' for Inactive)
REMARK    1  A    between atoms: N_11  and  C_12 
REMARK    2  A    between atoms: C_12  and  C_13 
REMARK    3  A    between atoms: C_13  and  O_14 
REMARK    4  A    between atoms: C_13  and  C_15 
REMARK    5  A    between atoms: C_15  and  O_16 
REMARK    6  A    between atoms: O_16  and  C_17 
ROOT
HETATM    1  C   UNL     1     -41.801 -54.007  13.244  1.00  0.00     0.164 C 
ENDROOT
BRANCH   1   2
HETATM    2  N   UNL     1     -42.821 -53.331  14.039  1.00  0.00    -0.332 N 
HETATM    3  C   UNL     1     -42.642 -53.037  15.386  1.00  0.00     0.080 A 
HETATM    4  C   UNL     1     -41.446 -53.424  16.180  1.00  0.00     0.089 C 
HETATM    5  N   UNL     1     -43.665 -52.364  15.866  1.00  0.00    -0.344 N 
HETATM    6  C   UNL     1     -44.544 -52.230  14.827  1.00  0.00     0.060 A 
ATOM      7  HN  UNL     1     -43.779 -52.013  16.817  1.00  0.00     0.167 HD
HETATM    8  C   UNL     1     -45.789 -51.578  14.811  1.00  0.00     0.032 A 
HETATM    9  C   UNL     1     -44.059 -52.844  13.671  1.00  0.00     0.062 A 
HETATM   10  C   UNL     1     -46.533 -51.556  13.631  1.00  0.00     0.002 A 
HETATM   11  C   UNL     1     -46.054 -52.182  12.487  1.00  0.00     0.002 A 
HETATM   12  C   UNL     1     -44.820 -52.841  12.489  1.00  0.00     0.032 A 
ENDBRANCH   1   2
BRANCH   1  13
HETATM   13  C   UNL     1     -40.862 -53.155  12.377  1.00  0.00     0.160 C 
BRANCH  13  14
HETATM   14  O   UNL     1     -41.466 -52.782  11.133  1.00  0.00    -0.392 OA
HETATM   15  H   UNL     1     -42.221 -52.194  11.306  1.00  0.00     0.210 HD
ENDBRANCH  13  14
BRANCH  13  16
HETATM   16  C   UNL     1     -40.423 -51.861  13.067  1.00  0.00     0.209 C 
BRANCH  16  17
HETATM   17  O   UNL     1     -39.105 -51.525  12.651  1.00  0.00    -0.349 OA
BRANCH  17  18
HETATM   18  C   UNL     1     -38.504 -50.523  13.360  1.00  0.00     0.068 A 
HETATM   19  C   UNL     1     -37.898 -50.926  14.549  1.00  0.00     0.037 A 
HETATM   20  C   UNL     1     -37.246 -49.999  15.359  1.00  0.00     0.003 A 
HETATM   21  C   UNL     1     -37.183 -48.663  14.971  1.00  0.00     0.000 A 
HETATM   22  C   UNL     1     -37.767 -48.257  13.774  1.00  0.00     0.003 A 
HETATM   23  C   UNL     1     -38.427 -49.186  12.967  1.00  0.00     0.037 A 
ENDBRANCH  17  18
ENDBRANCH  16  17
ENDBRANCH  13  16
ENDBRANCH   1  13
TORSDOF 6
ENDMDL
