MODEL 1
REMARK VINA RESULT:      -6.9      0.000      0.000
REMARK  5 active torsions:
REMARK  status: ('A' for Active; 'I' for Inactive)
REMARK    1  A    between atoms: C_2  and  C_5 
REMARK    2  A    between atoms: C_10  and  N_11 
REMARK       I    between atoms: N_11  and  C_12 
REMARK       I    between atoms: C_12  and  N_14 
REMARK    3  A    between atoms: N_14  and  C_15 
REMARK    4  A    between atoms: C_15  and  C_16 
REMARK    5  A    between atoms: C_16  and  N_17 
ROOT
HETATM    1  N   UNL     1     -43.108 -45.863  10.763  1.00  0.00    -0.295 N 
HETATM    2  C   UNL     1     -41.962 -45.969  11.487  1.00  0.00     0.321 C 
HETATM    3  O   UNL     1     -41.788 -45.209  12.438  1.00  0.00    -0.247 OA
HETATM    4  N   UNL     1     -41.035 -46.881  11.078  1.00  0.00    -0.341 N 
HETATM    5  H   UNL     1     -43.679 -45.089  11.069  1.00  0.00     0.172 HD
HETATM    6  H   UNL     1     -41.403 -47.633  10.501  1.00  0.00     0.164 HD
ENDROOT
BRANCH   1   7
HETATM    7  C   UNL     1     -43.546 -46.639   9.693  1.00  0.00     0.109 A 
HETATM    8  N   UNL     1     -42.749 -46.812   8.617  1.00  0.00    -0.352 N 
HETATM    9  C   UNL     1     -43.223 -47.574   7.607  1.00  0.00     0.090 A 
ATOM     10  HN  UNL     1     -41.825 -46.383   8.569  1.00  0.00     0.166 HD
HETATM   11  C   UNL     1     -44.475 -48.162   7.610  1.00  0.00     0.033 A 
HETATM   12  C   UNL     1     -45.294 -47.975   8.722  1.00  0.00     0.052 A 
HETATM   13  C   UNL     1     -44.808 -47.209   9.790  1.00  0.00     0.064 A 
BRANCH  12  14
HETATM   14  C   UNL     1     -46.679 -48.560   8.778  1.00  0.00     0.417 C 
HETATM   15  F   UNL     1     -46.838 -49.480   9.769  1.00  0.00    -0.166 F 
HETATM   16  F   UNL     1     -47.019 -49.193   7.622  1.00  0.00    -0.166 F 
HETATM   17  F   UNL     1     -47.635 -47.615   8.985  1.00  0.00    -0.166 F 
ENDBRANCH  12  14
ENDBRANCH   1   7
BRANCH   4  18
HETATM   18  C   UNL     1     -39.831 -47.052  11.857  1.00  0.00     0.154 C 
BRANCH  18  19
HETATM   19  C   UNL     1     -39.689 -48.403  12.584  1.00  0.00     0.292 C 
BRANCH  19  20
HETATM   20  N   UNL     1     -39.407 -49.515  11.653  1.00  0.00     0.094 N 
HETATM   21  C   UNL     1     -40.233 -50.710  11.925  1.00  0.00     0.298 C 
HETATM   22  C   UNL     1     -39.761 -51.538  13.133  1.00  0.00     0.198 C 
HETATM   23  O   UNL     1     -38.387 -51.923  13.001  1.00  0.00    -0.388 OA
HETATM   24  C   UNL     1     -37.550 -50.774  12.831  1.00  0.00     0.198 C 
HETATM   25  C   UNL     1     -37.989 -49.941  11.617  1.00  0.00     0.298 C 
ENDBRANCH  19  20
ENDBRANCH  18  19
ENDBRANCH   4  18
TORSDOF 5
ENDMDL
MODEL 2
REMARK VINA RESULT:      -6.6      4.689      7.686
REMARK  5 active torsions:
REMARK  status: ('A' for Active; 'I' for Inactive)
REMARK    1  A    between atoms: C_2  and  C_5 
REMARK    2  A    between atoms: C_10  and  N_11 
REMARK       I    between atoms: N_11  and  C_12 
REMARK       I    between atoms: C_12  and  N_14 
REMARK    3  A    between atoms: N_14  and  C_15 
REMARK    4  A    between atoms: C_15  and  C_16 
REMARK    5  A    between atoms: C_16  and  N_17 
ROOT
HETATM    1  N   UNL     1     -41.235 -51.939  11.735  1.00  0.00    -0.295 N 
HETATM    2  C   UNL     1     -41.214 -50.582  11.654  1.00  0.00     0.321 C 
HETATM    3  O   UNL     1     -40.340 -50.041  10.978  1.00  0.00    -0.247 OA
HETATM    4  N   UNL     1     -42.135 -49.888  12.381  1.00  0.00    -0.341 N 
HETATM    5  H   UNL     1     -40.450 -52.359  11.259  1.00  0.00     0.172 HD
HETATM    6  H   UNL     1     -42.963 -50.419  12.638  1.00  0.00     0.164 HD
ENDROOT
BRANCH   1   7
HETATM    7  C   UNL     1     -42.148 -52.766  12.384  1.00  0.00     0.109 A 
HETATM    8  N   UNL     1     -43.402 -52.895  11.898  1.00  0.00    -0.352 N 
HETATM    9  C   UNL     1     -44.247 -53.711  12.566  1.00  0.00     0.090 A 
ATOM     10  HN  UNL     1     -43.699 -52.396  11.060  1.00  0.00     0.166 HD
HETATM   11  C   UNL     1     -43.905 -54.396  13.718  1.00  0.00     0.033 A 
HETATM   12  C   UNL     1     -42.611 -54.254  14.216  1.00  0.00     0.052 A 
HETATM   13  C   UNL     1     -41.713 -53.432  13.521  1.00  0.00     0.064 A 
BRANCH  12  14
HETATM   14  C   UNL     1     -42.182 -54.945  15.482  1.00  0.00     0.417 C 
HETATM   15  F   UNL     1     -42.665 -56.213  15.596  1.00  0.00    -0.166 F 
HETATM   16  F   UNL     1     -42.597 -54.285  16.597  1.00  0.00    -0.166 F 
HETATM   17  F   UNL     1     -40.830 -55.046  15.586  1.00  0.00    -0.166 F 
ENDBRANCH  12  14
ENDBRANCH   1   7
BRANCH   4  18
HETATM   18  C   UNL     1     -42.169 -48.448  12.274  1.00  0.00     0.154 C 
BRANCH  18  19
HETATM   19  C   UNL     1     -43.163 -47.876  11.247  1.00  0.00     0.292 C 
BRANCH  19  20
HETATM   20  N   UNL     1     -42.486 -47.347  10.043  1.00  0.00     0.094 N 
HETATM   21  C   UNL     1     -41.866 -46.026  10.274  1.00  0.00     0.298 C 
HETATM   22  C   UNL     1     -42.866 -44.856  10.284  1.00  0.00     0.198 C 
HETATM   23  O   UNL     1     -43.644 -44.820   9.080  1.00  0.00    -0.388 OA
HETATM   24  C   UNL     1     -44.333 -46.059   8.883  1.00  0.00     0.198 C 
HETATM   25  C   UNL     1     -43.353 -47.241   8.848  1.00  0.00     0.298 C 
ENDBRANCH  19  20
ENDBRANCH  18  19
ENDBRANCH   4  18
TORSDOF 5
ENDMDL
MODEL 3
REMARK VINA RESULT:      -6.6      4.543      6.743
REMARK  5 active torsions:
REMARK  status: ('A' for Active; 'I' for Inactive)
REMARK    1  A    between atoms: C_2  and  C_5 
REMARK    2  A    between atoms: C_10  and  N_11 
REMARK       I    between atoms: N_11  and  C_12 
REMARK       I    between atoms: C_12  and  N_14 
REMARK    3  A    between atoms: N_14  and  C_15 
REMARK    4  A    between atoms: C_15  and  C_16 
REMARK    5  A    between atoms: C_16  and  N_17 
ROOT
HETATM    1  N   UNL     1     -42.847 -52.440  12.818  1.00  0.00    -0.295 N 
HETATM    2  C   UNL     1     -41.921 -51.602  12.281  1.00  0.00     0.321 C 
HETATM    3  O   UNL     1     -40.793 -52.034  12.047  1.00  0.00    -0.247 OA
HETATM    4  N   UNL     1     -42.279 -50.301  12.085  1.00  0.00    -0.341 N 
HETATM    5  H   UNL     1     -42.458 -53.346  13.033  1.00  0.00     0.172 HD
HETATM    6  H   UNL     1     -43.281 -50.141  12.021  1.00  0.00     0.164 HD
ENDROOT
BRANCH   1   7
HETATM    7  C   UNL     1     -44.186 -52.197  13.112  1.00  0.00     0.109 A 
HETATM    8  N   UNL     1     -45.120 -52.322  12.146  1.00  0.00    -0.352 N 
HETATM    9  C   UNL     1     -46.404 -52.075  12.485  1.00  0.00     0.090 A 
ATOM     10  HN  UNL     1     -44.866 -52.592  11.196  1.00  0.00     0.166 HD
HETATM   11  C   UNL     1     -46.804 -51.685  13.751  1.00  0.00     0.033 A 
HETATM   12  C   UNL     1     -45.833 -51.553  14.742  1.00  0.00     0.052 A 
HETATM   13  C   UNL     1     -44.499 -51.831  14.414  1.00  0.00     0.064 A 
BRANCH  12  14
HETATM   14  C   UNL     1     -46.193 -51.103  16.132  1.00  0.00     0.417 C 
HETATM   15  F   UNL     1     -45.968 -52.051  17.083  1.00  0.00    -0.166 F 
HETATM   16  F   UNL     1     -47.507 -50.767  16.242  1.00  0.00    -0.166 F 
HETATM   17  F   UNL     1     -45.491 -50.005  16.521  1.00  0.00    -0.166 F 
ENDBRANCH  12  14
ENDBRANCH   1   7
BRANCH   4  18
HETATM   18  C   UNL     1     -41.334 -49.401  11.468  1.00  0.00     0.154 C 
BRANCH  18  19
HETATM   19  C   UNL     1     -41.914 -48.434  10.419  1.00  0.00     0.292 C 
BRANCH  19  20
HETATM   20  N   UNL     1     -43.043 -47.640  10.951  1.00  0.00     0.094 N 
HETATM   21  C   UNL     1     -44.026 -47.280   9.908  1.00  0.00     0.298 C 
HETATM   22  C   UNL     1     -43.579 -46.122   8.997  1.00  0.00     0.198 C 
HETATM   23  O   UNL     1     -43.236 -44.958   9.758  1.00  0.00    -0.388 OA
HETATM   24  C   UNL     1     -42.214 -45.258  10.715  1.00  0.00     0.198 C 
HETATM   25  C   UNL     1     -42.645 -46.398  11.650  1.00  0.00     0.298 C 
ENDBRANCH  19  20
ENDBRANCH  18  19
ENDBRANCH   4  18
TORSDOF 5
ENDMDL
MODEL 4
REMARK VINA RESULT:      -6.5      4.463      5.572
REMARK  5 active torsions:
REMARK  status: ('A' for Active; 'I' for Inactive)
REMARK    1  A    between atoms: C_2  and  C_5 
REMARK    2  A    between atoms: C_10  and  N_11 
REMARK       I    between atoms: N_11  and  C_12 
REMARK       I    between atoms: C_12  and  N_14 
REMARK    3  A    between atoms: N_14  and  C_15 
REMARK    4  A    between atoms: C_15  and  C_16 
REMARK    5  A    between atoms: C_16  and  N_17 
ROOT
HETATM    1  N   UNL     1     -40.855 -49.047  10.643  1.00  0.00    -0.295 N 
HETATM    2  C   UNL     1     -41.079 -50.079  11.498  1.00  0.00     0.321 C 
HETATM    3  O   UNL     1     -40.148 -50.831  11.780  1.00  0.00    -0.247 OA
HETATM    4  N   UNL     1     -42.352 -50.261  11.953  1.00  0.00    -0.341 N 
HETATM    5  H   UNL     1     -39.916 -49.060  10.271  1.00  0.00     0.172 HD
HETATM    6  H   UNL     1     -42.943 -49.435  11.907  1.00  0.00     0.164 HD
ENDROOT
BRANCH   1   7
HETATM    7  C   UNL     1     -41.727 -48.045  10.226  1.00  0.00     0.109 A 
HETATM    8  N   UNL     1     -42.592 -48.286   9.217  1.00  0.00    -0.352 N 
HETATM    9  C   UNL     1     -43.417 -47.281   8.852  1.00  0.00     0.090 A 
ATOM     10  HN  UNL     1     -42.622 -49.192   8.749  1.00  0.00     0.166 HD
HETATM   11  C   UNL     1     -43.408 -46.026   9.436  1.00  0.00     0.033 A 
HETATM   12  C   UNL     1     -42.508 -45.784  10.473  1.00  0.00     0.052 A 
HETATM   13  C   UNL     1     -41.663 -46.824  10.882  1.00  0.00     0.064 A 
BRANCH  12  14
HETATM   14  C   UNL     1     -42.423 -44.434  11.132  1.00  0.00     0.417 C 
HETATM   15  F   UNL     1     -42.738 -44.458  12.456  1.00  0.00    -0.166 F 
HETATM   16  F   UNL     1     -43.263 -43.528  10.563  1.00  0.00    -0.166 F 
HETATM   17  F   UNL     1     -41.177 -43.895  11.051  1.00  0.00    -0.166 F 
ENDBRANCH  12  14
ENDBRANCH   1   7
BRANCH   4  18
HETATM   18  C   UNL     1     -42.611 -51.318  12.903  1.00  0.00     0.154 C 
BRANCH  18  19
HETATM   19  C   UNL     1     -44.079 -51.487  13.335  1.00  0.00     0.292 C 
BRANCH  19  20
HETATM   20  N   UNL     1     -44.709 -52.680  12.731  1.00  0.00     0.094 N 
HETATM   21  C   UNL     1     -46.059 -52.946  13.270  1.00  0.00     0.298 C 
HETATM   22  C   UNL     1     -46.060 -53.593  14.667  1.00  0.00     0.198 C 
HETATM   23  O   UNL     1     -45.287 -54.800  14.688  1.00  0.00    -0.388 OA
HETATM   24  C   UNL     1     -43.944 -54.550  14.259  1.00  0.00     0.198 C 
HETATM   25  C   UNL     1     -43.915 -53.924  12.857  1.00  0.00     0.298 C 
ENDBRANCH  19  20
ENDBRANCH  18  19
ENDBRANCH   4  18
TORSDOF 5
ENDMDL
MODEL 5
REMARK VINA RESULT:      -6.5      3.445      4.739
REMARK  5 active torsions:
REMARK  status: ('A' for Active; 'I' for Inactive)
REMARK    1  A    between atoms: C_2  and  C_5 
REMARK    2  A    between atoms: C_10  and  N_11 
REMARK       I    between atoms: N_11  and  C_12 
REMARK       I    between atoms: C_12  and  N_14 
REMARK    3  A    between atoms: N_14  and  C_15 
REMARK    4  A    between atoms: C_15  and  C_16 
REMARK    5  A    between atoms: C_16  and  N_17 
ROOT
HETATM    1  N   UNL     1     -40.642 -49.528  10.806  1.00  0.00    -0.295 N 
HETATM    2  C   UNL     1     -40.902 -50.400  11.816  1.00  0.00     0.321 C 
HETATM    3  O   UNL     1     -40.296 -51.470  11.848  1.00  0.00    -0.247 OA
HETATM    4  N   UNL     1     -41.872 -50.062  12.712  1.00  0.00    -0.341 N 
HETATM    5  H   UNL     1     -39.997 -49.912  10.131  1.00  0.00     0.172 HD
HETATM    6  H   UNL     1     -42.072 -49.067  12.768  1.00  0.00     0.164 HD
ENDROOT
BRANCH   1   7
HETATM    7  C   UNL     1     -41.154 -48.251  10.594  1.00  0.00     0.109 A 
HETATM    8  N   UNL     1     -40.459 -47.170  11.008  1.00  0.00    -0.352 N 
HETATM    9  C   UNL     1     -41.001 -45.955  10.776  1.00  0.00     0.090 A 
ATOM     10  HN  UNL     1     -39.559 -47.268  11.477  1.00  0.00     0.166 HD
HETATM   11  C   UNL     1     -42.227 -45.763  10.163  1.00  0.00     0.033 A 
HETATM   12  C   UNL     1     -42.941 -46.884   9.743  1.00  0.00     0.052 A 
HETATM   13  C   UNL     1     -42.381 -48.152   9.952  1.00  0.00     0.064 A 
BRANCH  12  14
HETATM   14  C   UNL     1     -44.294 -46.750   9.098  1.00  0.00     0.417 C 
HETATM   15  F   UNL     1     -45.319 -47.135   9.908  1.00  0.00    -0.166 F 
HETATM   16  F   UNL     1     -44.405 -47.502   7.970  1.00  0.00    -0.166 F 
HETATM   17  F   UNL     1     -44.568 -45.471   8.727  1.00  0.00    -0.166 F 
ENDBRANCH  12  14
ENDBRANCH   1   7
BRANCH   4  18
HETATM   18  C   UNL     1     -42.133 -50.944  13.826  1.00  0.00     0.154 C 
BRANCH  18  19
HETATM   19  C   UNL     1     -43.383 -51.835  13.696  1.00  0.00     0.292 C 
BRANCH  19  20
HETATM   20  N   UNL     1     -43.077 -53.148  13.089  1.00  0.00     0.094 N 
HETATM   21  C   UNL     1     -44.285 -53.847  12.606  1.00  0.00     0.298 C 
HETATM   22  C   UNL     1     -45.118 -54.504  13.721  1.00  0.00     0.198 C 
HETATM   23  O   UNL     1     -44.326 -55.401  14.510  1.00  0.00    -0.388 OA
HETATM   24  C   UNL     1     -43.196 -54.723  15.069  1.00  0.00     0.198 C 
HETATM   25  C   UNL     1     -42.337 -54.076  13.973  1.00  0.00     0.298 C 
ENDBRANCH  19  20
ENDBRANCH  18  19
ENDBRANCH   4  18
TORSDOF 5
ENDMDL
MODEL 6
REMARK VINA RESULT:      -6.5      2.898      3.703
REMARK  5 active torsions:
REMARK  status: ('A' for Active; 'I' for Inactive)
REMARK    1  A    between atoms: C_2  and  C_5 
REMARK    2  A    between atoms: C_10  and  N_11 
REMARK       I    between atoms: N_11  and  C_12 
REMARK       I    between atoms: C_12  and  N_14 
REMARK    3  A    between atoms: N_14  and  C_15 
REMARK    4  A    between atoms: C_15  and  C_16 
REMARK    5  A    between atoms: C_16  and  N_17 
ROOT
HETATM    1  N   UNL     1     -42.832 -47.684  12.123  1.00  0.00    -0.295 N 
HETATM    2  C   UNL     1     -42.142 -48.790  12.508  1.00  0.00     0.321 C 
HETATM    3  O   UNL     1     -41.795 -48.896  13.683  1.00  0.00    -0.247 OA
HETATM    4  N   UNL     1     -41.816 -49.701  11.547  1.00  0.00    -0.341 N 
HETATM    5  H   UNL     1     -42.925 -47.016  12.875  1.00  0.00     0.172 HD
HETATM    6  H   UNL     1     -42.398 -49.668  10.714  1.00  0.00     0.164 HD
ENDROOT
BRANCH   1   7
HETATM    7  C   UNL     1     -43.370 -47.373  10.878  1.00  0.00     0.109 A 
HETATM    8  N   UNL     1     -42.716 -46.524  10.056  1.00  0.00    -0.352 N 
HETATM    9  C   UNL     1     -43.282 -46.257   8.859  1.00  0.00     0.090 A 
ATOM     10  HN  UNL     1     -41.829 -46.101  10.329  1.00  0.00     0.166 HD
HETATM   11  C   UNL     1     -44.492 -46.785   8.445  1.00  0.00     0.033 A 
HETATM   12  C   UNL     1     -45.164 -47.657   9.301  1.00  0.00     0.052 A 
HETATM   13  C   UNL     1     -44.578 -47.965  10.536  1.00  0.00     0.064 A 
BRANCH  12  14
HETATM   14  C   UNL     1     -46.499 -48.242   8.927  1.00  0.00     0.417 C 
HETATM   15  F   UNL     1     -46.534 -48.743   7.662  1.00  0.00    -0.166 F 
HETATM   16  F   UNL     1     -47.502 -47.326   8.996  1.00  0.00    -0.166 F 
HETATM   17  F   UNL     1     -46.865 -49.265   9.746  1.00  0.00    -0.166 F 
ENDBRANCH  12  14
ENDBRANCH   1   7
BRANCH   4  18
HETATM   18  C   UNL     1     -41.129 -50.911  11.934  1.00  0.00     0.154 C 
BRANCH  18  19
HETATM   19  C   UNL     1     -42.009 -52.168  12.071  1.00  0.00     0.292 C 
BRANCH  19  20
HETATM   20  N   UNL     1     -42.890 -52.110  13.257  1.00  0.00     0.094 N 
HETATM   21  C   UNL     1     -42.358 -52.883  14.399  1.00  0.00     0.298 C 
HETATM   22  C   UNL     1     -42.550 -54.405  14.271  1.00  0.00     0.198 C 
HETATM   23  O   UNL     1     -43.925 -54.745  14.059  1.00  0.00    -0.388 OA
HETATM   24  C   UNL     1     -44.440 -54.082  12.899  1.00  0.00     0.198 C 
HETATM   25  C   UNL     1     -44.280 -52.559  13.012  1.00  0.00     0.298 C 
ENDBRANCH  19  20
ENDBRANCH  18  19
ENDBRANCH   4  18
TORSDOF 5
ENDMDL
MODEL 7
REMARK VINA RESULT:      -6.2      5.318      7.018
REMARK  5 active torsions:
REMARK  status: ('A' for Active; 'I' for Inactive)
REMARK    1  A    between atoms: C_2  and  C_5 
REMARK    2  A    between atoms: C_10  and  N_11 
REMARK       I    between atoms: N_11  and  C_12 
REMARK       I    between atoms: C_12  and  N_14 
REMARK    3  A    between atoms: N_14  and  C_15 
REMARK    4  A    between atoms: C_15  and  C_16 
REMARK    5  A    between atoms: C_16  and  N_17 
ROOT
HETATM    1  N   UNL     1     -40.352 -50.703  11.270  1.00  0.00    -0.295 N 
HETATM    2  C   UNL     1     -41.119 -51.714  11.755  1.00  0.00     0.321 C 
HETATM    3  O   UNL     1     -40.666 -52.857  11.757  1.00  0.00    -0.247 OA
HETATM    4  N   UNL     1     -42.385 -51.411  12.162  1.00  0.00    -0.341 N 
HETATM    5  H   UNL     1     -39.480 -51.039  10.887  1.00  0.00     0.172 HD
HETATM    6  H   UNL     1     -42.533 -50.433  12.400  1.00  0.00     0.164 HD
ENDROOT
BRANCH   1   7
HETATM    7  C   UNL     1     -40.625 -49.339  11.218  1.00  0.00     0.109 A 
HETATM    8  N   UNL     1     -41.459 -48.856  10.271  1.00  0.00    -0.352 N 
HETATM    9  C   UNL     1     -41.691 -47.525  10.266  1.00  0.00     0.090 A 
ATOM     10  HN  UNL     1     -41.897 -49.473   9.587  1.00  0.00     0.166 HD
HETATM   11  C   UNL     1     -41.109 -46.639  11.155  1.00  0.00     0.033 A 
HETATM   12  C   UNL     1     -40.245 -47.144  12.126  1.00  0.00     0.052 A 
HETATM   13  C   UNL     1     -40.014 -48.526  12.163  1.00  0.00     0.064 A 
BRANCH  12  14
HETATM   14  C   UNL     1     -39.554 -46.234  13.105  1.00  0.00     0.417 C 
HETATM   15  F   UNL     1     -39.107 -45.077  12.544  1.00  0.00    -0.166 F 
HETATM   16  F   UNL     1     -38.465 -46.819  13.673  1.00  0.00    -0.166 F 
HETATM   17  F   UNL     1     -40.364 -45.866  14.133  1.00  0.00    -0.166 F 
ENDBRANCH  12  14
ENDBRANCH   1   7
BRANCH   4  18
HETATM   18  C   UNL     1     -43.205 -52.454  12.731  1.00  0.00     0.154 C 
BRANCH  18  19
HETATM   19  C   UNL     1     -44.601 -52.021  13.218  1.00  0.00     0.292 C 
BRANCH  19  20
HETATM   20  N   UNL     1     -45.569 -53.138  13.216  1.00  0.00     0.094 N 
HETATM   21  C   UNL     1     -46.649 -52.957  14.208  1.00  0.00     0.298 C 
HETATM   22  C   UNL     1     -46.228 -53.262  15.657  1.00  0.00     0.198 C 
HETATM   23  O   UNL     1     -45.678 -54.580  15.778  1.00  0.00    -0.388 OA
HETATM   24  C   UNL     1     -44.566 -54.751  14.892  1.00  0.00     0.198 C 
HETATM   25  C   UNL     1     -44.967 -54.472  13.436  1.00  0.00     0.298 C 
ENDBRANCH  19  20
ENDBRANCH  18  19
ENDBRANCH   4  18
TORSDOF 5
ENDMDL
MODEL 8
REMARK VINA RESULT:      -6.0      4.652      7.156
REMARK  5 active torsions:
REMARK  status: ('A' for Active; 'I' for Inactive)
REMARK    1  A    between atoms: C_2  and  C_5 
REMARK    2  A    between atoms: C_10  and  N_11 
REMARK       I    between atoms: N_11  and  C_12 
REMARK       I    between atoms: C_12  and  N_14 
REMARK    3  A    between atoms: N_14  and  C_15 
REMARK    4  A    between atoms: C_15  and  C_16 
REMARK    5  A    between atoms: C_16  and  N_17 
ROOT
HETATM    1  N   UNL     1     -40.988 -49.533  10.667  1.00  0.00    -0.295 N 
HETATM    2  C   UNL     1     -41.389 -48.259  10.418  1.00  0.00     0.321 C 
HETATM    3  O   UNL     1     -42.468 -48.074   9.856  1.00  0.00    -0.247 OA
HETATM    4  N   UNL     1     -40.538 -47.248  10.755  1.00  0.00    -0.341 N 
HETATM    5  H   UNL     1     -41.626 -50.213  10.281  1.00  0.00     0.172 HD
HETATM    6  H   UNL     1     -39.851 -47.488  11.464  1.00  0.00     0.164 HD
ENDROOT
BRANCH   1   7
HETATM    7  C   UNL     1     -39.849 -49.982  11.331  1.00  0.00     0.109 A 
HETATM    8  N   UNL     1     -38.628 -49.749  10.804  1.00  0.00    -0.352 N 
HETATM    9  C   UNL     1     -37.557 -50.206  11.489  1.00  0.00     0.090 A 
ATOM     10  HN  UNL     1     -38.519 -49.248   9.922  1.00  0.00     0.166 HD
HETATM   11  C   UNL     1     -37.647 -50.908  12.678  1.00  0.00     0.033 A 
HETATM   12  C   UNL     1     -38.911 -51.149  13.213  1.00  0.00     0.052 A 
HETATM   13  C   UNL     1     -40.032 -50.660  12.528  1.00  0.00     0.064 A 
BRANCH  12  14
HETATM   14  C   UNL     1     -39.083 -51.934  14.485  1.00  0.00     0.417 C 
HETATM   15  F   UNL     1     -39.074 -53.282  14.294  1.00  0.00    -0.166 F 
HETATM   16  F   UNL     1     -40.258 -51.652  15.111  1.00  0.00    -0.166 F 
HETATM   17  F   UNL     1     -38.103 -51.675  15.392  1.00  0.00    -0.166 F 
ENDBRANCH  12  14
ENDBRANCH   1   7
BRANCH   4  18
HETATM   18  C   UNL     1     -40.960 -45.882  10.550  1.00  0.00     0.154 C 
BRANCH  18  19
HETATM   19  C   UNL     1     -41.524 -45.161  11.789  1.00  0.00     0.292 C 
BRANCH  19  20
HETATM   20  N   UNL     1     -40.748 -43.951  12.137  1.00  0.00     0.094 N 
HETATM   21  C   UNL     1     -39.320 -44.242  12.381  1.00  0.00     0.298 C 
HETATM   22  C   UNL     1     -39.034 -44.877  13.753  1.00  0.00     0.198 C 
HETATM   23  O   UNL     1     -39.552 -44.075  14.822  1.00  0.00    -0.388 OA
HETATM   24  C   UNL     1     -40.958 -43.858  14.660  1.00  0.00     0.198 C 
HETATM   25  C   UNL     1     -41.267 -43.204  13.305  1.00  0.00     0.298 C 
ENDBRANCH  19  20
ENDBRANCH  18  19
ENDBRANCH   4  18
TORSDOF 5
ENDMDL
MODEL 9
REMARK VINA RESULT:      -6.0      4.580      6.085
REMARK  5 active torsions:
REMARK  status: ('A' for Active; 'I' for Inactive)
REMARK    1  A    between atoms: C_2  and  C_5 
REMARK    2  A    between atoms: C_10  and  N_11 
REMARK       I    between atoms: N_11  and  C_12 
REMARK       I    between atoms: C_12  and  N_14 
REMARK    3  A    between atoms: N_14  and  C_15 
REMARK    4  A    between atoms: C_15  and  C_16 
REMARK    5  A    between atoms: C_16  and  N_17 
ROOT
HETATM    1  N   UNL     1     -42.682 -52.942  12.821  1.00  0.00    -0.295 N 
HETATM    2  C   UNL     1     -41.675 -52.225  12.256  1.00  0.00     0.321 C 
HETATM    3  O   UNL     1     -40.584 -52.767  12.083  1.00  0.00    -0.247 OA
HETATM    4  N   UNL     1     -41.914 -50.915  11.965  1.00  0.00    -0.341 N 
HETATM    5  H   UNL     1     -42.379 -53.862  13.106  1.00  0.00     0.172 HD
HETATM    6  H   UNL     1     -42.897 -50.674  11.863  1.00  0.00     0.164 HD
ENDROOT
BRANCH   1   7
HETATM    7  C   UNL     1     -44.001 -52.566  13.062  1.00  0.00     0.109 A 
HETATM    8  N   UNL     1     -44.910 -52.627  12.065  1.00  0.00    -0.352 N 
HETATM    9  C   UNL     1     -46.175 -52.251  12.353  1.00  0.00     0.090 A 
ATOM     10  HN  UNL     1     -44.651 -52.945  11.131  1.00  0.00     0.166 HD
HETATM   11  C   UNL     1     -46.578 -51.793  13.595  1.00  0.00     0.033 A 
HETATM   12  C   UNL     1     -45.633 -51.728  14.617  1.00  0.00     0.052 A 
HETATM   13  C   UNL     1     -44.321 -52.139  14.343  1.00  0.00     0.064 A 
BRANCH  12  14
HETATM   14  C   UNL     1     -45.995 -51.210  15.983  1.00  0.00     0.417 C 
HETATM   15  F   UNL     1     -45.770 -52.109  16.980  1.00  0.00    -0.166 F 
HETATM   16  F   UNL     1     -47.309 -50.870  16.075  1.00  0.00    -0.166 F 
HETATM   17  F   UNL     1     -45.293 -50.094  16.318  1.00  0.00    -0.166 F 
ENDBRANCH  12  14
ENDBRANCH   1   7
BRANCH   4  18
HETATM   18  C   UNL     1     -40.880 -50.143  11.317  1.00  0.00     0.154 C 
BRANCH  18  19
HETATM   19  C   UNL     1     -40.582 -48.766  11.938  1.00  0.00     0.292 C 
BRANCH  19  20
HETATM   20  N   UNL     1     -40.346 -48.846  13.396  1.00  0.00     0.094 N 
HETATM   21  C   UNL     1     -40.295 -47.517  14.039  1.00  0.00     0.298 C 
HETATM   22  C   UNL     1     -38.971 -46.763  13.818  1.00  0.00     0.198 C 
HETATM   23  O   UNL     1     -37.846 -47.543  14.237  1.00  0.00    -0.388 OA
HETATM   24  C   UNL     1     -37.818 -48.803  13.556  1.00  0.00     0.198 C 
HETATM   25  C   UNL     1     -39.121 -49.584  13.779  1.00  0.00     0.298 C 
ENDBRANCH  19  20
ENDBRANCH  18  19
ENDBRANCH   4  18
TORSDOF 5
ENDMDL
