MODEL 1
REMARK VINA RESULT:      -5.4      0.000      0.000
REMARK  6 active torsions:
REMARK  status: ('A' for Active; 'I' for Inactive)
REMARK    1  A    between atoms: C_2  and  N_5 
REMARK       I    between atoms: N_5  and  C_6 
REMARK    2  A    between atoms: C_6  and  C_8 
REMARK    3  A    between atoms: C_8  and  N_9 
REMARK    4  A    between atoms: C_11  and  C_12 
REMARK    5  A    between atoms: C_12  and  C_13 
REMARK    6  A    between atoms: C_13  and  O_14 
ROOT
HETATM    1  N   UNL     1     -41.425 -50.525  12.065  1.00  0.00    -0.294 N 
HETATM    2  C   UNL     1     -40.596 -51.602  12.209  1.00  0.00     0.119 A 
HETATM    3  C   UNL     1     -41.395 -52.660  12.588  1.00  0.00    -0.022 A 
HETATM    4  C   UNL     1     -42.694 -52.108  12.657  1.00  0.00     0.115 A 
HETATM    5  N   UNL     1     -42.716 -50.810  12.350  1.00  0.00    -0.309 N 
ATOM      6  HN  UNL     1     -43.518 -50.180  12.335  1.00  0.00     0.186 HD
ENDROOT
BRANCH   1   7
HETATM    7  C   UNL     1     -41.066 -49.191  11.614  1.00  0.00     0.250 C 
BRANCH   7   8
HETATM    8  C   UNL     1     -42.248 -48.370  11.140  1.00  0.00     0.238 C 
HETATM    9  N   UNL     1     -42.414 -48.268   9.775  1.00  0.00    -0.352 N 
HETATM   10  H   UNL     1     -41.732 -48.770   9.200  1.00  0.00     0.163 HD
HETATM   11  O   UNL     1     -42.961 -47.781  11.954  1.00  0.00    -0.272 OA
BRANCH   9  12
HETATM   12  C   UNL     1     -43.471 -47.516   9.091  1.00  0.00     0.022 C 
HETATM   13  C   UNL     1     -44.819 -47.715   9.796  1.00  0.00     0.037 C 
HETATM   14  C   UNL     1     -43.569 -47.933   7.615  1.00  0.00     0.037 C 
HETATM   15  C   UNL     1     -43.111 -46.019   9.144  1.00  0.00     0.037 C 
ENDBRANCH   9  12
ENDBRANCH   7   8
ENDBRANCH   1   7
BRANCH   3  16
HETATM   16  C   UNL     1     -41.009 -54.079  12.847  1.00  0.00     0.067 C 
BRANCH  16  17
HETATM   17  C   UNL     1     -39.933 -54.223  13.923  1.00  0.00     0.168 C 
BRANCH  17  18
HETATM   18  O   UNL     1     -38.686 -54.623  13.360  1.00  0.00    -0.401 OA
HETATM   19  H   UNL     1     -38.030 -54.597  14.081  1.00  0.00     0.209 HD
ENDBRANCH  17  18
ENDBRANCH  16  17
ENDBRANCH   3  16
TORSDOF 6
ENDMDL
MODEL 2
REMARK VINA RESULT:      -5.3      3.057      6.720
REMARK  6 active torsions:
REMARK  status: ('A' for Active; 'I' for Inactive)
REMARK    1  A    between atoms: C_2  and  N_5 
REMARK       I    between atoms: N_5  and  C_6 
REMARK    2  A    between atoms: C_6  and  C_8 
REMARK    3  A    between atoms: C_8  and  N_9 
REMARK    4  A    between atoms: C_11  and  C_12 
REMARK    5  A    between atoms: C_12  and  C_13 
REMARK    6  A    between atoms: C_13  and  O_14 
ROOT
HETATM    1  N   UNL     1     -42.541 -48.306  10.984  1.00  0.00    -0.294 N 
HETATM    2  C   UNL     1     -43.792 -47.757  10.963  1.00  0.00     0.119 A 
HETATM    3  C   UNL     1     -44.029 -47.380   9.657  1.00  0.00    -0.022 A 
HETATM    4  C   UNL     1     -42.846 -47.736   8.972  1.00  0.00     0.115 A 
HETATM    5  N   UNL     1     -41.935 -48.289   9.775  1.00  0.00    -0.309 N 
ATOM      6  HN  UNL     1     -41.001 -48.621   9.534  1.00  0.00     0.186 HD
ENDROOT
BRANCH   1   7
HETATM    7  C   UNL     1     -41.864 -48.912  12.118  1.00  0.00     0.250 C 
BRANCH   7   8
HETATM    8  C   UNL     1     -40.357 -48.753  12.084  1.00  0.00     0.238 C 
HETATM    9  N   UNL     1     -39.620 -49.819  12.556  1.00  0.00    -0.352 N 
HETATM   10  H   UNL     1     -40.156 -50.632  12.873  1.00  0.00     0.163 HD
HETATM   11  O   UNL     1     -39.853 -47.692  11.715  1.00  0.00    -0.272 OA
BRANCH   9  12
HETATM   12  C   UNL     1     -38.158 -49.885  12.635  1.00  0.00     0.022 C 
HETATM   13  C   UNL     1     -37.619 -48.807  13.586  1.00  0.00     0.037 C 
HETATM   14  C   UNL     1     -37.528 -49.735  11.240  1.00  0.00     0.037 C 
HETATM   15  C   UNL     1     -37.765 -51.266  13.193  1.00  0.00     0.037 C 
ENDBRANCH   9  12
ENDBRANCH   7   8
ENDBRANCH   1   7
BRANCH   3  16
HETATM   16  C   UNL     1     -45.254 -46.762   9.069  1.00  0.00     0.067 C 
BRANCH  16  17
HETATM   17  C   UNL     1     -46.406 -47.751   8.898  1.00  0.00     0.168 C 
BRANCH  17  18
HETATM   18  O   UNL     1     -46.386 -48.355   7.609  1.00  0.00    -0.401 OA
HETATM   19  H   UNL     1     -47.133 -47.980   7.108  1.00  0.00     0.209 HD
ENDBRANCH  17  18
ENDBRANCH  16  17
ENDBRANCH   3  16
TORSDOF 6
ENDMDL
MODEL 3
REMARK VINA RESULT:      -5.2      4.618      6.617
REMARK  6 active torsions:
REMARK  status: ('A' for Active; 'I' for Inactive)
REMARK    1  A    between atoms: C_2  and  N_5 
REMARK       I    between atoms: N_5  and  C_6 
REMARK    2  A    between atoms: C_6  and  C_8 
REMARK    3  A    between atoms: C_8  and  N_9 
REMARK    4  A    between atoms: C_11  and  C_12 
REMARK    5  A    between atoms: C_12  and  C_13 
REMARK    6  A    between atoms: C_13  and  O_14 
ROOT
HETATM    1  N   UNL     1     -42.644 -47.103  10.122  1.00  0.00    -0.294 N 
HETATM    2  C   UNL     1     -43.917 -47.495  10.424  1.00  0.00     0.119 A 
HETATM    3  C   UNL     1     -44.707 -47.103   9.362  1.00  0.00    -0.022 A 
HETATM    4  C   UNL     1     -43.807 -46.468   8.476  1.00  0.00     0.115 A 
HETATM    5  N   UNL     1     -42.555 -46.456   8.938  1.00  0.00    -0.309 N 
ATOM      6  HN  UNL     1     -41.726 -46.053   8.500  1.00  0.00     0.186 HD
ENDROOT
BRANCH   1   7
HETATM    7  C   UNL     1     -41.440 -47.347  10.899  1.00  0.00     0.250 C 
BRANCH   7   8
HETATM    8  C   UNL     1     -40.605 -46.105  11.135  1.00  0.00     0.238 C 
HETATM    9  N   UNL     1     -40.966 -45.321  12.210  1.00  0.00    -0.352 N 
HETATM   10  H   UNL     1     -41.760 -45.656  12.764  1.00  0.00     0.163 HD
HETATM   11  O   UNL     1     -39.703 -45.804  10.351  1.00  0.00    -0.272 OA
BRANCH   9  12
HETATM   12  C   UNL     1     -40.318 -44.071  12.620  1.00  0.00     0.022 C 
HETATM   13  C   UNL     1     -40.466 -43.002  11.528  1.00  0.00     0.037 C 
HETATM   14  C   UNL     1     -38.834 -44.307  12.945  1.00  0.00     0.037 C 
HETATM   15  C   UNL     1     -41.014 -43.561  13.896  1.00  0.00     0.037 C 
ENDBRANCH   9  12
ENDBRANCH   7   8
ENDBRANCH   1   7
BRANCH   3  16
HETATM   16  C   UNL     1     -46.171 -47.311   9.157  1.00  0.00     0.067 C 
BRANCH  16  17
HETATM   17  C   UNL     1     -46.498 -48.622   8.442  1.00  0.00     0.168 C 
BRANCH  17  18
HETATM   18  O   UNL     1     -46.848 -49.646   9.368  1.00  0.00    -0.401 OA
HETATM   19  H   UNL     1     -46.428 -49.415  10.217  1.00  0.00     0.209 HD
ENDBRANCH  17  18
ENDBRANCH  16  17
ENDBRANCH   3  16
TORSDOF 6
ENDMDL
MODEL 4
REMARK VINA RESULT:      -5.2      1.843      2.494
REMARK  6 active torsions:
REMARK  status: ('A' for Active; 'I' for Inactive)
REMARK    1  A    between atoms: C_2  and  N_5 
REMARK       I    between atoms: N_5  and  C_6 
REMARK    2  A    between atoms: C_6  and  C_8 
REMARK    3  A    between atoms: C_8  and  N_9 
REMARK    4  A    between atoms: C_11  and  C_12 
REMARK    5  A    between atoms: C_12  and  C_13 
REMARK    6  A    between atoms: C_13  and  O_14 
ROOT
HETATM    1  N   UNL     1     -41.810 -49.704  12.371  1.00  0.00    -0.294 N 
HETATM    2  C   UNL     1     -40.666 -49.599  13.111  1.00  0.00     0.119 A 
HETATM    3  C   UNL     1     -39.949 -50.756  12.884  1.00  0.00    -0.022 A 
HETATM    4  C   UNL     1     -40.761 -51.500  12.000  1.00  0.00     0.115 A 
HETATM    5  N   UNL     1     -41.897 -50.871  11.694  1.00  0.00    -0.309 N 
ATOM      6  HN  UNL     1     -42.654 -51.194  11.090  1.00  0.00     0.186 HD
ENDROOT
BRANCH   1   7
HETATM    7  C   UNL     1     -42.858 -48.708  12.225  1.00  0.00     0.250 C 
BRANCH   7   8
HETATM    8  C   UNL     1     -42.915 -48.082  10.846  1.00  0.00     0.238 C 
HETATM    9  N   UNL     1     -44.164 -47.710  10.395  1.00  0.00    -0.352 N 
HETATM   10  H   UNL     1     -44.943 -47.876  11.039  1.00  0.00     0.163 HD
HETATM   11  O   UNL     1     -41.894 -47.987  10.164  1.00  0.00    -0.272 OA
BRANCH   9  12
HETATM   12  C   UNL     1     -44.463 -47.103   9.094  1.00  0.00     0.022 C 
HETATM   13  C   UNL     1     -43.847 -47.931   7.958  1.00  0.00     0.037 C 
HETATM   14  C   UNL     1     -43.956 -45.653   9.039  1.00  0.00     0.037 C 
HETATM   15  C   UNL     1     -45.992 -47.085   8.909  1.00  0.00     0.037 C 
ENDBRANCH   9  12
ENDBRANCH   7   8
ENDBRANCH   1   7
BRANCH   3  16
HETATM   16  C   UNL     1     -38.609 -51.147  13.415  1.00  0.00     0.067 C 
BRANCH  16  17
HETATM   17  C   UNL     1     -37.460 -50.785  12.476  1.00  0.00     0.168 C 
BRANCH  17  18
HETATM   18  O   UNL     1     -36.763 -51.946  12.035  1.00  0.00    -0.401 OA
HETATM   19  H   UNL     1     -37.419 -52.665  11.980  1.00  0.00     0.209 HD
ENDBRANCH  17  18
ENDBRANCH  16  17
ENDBRANCH   3  16
TORSDOF 6
ENDMDL
MODEL 5
REMARK VINA RESULT:      -5.2      3.528      5.204
REMARK  6 active torsions:
REMARK  status: ('A' for Active; 'I' for Inactive)
REMARK    1  A    between atoms: C_2  and  N_5 
REMARK       I    between atoms: N_5  and  C_6 
REMARK    2  A    between atoms: C_6  and  C_8 
REMARK    3  A    between atoms: C_8  and  N_9 
REMARK    4  A    between atoms: C_11  and  C_12 
REMARK    5  A    between atoms: C_12  and  C_13 
REMARK    6  A    between atoms: C_13  and  O_14 
ROOT
HETATM    1  N   UNL     1     -42.213 -53.396  12.777  1.00  0.00    -0.294 N 
HETATM    2  C   UNL     1     -42.797 -54.302  13.616  1.00  0.00     0.119 A 
HETATM    3  C   UNL     1     -44.152 -54.253  13.359  1.00  0.00    -0.022 A 
HETATM    4  C   UNL     1     -44.279 -53.270  12.353  1.00  0.00     0.115 A 
HETATM    5  N   UNL     1     -43.106 -52.739  12.003  1.00  0.00    -0.309 N 
ATOM      6  HN  UNL     1     -42.925 -52.008  11.314  1.00  0.00     0.186 HD
ENDROOT
BRANCH   1   7
HETATM    7  C   UNL     1     -40.793 -53.126  12.623  1.00  0.00     0.250 C 
BRANCH   7   8
HETATM    8  C   UNL     1     -40.427 -51.667  12.800  1.00  0.00     0.238 C 
HETATM    9  N   UNL     1     -39.273 -51.246  12.174  1.00  0.00    -0.352 N 
HETATM   10  H   UNL     1     -38.772 -51.954  11.630  1.00  0.00     0.163 HD
HETATM   11  O   UNL     1     -41.106 -50.940  13.526  1.00  0.00    -0.272 OA
BRANCH   9  12
HETATM   12  C   UNL     1     -38.716 -49.891  12.218  1.00  0.00     0.022 C 
HETATM   13  C   UNL     1     -38.235 -49.550  13.635  1.00  0.00     0.037 C 
HETATM   14  C   UNL     1     -39.751 -48.859  11.738  1.00  0.00     0.037 C 
HETATM   15  C   UNL     1     -37.505 -49.834  11.267  1.00  0.00     0.037 C 
ENDBRANCH   9  12
ENDBRANCH   7   8
ENDBRANCH   1   7
BRANCH   3  16
HETATM   16  C   UNL     1     -45.251 -55.059  13.969  1.00  0.00     0.067 C 
BRANCH  16  17
HETATM   17  C   UNL     1     -46.112 -54.261  14.946  1.00  0.00     0.168 C 
BRANCH  17  18
HETATM   18  O   UNL     1     -47.267 -53.728  14.305  1.00  0.00    -0.401 OA
HETATM   19  H   UNL     1     -47.994 -54.359  14.459  1.00  0.00     0.209 HD
ENDBRANCH  17  18
ENDBRANCH  16  17
ENDBRANCH   3  16
TORSDOF 6
ENDMDL
MODEL 6
REMARK VINA RESULT:      -5.2      3.920      5.522
REMARK  6 active torsions:
REMARK  status: ('A' for Active; 'I' for Inactive)
REMARK    1  A    between atoms: C_2  and  N_5 
REMARK       I    between atoms: N_5  and  C_6 
REMARK    2  A    between atoms: C_6  and  C_8 
REMARK    3  A    between atoms: C_8  and  N_9 
REMARK    4  A    between atoms: C_11  and  C_12 
REMARK    5  A    between atoms: C_12  and  C_13 
REMARK    6  A    between atoms: C_13  and  O_14 
ROOT
HETATM    1  N   UNL     1     -41.763 -53.033  12.875  1.00  0.00    -0.294 N 
HETATM    2  C   UNL     1     -40.555 -52.658  13.393  1.00  0.00     0.119 A 
HETATM    3  C   UNL     1     -40.095 -51.629  12.598  1.00  0.00    -0.022 A 
HETATM    4  C   UNL     1     -41.099 -51.471  11.617  1.00  0.00     0.115 A 
HETATM    5  N   UNL     1     -42.109 -52.329  11.774  1.00  0.00    -0.309 N 
ATOM      6  HN  UNL     1     -42.946 -52.429  11.199  1.00  0.00     0.186 HD
ENDROOT
BRANCH   1   7
HETATM    7  C   UNL     1     -42.674 -54.036  13.402  1.00  0.00     0.250 C 
BRANCH   7   8
HETATM    8  C   UNL     1     -44.136 -53.661  13.269  1.00  0.00     0.238 C 
HETATM    9  N   UNL     1     -44.629 -52.779  14.208  1.00  0.00    -0.352 N 
HETATM   10  H   UNL     1     -43.958 -52.442  14.904  1.00  0.00     0.163 HD
HETATM   11  O   UNL     1     -44.835 -54.186  12.401  1.00  0.00    -0.272 OA
BRANCH   9  12
HETATM   12  C   UNL     1     -46.008 -52.289  14.287  1.00  0.00     0.022 C 
HETATM   13  C   UNL     1     -46.968 -53.432  14.645  1.00  0.00     0.037 C 
HETATM   14  C   UNL     1     -46.429 -51.628  12.964  1.00  0.00     0.037 C 
HETATM   15  C   UNL     1     -46.081 -51.226  15.399  1.00  0.00     0.037 C 
ENDBRANCH   9  12
ENDBRANCH   7   8
ENDBRANCH   1   7
BRANCH   3  16
HETATM   16  C   UNL     1     -38.841 -50.830  12.734  1.00  0.00     0.067 C 
BRANCH  16  17
HETATM   17  C   UNL     1     -38.737 -49.694  11.717  1.00  0.00     0.168 C 
BRANCH  17  18
HETATM   18  O   UNL     1     -37.938 -50.068  10.599  1.00  0.00    -0.401 OA
HETATM   19  H   UNL     1     -38.457 -50.714  10.084  1.00  0.00     0.209 HD
ENDBRANCH  17  18
ENDBRANCH  16  17
ENDBRANCH   3  16
TORSDOF 6
ENDMDL
MODEL 7
REMARK VINA RESULT:      -5.0      2.099      2.863
REMARK  6 active torsions:
REMARK  status: ('A' for Active; 'I' for Inactive)
REMARK    1  A    between atoms: C_2  and  N_5 
REMARK       I    between atoms: N_5  and  C_6 
REMARK    2  A    between atoms: C_6  and  C_8 
REMARK    3  A    between atoms: C_8  and  N_9 
REMARK    4  A    between atoms: C_11  and  C_12 
REMARK    5  A    between atoms: C_12  and  C_13 
REMARK    6  A    between atoms: C_13  and  O_14 
ROOT
HETATM    1  N   UNL     1     -39.942 -50.740  12.103  1.00  0.00    -0.294 N 
HETATM    2  C   UNL     1     -39.690 -51.596  13.137  1.00  0.00     0.119 A 
HETATM    3  C   UNL     1     -40.587 -52.637  13.008  1.00  0.00    -0.022 A 
HETATM    4  C   UNL     1     -41.346 -52.301  11.865  1.00  0.00     0.115 A 
HETATM    5  N   UNL     1     -40.966 -51.144  11.318  1.00  0.00    -0.309 N 
ATOM      6  HN  UNL     1     -41.356 -50.676  10.500  1.00  0.00     0.186 HD
ENDROOT
BRANCH   1   7
HETATM    7  C   UNL     1     -39.216 -49.526  11.768  1.00  0.00     0.250 C 
BRANCH   7   8
HETATM    8  C   UNL     1     -40.063 -48.271  11.838  1.00  0.00     0.238 C 
HETATM    9  N   UNL     1     -39.661 -47.218  11.044  1.00  0.00    -0.352 N 
HETATM   10  H   UNL     1     -38.833 -47.382  10.464  1.00  0.00     0.163 HD
HETATM   11  O   UNL     1     -41.010 -48.204  12.623  1.00  0.00    -0.272 OA
BRANCH   9  12
HETATM   12  C   UNL     1     -40.312 -45.907  10.961  1.00  0.00     0.022 C 
HETATM   13  C   UNL     1     -39.525 -44.970  10.034  1.00  0.00     0.037 C 
HETATM   14  C   UNL     1     -40.462 -45.282  12.357  1.00  0.00     0.037 C 
HETATM   15  C   UNL     1     -41.721 -46.103  10.369  1.00  0.00     0.037 C 
ENDBRANCH   9  12
ENDBRANCH   7   8
ENDBRANCH   1   7
BRANCH   3  16
HETATM   16  C   UNL     1     -40.728 -53.862  13.850  1.00  0.00     0.067 C 
BRANCH  16  17
HETATM   17  C   UNL     1     -39.393 -54.390  14.372  1.00  0.00     0.168 C 
BRANCH  17  18
HETATM   18  O   UNL     1     -38.660 -55.055  13.347  1.00  0.00    -0.401 OA
HETATM   19  H   UNL     1     -39.315 -55.462  12.750  1.00  0.00     0.209 HD
ENDBRANCH  17  18
ENDBRANCH  16  17
ENDBRANCH   3  16
TORSDOF 6
ENDMDL
MODEL 8
REMARK VINA RESULT:      -4.8      3.154      5.887
REMARK  6 active torsions:
REMARK  status: ('A' for Active; 'I' for Inactive)
REMARK    1  A    between atoms: C_2  and  N_5 
REMARK       I    between atoms: N_5  and  C_6 
REMARK    2  A    between atoms: C_6  and  C_8 
REMARK    3  A    between atoms: C_8  and  N_9 
REMARK    4  A    between atoms: C_11  and  C_12 
REMARK    5  A    between atoms: C_12  and  C_13 
REMARK    6  A    between atoms: C_13  and  O_14 
ROOT
HETATM    1  N   UNL     1     -41.634 -52.822  13.011  1.00  0.00    -0.294 N 
HETATM    2  C   UNL     1     -41.811 -51.836  12.083  1.00  0.00     0.119 A 
HETATM    3  C   UNL     1     -40.660 -51.076  12.098  1.00  0.00    -0.022 A 
HETATM    4  C   UNL     1     -39.855 -51.685  13.086  1.00  0.00     0.115 A 
HETATM    5  N   UNL     1     -40.446 -52.739  13.651  1.00  0.00    -0.309 N 
ATOM      6  HN  UNL     1     -40.086 -53.342  14.392  1.00  0.00     0.186 HD
ENDROOT
BRANCH   1   7
HETATM    7  C   UNL     1     -42.542 -53.915  13.320  1.00  0.00     0.250 C 
BRANCH   7   8
HETATM    8  C   UNL     1     -44.006 -53.541  13.205  1.00  0.00     0.238 C 
HETATM    9  N   UNL     1     -44.504 -52.712  14.187  1.00  0.00    -0.352 N 
HETATM   10  H   UNL     1     -43.836 -52.408  14.901  1.00  0.00     0.163 HD
HETATM   11  O   UNL     1     -44.701 -54.024  12.310  1.00  0.00    -0.272 OA
BRANCH   9  12
HETATM   12  C   UNL     1     -45.886 -52.235  14.290  1.00  0.00     0.022 C 
HETATM   13  C   UNL     1     -46.347 -51.624  12.959  1.00  0.00     0.037 C 
HETATM   14  C   UNL     1     -46.028 -51.212  15.429  1.00  0.00     0.037 C 
HETATM   15  C   UNL     1     -46.792 -53.439  14.610  1.00  0.00     0.037 C 
ENDBRANCH   9  12
ENDBRANCH   7   8
ENDBRANCH   1   7
BRANCH   3  16
HETATM   16  C   UNL     1     -40.307 -49.894  11.257  1.00  0.00     0.067 C 
BRANCH  16  17
HETATM   17  C   UNL     1     -41.455 -48.895  11.111  1.00  0.00     0.168 C 
BRANCH  17  18
HETATM   18  O   UNL     1     -41.650 -48.524   9.749  1.00  0.00    -0.401 OA
HETATM   19  H   UNL     1     -40.833 -48.758   9.272  1.00  0.00     0.209 HD
ENDBRANCH  17  18
ENDBRANCH  16  17
ENDBRANCH   3  16
TORSDOF 6
ENDMDL
MODEL 9
REMARK VINA RESULT:      -4.8      2.987      6.647
REMARK  6 active torsions:
REMARK  status: ('A' for Active; 'I' for Inactive)
REMARK    1  A    between atoms: C_2  and  N_5 
REMARK       I    between atoms: N_5  and  C_6 
REMARK    2  A    between atoms: C_6  and  C_8 
REMARK    3  A    between atoms: C_8  and  N_9 
REMARK    4  A    between atoms: C_11  and  C_12 
REMARK    5  A    between atoms: C_12  and  C_13 
REMARK    6  A    between atoms: C_13  and  O_14 
ROOT
HETATM    1  N   UNL     1     -42.425 -48.761  12.360  1.00  0.00    -0.294 N 
HETATM    2  C   UNL     1     -42.679 -47.438  12.127  1.00  0.00     0.119 A 
HETATM    3  C   UNL     1     -42.301 -47.194  10.823  1.00  0.00    -0.022 A 
HETATM    4  C   UNL     1     -41.819 -48.439  10.362  1.00  0.00     0.115 A 
HETATM    5  N   UNL     1     -41.882 -49.391  11.294  1.00  0.00    -0.309 N 
ATOM      6  HN  UNL     1     -41.589 -50.365  11.221  1.00  0.00     0.186 HD
ENDROOT
BRANCH   1   7
HETATM    7  C   UNL     1     -42.715 -49.513  13.569  1.00  0.00     0.250 C 
BRANCH   7   8
HETATM    8  C   UNL     1     -43.609 -50.715  13.340  1.00  0.00     0.238 C 
HETATM    9  N   UNL     1     -44.795 -50.737  14.042  1.00  0.00    -0.352 N 
HETATM   10  H   UNL     1     -44.975 -49.930  14.647  1.00  0.00     0.163 HD
HETATM   11  O   UNL     1     -43.236 -51.636  12.613  1.00  0.00    -0.272 OA
BRANCH   9  12
HETATM   12  C   UNL     1     -45.803 -51.800  13.993  1.00  0.00     0.022 C 
HETATM   13  C   UNL     1     -45.184 -53.151  14.375  1.00  0.00     0.037 C 
HETATM   14  C   UNL     1     -46.447 -51.878  12.599  1.00  0.00     0.037 C 
HETATM   15  C   UNL     1     -46.908 -51.466  15.014  1.00  0.00     0.037 C 
ENDBRANCH   9  12
ENDBRANCH   7   8
ENDBRANCH   1   7
BRANCH   3  16
HETATM   16  C   UNL     1     -42.394 -45.924  10.043  1.00  0.00     0.067 C 
BRANCH  16  17
HETATM   17  C   UNL     1     -43.715 -45.776   9.288  1.00  0.00     0.168 C 
BRANCH  17  18
HETATM   18  O   UNL     1     -44.168 -44.426   9.293  1.00  0.00    -0.401 OA
HETATM   19  H   UNL     1     -43.390 -43.865   9.120  1.00  0.00     0.209 HD
ENDBRANCH  17  18
ENDBRANCH  16  17
ENDBRANCH   3  16
TORSDOF 6
ENDMDL
