MODEL 1
REMARK VINA RESULT:      -6.1      0.000      0.000
REMARK  4 active torsions:
REMARK  status: ('A' for Active; 'I' for Inactive)
REMARK    1  A    between atoms: C_6  and  C_7 
REMARK    2  A    between atoms: C_6  and  N_20 
REMARK    3  A    between atoms: C_7  and  N_8 
REMARK       I    between atoms: N_8  and  C_9 
REMARK       I    between atoms: C_9  and  N_11 
REMARK    4  A    between atoms: N_11  and  C_12 
ROOT
HETATM    1  N   UNL     1     -41.952 -51.504  11.780  1.00  0.00    -0.340 N 
HETATM    2  C   UNL     1     -42.741 -52.028  12.782  1.00  0.00     0.320 C 
HETATM    3  O   UNL     1     -42.376 -52.068  13.951  1.00  0.00    -0.247 OA
HETATM    4  N   UNL     1     -43.926 -52.544  12.301  1.00  0.00    -0.308 N 
HETATM    5  H   UNL     1     -42.379 -51.185  10.922  1.00  0.00     0.164 HD
HETATM    6  H   UNL     1     -43.942 -52.739  11.311  1.00  0.00     0.170 HD
ENDROOT
BRANCH   1   7
HETATM    7  C   UNL     1     -40.626 -50.976  12.082  1.00  0.00     0.166 C 
BRANCH   7   8
HETATM    8  C   UNL     1     -40.574 -49.416  12.297  1.00  0.00     0.175 C 
HETATM    9  C   UNL     1     -40.509 -49.152  13.831  1.00  0.00     0.043 C 
HETATM   10  C   UNL     1     -39.264 -49.738  14.499  1.00  0.00     0.003 C 
HETATM   11  C   UNL     1     -37.956 -49.331  13.829  1.00  0.00     0.004 C 
HETATM   12  C   UNL     1     -37.936 -49.278  12.292  1.00  0.00    -0.016 C 
HETATM   13  C   UNL     1     -37.358 -50.522  11.608  1.00  0.00     0.010 C 
HETATM   14  C   UNL     1     -39.270 -48.822  11.675  1.00  0.00     0.047 C 
BRANCH   8  15
HETATM   15  N   UNL     1     -41.823 -48.779  11.721  1.00  0.00     0.091 N 
HETATM   16  C   UNL     1     -42.623 -48.013  12.691  1.00  0.00     0.310 C 
HETATM   17  C   UNL     1     -41.566 -47.903  10.567  1.00  0.00     0.310 C 
ENDBRANCH   8  15
ENDBRANCH   7   8
ENDBRANCH   1   7
BRANCH   4  18
HETATM   18  C   UNL     1     -44.934 -53.135  13.097  1.00  0.00     0.051 A 
HETATM   19  C   UNL     1     -45.877 -52.401  13.818  1.00  0.00     0.032 A 
HETATM   20  C   UNL     1     -46.804 -53.059  14.627  1.00  0.00     0.019 A 
HETATM   21  C   UNL     1     -46.766 -54.441  14.682  1.00  0.00     0.088 A 
HETATM   22  N   UNL     1     -45.898 -55.194  13.972  1.00  0.00    -0.373 N 
HETATM   23  C   UNL     1     -45.010 -54.524  13.196  1.00  0.00     0.117 A 
ATOM     24  HN  UNL     1     -45.911 -56.214  14.017  1.00  0.00     0.164 HD
ENDBRANCH   4  18
TORSDOF 4
ENDMDL
MODEL 2
REMARK VINA RESULT:      -5.9      2.489      6.903
REMARK  4 active torsions:
REMARK  status: ('A' for Active; 'I' for Inactive)
REMARK    1  A    between atoms: C_6  and  C_7 
REMARK    2  A    between atoms: C_6  and  N_20 
REMARK    3  A    between atoms: C_7  and  N_8 
REMARK       I    between atoms: N_8  and  C_9 
REMARK       I    between atoms: C_9  and  N_11 
REMARK    4  A    between atoms: N_11  and  C_12 
ROOT
HETATM    1  N   UNL     1     -42.306 -51.563  12.112  1.00  0.00    -0.340 N 
HETATM    2  C   UNL     1     -42.229 -50.187  12.153  1.00  0.00     0.320 C 
HETATM    3  O   UNL     1     -42.791 -49.524  13.019  1.00  0.00    -0.247 OA
HETATM    4  N   UNL     1     -41.518 -49.668  11.092  1.00  0.00    -0.308 N 
HETATM    5  H   UNL     1     -41.598 -52.088  11.619  1.00  0.00     0.164 HD
HETATM    6  H   UNL     1     -41.406 -50.288  10.303  1.00  0.00     0.170 HD
ENDROOT
BRANCH   1   7
HETATM    7  C   UNL     1     -43.079 -52.291  13.111  1.00  0.00     0.166 C 
BRANCH   7   8
HETATM    8  C   UNL     1     -42.213 -53.043  14.191  1.00  0.00     0.175 C 
HETATM    9  C   UNL     1     -42.496 -52.379  15.572  1.00  0.00     0.043 C 
HETATM   10  C   UNL     1     -43.956 -52.489  16.014  1.00  0.00     0.003 C 
HETATM   11  C   UNL     1     -44.506 -53.912  15.979  1.00  0.00     0.004 C 
HETATM   12  C   UNL     1     -44.089 -54.802  14.797  1.00  0.00    -0.016 C 
HETATM   13  C   UNL     1     -45.107 -54.880  13.654  1.00  0.00     0.010 C 
HETATM   14  C   UNL     1     -42.655 -54.538  14.303  1.00  0.00     0.047 C 
BRANCH   8  15
HETATM   15  N   UNL     1     -40.741 -52.908  13.851  1.00  0.00     0.091 N 
HETATM   16  C   UNL     1     -39.948 -52.171  14.849  1.00  0.00     0.310 C 
HETATM   17  C   UNL     1     -40.066 -54.192  13.607  1.00  0.00     0.310 C 
ENDBRANCH   8  15
ENDBRANCH   7   8
ENDBRANCH   1   7
BRANCH   4  18
HETATM   18  C   UNL     1     -41.268 -48.293  10.879  1.00  0.00     0.051 A 
HETATM   19  C   UNL     1     -40.191 -47.609  11.443  1.00  0.00     0.032 A 
HETATM   20  C   UNL     1     -40.046 -46.237  11.232  1.00  0.00     0.019 A 
HETATM   21  C   UNL     1     -40.984 -45.590  10.447  1.00  0.00     0.088 A 
HETATM   22  N   UNL     1     -42.019 -46.218   9.847  1.00  0.00    -0.373 N 
HETATM   23  C   UNL     1     -42.132 -47.550  10.074  1.00  0.00     0.117 A 
ATOM     24  HN  UNL     1     -42.681 -45.716   9.255  1.00  0.00     0.164 HD
ENDBRANCH   4  18
TORSDOF 4
ENDMDL
MODEL 3
REMARK VINA RESULT:      -5.8      1.535      2.209
REMARK  4 active torsions:
REMARK  status: ('A' for Active; 'I' for Inactive)
REMARK    1  A    between atoms: C_6  and  C_7 
REMARK    2  A    between atoms: C_6  and  N_20 
REMARK    3  A    between atoms: C_7  and  N_8 
REMARK       I    between atoms: N_8  and  C_9 
REMARK       I    between atoms: C_9  and  N_11 
REMARK    4  A    between atoms: N_11  and  C_12 
ROOT
HETATM    1  N   UNL     1     -43.524 -49.511  12.483  1.00  0.00    -0.340 N 
HETATM    2  C   UNL     1     -43.805 -50.610  13.269  1.00  0.00     0.320 C 
HETATM    3  O   UNL     1     -43.212 -50.835  14.318  1.00  0.00    -0.247 OA
HETATM    4  N   UNL     1     -44.760 -51.428  12.703  1.00  0.00    -0.308 N 
HETATM    5  H   UNL     1     -44.216 -49.174  11.830  1.00  0.00     0.164 HD
HETATM    6  H   UNL     1     -44.909 -51.299  11.714  1.00  0.00     0.170 HD
ENDROOT
BRANCH   1   7
HETATM    7  C   UNL     1     -42.486 -48.566  12.879  1.00  0.00     0.166 C 
BRANCH   7   8
HETATM    8  C   UNL     1     -41.751 -47.857  11.679  1.00  0.00     0.175 C 
HETATM    9  C   UNL     1     -40.714 -46.863  12.281  1.00  0.00     0.043 C 
HETATM   10  C   UNL     1     -39.636 -47.543  13.126  1.00  0.00     0.003 C 
HETATM   11  C   UNL     1     -38.928 -48.692  12.416  1.00  0.00     0.004 C 
HETATM   12  C   UNL     1     -39.789 -49.621  11.545  1.00  0.00    -0.016 C 
HETATM   13  C   UNL     1     -40.225 -50.925  12.223  1.00  0.00     0.010 C 
HETATM   14  C   UNL     1     -40.950 -48.900  10.836  1.00  0.00     0.047 C 
BRANCH   8  15
HETATM   15  N   UNL     1     -42.760 -47.098  10.839  1.00  0.00     0.091 N 
HETATM   16  C   UNL     1     -42.509 -45.650  10.742  1.00  0.00     0.310 C 
HETATM   17  C   UNL     1     -42.905 -47.617   9.470  1.00  0.00     0.310 C 
ENDBRANCH   8  15
ENDBRANCH   7   8
ENDBRANCH   1   7
BRANCH   4  18
HETATM   18  C   UNL     1     -45.254 -52.618  13.285  1.00  0.00     0.051 A 
HETATM   19  C   UNL     1     -44.596 -53.846  13.202  1.00  0.00     0.032 A 
HETATM   20  C   UNL     1     -45.177 -54.989  13.753  1.00  0.00     0.019 A 
HETATM   21  C   UNL     1     -46.402 -54.865  14.384  1.00  0.00     0.088 A 
HETATM   22  N   UNL     1     -47.056 -53.691  14.524  1.00  0.00    -0.373 N 
HETATM   23  C   UNL     1     -46.464 -52.601  13.976  1.00  0.00     0.117 A 
ATOM     24  HN  UNL     1     -47.948 -53.629  15.016  1.00  0.00     0.164 HD
ENDBRANCH   4  18
TORSDOF 4
ENDMDL
MODEL 4
REMARK VINA RESULT:      -5.5      2.584      7.067
REMARK  4 active torsions:
REMARK  status: ('A' for Active; 'I' for Inactive)
REMARK    1  A    between atoms: C_6  and  C_7 
REMARK    2  A    between atoms: C_6  and  N_20 
REMARK    3  A    between atoms: C_7  and  N_8 
REMARK       I    between atoms: N_8  and  C_9 
REMARK       I    between atoms: C_9  and  N_11 
REMARK    4  A    between atoms: N_11  and  C_12 
ROOT
HETATM    1  N   UNL     1     -43.487 -50.548  12.875  1.00  0.00    -0.340 N 
HETATM    2  C   UNL     1     -42.707 -49.411  12.853  1.00  0.00     0.320 C 
HETATM    3  O   UNL     1     -41.965 -49.107  13.780  1.00  0.00    -0.247 OA
HETATM    4  N   UNL     1     -42.915 -48.653  11.720  1.00  0.00    -0.308 N 
HETATM    5  H   UNL     1     -43.820 -50.943  12.007  1.00  0.00     0.164 HD
HETATM    6  H   UNL     1     -43.772 -48.847  11.223  1.00  0.00     0.170 HD
ENDROOT
BRANCH   1   7
HETATM    7  C   UNL     1     -43.460 -51.441  14.028  1.00  0.00     0.166 C 
BRANCH   7   8
HETATM    8  C   UNL     1     -43.010 -52.916  13.706  1.00  0.00     0.175 C 
HETATM    9  C   UNL     1     -43.207 -53.764  14.998  1.00  0.00     0.043 C 
HETATM   10  C   UNL     1     -44.661 -53.832  15.467  1.00  0.00     0.003 C 
HETATM   11  C   UNL     1     -45.639 -54.272  14.383  1.00  0.00     0.004 C 
HETATM   12  C   UNL     1     -45.413 -53.727  12.963  1.00  0.00    -0.016 C 
HETATM   13  C   UNL     1     -46.271 -52.513  12.591  1.00  0.00     0.010 C 
HETATM   14  C   UNL     1     -43.927 -53.540  12.605  1.00  0.00     0.047 C 
BRANCH   8  15
HETATM   15  N   UNL     1     -41.548 -52.928  13.305  1.00  0.00     0.091 N 
HETATM   16  C   UNL     1     -40.636 -52.341  14.300  1.00  0.00     0.310 C 
HETATM   17  C   UNL     1     -41.035 -54.264  12.965  1.00  0.00     0.310 C 
ENDBRANCH   8  15
ENDBRANCH   7   8
ENDBRANCH   1   7
BRANCH   4  18
HETATM   18  C   UNL     1     -42.250 -47.442  11.422  1.00  0.00     0.051 A 
HETATM   19  C   UNL     1     -42.751 -46.185  11.760  1.00  0.00     0.032 A 
HETATM   20  C   UNL     1     -42.062 -45.032  11.378  1.00  0.00     0.019 A 
HETATM   21  C   UNL     1     -40.879 -45.176  10.675  1.00  0.00     0.088 A 
HETATM   22  N   UNL     1     -40.336 -46.372  10.361  1.00  0.00    -0.373 N 
HETATM   23  C   UNL     1     -41.031 -47.471  10.745  1.00  0.00     0.117 A 
ATOM     24  HN  UNL     1     -39.449 -46.444   9.861  1.00  0.00     0.164 HD
ENDBRANCH   4  18
TORSDOF 4
ENDMDL
MODEL 5
REMARK VINA RESULT:      -5.5      2.793      7.185
REMARK  4 active torsions:
REMARK  status: ('A' for Active; 'I' for Inactive)
REMARK    1  A    between atoms: C_6  and  C_7 
REMARK    2  A    between atoms: C_6  and  N_20 
REMARK    3  A    between atoms: C_7  and  N_8 
REMARK       I    between atoms: N_8  and  C_9 
REMARK       I    between atoms: C_9  and  N_11 
REMARK    4  A    between atoms: N_11  and  C_12 
ROOT
HETATM    1  N   UNL     1     -43.938 -50.987  12.900  1.00  0.00    -0.340 N 
HETATM    2  C   UNL     1     -42.969 -50.016  12.759  1.00  0.00     0.320 C 
HETATM    3  O   UNL     1     -41.877 -50.095  13.310  1.00  0.00    -0.247 OA
HETATM    4  N   UNL     1     -43.400 -48.951  11.997  1.00  0.00    -0.308 N 
HETATM    5  H   UNL     1     -44.666 -51.071  12.206  1.00  0.00     0.164 HD
HETATM    6  H   UNL     1     -44.401 -48.870  11.896  1.00  0.00     0.170 HD
ENDROOT
BRANCH   1   7
HETATM    7  C   UNL     1     -43.694 -52.160  13.732  1.00  0.00     0.166 C 
BRANCH   7   8
HETATM    8  C   UNL     1     -44.272 -52.060  15.194  1.00  0.00     0.175 C 
HETATM    9  C   UNL     1     -45.566 -51.195  15.133  1.00  0.00     0.043 C 
HETATM   10  C   UNL     1     -46.665 -51.801  14.260  1.00  0.00     0.003 C 
HETATM   11  C   UNL     1     -47.002 -53.248  14.607  1.00  0.00     0.004 C 
HETATM   12  C   UNL     1     -45.832 -54.179  14.964  1.00  0.00    -0.016 C 
HETATM   13  C   UNL     1     -45.333 -55.062  13.815  1.00  0.00     0.010 C 
HETATM   14  C   UNL     1     -44.689 -53.472  15.715  1.00  0.00     0.047 C 
BRANCH   8  15
HETATM   15  N   UNL     1     -43.255 -51.395  16.101  1.00  0.00     0.091 N 
HETATM   16  C   UNL     1     -43.574 -50.004  16.463  1.00  0.00     0.310 C 
HETATM   17  C   UNL     1     -42.998 -52.131  17.348  1.00  0.00     0.310 C 
ENDBRANCH   8  15
ENDBRANCH   7   8
ENDBRANCH   1   7
BRANCH   4  18
HETATM   18  C   UNL     1     -42.621 -47.815  11.677  1.00  0.00     0.051 A 
HETATM   19  C   UNL     1     -42.740 -46.590  12.333  1.00  0.00     0.032 A 
HETATM   20  C   UNL     1     -41.974 -45.498  11.919  1.00  0.00     0.019 A 
HETATM   21  C   UNL     1     -41.099 -45.672  10.862  1.00  0.00     0.088 A 
HETATM   22  N   UNL     1     -40.921 -46.850  10.224  1.00  0.00    -0.373 N 
HETATM   23  C   UNL     1     -41.681 -47.889  10.650  1.00  0.00     0.117 A 
ATOM     24  HN  UNL     1     -40.250 -46.951   9.462  1.00  0.00     0.164 HD
ENDBRANCH   4  18
TORSDOF 4
ENDMDL
MODEL 6
REMARK VINA RESULT:      -5.4      1.638      3.564
REMARK  4 active torsions:
REMARK  status: ('A' for Active; 'I' for Inactive)
REMARK    1  A    between atoms: C_6  and  C_7 
REMARK    2  A    between atoms: C_6  and  N_20 
REMARK    3  A    between atoms: C_7  and  N_8 
REMARK       I    between atoms: N_8  and  C_9 
REMARK       I    between atoms: C_9  and  N_11 
REMARK    4  A    between atoms: N_11  and  C_12 
ROOT
HETATM    1  N   UNL     1     -43.298 -49.648  12.420  1.00  0.00    -0.340 N 
HETATM    2  C   UNL     1     -43.812 -50.596  13.278  1.00  0.00     0.320 C 
HETATM    3  O   UNL     1     -43.701 -50.508  14.496  1.00  0.00    -0.247 OA
HETATM    4  N   UNL     1     -44.389 -51.654  12.607  1.00  0.00    -0.308 N 
HETATM    5  H   UNL     1     -43.672 -49.564  11.486  1.00  0.00     0.164 HD
HETATM    6  H   UNL     1     -44.117 -51.752  11.640  1.00  0.00     0.170 HD
ENDROOT
BRANCH   1   7
HETATM    7  C   UNL     1     -42.584 -48.488  12.941  1.00  0.00     0.166 C 
BRANCH   7   8
HETATM    8  C   UNL     1     -41.262 -48.126  12.163  1.00  0.00     0.175 C 
HETATM    9  C   UNL     1     -41.598 -48.110  10.642  1.00  0.00     0.043 C 
HETATM   10  C   UNL     1     -42.644 -47.062  10.259  1.00  0.00     0.003 C 
HETATM   11  C   UNL     1     -42.318 -45.656  10.751  1.00  0.00     0.004 C 
HETATM   12  C   UNL     1     -41.712 -45.522  12.158  1.00  0.00    -0.016 C 
HETATM   13  C   UNL     1     -42.714 -45.173  13.264  1.00  0.00     0.010 C 
HETATM   14  C   UNL     1     -40.782 -46.688  12.541  1.00  0.00     0.047 C 
BRANCH   8  15
HETATM   15  N   UNL     1     -40.202 -49.173  12.442  1.00  0.00     0.091 N 
HETATM   16  C   UNL     1     -39.896 -50.053  11.301  1.00  0.00     0.310 C 
HETATM   17  C   UNL     1     -38.930 -48.617  12.928  1.00  0.00     0.310 C 
ENDBRANCH   8  15
ENDBRANCH   7   8
ENDBRANCH   1   7
BRANCH   4  18
HETATM   18  C   UNL     1     -45.005 -52.766  13.225  1.00  0.00     0.051 A 
HETATM   19  C   UNL     1     -44.388 -54.011  13.361  1.00  0.00     0.032 A 
HETATM   20  C   UNL     1     -45.085 -55.077  13.931  1.00  0.00     0.019 A 
HETATM   21  C   UNL     1     -46.382 -54.861  14.362  1.00  0.00     0.088 A 
HETATM   22  N   UNL     1     -47.005 -53.664  14.289  1.00  0.00    -0.373 N 
HETATM   23  C   UNL     1     -46.300 -52.650  13.728  1.00  0.00     0.117 A 
ATOM     24  HN  UNL     1     -47.955 -53.531  14.637  1.00  0.00     0.164 HD
ENDBRANCH   4  18
TORSDOF 4
ENDMDL
MODEL 7
REMARK VINA RESULT:      -5.1      1.869      3.159
REMARK  4 active torsions:
REMARK  status: ('A' for Active; 'I' for Inactive)
REMARK    1  A    between atoms: C_6  and  C_7 
REMARK    2  A    between atoms: C_6  and  N_20 
REMARK    3  A    between atoms: C_7  and  N_8 
REMARK       I    between atoms: N_8  and  C_9 
REMARK       I    between atoms: C_9  and  N_11 
REMARK    4  A    between atoms: N_11  and  C_12 
ROOT
HETATM    1  N   UNL     1     -41.478 -50.088  12.823  1.00  0.00    -0.340 N 
HETATM    2  C   UNL     1     -42.261 -50.979  13.527  1.00  0.00     0.320 C 
HETATM    3  O   UNL     1     -42.286 -51.003  14.752  1.00  0.00    -0.247 OA
HETATM    4  N   UNL     1     -42.936 -51.851  12.700  1.00  0.00    -0.308 N 
HETATM    5  H   UNL     1     -41.713 -49.864  11.866  1.00  0.00     0.164 HD
HETATM    6  H   UNL     1     -42.570 -51.929  11.763  1.00  0.00     0.170 HD
ENDROOT
BRANCH   1   7
HETATM    7  C   UNL     1     -40.632 -49.131  13.526  1.00  0.00     0.166 C 
BRANCH   7   8
HETATM    8  C   UNL     1     -39.263 -48.815  12.812  1.00  0.00     0.175 C 
HETATM    9  C   UNL     1     -39.561 -47.859  11.618  1.00  0.00     0.043 C 
HETATM   10  C   UNL     1     -40.162 -46.519  12.045  1.00  0.00     0.003 C 
HETATM   11  C   UNL     1     -39.358 -45.798  13.123  1.00  0.00     0.004 C 
HETATM   12  C   UNL     1     -38.754 -46.656  14.247  1.00  0.00    -0.016 C 
HETATM   13  C   UNL     1     -39.572 -46.696  15.542  1.00  0.00     0.010 C 
HETATM   14  C   UNL     1     -38.304 -48.053  13.781  1.00  0.00     0.047 C 
BRANCH   8  15
HETATM   15  N   UNL     1     -38.648 -50.101  12.295  1.00  0.00     0.091 N 
HETATM   16  C   UNL     1     -37.581 -49.912  11.299  1.00  0.00     0.310 C 
HETATM   17  C   UNL     1     -38.118 -50.975  13.354  1.00  0.00     0.310 C 
ENDBRANCH   8  15
ENDBRANCH   7   8
ENDBRANCH   1   7
BRANCH   4  18
HETATM   18  C   UNL     1     -43.818 -52.865  13.140  1.00  0.00     0.051 A 
HETATM   19  C   UNL     1     -43.390 -54.055  13.731  1.00  0.00     0.032 A 
HETATM   20  C   UNL     1     -44.320 -55.033  14.085  1.00  0.00     0.019 A 
HETATM   21  C   UNL     1     -45.660 -54.784  13.846  1.00  0.00     0.088 A 
HETATM   22  N   UNL     1     -46.123 -53.632  13.313  1.00  0.00    -0.373 N 
HETATM   23  C   UNL     1     -45.193 -52.704  12.979  1.00  0.00     0.117 A 
ATOM     24  HN  UNL     1     -47.121 -53.470  13.170  1.00  0.00     0.164 HD
ENDBRANCH   4  18
TORSDOF 4
ENDMDL
MODEL 8
REMARK VINA RESULT:      -5.1      1.928      3.300
REMARK  4 active torsions:
REMARK  status: ('A' for Active; 'I' for Inactive)
REMARK    1  A    between atoms: C_6  and  C_7 
REMARK    2  A    between atoms: C_6  and  N_20 
REMARK    3  A    between atoms: C_7  and  N_8 
REMARK       I    between atoms: N_8  and  C_9 
REMARK       I    between atoms: C_9  and  N_11 
REMARK    4  A    between atoms: N_11  and  C_12 
ROOT
HETATM    1  N   UNL     1     -42.911 -49.997  12.185  1.00  0.00    -0.340 N 
HETATM    2  C   UNL     1     -43.239 -51.101  12.943  1.00  0.00     0.320 C 
HETATM    3  O   UNL     1     -42.460 -51.599  13.748  1.00  0.00    -0.247 OA
HETATM    4  N   UNL     1     -44.491 -51.593  12.639  1.00  0.00    -0.308 N 
HETATM    5  H   UNL     1     -43.644 -49.423  11.794  1.00  0.00     0.164 HD
HETATM    6  H   UNL     1     -44.867 -51.297  11.750  1.00  0.00     0.170 HD
ENDROOT
BRANCH   1   7
HETATM    7  C   UNL     1     -41.597 -49.377  12.311  1.00  0.00     0.166 C 
BRANCH   7   8
HETATM    8  C   UNL     1     -41.581 -48.034  13.135  1.00  0.00     0.175 C 
HETATM    9  C   UNL     1     -40.249 -47.295  12.809  1.00  0.00     0.043 C 
HETATM   10  C   UNL     1     -40.106 -46.916  11.335  1.00  0.00     0.003 C 
HETATM   11  C   UNL     1     -41.298 -46.144  10.777  1.00  0.00     0.004 C 
HETATM   12  C   UNL     1     -42.699 -46.587  11.228  1.00  0.00    -0.016 C 
HETATM   13  C   UNL     1     -43.433 -47.510  10.248  1.00  0.00     0.010 C 
HETATM   14  C   UNL     1     -42.747 -47.099  12.679  1.00  0.00     0.047 C 
BRANCH   8  15
HETATM   15  N   UNL     1     -41.645 -48.343  14.618  1.00  0.00     0.091 N 
HETATM   16  C   UNL     1     -40.614 -47.672  15.428  1.00  0.00     0.310 C 
HETATM   17  C   UNL     1     -42.950 -48.054  15.231  1.00  0.00     0.310 C 
ENDBRANCH   8  15
ENDBRANCH   7   8
ENDBRANCH   1   7
BRANCH   4  18
HETATM   18  C   UNL     1     -45.095 -52.709  13.261  1.00  0.00     0.051 A 
HETATM   19  C   UNL     1     -44.576 -54.003  13.195  1.00  0.00     0.032 A 
HETATM   20  C   UNL     1     -45.264 -55.063  13.788  1.00  0.00     0.019 A 
HETATM   21  C   UNL     1     -46.452 -54.792  14.443  1.00  0.00     0.088 A 
HETATM   22  N   UNL     1     -46.972 -53.551  14.567  1.00  0.00    -0.373 N 
HETATM   23  C   UNL     1     -46.280 -52.544  13.978  1.00  0.00     0.117 A 
ATOM     24  HN  UNL     1     -47.840 -53.380  15.077  1.00  0.00     0.164 HD
ENDBRANCH   4  18
TORSDOF 4
ENDMDL
MODEL 9
REMARK VINA RESULT:      -5.0      2.478      7.189
REMARK  4 active torsions:
REMARK  status: ('A' for Active; 'I' for Inactive)
REMARK    1  A    between atoms: C_6  and  C_7 
REMARK    2  A    between atoms: C_6  and  N_20 
REMARK    3  A    between atoms: C_7  and  N_8 
REMARK       I    between atoms: N_8  and  C_9 
REMARK       I    between atoms: C_9  and  N_11 
REMARK    4  A    between atoms: N_11  and  C_12 
ROOT
HETATM    1  N   UNL     1     -42.736 -50.729  14.440  1.00  0.00    -0.340 N 
HETATM    2  C   UNL     1     -41.835 -50.833  13.402  1.00  0.00     0.320 C 
HETATM    3  O   UNL     1     -42.150 -51.272  12.301  1.00  0.00    -0.247 OA
HETATM    4  N   UNL     1     -40.562 -50.454  13.772  1.00  0.00    -0.308 N 
HETATM    5  H   UNL     1     -42.556 -50.084  15.196  1.00  0.00     0.164 HD
HETATM    6  H   UNL     1     -40.388 -50.439  14.766  1.00  0.00     0.170 HD
ENDROOT
BRANCH   1   7
HETATM    7  C   UNL     1     -44.120 -51.153  14.263  1.00  0.00     0.166 C 
BRANCH   7   8
HETATM    8  C   UNL     1     -44.803 -51.728  15.562  1.00  0.00     0.175 C 
HETATM    9  C   UNL     1     -46.321 -51.902  15.261  1.00  0.00     0.043 C 
HETATM   10  C   UNL     1     -46.610 -52.889  14.129  1.00  0.00     0.003 C 
HETATM   11  C   UNL     1     -45.940 -54.247  14.309  1.00  0.00     0.004 C 
HETATM   12  C   UNL     1     -44.507 -54.260  14.867  1.00  0.00    -0.016 C 
HETATM   13  C   UNL     1     -43.402 -54.376  13.811  1.00  0.00     0.010 C 
HETATM   14  C   UNL     1     -44.236 -53.146  15.894  1.00  0.00     0.047 C 
BRANCH   8  15
HETATM   15  N   UNL     1     -44.617 -50.756  16.710  1.00  0.00     0.091 N 
HETATM   16  C   UNL     1     -45.868 -50.189  17.241  1.00  0.00     0.310 C 
HETATM   17  C   UNL     1     -43.865 -51.312  17.846  1.00  0.00     0.310 C 
ENDBRANCH   8  15
ENDBRANCH   7   8
ENDBRANCH   1   7
BRANCH   4  18
HETATM   18  C   UNL     1     -39.437 -50.448  12.915  1.00  0.00     0.051 A 
HETATM   19  C   UNL     1     -38.272 -51.174  13.168  1.00  0.00     0.032 A 
HETATM   20  C   UNL     1     -37.182 -51.069  12.302  1.00  0.00     0.019 A 
HETATM   21  C   UNL     1     -37.297 -50.245  11.198  1.00  0.00     0.088 A 
HETATM   22  N   UNL     1     -38.417 -49.556  10.891  1.00  0.00    -0.373 N 
HETATM   23  C   UNL     1     -39.457 -49.678  11.753  1.00  0.00     0.117 A 
ATOM     24  HN  UNL     1     -38.478 -48.973  10.055  1.00  0.00     0.164 HD
ENDBRANCH   4  18
TORSDOF 4
ENDMDL
