MODEL 1
REMARK VINA RESULT:      -5.4      0.000      0.000
REMARK  5 active torsions:
REMARK  status: ('A' for Active; 'I' for Inactive)
REMARK       I    between atoms: C_2  and  N_3 
REMARK       I    between atoms: C_2  and  N_12 
REMARK    1  A    between atoms: N_3  and  C_4 
REMARK    2  A    between atoms: C_4  and  C_5 
REMARK    3  A    between atoms: C_5  and  N_6 
REMARK    4  A    between atoms: N_12  and  C_13 
REMARK    5  A    between atoms: C_13  and  C_14 
ROOT
HETATM    1  O   UNL     1     -42.038 -52.748  13.662  1.00  0.00    -0.247 OA
HETATM    2  C   UNL     1     -42.481 -52.480  12.554  1.00  0.00     0.316 C 
HETATM    3  N   UNL     1     -41.857 -51.636  11.672  1.00  0.00    -0.342 N 
HETATM    4  N   UNL     1     -43.620 -53.018  12.031  1.00  0.00    -0.341 N 
HETATM    5  H   UNL     1     -42.442 -51.226  10.958  1.00  0.00     0.164 HD
HETATM    6  H   UNL     1     -43.877 -52.829  11.074  1.00  0.00     0.164 HD
ENDROOT
BRANCH   3   7
HETATM    7  C   UNL     1     -40.669 -50.902  12.076  1.00  0.00     0.144 C 
BRANCH   7   8
HETATM    8  C   UNL     1     -40.997 -49.588  12.787  1.00  0.00     0.149 C 
BRANCH   8   9
HETATM    9  N   UNL     1     -40.784 -48.440  11.932  1.00  0.00    -0.350 N 
HETATM   10  C   UNL     1     -39.894 -47.425  12.139  1.00  0.00     0.108 A 
HETATM   11  C   UNL     1     -40.089 -46.566  11.083  1.00  0.00     0.106 A 
HETATM   12  N   UNL     1     -41.070 -47.035  10.247  1.00  0.00    -0.361 N 
HETATM   13  C   UNL     1     -41.479 -48.161  10.789  1.00  0.00     0.182 A 
ATOM     14  HN  UNL     1     -41.409 -46.602   9.388  1.00  0.00     0.166 HD
ENDBRANCH   8   9
ENDBRANCH   7   8
ENDBRANCH   3   7
BRANCH   4  15
HETATM   15  C   UNL     1     -44.381 -54.051  12.714  1.00  0.00     0.156 C 
BRANCH  15  16
HETATM   16  C   UNL     1     -45.647 -53.495  13.372  1.00  0.00     0.139 C 
HETATM   17  C   UNL     1     -46.101 -52.129  12.874  1.00  0.00     0.035 C 
HETATM   18  C   UNL     1     -46.652 -51.439  14.107  1.00  0.00     0.029 C 
HETATM   19  C   UNL     1     -46.466 -52.435  15.231  1.00  0.00     0.168 C 
HETATM   20  O   UNL     1     -45.447 -53.338  14.790  1.00  0.00    -0.384 OA
ENDBRANCH  15  16
ENDBRANCH   4  15
TORSDOF 5
ENDMDL
MODEL 2
REMARK VINA RESULT:      -5.3      2.841      4.337
REMARK  5 active torsions:
REMARK  status: ('A' for Active; 'I' for Inactive)
REMARK       I    between atoms: C_2  and  N_3 
REMARK       I    between atoms: C_2  and  N_12 
REMARK    1  A    between atoms: N_3  and  C_4 
REMARK    2  A    between atoms: C_4  and  C_5 
REMARK    3  A    between atoms: C_5  and  N_6 
REMARK    4  A    between atoms: N_12  and  C_13 
REMARK    5  A    between atoms: C_13  and  C_14 
ROOT
HETATM    1  O   UNL     1     -40.040 -49.414  11.540  1.00  0.00    -0.247 OA
HETATM    2  C   UNL     1     -41.212 -49.732  11.392  1.00  0.00     0.316 C 
HETATM    3  N   UNL     1     -42.151 -48.917  10.813  1.00  0.00    -0.342 N 
HETATM    4  N   UNL     1     -41.727 -50.947  11.734  1.00  0.00    -0.341 N 
HETATM    5  H   UNL     1     -43.115 -49.119  11.037  1.00  0.00     0.164 HD
HETATM    6  H   UNL     1     -42.680 -51.180  11.495  1.00  0.00     0.164 HD
ENDROOT
BRANCH   3   7
HETATM    7  C   UNL     1     -41.813 -47.550  10.452  1.00  0.00     0.144 C 
BRANCH   7   8
HETATM    8  C   UNL     1     -43.046 -46.672  10.237  1.00  0.00     0.149 C 
BRANCH   8   9
HETATM    9  N   UNL     1     -43.982 -47.268   9.309  1.00  0.00    -0.350 N 
HETATM   10  C   UNL     1     -45.299 -47.545   9.547  1.00  0.00     0.108 A 
HETATM   11  C   UNL     1     -45.749 -48.130   8.386  1.00  0.00     0.106 A 
HETATM   12  N   UNL     1     -44.743 -48.212   7.459  1.00  0.00    -0.361 N 
HETATM   13  C   UNL     1     -43.686 -47.695   8.046  1.00  0.00     0.182 A 
ATOM     14  HN  UNL     1     -44.802 -48.594   6.514  1.00  0.00     0.166 HD
ENDBRANCH   8   9
ENDBRANCH   7   8
ENDBRANCH   3   7
BRANCH   4  15
HETATM   15  C   UNL     1     -40.901 -52.034  12.230  1.00  0.00     0.156 C 
BRANCH  15  16
HETATM   16  C   UNL     1     -41.451 -52.630  13.530  1.00  0.00     0.139 C 
HETATM   17  C   UNL     1     -41.361 -54.145  13.648  1.00  0.00     0.035 C 
HETATM   18  C   UNL     1     -42.623 -54.545  14.386  1.00  0.00     0.029 C 
HETATM   19  C   UNL     1     -43.364 -53.248  14.630  1.00  0.00     0.168 C 
HETATM   20  O   UNL     1     -42.850 -52.318  13.670  1.00  0.00    -0.384 OA
ENDBRANCH  15  16
ENDBRANCH   4  15
TORSDOF 5
ENDMDL
MODEL 3
REMARK VINA RESULT:      -5.3      4.544      5.794
REMARK  5 active torsions:
REMARK  status: ('A' for Active; 'I' for Inactive)
REMARK       I    between atoms: C_2  and  N_3 
REMARK       I    between atoms: C_2  and  N_12 
REMARK    1  A    between atoms: N_3  and  C_4 
REMARK    2  A    between atoms: C_4  and  C_5 
REMARK    3  A    between atoms: C_5  and  N_6 
REMARK    4  A    between atoms: N_12  and  C_13 
REMARK    5  A    between atoms: C_13  and  C_14 
ROOT
HETATM    1  O   UNL     1     -41.778 -47.831  11.746  1.00  0.00    -0.247 OA
HETATM    2  C   UNL     1     -41.663 -48.362  10.651  1.00  0.00     0.316 C 
HETATM    3  N   UNL     1     -40.968 -49.526  10.442  1.00  0.00    -0.342 N 
HETATM    4  N   UNL     1     -42.247 -47.901   9.508  1.00  0.00    -0.341 N 
HETATM    5  H   UNL     1     -40.653 -49.693   9.497  1.00  0.00     0.164 HD
HETATM    6  H   UNL     1     -42.192 -48.441   8.657  1.00  0.00     0.164 HD
ENDROOT
BRANCH   3   7
HETATM    7  C   UNL     1     -40.208 -50.129  11.525  1.00  0.00     0.144 C 
BRANCH   7   8
HETATM    8  C   UNL     1     -38.729 -49.740  11.501  1.00  0.00     0.149 C 
BRANCH   8   9
HETATM    9  N   UNL     1     -38.182 -49.602  12.833  1.00  0.00    -0.350 N 
HETATM   10  C   UNL     1     -37.607 -50.588  13.583  1.00  0.00     0.108 A 
HETATM   11  C   UNL     1     -37.280 -49.979  14.772  1.00  0.00     0.106 A 
HETATM   12  N   UNL     1     -37.640 -48.657  14.758  1.00  0.00    -0.361 N 
HETATM   13  C   UNL     1     -38.192 -48.459  13.581  1.00  0.00     0.182 A 
ATOM     14  HN  UNL     1     -37.509 -47.972  15.503  1.00  0.00     0.166 HD
ENDBRANCH   8   9
ENDBRANCH   7   8
ENDBRANCH   3   7
BRANCH   4  15
HETATM   15  C   UNL     1     -43.154 -46.767   9.497  1.00  0.00     0.156 C 
BRANCH  15  16
HETATM   16  C   UNL     1     -44.407 -47.038   8.658  1.00  0.00     0.139 C 
HETATM   17  C   UNL     1     -45.661 -47.394   9.445  1.00  0.00     0.035 C 
HETATM   18  C   UNL     1     -46.372 -48.419   8.584  1.00  0.00     0.029 C 
HETATM   19  C   UNL     1     -45.483 -48.600   7.373  1.00  0.00     0.168 C 
HETATM   20  O   UNL     1     -44.183 -48.150   7.770  1.00  0.00    -0.384 OA
ENDBRANCH  15  16
ENDBRANCH   4  15
TORSDOF 5
ENDMDL
MODEL 4
REMARK VINA RESULT:      -5.1      2.208      6.705
REMARK  5 active torsions:
REMARK  status: ('A' for Active; 'I' for Inactive)
REMARK       I    between atoms: C_2  and  N_3 
REMARK       I    between atoms: C_2  and  N_12 
REMARK    1  A    between atoms: N_3  and  C_4 
REMARK    2  A    between atoms: C_4  and  C_5 
REMARK    3  A    between atoms: C_5  and  N_6 
REMARK    4  A    between atoms: N_12  and  C_13 
REMARK    5  A    between atoms: C_13  and  C_14 
ROOT
HETATM    1  O   UNL     1     -41.268 -50.973  13.411  1.00  0.00    -0.247 OA
HETATM    2  C   UNL     1     -41.466 -51.283  12.245  1.00  0.00     0.316 C 
HETATM    3  N   UNL     1     -42.288 -52.313  11.864  1.00  0.00    -0.342 N 
HETATM    4  N   UNL     1     -40.942 -50.621  11.175  1.00  0.00    -0.341 N 
HETATM    5  H   UNL     1     -42.126 -52.694  10.943  1.00  0.00     0.164 HD
HETATM    6  H   UNL     1     -41.223 -50.868  10.238  1.00  0.00     0.164 HD
ENDROOT
BRANCH   3   7
HETATM    7  C   UNL     1     -42.879 -53.188  12.863  1.00  0.00     0.144 C 
BRANCH   7   8
HETATM    8  C   UNL     1     -44.089 -53.959  12.335  1.00  0.00     0.149 C 
BRANCH   8   9
HETATM    9  N   UNL     1     -45.195 -53.941  13.268  1.00  0.00    -0.350 N 
HETATM   10  C   UNL     1     -45.857 -52.836  13.723  1.00  0.00     0.108 A 
HETATM   11  C   UNL     1     -46.791 -53.326  14.605  1.00  0.00     0.106 A 
HETATM   12  N   UNL     1     -46.710 -54.692  14.694  1.00  0.00    -0.361 N 
HETATM   13  C   UNL     1     -45.732 -55.035  13.885  1.00  0.00     0.182 A 
ATOM     14  HN  UNL     1     -47.286 -55.311  15.265  1.00  0.00     0.166 HD
ENDBRANCH   8   9
ENDBRANCH   7   8
ENDBRANCH   3   7
BRANCH   4  15
HETATM   15  C   UNL     1     -40.158 -49.406  11.316  1.00  0.00     0.156 C 
BRANCH  15  16
HETATM   16  C   UNL     1     -40.993 -48.148  11.059  1.00  0.00     0.139 C 
HETATM   17  C   UNL     1     -41.807 -47.647  12.244  1.00  0.00     0.035 C 
HETATM   18  C   UNL     1     -43.089 -47.119  11.629  1.00  0.00     0.029 C 
HETATM   19  C   UNL     1     -42.940 -47.363  10.142  1.00  0.00     0.168 C 
HETATM   20  O   UNL     1     -41.951 -48.388  10.010  1.00  0.00    -0.384 OA
ENDBRANCH  15  16
ENDBRANCH   4  15
TORSDOF 5
ENDMDL
MODEL 5
REMARK VINA RESULT:      -5.1      2.847      6.849
REMARK  5 active torsions:
REMARK  status: ('A' for Active; 'I' for Inactive)
REMARK       I    between atoms: C_2  and  N_3 
REMARK       I    between atoms: C_2  and  N_12 
REMARK    1  A    between atoms: N_3  and  C_4 
REMARK    2  A    between atoms: C_4  and  C_5 
REMARK    3  A    between atoms: C_5  and  N_6 
REMARK    4  A    between atoms: N_12  and  C_13 
REMARK    5  A    between atoms: C_13  and  C_14 
ROOT
HETATM    1  O   UNL     1     -43.029 -49.250  13.088  1.00  0.00    -0.247 OA
HETATM    2  C   UNL     1     -42.491 -49.871  12.183  1.00  0.00     0.316 C 
HETATM    3  N   UNL     1     -42.419 -51.240  12.141  1.00  0.00    -0.342 N 
HETATM    4  N   UNL     1     -41.940 -49.294  11.077  1.00  0.00    -0.341 N 
HETATM    5  H   UNL     1     -41.691 -51.630  11.560  1.00  0.00     0.164 HD
HETATM    6  H   UNL     1     -41.599 -49.870  10.321  1.00  0.00     0.164 HD
ENDROOT
BRANCH   3   7
HETATM    7  C   UNL     1     -42.882 -52.033  13.268  1.00  0.00     0.144 C 
BRANCH   7   8
HETATM    8  C   UNL     1     -43.489 -53.371  12.843  1.00  0.00     0.149 C 
BRANCH   8   9
HETATM    9  N   UNL     1     -44.757 -53.623  13.492  1.00  0.00    -0.350 N 
HETATM   10  C   UNL     1     -45.563 -52.697  14.091  1.00  0.00     0.108 A 
HETATM   11  C   UNL     1     -46.622 -53.422  14.585  1.00  0.00     0.106 A 
HETATM   12  N   UNL     1     -46.478 -54.755  14.300  1.00  0.00    -0.361 N 
HETATM   13  C   UNL     1     -45.339 -54.849  13.650  1.00  0.00     0.182 A 
ATOM     14  HN  UNL     1     -47.117 -55.512  14.542  1.00  0.00     0.166 HD
ENDBRANCH   8   9
ENDBRANCH   7   8
ENDBRANCH   3   7
BRANCH   4  15
HETATM   15  C   UNL     1     -42.021 -47.867  10.818  1.00  0.00     0.156 C 
BRANCH  15  16
HETATM   16  C   UNL     1     -43.003 -47.541   9.688  1.00  0.00     0.139 C 
HETATM   17  C   UNL     1     -43.011 -46.091   9.222  1.00  0.00     0.035 C 
HETATM   18  C   UNL     1     -44.463 -45.806   8.892  1.00  0.00     0.029 C 
HETATM   19  C   UNL     1     -45.196 -47.093   9.202  1.00  0.00     0.168 C 
HETATM   20  O   UNL     1     -44.354 -47.817  10.105  1.00  0.00    -0.384 OA
ENDBRANCH  15  16
ENDBRANCH   4  15
TORSDOF 5
ENDMDL
MODEL 6
REMARK VINA RESULT:      -5.1      2.018      2.519
REMARK  5 active torsions:
REMARK  status: ('A' for Active; 'I' for Inactive)
REMARK       I    between atoms: C_2  and  N_3 
REMARK       I    between atoms: C_2  and  N_12 
REMARK    1  A    between atoms: N_3  and  C_4 
REMARK    2  A    between atoms: C_4  and  C_5 
REMARK    3  A    between atoms: C_5  and  N_6 
REMARK    4  A    between atoms: N_12  and  C_13 
REMARK    5  A    between atoms: C_13  and  C_14 
ROOT
HETATM    1  O   UNL     1     -42.597 -53.887  13.755  1.00  0.00    -0.247 OA
HETATM    2  C   UNL     1     -43.240 -53.414  12.829  1.00  0.00     0.316 C 
HETATM    3  N   UNL     1     -42.675 -52.715  11.793  1.00  0.00    -0.342 N 
HETATM    4  N   UNL     1     -44.587 -53.562  12.674  1.00  0.00    -0.341 N 
HETATM    5  H   UNL     1     -43.292 -52.099  11.283  1.00  0.00     0.164 HD
HETATM    6  H   UNL     1     -45.041 -53.230  11.836  1.00  0.00     0.164 HD
ENDROOT
BRANCH   3   7
HETATM    7  C   UNL     1     -41.259 -52.386  11.818  1.00  0.00     0.144 C 
BRANCH   7   8
HETATM    8  C   UNL     1     -40.994 -50.942  12.248  1.00  0.00     0.149 C 
BRANCH   8   9
HETATM    9  N   UNL     1     -39.579 -50.645  12.312  1.00  0.00    -0.350 N 
HETATM   10  C   UNL     1     -38.902 -49.743  11.541  1.00  0.00     0.108 A 
HETATM   11  C   UNL     1     -37.592 -49.848  11.948  1.00  0.00     0.106 A 
HETATM   12  N   UNL     1     -37.463 -50.785  12.941  1.00  0.00    -0.361 N 
HETATM   13  C   UNL     1     -38.675 -51.258  13.132  1.00  0.00     0.182 A 
ATOM     14  HN  UNL     1     -36.609 -51.058  13.427  1.00  0.00     0.166 HD
ENDBRANCH   8   9
ENDBRANCH   7   8
ENDBRANCH   3   7
BRANCH   4  15
HETATM   15  C   UNL     1     -45.389 -54.386  13.562  1.00  0.00     0.156 C 
BRANCH  15  16
HETATM   16  C   UNL     1     -46.395 -53.558  14.366  1.00  0.00     0.139 C 
HETATM   17  C   UNL     1     -46.584 -52.120  13.902  1.00  0.00     0.035 C 
HETATM   18  C   UNL     1     -46.792 -51.331  15.180  1.00  0.00     0.029 C 
HETATM   19  C   UNL     1     -46.695 -52.354  16.292  1.00  0.00     0.168 C 
HETATM   20  O   UNL     1     -45.979 -53.464  15.743  1.00  0.00    -0.384 OA
ENDBRANCH  15  16
ENDBRANCH   4  15
TORSDOF 5
ENDMDL
MODEL 7
REMARK VINA RESULT:      -5.1      1.948      2.842
REMARK  5 active torsions:
REMARK  status: ('A' for Active; 'I' for Inactive)
REMARK       I    between atoms: C_2  and  N_3 
REMARK       I    between atoms: C_2  and  N_12 
REMARK    1  A    between atoms: N_3  and  C_4 
REMARK    2  A    between atoms: C_4  and  C_5 
REMARK    3  A    between atoms: C_5  and  N_6 
REMARK    4  A    between atoms: N_12  and  C_13 
REMARK    5  A    between atoms: C_13  and  C_14 
ROOT
HETATM    1  O   UNL     1     -40.902 -50.942  13.098  1.00  0.00    -0.247 OA
HETATM    2  C   UNL     1     -40.970 -51.303  11.932  1.00  0.00     0.316 C 
HETATM    3  N   UNL     1     -40.740 -50.470  10.867  1.00  0.00    -0.342 N 
HETATM    4  N   UNL     1     -41.230 -52.582  11.537  1.00  0.00    -0.341 N 
HETATM    5  H   UNL     1     -41.138 -50.756   9.984  1.00  0.00     0.164 HD
HETATM    6  H   UNL     1     -41.175 -52.832  10.561  1.00  0.00     0.164 HD
ENDROOT
BRANCH   3   7
HETATM    7  C   UNL     1     -40.524 -49.048  11.082  1.00  0.00     0.144 C 
BRANCH   7   8
HETATM    8  C   UNL     1     -41.656 -48.185  10.522  1.00  0.00     0.149 C 
BRANCH   8   9
HETATM    9  N   UNL     1     -41.423 -46.774  10.740  1.00  0.00    -0.350 N 
HETATM   10  C   UNL     1     -42.374 -45.798  10.843  1.00  0.00     0.108 A 
HETATM   11  C   UNL     1     -41.663 -44.633  11.009  1.00  0.00     0.106 A 
HETATM   12  N   UNL     1     -40.314 -44.879  11.010  1.00  0.00    -0.361 N 
HETATM   13  C   UNL     1     -40.198 -46.177  10.834  1.00  0.00     0.182 A 
ATOM     14  HN  UNL     1     -39.561 -44.199  11.122  1.00  0.00     0.166 HD
ENDBRANCH   8   9
ENDBRANCH   7   8
ENDBRANCH   3   7
BRANCH   4  15
HETATM   15  C   UNL     1     -41.363 -53.679  12.480  1.00  0.00     0.156 C 
BRANCH  15  16
HETATM   16  C   UNL     1     -42.674 -53.607  13.268  1.00  0.00     0.139 C 
HETATM   17  C   UNL     1     -42.794 -54.576  14.436  1.00  0.00     0.035 C 
HETATM   18  C   UNL     1     -44.255 -54.984  14.444  1.00  0.00     0.029 C 
HETATM   19  C   UNL     1     -44.875 -54.243  13.279  1.00  0.00     0.168 C 
HETATM   20  O   UNL     1     -43.792 -53.903  12.408  1.00  0.00    -0.384 OA
ENDBRANCH  15  16
ENDBRANCH   4  15
TORSDOF 5
ENDMDL
MODEL 8
REMARK VINA RESULT:      -5.1      3.258      6.404
REMARK  5 active torsions:
REMARK  status: ('A' for Active; 'I' for Inactive)
REMARK       I    between atoms: C_2  and  N_3 
REMARK       I    between atoms: C_2  and  N_12 
REMARK    1  A    between atoms: N_3  and  C_4 
REMARK    2  A    between atoms: C_4  and  C_5 
REMARK    3  A    between atoms: C_5  and  N_6 
REMARK    4  A    between atoms: N_12  and  C_13 
REMARK    5  A    between atoms: C_13  and  C_14 
ROOT
HETATM    1  O   UNL     1     -41.711 -49.044  12.406  1.00  0.00    -0.247 OA
HETATM    2  C   UNL     1     -41.194 -49.281  11.323  1.00  0.00     0.316 C 
HETATM    3  N   UNL     1     -40.527 -50.446  11.041  1.00  0.00    -0.342 N 
HETATM    4  N   UNL     1     -41.254 -48.449  10.245  1.00  0.00    -0.341 N 
HETATM    5  H   UNL     1     -39.871 -50.409  10.275  1.00  0.00     0.164 HD
HETATM    6  H   UNL     1     -40.890 -48.749   9.352  1.00  0.00     0.164 HD
ENDROOT
BRANCH   3   7
HETATM    7  C   UNL     1     -40.289 -51.426  12.088  1.00  0.00     0.144 C 
BRANCH   7   8
HETATM    8  C   UNL     1     -41.219 -52.637  11.989  1.00  0.00     0.149 C 
BRANCH   8   9
HETATM    9  N   UNL     1     -41.190 -53.444  13.190  1.00  0.00    -0.350 N 
HETATM   10  C   UNL     1     -42.271 -53.889  13.898  1.00  0.00     0.108 A 
HETATM   11  C   UNL     1     -41.734 -54.575  14.962  1.00  0.00     0.106 A 
HETATM   12  N   UNL     1     -40.364 -54.557  14.914  1.00  0.00    -0.361 N 
HETATM   13  C   UNL     1     -40.064 -53.858  13.842  1.00  0.00     0.182 A 
ATOM     14  HN  UNL     1     -39.716 -54.992  15.572  1.00  0.00     0.166 HD
ENDBRANCH   8   9
ENDBRANCH   7   8
ENDBRANCH   3   7
BRANCH   4  15
HETATM   15  C   UNL     1     -42.030 -47.221  10.247  1.00  0.00     0.156 C 
BRANCH  15  16
HETATM   16  C   UNL     1     -43.306 -47.343   9.410  1.00  0.00     0.139 C 
HETATM   17  C   UNL     1     -43.821 -46.045   8.803  1.00  0.00     0.035 C 
HETATM   18  C   UNL     1     -45.331 -46.169   8.864  1.00  0.00     0.029 C 
HETATM   19  C   UNL     1     -45.589 -47.512   9.513  1.00  0.00     0.168 C 
HETATM   20  O   UNL     1     -44.389 -47.843  10.219  1.00  0.00    -0.384 OA
ENDBRANCH  15  16
ENDBRANCH   4  15
TORSDOF 5
ENDMDL
MODEL 9
REMARK VINA RESULT:      -5.1      2.858      3.810
REMARK  5 active torsions:
REMARK  status: ('A' for Active; 'I' for Inactive)
REMARK       I    between atoms: C_2  and  N_3 
REMARK       I    between atoms: C_2  and  N_12 
REMARK    1  A    between atoms: N_3  and  C_4 
REMARK    2  A    between atoms: C_4  and  C_5 
REMARK    3  A    between atoms: C_5  and  N_6 
REMARK    4  A    between atoms: N_12  and  C_13 
REMARK    5  A    between atoms: C_13  and  C_14 
ROOT
HETATM    1  O   UNL     1     -42.965 -48.347  13.405  1.00  0.00    -0.247 OA
HETATM    2  C   UNL     1     -43.068 -49.194  12.529  1.00  0.00     0.316 C 
HETATM    3  N   UNL     1     -42.586 -49.030  11.256  1.00  0.00    -0.342 N 
HETATM    4  N   UNL     1     -43.625 -50.426  12.712  1.00  0.00    -0.341 N 
HETATM    5  H   UNL     1     -43.002 -49.613  10.543  1.00  0.00     0.164 HD
HETATM    6  H   UNL     1     -43.589 -51.113  11.974  1.00  0.00     0.164 HD
ENDROOT
BRANCH   3   7
HETATM    7  C   UNL     1     -42.027 -47.753  10.843  1.00  0.00     0.144 C 
BRANCH   7   8
HETATM    8  C   UNL     1     -43.098 -46.749  10.410  1.00  0.00     0.149 C 
BRANCH   8   9
HETATM    9  N   UNL     1     -43.994 -47.304   9.420  1.00  0.00    -0.350 N 
HETATM   10  C   UNL     1     -45.326 -47.564   9.583  1.00  0.00     0.108 A 
HETATM   11  C   UNL     1     -45.725 -48.111   8.386  1.00  0.00     0.106 A 
HETATM   12  N   UNL     1     -44.674 -48.188   7.509  1.00  0.00    -0.361 N 
HETATM   13  C   UNL     1     -43.640 -47.705   8.163  1.00  0.00     0.182 A 
ATOM     14  HN  UNL     1     -44.690 -48.545   6.553  1.00  0.00     0.166 HD
ENDBRANCH   8   9
ENDBRANCH   7   8
ENDBRANCH   3   7
BRANCH   4  15
HETATM   15  C   UNL     1     -44.075 -50.894  14.011  1.00  0.00     0.156 C 
BRANCH  15  16
HETATM   16  C   UNL     1     -43.994 -52.418  14.135  1.00  0.00     0.139 C 
HETATM   17  C   UNL     1     -44.099 -53.190  12.827  1.00  0.00     0.035 C 
HETATM   18  C   UNL     1     -44.874 -54.443  13.185  1.00  0.00     0.029 C 
HETATM   19  C   UNL     1     -45.180 -54.307  14.661  1.00  0.00     0.168 C 
HETATM   20  O   UNL     1     -45.070 -52.911  14.957  1.00  0.00    -0.384 OA
ENDBRANCH  15  16
ENDBRANCH   4  15
TORSDOF 5
ENDMDL
