MODEL 1
REMARK VINA RESULT:      -6.7      0.000      0.000
REMARK  7 active torsions:
REMARK  status: ('A' for Active; 'I' for Inactive)
REMARK    1  A    between atoms: N_6  and  C_7 
REMARK    2  A    between atoms: C_7  and  C_8 
REMARK    3  A    between atoms: C_8  and  O_9 
REMARK    4  A    between atoms: C_8  and  C_10 
REMARK    5  A    between atoms: C_10  and  O_11 
REMARK    6  A    between atoms: O_11  and  C_12 
REMARK    7  A    between atoms: C_17  and  C_18 
ROOT
HETATM    1  C   UNL     1     -41.192 -52.129  12.030  1.00  0.00     0.161 C 
ENDROOT
BRANCH   1   2
HETATM    2  C   UNL     1     -40.009 -51.346  12.624  1.00  0.00     0.166 C 
BRANCH   2   3
HETATM    3  N   UNL     1     -40.045 -49.925  12.298  1.00  0.00    -0.307 N 
HETATM    4  C   UNL     1     -40.635 -49.494  11.141  1.00  0.00     0.186 A 
HETATM    5  N   UNL     1     -40.685 -48.266  10.747  1.00  0.00    -0.355 N 
HETATM    6  C   UNL     1     -40.116 -47.321  11.560  1.00  0.00     0.017 A 
ATOM      7  HN  UNL     1     -41.130 -48.010   9.866  1.00  0.00     0.166 HD
HETATM    8  C   UNL     1     -40.169 -45.917  11.013  1.00  0.00     0.069 C 
HETATM    9  C   UNL     1     -39.556 -47.594  12.755  1.00  0.00     0.028 A 
HETATM   10  C   UNL     1     -39.531 -49.014  13.195  1.00  0.00     0.256 A 
HETATM   11  C   UNL     1     -38.945 -46.567  13.658  1.00  0.00     0.056 C 
HETATM   12  O   UNL     1     -39.064 -49.337  14.285  1.00  0.00    -0.267 OA
ENDBRANCH   2   3
ENDBRANCH   1   2
BRANCH   1  13
HETATM   13  O   UNL     1     -40.674 -53.265  11.316  1.00  0.00    -0.392 OA
HETATM   14  H   UNL     1     -40.167 -53.822  11.928  1.00  0.00     0.210 HD
ENDBRANCH   1  13
BRANCH   1  15
HETATM   15  C   UNL     1     -42.145 -52.572  13.159  1.00  0.00     0.209 C 
BRANCH  15  16
HETATM   16  O   UNL     1     -43.494 -52.501  12.696  1.00  0.00    -0.348 OA
BRANCH  16  17
HETATM   17  C   UNL     1     -44.425 -53.330  13.260  1.00  0.00     0.084 A 
HETATM   18  C   UNL     1     -44.260 -54.715  13.407  1.00  0.00     0.037 A 
HETATM   19  C   UNL     1     -45.257 -55.497  13.998  1.00  0.00     0.003 A 
HETATM   20  C   UNL     1     -46.428 -54.906  14.458  1.00  0.00     0.001 A 
HETATM   21  C   UNL     1     -46.602 -53.532  14.316  1.00  0.00     0.019 A 
HETATM   22  C   UNL     1     -45.611 -52.729  13.712  1.00  0.00     0.081 A 
BRANCH  22  23
HETATM   23  C   UNL     1     -45.899 -51.251  13.575  1.00  0.00     0.420 C 
HETATM   24  F   UNL     1     -45.983 -50.760  12.311  1.00  0.00    -0.166 F 
HETATM   25  F   UNL     1     -47.081 -50.914  14.173  1.00  0.00    -0.166 F 
HETATM   26  F   UNL     1     -44.952 -50.491  14.201  1.00  0.00    -0.166 F 
ENDBRANCH  22  23
ENDBRANCH  16  17
ENDBRANCH  15  16
ENDBRANCH   1  15
TORSDOF 7
ENDMDL
MODEL 2
REMARK VINA RESULT:      -6.5      3.542      4.974
REMARK  7 active torsions:
REMARK  status: ('A' for Active; 'I' for Inactive)
REMARK    1  A    between atoms: N_6  and  C_7 
REMARK    2  A    between atoms: C_7  and  C_8 
REMARK    3  A    between atoms: C_8  and  O_9 
REMARK    4  A    between atoms: C_8  and  C_10 
REMARK    5  A    between atoms: C_10  and  O_11 
REMARK    6  A    between atoms: O_11  and  C_12 
REMARK    7  A    between atoms: C_17  and  C_18 
ROOT
HETATM    1  C   UNL     1     -43.082 -54.554  17.146  1.00  0.00     0.161 C 
ENDROOT
BRANCH   1   2
HETATM    2  C   UNL     1     -42.210 -53.287  17.156  1.00  0.00     0.166 C 
BRANCH   2   3
HETATM    3  N   UNL     1     -42.466 -52.410  16.019  1.00  0.00    -0.307 N 
HETATM    4  C   UNL     1     -43.025 -51.176  16.208  1.00  0.00     0.186 A 
HETATM    5  N   UNL     1     -43.323 -50.345  15.267  1.00  0.00    -0.355 N 
HETATM    6  C   UNL     1     -43.042 -50.725  13.980  1.00  0.00     0.017 A 
ATOM      7  HN  UNL     1     -43.752 -49.442  15.472  1.00  0.00     0.166 HD
HETATM    8  C   UNL     1     -43.463 -49.726  12.932  1.00  0.00     0.069 C 
HETATM    9  C   UNL     1     -42.437 -51.883  13.652  1.00  0.00     0.028 A 
HETATM   10  C   UNL     1     -42.084 -52.812  14.758  1.00  0.00     0.256 A 
HETATM   11  C   UNL     1     -42.112 -52.300  12.251  1.00  0.00     0.056 C 
HETATM   12  O   UNL     1     -41.504 -53.873  14.539  1.00  0.00    -0.267 OA
ENDBRANCH   2   3
ENDBRANCH   1   2
BRANCH   1  13
HETATM   13  O   UNL     1     -42.479 -55.529  18.013  1.00  0.00    -0.392 OA
HETATM   14  H   UNL     1     -42.668 -55.295  18.936  1.00  0.00     0.210 HD
ENDBRANCH   1  13
BRANCH   1  15
HETATM   15  C   UNL     1     -44.511 -54.207  17.610  1.00  0.00     0.209 C 
BRANCH  15  16
HETATM   16  O   UNL     1     -45.437 -54.517  16.567  1.00  0.00    -0.348 OA
BRANCH  16  17
HETATM   17  C   UNL     1     -45.873 -53.506  15.756  1.00  0.00     0.084 A 
HETATM   18  C   UNL     1     -46.483 -52.331  16.220  1.00  0.00     0.037 A 
HETATM   19  C   UNL     1     -46.900 -51.339  15.326  1.00  0.00     0.003 A 
HETATM   20  C   UNL     1     -46.705 -51.503  13.960  1.00  0.00     0.001 A 
HETATM   21  C   UNL     1     -46.102 -52.666  13.489  1.00  0.00     0.019 A 
HETATM   22  C   UNL     1     -45.685 -53.682  14.375  1.00  0.00     0.081 A 
BRANCH  22  23
HETATM   23  C   UNL     1     -45.065 -54.922  13.771  1.00  0.00     0.420 C 
HETATM   24  F   UNL     1     -44.042 -55.490  14.461  1.00  0.00    -0.166 F 
HETATM   25  F   UNL     1     -45.989 -55.915  13.610  1.00  0.00    -0.166 F 
HETATM   26  F   UNL     1     -44.574 -54.683  12.519  1.00  0.00    -0.166 F 
ENDBRANCH  22  23
ENDBRANCH  16  17
ENDBRANCH  15  16
ENDBRANCH   1  15
TORSDOF 7
ENDMDL
MODEL 3
REMARK VINA RESULT:      -6.5      2.600      3.256
REMARK  7 active torsions:
REMARK  status: ('A' for Active; 'I' for Inactive)
REMARK    1  A    between atoms: N_6  and  C_7 
REMARK    2  A    between atoms: C_7  and  C_8 
REMARK    3  A    between atoms: C_8  and  O_9 
REMARK    4  A    between atoms: C_8  and  C_10 
REMARK    5  A    between atoms: C_10  and  O_11 
REMARK    6  A    between atoms: O_11  and  C_12 
REMARK    7  A    between atoms: C_17  and  C_18 
ROOT
HETATM    1  C   UNL     1     -40.504 -50.616  11.948  1.00  0.00     0.161 C 
ENDROOT
BRANCH   1   2
HETATM    2  C   UNL     1     -40.070 -49.558  12.976  1.00  0.00     0.166 C 
BRANCH   2   3
HETATM    3  N   UNL     1     -40.050 -48.206  12.428  1.00  0.00    -0.307 N 
HETATM    4  C   UNL     1     -40.491 -47.968  11.156  1.00  0.00     0.186 A 
HETATM    5  N   UNL     1     -40.479 -46.817  10.570  1.00  0.00    -0.355 N 
HETATM    6  C   UNL     1     -40.001 -45.752  11.287  1.00  0.00     0.017 A 
ATOM      7  HN  UNL     1     -40.811 -46.706   9.612  1.00  0.00     0.166 HD
HETATM    8  C   UNL     1     -39.971 -44.453  10.523  1.00  0.00     0.069 C 
HETATM    9  C   UNL     1     -39.592 -45.829  12.568  1.00  0.00     0.028 A 
HETATM   10  C   UNL     1     -39.636 -47.162  13.226  1.00  0.00     0.256 A 
HETATM   11  C   UNL     1     -39.082 -44.668  13.365  1.00  0.00     0.056 C 
HETATM   12  O   UNL     1     -39.308 -47.305  14.401  1.00  0.00    -0.267 OA
ENDBRANCH   2   3
ENDBRANCH   1   2
BRANCH   1  13
HETATM   13  O   UNL     1     -39.530 -51.674  11.943  1.00  0.00    -0.392 OA
HETATM   14  H   UNL     1     -38.857 -51.484  11.270  1.00  0.00     0.210 HD
ENDBRANCH   1  13
BRANCH   1  15
HETATM   15  C   UNL     1     -41.904 -51.154  12.311  1.00  0.00     0.209 C 
BRANCH  15  16
HETATM   16  O   UNL     1     -41.937 -52.567  12.108  1.00  0.00    -0.348 OA
BRANCH  16  17
HETATM   17  C   UNL     1     -42.868 -53.305  12.786  1.00  0.00     0.084 A 
HETATM   18  C   UNL     1     -44.240 -53.299  12.497  1.00  0.00     0.037 A 
HETATM   19  C   UNL     1     -45.131 -54.085  13.235  1.00  0.00     0.003 A 
HETATM   20  C   UNL     1     -44.663 -54.893  14.264  1.00  0.00     0.001 A 
HETATM   21  C   UNL     1     -43.303 -54.905  14.560  1.00  0.00     0.019 A 
HETATM   22  C   UNL     1     -42.390 -54.111  13.833  1.00  0.00     0.081 A 
BRANCH  22  23
HETATM   23  C   UNL     1     -40.936 -54.167  14.243  1.00  0.00     0.420 C 
HETATM   24  F   UNL     1     -40.378 -53.005  14.671  1.00  0.00    -0.166 F 
HETATM   25  F   UNL     1     -40.736 -55.060  15.257  1.00  0.00    -0.166 F 
HETATM   26  F   UNL     1     -40.139 -54.601  13.222  1.00  0.00    -0.166 F 
ENDBRANCH  22  23
ENDBRANCH  16  17
ENDBRANCH  15  16
ENDBRANCH   1  15
TORSDOF 7
ENDMDL
MODEL 4
REMARK VINA RESULT:      -6.4      2.122      3.142
REMARK  7 active torsions:
REMARK  status: ('A' for Active; 'I' for Inactive)
REMARK    1  A    between atoms: N_6  and  C_7 
REMARK    2  A    between atoms: C_7  and  C_8 
REMARK    3  A    between atoms: C_8  and  O_9 
REMARK    4  A    between atoms: C_8  and  C_10 
REMARK    5  A    between atoms: C_10  and  O_11 
REMARK    6  A    between atoms: O_11  and  C_12 
REMARK    7  A    between atoms: C_17  and  C_18 
ROOT
HETATM    1  C   UNL     1     -43.164 -53.695  13.223  1.00  0.00     0.161 C 
ENDROOT
BRANCH   1   2
HETATM    2  C   UNL     1     -41.658 -53.988  13.119  1.00  0.00     0.166 C 
BRANCH   2   3
HETATM    3  N   UNL     1     -40.865 -52.800  12.823  1.00  0.00    -0.307 N 
HETATM    4  C   UNL     1     -41.188 -51.998  11.763  1.00  0.00     0.186 A 
HETATM    5  N   UNL     1     -40.529 -50.950  11.398  1.00  0.00    -0.355 N 
HETATM    6  C   UNL     1     -39.431 -50.607  12.143  1.00  0.00     0.017 A 
ATOM      7  HN  UNL     1     -40.814 -50.399  10.588  1.00  0.00     0.166 HD
HETATM    8  C   UNL     1     -38.684 -49.402  11.630  1.00  0.00     0.069 C 
HETATM    9  C   UNL     1     -39.033 -51.269  13.248  1.00  0.00     0.028 A 
HETATM   10  C   UNL     1     -39.823 -52.460  13.657  1.00  0.00     0.256 A 
HETATM   11  C   UNL     1     -37.844 -50.893  14.077  1.00  0.00     0.056 C 
HETATM   12  O   UNL     1     -39.540 -53.096  14.670  1.00  0.00    -0.267 OA
ENDBRANCH   2   3
ENDBRANCH   1   2
BRANCH   1  13
HETATM   13  O   UNL     1     -43.819 -54.266  12.077  1.00  0.00    -0.392 OA
HETATM   14  H   UNL     1     -43.551 -55.194  11.986  1.00  0.00     0.210 HD
ENDBRANCH   1  13
BRANCH   1  15
HETATM   15  C   UNL     1     -43.723 -54.288  14.533  1.00  0.00     0.209 C 
BRANCH  15  16
HETATM   16  O   UNL     1     -45.149 -54.221  14.514  1.00  0.00    -0.348 OA
BRANCH  16  17
HETATM   17  C   UNL     1     -45.779 -53.399  15.408  1.00  0.00     0.084 A 
HETATM   18  C   UNL     1     -45.860 -53.649  16.785  1.00  0.00     0.037 A 
HETATM   19  C   UNL     1     -46.519 -52.757  17.637  1.00  0.00     0.003 A 
HETATM   20  C   UNL     1     -47.097 -51.601  17.128  1.00  0.00     0.001 A 
HETATM   21  C   UNL     1     -47.024 -51.344  15.761  1.00  0.00     0.019 A 
HETATM   22  C   UNL     1     -46.372 -52.238  14.885  1.00  0.00     0.081 A 
BRANCH  22  23
HETATM   23  C   UNL     1     -46.366 -51.891  13.413  1.00  0.00     0.420 C 
HETATM   24  F   UNL     1     -46.491 -52.926  12.542  1.00  0.00    -0.166 F 
HETATM   25  F   UNL     1     -47.378 -51.029  13.098  1.00  0.00    -0.166 F 
HETATM   26  F   UNL     1     -45.219 -51.243  13.051  1.00  0.00    -0.166 F 
ENDBRANCH  22  23
ENDBRANCH  16  17
ENDBRANCH  15  16
ENDBRANCH   1  15
TORSDOF 7
ENDMDL
MODEL 5
REMARK VINA RESULT:      -6.4      4.339      5.926
REMARK  7 active torsions:
REMARK  status: ('A' for Active; 'I' for Inactive)
REMARK    1  A    between atoms: N_6  and  C_7 
REMARK    2  A    between atoms: C_7  and  C_8 
REMARK    3  A    between atoms: C_8  and  O_9 
REMARK    4  A    between atoms: C_8  and  C_10 
REMARK    5  A    between atoms: C_10  and  O_11 
REMARK    6  A    between atoms: O_11  and  C_12 
REMARK    7  A    between atoms: C_17  and  C_18 
ROOT
HETATM    1  C   UNL     1     -45.980 -52.307  12.636  1.00  0.00     0.161 C 
ENDROOT
BRANCH   1   2
HETATM    2  C   UNL     1     -45.578 -53.706  13.133  1.00  0.00     0.166 C 
BRANCH   2   3
HETATM    3  N   UNL     1     -44.144 -53.836  13.371  1.00  0.00    -0.307 N 
HETATM    4  C   UNL     1     -43.244 -53.326  12.476  1.00  0.00     0.186 A 
HETATM    5  N   UNL     1     -41.961 -53.422  12.579  1.00  0.00    -0.355 N 
HETATM    6  C   UNL     1     -41.465 -54.072  13.678  1.00  0.00     0.017 A 
ATOM      7  HN  UNL     1     -41.341 -53.029  11.869  1.00  0.00     0.166 HD
HETATM    8  C   UNL     1     -39.962 -54.189  13.705  1.00  0.00     0.069 C 
HETATM    9  C   UNL     1     -42.231 -54.570  14.669  1.00  0.00     0.028 A 
HETATM   10  C   UNL     1     -43.706 -54.426  14.536  1.00  0.00     0.256 A 
HETATM   11  C   UNL     1     -41.699 -55.269  15.881  1.00  0.00     0.056 C 
HETATM   12  O   UNL     1     -44.467 -54.828  15.412  1.00  0.00    -0.267 OA
ENDBRANCH   2   3
ENDBRANCH   1   2
BRANCH   1  13
HETATM   13  O   UNL     1     -46.784 -52.456  11.454  1.00  0.00    -0.392 OA
HETATM   14  H   UNL     1     -47.510 -51.812  11.478  1.00  0.00     0.210 HD
ENDBRANCH   1  13
BRANCH   1  15
HETATM   15  C   UNL     1     -46.755 -51.563  13.743  1.00  0.00     0.209 C 
BRANCH  15  16
HETATM   16  O   UNL     1     -46.295 -52.003  15.022  1.00  0.00    -0.348 OA
BRANCH  16  17
HETATM   17  C   UNL     1     -46.582 -51.239  16.120  1.00  0.00     0.084 A 
HETATM   18  C   UNL     1     -47.836 -51.197  16.745  1.00  0.00     0.037 A 
HETATM   19  C   UNL     1     -48.052 -50.392  17.868  1.00  0.00     0.003 A 
HETATM   20  C   UNL     1     -47.016 -49.625  18.387  1.00  0.00     0.001 A 
HETATM   21  C   UNL     1     -45.766 -49.658  17.773  1.00  0.00     0.019 A 
HETATM   22  C   UNL     1     -45.534 -50.456  16.633  1.00  0.00     0.081 A 
BRANCH  22  23
HETATM   23  C   UNL     1     -44.154 -50.407  16.017  1.00  0.00     0.420 C 
HETATM   24  F   UNL     1     -44.082 -50.052  14.708  1.00  0.00    -0.166 F 
HETATM   25  F   UNL     1     -43.343 -49.526  16.676  1.00  0.00    -0.166 F 
HETATM   26  F   UNL     1     -43.517 -51.613  16.105  1.00  0.00    -0.166 F 
ENDBRANCH  22  23
ENDBRANCH  16  17
ENDBRANCH  15  16
ENDBRANCH   1  15
TORSDOF 7
ENDMDL
MODEL 6
REMARK VINA RESULT:      -6.4      1.557      2.306
REMARK  7 active torsions:
REMARK  status: ('A' for Active; 'I' for Inactive)
REMARK    1  A    between atoms: N_6  and  C_7 
REMARK    2  A    between atoms: C_7  and  C_8 
REMARK    3  A    between atoms: C_8  and  O_9 
REMARK    4  A    between atoms: C_8  and  C_10 
REMARK    5  A    between atoms: C_10  and  O_11 
REMARK    6  A    between atoms: O_11  and  C_12 
REMARK    7  A    between atoms: C_17  and  C_18 
ROOT
HETATM    1  C   UNL     1     -41.235 -52.322  11.940  1.00  0.00     0.161 C 
ENDROOT
BRANCH   1   2
HETATM    2  C   UNL     1     -40.197 -51.528  12.750  1.00  0.00     0.166 C 
BRANCH   2   3
HETATM    3  N   UNL     1     -40.154 -50.115  12.392  1.00  0.00    -0.307 N 
HETATM    4  C   UNL     1     -40.652 -49.689  11.192  1.00  0.00     0.186 A 
HETATM    5  N   UNL     1     -40.627 -48.469  10.769  1.00  0.00    -0.355 N 
HETATM    6  C   UNL     1     -40.072 -47.528  11.597  1.00  0.00     0.017 A 
ATOM      7  HN  UNL     1     -41.005 -48.216   9.856  1.00  0.00     0.166 HD
HETATM    8  C   UNL     1     -40.033 -46.137  11.017  1.00  0.00     0.069 C 
HETATM    9  C   UNL     1     -39.599 -47.795  12.830  1.00  0.00     0.028 A 
HETATM   10  C   UNL     1     -39.660 -49.204  13.300  1.00  0.00     0.256 A 
HETATM   11  C   UNL     1     -39.005 -46.772  13.747  1.00  0.00     0.056 C 
HETATM   12  O   UNL     1     -39.276 -49.519  14.424  1.00  0.00    -0.267 OA
ENDBRANCH   2   3
ENDBRANCH   1   2
BRANCH   1  13
HETATM   13  O   UNL     1     -40.576 -53.445  11.331  1.00  0.00    -0.392 OA
HETATM   14  H   UNL     1     -41.228 -54.145  11.162  1.00  0.00     0.210 HD
ENDBRANCH   1  13
BRANCH   1  15
HETATM   15  C   UNL     1     -42.378 -52.785  12.867  1.00  0.00     0.209 C 
BRANCH  15  16
HETATM   16  O   UNL     1     -43.462 -51.859  12.782  1.00  0.00    -0.348 OA
BRANCH  16  17
HETATM   17  C   UNL     1     -43.975 -51.344  13.941  1.00  0.00     0.084 A 
HETATM   18  C   UNL     1     -43.301 -50.431  14.764  1.00  0.00     0.037 A 
HETATM   19  C   UNL     1     -43.895 -49.947  15.934  1.00  0.00     0.003 A 
HETATM   20  C   UNL     1     -45.172 -50.361  16.293  1.00  0.00     0.001 A 
HETATM   21  C   UNL     1     -45.849 -51.269  15.483  1.00  0.00     0.019 A 
HETATM   22  C   UNL     1     -45.262 -51.776  14.305  1.00  0.00     0.081 A 
BRANCH  22  23
HETATM   23  C   UNL     1     -46.061 -52.779  13.503  1.00  0.00     0.420 C 
HETATM   24  F   UNL     1     -46.412 -52.411  12.243  1.00  0.00    -0.166 F 
HETATM   25  F   UNL     1     -45.385 -53.958  13.361  1.00  0.00    -0.166 F 
HETATM   26  F   UNL     1     -47.230 -53.109  14.128  1.00  0.00    -0.166 F 
ENDBRANCH  22  23
ENDBRANCH  16  17
ENDBRANCH  15  16
ENDBRANCH   1  15
TORSDOF 7
ENDMDL
MODEL 7
REMARK VINA RESULT:      -6.4      1.852      2.444
REMARK  7 active torsions:
REMARK  status: ('A' for Active; 'I' for Inactive)
REMARK    1  A    between atoms: N_6  and  C_7 
REMARK    2  A    between atoms: C_7  and  C_8 
REMARK    3  A    between atoms: C_8  and  O_9 
REMARK    4  A    between atoms: C_8  and  C_10 
REMARK    5  A    between atoms: C_10  and  O_11 
REMARK    6  A    between atoms: O_11  and  C_12 
REMARK    7  A    between atoms: C_17  and  C_18 
ROOT
HETATM    1  C   UNL     1     -41.101 -52.406  12.164  1.00  0.00     0.161 C 
ENDROOT
BRANCH   1   2
HETATM    2  C   UNL     1     -39.984 -51.592  12.838  1.00  0.00     0.166 C 
BRANCH   2   3
HETATM    3  N   UNL     1     -39.993 -50.185  12.454  1.00  0.00    -0.307 N 
HETATM    4  C   UNL     1     -40.512 -49.799  11.249  1.00  0.00     0.186 A 
HETATM    5  N   UNL     1     -40.532 -48.588  10.803  1.00  0.00    -0.355 N 
HETATM    6  C   UNL     1     -40.005 -47.613  11.610  1.00  0.00     0.017 A 
ATOM      7  HN  UNL     1     -40.923 -48.366   9.888  1.00  0.00     0.166 HD
HETATM    8  C   UNL     1     -40.018 -46.232  11.004  1.00  0.00     0.069 C 
HETATM    9  C   UNL     1     -39.517 -47.839  12.845  1.00  0.00     0.028 A 
HETATM   10  C   UNL     1     -39.525 -49.241  13.342  1.00  0.00     0.256 A 
HETATM   11  C   UNL     1     -38.953 -46.779  13.739  1.00  0.00     0.056 C 
HETATM   12  O   UNL     1     -39.125 -49.521  14.469  1.00  0.00    -0.267 OA
ENDBRANCH   2   3
ENDBRANCH   1   2
BRANCH   1  13
HETATM   13  O   UNL     1     -40.495 -53.426  11.352  1.00  0.00    -0.392 OA
HETATM   14  H   UNL     1     -40.117 -54.110  11.929  1.00  0.00     0.210 HD
ENDBRANCH   1  13
BRANCH   1  15
HETATM   15  C   UNL     1     -42.018 -53.025  13.239  1.00  0.00     0.209 C 
BRANCH  15  16
HETATM   16  O   UNL     1     -43.384 -52.812  12.878  1.00  0.00    -0.348 OA
BRANCH  16  17
HETATM   17  C   UNL     1     -44.252 -52.363  13.835  1.00  0.00     0.084 A 
HETATM   18  C   UNL     1     -44.282 -51.047  14.317  1.00  0.00     0.037 A 
HETATM   19  C   UNL     1     -45.203 -50.663  15.296  1.00  0.00     0.003 A 
HETATM   20  C   UNL     1     -46.112 -51.585  15.801  1.00  0.00     0.001 A 
HETATM   21  C   UNL     1     -46.089 -52.896  15.331  1.00  0.00     0.019 A 
HETATM   22  C   UNL     1     -45.160 -53.304  14.350  1.00  0.00     0.081 A 
BRANCH  22  23
HETATM   23  C   UNL     1     -45.191 -54.753  13.920  1.00  0.00     0.420 C 
HETATM   24  F   UNL     1     -44.215 -55.557  14.416  1.00  0.00    -0.166 F 
HETATM   25  F   UNL     1     -46.368 -55.353  14.269  1.00  0.00    -0.166 F 
HETATM   26  F   UNL     1     -45.114 -54.879  12.562  1.00  0.00    -0.166 F 
ENDBRANCH  22  23
ENDBRANCH  16  17
ENDBRANCH  15  16
ENDBRANCH   1  15
TORSDOF 7
ENDMDL
MODEL 8
REMARK VINA RESULT:      -6.3      2.052      2.666
REMARK  7 active torsions:
REMARK  status: ('A' for Active; 'I' for Inactive)
REMARK    1  A    between atoms: N_6  and  C_7 
REMARK    2  A    between atoms: C_7  and  C_8 
REMARK    3  A    between atoms: C_8  and  O_9 
REMARK    4  A    between atoms: C_8  and  C_10 
REMARK    5  A    between atoms: C_10  and  O_11 
REMARK    6  A    between atoms: O_11  and  C_12 
REMARK    7  A    between atoms: C_17  and  C_18 
ROOT
HETATM    1  C   UNL     1     -41.003 -52.531  12.437  1.00  0.00     0.161 C 
ENDROOT
BRANCH   1   2
HETATM    2  C   UNL     1     -40.084 -51.298  12.449  1.00  0.00     0.166 C 
BRANCH   2   3
HETATM    3  N   UNL     1     -40.778 -50.067  12.087  1.00  0.00    -0.307 N 
HETATM    4  C   UNL     1     -42.144 -50.008  12.115  1.00  0.00     0.186 A 
HETATM    5  N   UNL     1     -42.850 -48.981  11.779  1.00  0.00    -0.355 N 
HETATM    6  C   UNL     1     -42.174 -47.858  11.377  1.00  0.00     0.017 A 
ATOM      7  HN  UNL     1     -43.869 -49.003  11.811  1.00  0.00     0.166 HD
HETATM    8  C   UNL     1     -43.062 -46.717  10.952  1.00  0.00     0.069 C 
HETATM    9  C   UNL     1     -40.830 -47.754  11.358  1.00  0.00     0.028 A 
HETATM   10  C   UNL     1     -40.042 -48.946  11.771  1.00  0.00     0.256 A 
HETATM   11  C   UNL     1     -40.082 -46.528  10.935  1.00  0.00     0.056 C 
HETATM   12  O   UNL     1     -38.815 -48.917  11.809  1.00  0.00    -0.267 OA
ENDBRANCH   2   3
ENDBRANCH   1   2
BRANCH   1  13
HETATM   13  O   UNL     1     -40.474 -53.484  11.499  1.00  0.00    -0.392 OA
HETATM   14  H   UNL     1     -40.737 -54.378  11.770  1.00  0.00     0.210 HD
ENDBRANCH   1  13
BRANCH   1  15
HETATM   15  C   UNL     1     -41.084 -53.136  13.854  1.00  0.00     0.209 C 
BRANCH  15  16
HETATM   16  O   UNL     1     -42.431 -53.524  14.128  1.00  0.00    -0.348 OA
BRANCH  16  17
HETATM   17  C   UNL     1     -43.283 -52.599  14.664  1.00  0.00     0.084 A 
HETATM   18  C   UNL     1     -42.976 -51.793  15.770  1.00  0.00     0.037 A 
HETATM   19  C   UNL     1     -43.901 -50.865  16.259  1.00  0.00     0.003 A 
HETATM   20  C   UNL     1     -45.141 -50.725  15.648  1.00  0.00     0.001 A 
HETATM   21  C   UNL     1     -45.457 -51.521  14.551  1.00  0.00     0.019 A 
HETATM   22  C   UNL     1     -44.540 -52.470  14.049  1.00  0.00     0.081 A 
BRANCH  22  23
HETATM   23  C   UNL     1     -44.980 -53.310  12.872  1.00  0.00     0.420 C 
HETATM   24  F   UNL     1     -45.146 -54.640  13.099  1.00  0.00    -0.166 F 
HETATM   25  F   UNL     1     -46.174 -52.877  12.367  1.00  0.00    -0.166 F 
HETATM   26  F   UNL     1     -44.099 -53.224  11.831  1.00  0.00    -0.166 F 
ENDBRANCH  22  23
ENDBRANCH  16  17
ENDBRANCH  15  16
ENDBRANCH   1  15
TORSDOF 7
ENDMDL
MODEL 9
REMARK VINA RESULT:      -6.3      3.479      7.326
REMARK  7 active torsions:
REMARK  status: ('A' for Active; 'I' for Inactive)
REMARK    1  A    between atoms: N_6  and  C_7 
REMARK    2  A    between atoms: C_7  and  C_8 
REMARK    3  A    between atoms: C_8  and  O_9 
REMARK    4  A    between atoms: C_8  and  C_10 
REMARK    5  A    between atoms: C_10  and  O_11 
REMARK    6  A    between atoms: O_11  and  C_12 
REMARK    7  A    between atoms: C_17  and  C_18 
ROOT
HETATM    1  C   UNL     1     -40.888 -53.360  12.767  1.00  0.00     0.161 C 
ENDROOT
BRANCH   1   2
HETATM    2  C   UNL     1     -41.916 -52.229  12.938  1.00  0.00     0.166 C 
BRANCH   2   3
HETATM    3  N   UNL     1     -43.195 -52.695  13.464  1.00  0.00    -0.307 N 
HETATM    4  C   UNL     1     -43.352 -53.998  13.848  1.00  0.00     0.186 A 
HETATM    5  N   UNL     1     -44.449 -54.514  14.290  1.00  0.00    -0.355 N 
HETATM    6  C   UNL     1     -45.536 -53.686  14.394  1.00  0.00     0.017 A 
ATOM      7  HN  UNL     1     -44.506 -55.499  14.550  1.00  0.00     0.166 HD
HETATM    8  C   UNL     1     -46.794 -54.368  14.868  1.00  0.00     0.069 C 
HETATM    9  C   UNL     1     -45.510 -52.369  14.109  1.00  0.00     0.028 A 
HETATM   10  C   UNL     1     -44.226 -51.796  13.623  1.00  0.00     0.256 A 
HETATM   11  C   UNL     1     -46.687 -51.453  14.234  1.00  0.00     0.056 C 
HETATM   12  O   UNL     1     -44.117 -50.598  13.372  1.00  0.00    -0.267 OA
ENDBRANCH   2   3
ENDBRANCH   1   2
BRANCH   1  13
HETATM   13  O   UNL     1     -40.448 -53.372  11.399  1.00  0.00    -0.392 OA
HETATM   14  H   UNL     1     -39.548 -53.010  11.350  1.00  0.00     0.210 HD
ENDBRANCH   1  13
BRANCH   1  15
HETATM   15  C   UNL     1     -39.703 -53.137  13.729  1.00  0.00     0.209 C 
BRANCH  15  16
HETATM   16  O   UNL     1     -38.809 -52.175  13.166  1.00  0.00    -0.348 OA
BRANCH  16  17
HETATM   17  C   UNL     1     -38.417 -51.115  13.936  1.00  0.00     0.084 A 
HETATM   18  C   UNL     1     -38.193 -51.185  15.318  1.00  0.00     0.037 A 
HETATM   19  C   UNL     1     -37.790 -50.056  16.037  1.00  0.00     0.003 A 
HETATM   20  C   UNL     1     -37.598 -48.844  15.385  1.00  0.00     0.001 A 
HETATM   21  C   UNL     1     -37.819 -48.762  14.013  1.00  0.00     0.019 A 
HETATM   22  C   UNL     1     -38.237 -49.889  13.273  1.00  0.00     0.081 A 
BRANCH  22  23
HETATM   23  C   UNL     1     -38.480 -49.700  11.793  1.00  0.00     0.420 C 
HETATM   24  F   UNL     1     -38.550 -48.419  11.345  1.00  0.00    -0.166 F 
HETATM   25  F   UNL     1     -37.501 -50.291  11.045  1.00  0.00    -0.166 F 
HETATM   26  F   UNL     1     -39.643 -50.293  11.391  1.00  0.00    -0.166 F 
ENDBRANCH  22  23
ENDBRANCH  16  17
ENDBRANCH  15  16
ENDBRANCH   1  15
TORSDOF 7
ENDMDL
