MODEL 1
REMARK VINA RESULT:      -6.6      0.000      0.000
REMARK  7 active torsions:
REMARK  status: ('A' for Active; 'I' for Inactive)
REMARK    1  A    between atoms: N_2  and  C_10 
REMARK    2  A    between atoms: N_6  and  C_7 
REMARK    3  A    between atoms: C_9  and  C_10 
REMARK    4  A    between atoms: C_9  and  O_27 
REMARK    5  A    between atoms: C_15  and  C_23 
REMARK       I    between atoms: C_15  and  N_21 
REMARK    6  A    between atoms: C_19  and  O_25 
REMARK    7  A    between atoms: C_23  and  O_25 
ROOT
HETATM    1  C   UNL     1     -41.197 -49.754  11.902  1.00  0.00     0.122 A 
HETATM    2  N   UNL     1     -41.422 -47.726  11.134  1.00  0.00    -0.324 N 
HETATM    3  C   UNL     1     -40.478 -48.682  11.399  1.00  0.00     0.140 A 
HETATM    4  N   UNL     1     -42.543 -49.458  11.951  1.00  0.00    -0.346 N 
ATOM      5  HN  UNL     1     -43.297 -50.053  12.296  1.00  0.00     0.167 HD
HETATM    6  C   UNL     1     -40.465 -50.903  12.266  1.00  0.00     0.135 A 
HETATM    7  C   UNL     1     -42.646 -48.243  11.456  1.00  0.00     0.185 A 
HETATM    8  N   UNL     1     -39.153 -48.605  11.213  1.00  0.00    -0.336 N 
ATOM      9  HN  UNL     1     -38.664 -47.783  10.857  1.00  0.00     0.168 HD
HETATM   10  N   UNL     1     -39.116 -50.880  12.071  1.00  0.00    -0.337 N 
ATOM     11  HN  UNL     1     -38.542 -51.690  12.307  1.00  0.00     0.168 HD
HETATM   12  C   UNL     1     -38.553 -49.763  11.560  1.00  0.00     0.183 A 
ENDROOT
BRANCH   6  13
HETATM   13  N   UNL     1     -41.083 -52.042  12.784  1.00  0.00    -0.360 N 
HETATM   14  C   UNL     1     -40.439 -53.233  13.246  1.00  0.00     0.158 C 
HETATM   15  C   UNL     1     -41.821 -53.908  13.209  1.00  0.00     0.158 C 
HETATM   16  C   UNL     1     -42.220 -52.736  12.283  1.00  0.00     0.158 C 
BRANCH  15  17
HETATM   17  O   UNL     1     -42.512 -54.008  14.486  1.00  0.00    -0.373 OA
BRANCH  17  18
HETATM   18  C   UNL     1     -43.522 -55.000  14.554  1.00  0.00     0.271 C 
BRANCH  18  19
HETATM   19  C   UNL     1     -44.922 -54.523  14.145  1.00  0.00     0.242 C 
HETATM   20  N   UNL     1     -45.727 -53.908  15.098  1.00  0.00    -0.359 N 
HETATM   21  C   UNL     1     -47.014 -53.367  14.691  1.00  0.00     0.152 C 
HETATM   22  C   UNL     1     -45.386 -53.743  16.503  1.00  0.00     0.152 C 
HETATM   23  O   UNL     1     -45.278 -54.641  12.969  1.00  0.00    -0.271 OA
ENDBRANCH  18  19
ENDBRANCH  17  18
ENDBRANCH  15  17
ENDBRANCH   6  13
BRANCH   2  24
HETATM   24  C   UNL     1     -41.199 -46.432  10.522  1.00  0.00     0.172 C 
BRANCH  24  25
HETATM   25  C   UNL     1     -40.900 -45.286  11.502  1.00  0.00     0.102 C 
HETATM   26  C   UNL     1     -42.126 -44.545  12.084  1.00  0.00     0.153 C 
HETATM   27  O   UNL     1     -41.744 -43.157  12.246  1.00  0.00    -0.383 OA
HETATM   28  C   UNL     1     -42.629 -45.034  13.432  1.00  0.00     0.042 C 
HETATM   29  C   UNL     1     -40.415 -42.994  11.736  1.00  0.00     0.171 C 
HETATM   30  C   UNL     1     -40.207 -44.140  10.773  1.00  0.00     0.068 C 
BRANCH  25  31
HETATM   31  O   UNL     1     -39.989 -45.719  12.522  1.00  0.00    -0.385 OA
HETATM   32  H   UNL     1     -39.131 -45.945  12.116  1.00  0.00     0.210 HD
ENDBRANCH  25  31
ENDBRANCH  24  25
ENDBRANCH   2  24
TORSDOF 7
ENDMDL
MODEL 2
REMARK VINA RESULT:      -6.5      3.941      8.297
REMARK  7 active torsions:
REMARK  status: ('A' for Active; 'I' for Inactive)
REMARK    1  A    between atoms: N_2  and  C_10 
REMARK    2  A    between atoms: N_6  and  C_7 
REMARK    3  A    between atoms: C_9  and  C_10 
REMARK    4  A    between atoms: C_9  and  O_27 
REMARK    5  A    between atoms: C_15  and  C_23 
REMARK       I    between atoms: C_15  and  N_21 
REMARK    6  A    between atoms: C_19  and  O_25 
REMARK    7  A    between atoms: C_23  and  O_25 
ROOT
HETATM    1  C   UNL     1     -41.012 -51.656  13.522  1.00  0.00     0.122 A 
HETATM    2  N   UNL     1     -42.686 -52.929  12.945  1.00  0.00    -0.324 N 
HETATM    3  C   UNL     1     -42.174 -51.671  12.768  1.00  0.00     0.140 A 
HETATM    4  N   UNL     1     -40.822 -52.871  14.147  1.00  0.00    -0.346 N 
ATOM      5  HN  UNL     1     -40.063 -53.132  14.776  1.00  0.00     0.167 HD
HETATM    6  C   UNL     1     -40.265 -50.460  13.525  1.00  0.00     0.135 A 
HETATM    7  C   UNL     1     -41.830 -53.620  13.756  1.00  0.00     0.185 A 
HETATM    8  N   UNL     1     -42.681 -50.672  12.032  1.00  0.00    -0.336 N 
ATOM      9  HN  UNL     1     -43.555 -50.723  11.509  1.00  0.00     0.168 HD
HETATM   10  N   UNL     1     -40.727 -49.425  12.770  1.00  0.00    -0.337 N 
ATOM     11  HN  UNL     1     -40.217 -48.542  12.728  1.00  0.00     0.168 HD
HETATM   12  C   UNL     1     -41.876 -49.589  12.076  1.00  0.00     0.183 A 
ENDROOT
BRANCH   6  13
HETATM   13  N   UNL     1     -39.077 -50.331  14.248  1.00  0.00    -0.360 N 
HETATM   14  C   UNL     1     -38.651 -49.192  15.002  1.00  0.00     0.158 C 
HETATM   15  C   UNL     1     -37.251 -49.829  15.035  1.00  0.00     0.158 C 
HETATM   16  C   UNL     1     -37.756 -50.681  13.848  1.00  0.00     0.158 C 
BRANCH  15  17
HETATM   17  O   UNL     1     -36.906 -50.537  16.258  1.00  0.00    -0.373 OA
BRANCH  17  18
HETATM   18  C   UNL     1     -35.667 -50.172  16.842  1.00  0.00     0.271 C 
BRANCH  18  19
HETATM   19  C   UNL     1     -35.480 -48.666  17.068  1.00  0.00     0.242 C 
HETATM   20  N   UNL     1     -36.113 -48.066  18.152  1.00  0.00    -0.359 N 
HETATM   21  C   UNL     1     -35.858 -46.660  18.426  1.00  0.00     0.152 C 
HETATM   22  C   UNL     1     -37.024 -48.735  19.067  1.00  0.00     0.152 C 
HETATM   23  O   UNL     1     -34.726 -48.035  16.322  1.00  0.00    -0.271 OA
ENDBRANCH  18  19
ENDBRANCH  17  18
ENDBRANCH  15  17
ENDBRANCH   6  13
BRANCH   2  24
HETATM   24  C   UNL     1     -43.862 -53.484  12.307  1.00  0.00     0.172 C 
BRANCH  24  25
HETATM   25  C   UNL     1     -45.138 -53.474  13.166  1.00  0.00     0.102 C 
HETATM   26  C   UNL     1     -45.085 -52.630  14.460  1.00  0.00     0.153 C 
HETATM   27  O   UNL     1     -45.887 -53.322  15.450  1.00  0.00    -0.383 OA
HETATM   28  C   UNL     1     -45.621 -51.211  14.361  1.00  0.00     0.042 C 
HETATM   29  C   UNL     1     -46.350 -54.550  14.875  1.00  0.00     0.171 C 
HETATM   30  C   UNL     1     -45.386 -54.860  13.752  1.00  0.00     0.068 C 
BRANCH  25  31
HETATM   31  O   UNL     1     -46.285 -53.169  12.362  1.00  0.00    -0.385 OA
HETATM   32  H   UNL     1     -46.986 -52.791  12.927  1.00  0.00     0.210 HD
ENDBRANCH  25  31
ENDBRANCH  24  25
ENDBRANCH   2  24
TORSDOF 7
ENDMDL
MODEL 3
REMARK VINA RESULT:      -6.1      2.250      9.164
REMARK  7 active torsions:
REMARK  status: ('A' for Active; 'I' for Inactive)
REMARK    1  A    between atoms: N_2  and  C_10 
REMARK    2  A    between atoms: N_6  and  C_7 
REMARK    3  A    between atoms: C_9  and  C_10 
REMARK    4  A    between atoms: C_9  and  O_27 
REMARK    5  A    between atoms: C_15  and  C_23 
REMARK       I    between atoms: C_15  and  N_21 
REMARK    6  A    between atoms: C_19  and  O_25 
REMARK    7  A    between atoms: C_23  and  O_25 
ROOT
HETATM    1  C   UNL     1     -41.925 -49.047  12.623  1.00  0.00     0.122 A 
HETATM    2  N   UNL     1     -42.754 -50.733  13.730  1.00  0.00    -0.324 N 
HETATM    3  C   UNL     1     -41.827 -50.422  12.771  1.00  0.00     0.140 A 
HETATM    4  N   UNL     1     -42.890 -48.535  13.463  1.00  0.00    -0.346 N 
ATOM      5  HN  UNL     1     -43.186 -47.562  13.548  1.00  0.00     0.167 HD
HETATM    6  C   UNL     1     -41.068 -48.442  11.681  1.00  0.00     0.135 A 
HETATM    7  C   UNL     1     -43.348 -49.570  14.134  1.00  0.00     0.185 A 
HETATM    8  N   UNL     1     -41.005 -51.256  12.119  1.00  0.00    -0.336 N 
ATOM      9  HN  UNL     1     -40.985 -52.268  12.247  1.00  0.00     0.168 HD
HETATM   10  N   UNL     1     -40.196 -49.248  11.011  1.00  0.00    -0.337 N 
ATOM     11  HN  UNL     1     -39.547 -48.857  10.328  1.00  0.00     0.168 HD
HETATM   12  C   UNL     1     -40.209 -50.574  11.269  1.00  0.00     0.183 A 
ENDROOT
BRANCH   6  13
HETATM   13  N   UNL     1     -41.078 -47.066  11.448  1.00  0.00    -0.360 N 
HETATM   14  C   UNL     1     -42.003 -46.340  10.632  1.00  0.00     0.158 C 
HETATM   15  C   UNL     1     -41.024 -45.156  10.703  1.00  0.00     0.158 C 
HETATM   16  C   UNL     1     -39.982 -46.215  11.130  1.00  0.00     0.158 C 
BRANCH  15  17
HETATM   17  O   UNL     1     -41.351 -44.120  11.672  1.00  0.00    -0.373 OA
BRANCH  17  18
HETATM   18  C   UNL     1     -40.939 -42.810  11.323  1.00  0.00     0.271 C 
BRANCH  18  19
HETATM   19  C   UNL     1     -40.072 -42.106  12.375  1.00  0.00     0.242 C 
HETATM   20  N   UNL     1     -40.175 -40.726  12.515  1.00  0.00    -0.359 N 
HETATM   21  C   UNL     1     -39.429 -40.068  13.578  1.00  0.00     0.152 C 
HETATM   22  C   UNL     1     -40.988 -39.856  11.679  1.00  0.00     0.152 C 
HETATM   23  O   UNL     1     -39.352 -42.785  13.113  1.00  0.00    -0.271 OA
ENDBRANCH  18  19
ENDBRANCH  17  18
ENDBRANCH  15  17
ENDBRANCH   6  13
BRANCH   2  24
HETATM   24  C   UNL     1     -43.001 -52.039  14.306  1.00  0.00     0.172 C 
BRANCH  24  25
HETATM   25  C   UNL     1     -44.109 -52.857  13.623  1.00  0.00     0.102 C 
HETATM   26  C   UNL     1     -45.555 -52.578  14.093  1.00  0.00     0.153 C 
HETATM   27  O   UNL     1     -46.271 -53.837  14.032  1.00  0.00    -0.383 OA
HETATM   28  C   UNL     1     -46.346 -51.571  13.273  1.00  0.00     0.042 C 
HETATM   29  C   UNL     1     -45.349 -54.860  13.638  1.00  0.00     0.171 C 
HETATM   30  C   UNL     1     -43.980 -54.330  13.996  1.00  0.00     0.068 C 
BRANCH  25  31
HETATM   31  O   UNL     1     -43.977 -52.794  12.196  1.00  0.00    -0.385 OA
HETATM   32  H   UNL     1     -43.294 -53.428  11.906  1.00  0.00     0.210 HD
ENDBRANCH  25  31
ENDBRANCH  24  25
ENDBRANCH   2  24
TORSDOF 7
ENDMDL
MODEL 4
REMARK VINA RESULT:      -6.1      1.688      2.819
REMARK  7 active torsions:
REMARK  status: ('A' for Active; 'I' for Inactive)
REMARK    1  A    between atoms: N_2  and  C_10 
REMARK    2  A    between atoms: N_6  and  C_7 
REMARK    3  A    between atoms: C_9  and  C_10 
REMARK    4  A    between atoms: C_9  and  O_27 
REMARK    5  A    between atoms: C_15  and  C_23 
REMARK       I    between atoms: C_15  and  N_21 
REMARK    6  A    between atoms: C_19  and  O_25 
REMARK    7  A    between atoms: C_23  and  O_25 
ROOT
HETATM    1  C   UNL     1     -41.061 -47.533  11.612  1.00  0.00     0.122 A 
HETATM    2  N   UNL     1     -40.184 -45.536  11.595  1.00  0.00    -0.324 N 
HETATM    3  C   UNL     1     -41.091 -46.323  10.937  1.00  0.00     0.140 A 
HETATM    4  N   UNL     1     -40.154 -47.488  12.650  1.00  0.00    -0.346 N 
ATOM      5  HN  UNL     1     -39.913 -48.241  13.295  1.00  0.00     0.167 HD
HETATM    6  C   UNL     1     -41.914 -48.551  11.140  1.00  0.00     0.135 A 
HETATM    7  C   UNL     1     -39.667 -46.266  12.629  1.00  0.00     0.185 A 
HETATM    8  N   UNL     1     -41.845 -45.999   9.877  1.00  0.00    -0.336 N 
ATOM      9  HN  UNL     1     -41.817 -45.098   9.399  1.00  0.00     0.168 HD
HETATM   10  N   UNL     1     -42.718 -48.260  10.079  1.00  0.00    -0.337 N 
ATOM     11  HN  UNL     1     -43.362 -48.958   9.707  1.00  0.00     0.168 HD
HETATM   12  C   UNL     1     -42.645 -47.028   9.528  1.00  0.00     0.183 A 
ENDROOT
BRANCH   6  13
HETATM   13  N   UNL     1     -41.968 -49.810  11.741  1.00  0.00    -0.360 N 
HETATM   14  C   UNL     1     -42.589 -50.140  12.987  1.00  0.00     0.158 C 
HETATM   15  C   UNL     1     -41.823 -51.474  12.932  1.00  0.00     0.158 C 
HETATM   16  C   UNL     1     -40.918 -50.758  11.902  1.00  0.00     0.158 C 
BRANCH  15  17
HETATM   17  O   UNL     1     -42.583 -52.621  12.460  1.00  0.00    -0.373 OA
BRANCH  17  18
HETATM   18  C   UNL     1     -42.826 -53.627  13.428  1.00  0.00     0.271 C 
BRANCH  18  19
HETATM   19  C   UNL     1     -44.276 -54.127  13.487  1.00  0.00     0.242 C 
HETATM   20  N   UNL     1     -44.931 -54.145  14.714  1.00  0.00    -0.359 N 
HETATM   21  C   UNL     1     -46.335 -54.525  14.758  1.00  0.00     0.152 C 
HETATM   22  C   UNL     1     -44.327 -53.803  15.992  1.00  0.00     0.152 C 
HETATM   23  O   UNL     1     -44.846 -54.443  12.439  1.00  0.00    -0.271 OA
ENDBRANCH  18  19
ENDBRANCH  17  18
ENDBRANCH  15  17
ENDBRANCH   6  13
BRANCH   2  24
HETATM   24  C   UNL     1     -39.890 -44.143  11.330  1.00  0.00     0.172 C 
BRANCH  24  25
HETATM   25  C   UNL     1     -40.796 -43.133  12.053  1.00  0.00     0.102 C 
HETATM   26  C   UNL     1     -41.725 -42.282  11.157  1.00  0.00     0.153 C 
HETATM   27  O   UNL     1     -41.833 -40.977  11.778  1.00  0.00    -0.383 OA
HETATM   28  C   UNL     1     -43.138 -42.806  10.963  1.00  0.00     0.042 C 
HETATM   29  C   UNL     1     -40.983 -40.956  12.931  1.00  0.00     0.171 C 
HETATM   30  C   UNL     1     -39.953 -42.036  12.694  1.00  0.00     0.068 C 
BRANCH  25  31
HETATM   31  O   UNL     1     -41.506 -43.769  13.125  1.00  0.00    -0.385 OA
HETATM   32  H   UNL     1     -42.454 -43.543  13.065  1.00  0.00     0.210 HD
ENDBRANCH  25  31
ENDBRANCH  24  25
ENDBRANCH   2  24
TORSDOF 7
ENDMDL
MODEL 5
REMARK VINA RESULT:      -6.1      3.417      4.324
REMARK  7 active torsions:
REMARK  status: ('A' for Active; 'I' for Inactive)
REMARK    1  A    between atoms: N_2  and  C_10 
REMARK    2  A    between atoms: N_6  and  C_7 
REMARK    3  A    between atoms: C_9  and  C_10 
REMARK    4  A    between atoms: C_9  and  O_27 
REMARK    5  A    between atoms: C_15  and  C_23 
REMARK       I    between atoms: C_15  and  N_21 
REMARK    6  A    between atoms: C_19  and  O_25 
REMARK    7  A    between atoms: C_23  and  O_25 
ROOT
HETATM    1  C   UNL     1     -40.083 -50.734  12.671  1.00  0.00     0.122 A 
HETATM    2  N   UNL     1     -41.166 -49.293  11.445  1.00  0.00    -0.324 N 
HETATM    3  C   UNL     1     -39.902 -49.736  11.727  1.00  0.00     0.140 A 
HETATM    4  N   UNL     1     -41.422 -50.891  12.962  1.00  0.00    -0.346 N 
ATOM      5  HN  UNL     1     -41.839 -51.537  13.633  1.00  0.00     0.167 HD
HETATM    6  C   UNL     1     -38.925 -51.379  13.152  1.00  0.00     0.135 A 
HETATM    7  C   UNL     1     -42.046 -50.030  12.187  1.00  0.00     0.185 A 
HETATM    8  N   UNL     1     -38.743 -49.304  11.209  1.00  0.00    -0.336 N 
ATOM      9  HN  UNL     1     -38.658 -48.548  10.530  1.00  0.00     0.168 HD
HETATM   10  N   UNL     1     -37.725 -50.991  12.635  1.00  0.00    -0.337 N 
ATOM     11  HN  UNL     1     -36.859 -51.436  12.940  1.00  0.00     0.168 HD
HETATM   12  C   UNL     1     -37.705 -50.007  11.709  1.00  0.00     0.183 A 
ENDROOT
BRANCH   6  13
HETATM   13  N   UNL     1     -38.987 -52.399  14.103  1.00  0.00    -0.360 N 
HETATM   14  C   UNL     1     -39.583 -53.690  13.940  1.00  0.00     0.158 C 
HETATM   15  C   UNL     1     -39.495 -53.842  15.469  1.00  0.00     0.158 C 
HETATM   16  C   UNL     1     -39.337 -52.304  15.480  1.00  0.00     0.158 C 
BRANCH  15  17
HETATM   17  O   UNL     1     -38.374 -54.626  15.964  1.00  0.00    -0.373 OA
BRANCH  17  18
HETATM   18  C   UNL     1     -38.537 -55.164  17.266  1.00  0.00     0.271 C 
BRANCH  18  19
HETATM   19  C   UNL     1     -38.964 -56.637  17.305  1.00  0.00     0.242 C 
HETATM   20  N   UNL     1     -38.314 -57.502  18.179  1.00  0.00    -0.359 N 
HETATM   21  C   UNL     1     -38.782 -58.875  18.290  1.00  0.00     0.152 C 
HETATM   22  C   UNL     1     -37.182 -57.148  19.021  1.00  0.00     0.152 C 
HETATM   23  O   UNL     1     -39.913 -57.007  16.607  1.00  0.00    -0.271 OA
ENDBRANCH  18  19
ENDBRANCH  17  18
ENDBRANCH  15  17
ENDBRANCH   6  13
BRANCH   2  24
HETATM   24  C   UNL     1     -41.537 -48.298  10.459  1.00  0.00     0.172 C 
BRANCH  24  25
HETATM   25  C   UNL     1     -41.271 -46.840  10.867  1.00  0.00     0.102 C 
HETATM   26  C   UNL     1     -41.552 -46.481  12.345  1.00  0.00     0.153 C 
HETATM   27  O   UNL     1     -42.043 -45.118  12.364  1.00  0.00    -0.383 OA
HETATM   28  C   UNL     1     -40.362 -46.543  13.289  1.00  0.00     0.042 C 
HETATM   29  C   UNL     1     -42.152 -44.661  11.010  1.00  0.00     0.171 C 
HETATM   30  C   UNL     1     -42.258 -45.911  10.168  1.00  0.00     0.068 C 
BRANCH  25  31
HETATM   31  O   UNL     1     -39.965 -46.427  10.444  1.00  0.00    -0.385 OA
HETATM   32  H   UNL     1     -39.609 -47.079   9.810  1.00  0.00     0.210 HD
ENDBRANCH  25  31
ENDBRANCH  24  25
ENDBRANCH   2  24
TORSDOF 7
ENDMDL
MODEL 6
REMARK VINA RESULT:      -6.0      4.541      6.702
REMARK  7 active torsions:
REMARK  status: ('A' for Active; 'I' for Inactive)
REMARK    1  A    between atoms: N_2  and  C_10 
REMARK    2  A    between atoms: N_6  and  C_7 
REMARK    3  A    between atoms: C_9  and  C_10 
REMARK    4  A    between atoms: C_9  and  O_27 
REMARK    5  A    between atoms: C_15  and  C_23 
REMARK       I    between atoms: C_15  and  N_21 
REMARK    6  A    between atoms: C_19  and  O_25 
REMARK    7  A    between atoms: C_23  and  O_25 
ROOT
HETATM    1  C   UNL     1     -40.627 -49.576  13.607  1.00  0.00     0.122 A 
HETATM    2  N   UNL     1     -42.173 -48.509  12.500  1.00  0.00    -0.324 N 
HETATM    3  C   UNL     1     -41.506 -49.704  12.544  1.00  0.00     0.140 A 
HETATM    4  N   UNL     1     -40.749 -48.334  14.192  1.00  0.00    -0.346 N 
ATOM      5  HN  UNL     1     -40.213 -47.963  14.977  1.00  0.00     0.167 HD
HETATM    6  C   UNL     1     -39.796 -50.680  13.889  1.00  0.00     0.135 A 
HETATM    7  C   UNL     1     -41.706 -47.729  13.521  1.00  0.00     0.185 A 
HETATM    8  N   UNL     1     -41.665 -50.766  11.740  1.00  0.00    -0.336 N 
ATOM      9  HN  UNL     1     -42.312 -50.806  10.954  1.00  0.00     0.168 HD
HETATM   10  N   UNL     1     -39.939 -51.792  13.114  1.00  0.00    -0.337 N 
ATOM     11  HN  UNL     1     -39.371 -52.622  13.284  1.00  0.00     0.168 HD
HETATM   12  C   UNL     1     -40.849 -51.774  12.114  1.00  0.00     0.183 A 
ENDROOT
BRANCH   6  13
HETATM   13  N   UNL     1     -38.873 -50.664  14.936  1.00  0.00    -0.360 N 
HETATM   14  C   UNL     1     -37.478 -50.361  14.845  1.00  0.00     0.158 C 
HETATM   15  C   UNL     1     -37.332 -50.954  16.257  1.00  0.00     0.158 C 
HETATM   16  C   UNL     1     -38.696 -51.623  15.973  1.00  0.00     0.158 C 
BRANCH  15  17
HETATM   17  O   UNL     1     -37.281 -49.990  17.347  1.00  0.00    -0.373 OA
BRANCH  17  18
HETATM   18  C   UNL     1     -36.021 -49.856  17.980  1.00  0.00     0.271 C 
BRANCH  18  19
HETATM   19  C   UNL     1     -35.347 -48.490  17.789  1.00  0.00     0.242 C 
HETATM   20  N   UNL     1     -35.241 -47.635  18.880  1.00  0.00    -0.359 N 
HETATM   21  C   UNL     1     -34.516 -46.383  18.727  1.00  0.00     0.152 C 
HETATM   22  C   UNL     1     -35.797 -47.887  20.201  1.00  0.00     0.152 C 
HETATM   23  O   UNL     1     -34.861 -48.208  16.690  1.00  0.00    -0.271 OA
ENDBRANCH  18  19
ENDBRANCH  17  18
ENDBRANCH  15  17
ENDBRANCH   6  13
BRANCH   2  24
HETATM   24  C   UNL     1     -43.259 -48.154  11.610  1.00  0.00     0.172 C 
BRANCH  24  25
HETATM   25  C   UNL     1     -42.831 -47.538  10.267  1.00  0.00     0.102 C 
HETATM   26  C   UNL     1     -42.452 -46.040  10.291  1.00  0.00     0.153 C 
HETATM   27  O   UNL     1     -42.876 -45.476   9.025  1.00  0.00    -0.383 OA
HETATM   28  C   UNL     1     -40.975 -45.721  10.452  1.00  0.00     0.042 C 
HETATM   29  C   UNL     1     -43.546 -46.499   8.279  1.00  0.00     0.171 C 
HETATM   30  C   UNL     1     -44.012 -47.507   9.304  1.00  0.00     0.068 C 
BRANCH  25  31
HETATM   31  O   UNL     1     -41.824 -48.345   9.640  1.00  0.00    -0.385 OA
HETATM   32  H   UNL     1     -41.844 -49.243  10.023  1.00  0.00     0.210 HD
ENDBRANCH  25  31
ENDBRANCH  24  25
ENDBRANCH   2  24
TORSDOF 7
ENDMDL
MODEL 7
REMARK VINA RESULT:      -5.8      3.983      9.368
REMARK  7 active torsions:
REMARK  status: ('A' for Active; 'I' for Inactive)
REMARK    1  A    between atoms: N_2  and  C_10 
REMARK    2  A    between atoms: N_6  and  C_7 
REMARK    3  A    between atoms: C_9  and  C_10 
REMARK    4  A    between atoms: C_9  and  O_27 
REMARK    5  A    between atoms: C_15  and  C_23 
REMARK       I    between atoms: C_15  and  N_21 
REMARK    6  A    between atoms: C_19  and  O_25 
REMARK    7  A    between atoms: C_23  and  O_25 
ROOT
HETATM    1  C   UNL     1     -41.865 -45.494  11.466  1.00  0.00     0.122 A 
HETATM    2  N   UNL     1     -41.584 -47.648  11.274  1.00  0.00    -0.324 N 
HETATM    3  C   UNL     1     -40.981 -46.451  10.994  1.00  0.00     0.140 A 
HETATM    4  N   UNL     1     -42.981 -46.091  12.013  1.00  0.00    -0.346 N 
ATOM      5  HN  UNL     1     -43.797 -45.628  12.414  1.00  0.00     0.167 HD
HETATM    6  C   UNL     1     -41.492 -44.144  11.308  1.00  0.00     0.135 A 
HETATM    7  C   UNL     1     -42.767 -47.385  11.907  1.00  0.00     0.185 A 
HETATM    8  N   UNL     1     -39.798 -46.245  10.398  1.00  0.00    -0.336 N 
ATOM      9  HN  UNL     1     -39.189 -46.985  10.046  1.00  0.00     0.168 HD
HETATM   10  N   UNL     1     -40.285 -43.886  10.729  1.00  0.00    -0.337 N 
ATOM     11  HN  UNL     1     -39.963 -42.926  10.603  1.00  0.00     0.168 HD
HETATM   12  C   UNL     1     -39.522 -44.926  10.325  1.00  0.00     0.183 A 
ENDROOT
BRANCH   6  13
HETATM   13  N   UNL     1     -42.303 -43.095  11.745  1.00  0.00    -0.360 N 
HETATM   14  C   UNL     1     -43.411 -42.519  11.047  1.00  0.00     0.158 C 
HETATM   15  C   UNL     1     -43.341 -41.353  12.049  1.00  0.00     0.158 C 
HETATM   16  C   UNL     1     -41.910 -41.862  12.338  1.00  0.00     0.158 C 
BRANCH  15  17
HETATM   17  O   UNL     1     -44.296 -41.403  13.146  1.00  0.00    -0.373 OA
BRANCH  17  18
HETATM   18  C   UNL     1     -44.893 -40.164  13.488  1.00  0.00     0.271 C 
BRANCH  18  19
HETATM   19  C   UNL     1     -46.401 -40.079  13.217  1.00  0.00     0.242 C 
HETATM   20  N   UNL     1     -46.841 -39.465  12.050  1.00  0.00    -0.359 N 
HETATM   21  C   UNL     1     -48.263 -39.470  11.743  1.00  0.00     0.152 C 
HETATM   22  C   UNL     1     -45.985 -38.805  11.076  1.00  0.00     0.152 C 
HETATM   23  O   UNL     1     -47.185 -40.611  14.009  1.00  0.00    -0.271 OA
ENDBRANCH  18  19
ENDBRANCH  17  18
ENDBRANCH  15  17
ENDBRANCH   6  13
BRANCH   2  24
HETATM   24  C   UNL     1     -41.036 -48.970  11.048  1.00  0.00     0.172 C 
BRANCH  24  25
HETATM   25  C   UNL     1     -40.075 -49.475  12.137  1.00  0.00     0.102 C 
HETATM   26  C   UNL     1     -38.946 -50.422  11.668  1.00  0.00     0.153 C 
HETATM   27  O   UNL     1     -38.717 -51.371  12.739  1.00  0.00    -0.383 OA
HETATM   28  C   UNL     1     -37.610 -49.770  11.353  1.00  0.00     0.042 C 
HETATM   29  C   UNL     1     -39.671 -51.116  13.777  1.00  0.00     0.171 C 
HETATM   30  C   UNL     1     -40.815 -50.390  13.107  1.00  0.00     0.068 C 
BRANCH  25  31
HETATM   31  O   UNL     1     -39.579 -48.380  12.920  1.00  0.00    -0.385 OA
HETATM   32  H   UNL     1     -40.328 -47.923  13.349  1.00  0.00     0.210 HD
ENDBRANCH  25  31
ENDBRANCH  24  25
ENDBRANCH   2  24
TORSDOF 7
ENDMDL
MODEL 8
REMARK VINA RESULT:      -5.8      4.151      8.584
REMARK  7 active torsions:
REMARK  status: ('A' for Active; 'I' for Inactive)
REMARK    1  A    between atoms: N_2  and  C_10 
REMARK    2  A    between atoms: N_6  and  C_7 
REMARK    3  A    between atoms: C_9  and  C_10 
REMARK    4  A    between atoms: C_9  and  O_27 
REMARK    5  A    between atoms: C_15  and  C_23 
REMARK       I    between atoms: C_15  and  N_21 
REMARK    6  A    between atoms: C_19  and  O_25 
REMARK    7  A    between atoms: C_23  and  O_25 
ROOT
HETATM    1  C   UNL     1     -40.946 -52.253  13.696  1.00  0.00     0.122 A 
HETATM    2  N   UNL     1     -42.715 -53.150  12.790  1.00  0.00    -0.324 N 
HETATM    3  C   UNL     1     -41.742 -53.387  13.724  1.00  0.00     0.140 A 
HETATM    4  N   UNL     1     -41.417 -51.351  12.765  1.00  0.00    -0.346 N 
ATOM      5  HN  UNL     1     -41.015 -50.446  12.521  1.00  0.00     0.167 HD
HETATM    6  C   UNL     1     -39.844 -52.221  14.575  1.00  0.00     0.135 A 
HETATM    7  C   UNL     1     -42.496 -51.909  12.260  1.00  0.00     0.185 A 
HETATM    8  N   UNL     1     -41.589 -54.472  14.497  1.00  0.00    -0.336 N 
ATOM      9  HN  UNL     1     -42.190 -55.295  14.467  1.00  0.00     0.168 HD
HETATM   10  N   UNL     1     -39.662 -53.292  15.399  1.00  0.00    -0.337 N 
ATOM     11  HN  UNL     1     -38.888 -53.312  16.062  1.00  0.00     0.168 HD
HETATM   12  C   UNL     1     -40.529 -54.326  15.320  1.00  0.00     0.183 A 
ENDROOT
BRANCH   6  13
HETATM   13  N   UNL     1     -38.975 -51.131  14.633  1.00  0.00    -0.360 N 
HETATM   14  C   UNL     1     -39.277 -49.817  15.113  1.00  0.00     0.158 C 
HETATM   15  C   UNL     1     -37.969 -49.353  14.448  1.00  0.00     0.158 C 
HETATM   16  C   UNL     1     -38.073 -50.664  13.635  1.00  0.00     0.158 C 
BRANCH  15  17
HETATM   17  O   UNL     1     -36.823 -49.212  15.333  1.00  0.00    -0.373 OA
BRANCH  17  18
HETATM   18  C   UNL     1     -36.547 -47.890  15.764  1.00  0.00     0.271 C 
BRANCH  18  19
HETATM   19  C   UNL     1     -35.510 -47.783  16.889  1.00  0.00     0.242 C 
HETATM   20  N   UNL     1     -35.938 -47.877  18.209  1.00  0.00    -0.359 N 
HETATM   21  C   UNL     1     -34.946 -47.875  19.273  1.00  0.00     0.152 C 
HETATM   22  C   UNL     1     -37.324 -47.990  18.634  1.00  0.00     0.152 C 
HETATM   23  O   UNL     1     -34.315 -47.677  16.597  1.00  0.00    -0.271 OA
ENDBRANCH  18  19
ENDBRANCH  17  18
ENDBRANCH  15  17
ENDBRANCH   6  13
BRANCH   2  24
HETATM   24  C   UNL     1     -43.847 -54.001  12.482  1.00  0.00     0.172 C 
BRANCH  24  25
HETATM   25  C   UNL     1     -45.125 -53.706  13.284  1.00  0.00     0.102 C 
HETATM   26  C   UNL     1     -44.966 -52.771  14.505  1.00  0.00     0.153 C 
HETATM   27  O   UNL     1     -45.897 -53.232  15.516  1.00  0.00    -0.383 OA
HETATM   28  C   UNL     1     -45.256 -51.298  14.267  1.00  0.00     0.042 C 
HETATM   29  C   UNL     1     -46.543 -54.414  15.026  1.00  0.00     0.171 C 
HETATM   30  C   UNL     1     -45.616 -54.975  13.973  1.00  0.00     0.068 C 
BRANCH  25  31
HETATM   31  O   UNL     1     -46.184 -53.289  12.412  1.00  0.00    -0.385 OA
HETATM   32  H   UNL     1     -47.044 -53.467  12.839  1.00  0.00     0.210 HD
ENDBRANCH  25  31
ENDBRANCH  24  25
ENDBRANCH   2  24
TORSDOF 7
ENDMDL
MODEL 9
REMARK VINA RESULT:      -5.7      1.994      8.537
REMARK  7 active torsions:
REMARK  status: ('A' for Active; 'I' for Inactive)
REMARK    1  A    between atoms: N_2  and  C_10 
REMARK    2  A    between atoms: N_6  and  C_7 
REMARK    3  A    between atoms: C_9  and  C_10 
REMARK    4  A    between atoms: C_9  and  O_27 
REMARK    5  A    between atoms: C_15  and  C_23 
REMARK       I    between atoms: C_15  and  N_21 
REMARK    6  A    between atoms: C_19  and  O_25 
REMARK    7  A    between atoms: C_23  and  O_25 
ROOT
HETATM    1  C   UNL     1     -42.683 -50.977  12.531  1.00  0.00     0.122 A 
HETATM    2  N   UNL     1     -44.266 -52.385  13.043  1.00  0.00    -0.324 N 
HETATM    3  C   UNL     1     -42.953 -52.330  12.658  1.00  0.00     0.140 A 
HETATM    4  N   UNL     1     -43.802 -50.227  12.825  1.00  0.00    -0.346 N 
ATOM      5  HN  UNL     1     -43.894 -49.211  12.793  1.00  0.00     0.167 HD
HETATM    6  C   UNL     1     -41.377 -50.618  12.137  1.00  0.00     0.135 A 
HETATM    7  C   UNL     1     -44.726 -51.103  13.156  1.00  0.00     0.185 A 
HETATM    8  N   UNL     1     -42.113 -53.352  12.449  1.00  0.00    -0.336 N 
ATOM      9  HN  UNL     1     -42.365 -54.337  12.534  1.00  0.00     0.168 HD
HETATM   10  N   UNL     1     -40.479 -51.624  11.937  1.00  0.00    -0.337 N 
ATOM     11  HN  UNL     1     -39.519 -51.417  11.664  1.00  0.00     0.168 HD
HETATM   12  C   UNL     1     -40.887 -52.901  12.109  1.00  0.00     0.183 A 
ENDROOT
BRANCH   6  13
HETATM   13  N   UNL     1     -40.991 -49.286  11.977  1.00  0.00    -0.360 N 
HETATM   14  C   UNL     1     -41.290 -48.433  10.869  1.00  0.00     0.158 C 
HETATM   15  C   UNL     1     -40.212 -47.477  11.408  1.00  0.00     0.158 C 
HETATM   16  C   UNL     1     -39.712 -48.703  12.206  1.00  0.00     0.158 C 
BRANCH  15  17
HETATM   17  O   UNL     1     -40.699 -46.341  12.176  1.00  0.00    -0.373 OA
BRANCH  17  18
HETATM   18  C   UNL     1     -40.274 -45.070  11.716  1.00  0.00     0.271 C 
BRANCH  18  19
HETATM   19  C   UNL     1     -39.975 -44.051  12.824  1.00  0.00     0.242 C 
HETATM   20  N   UNL     1     -41.026 -43.321  13.368  1.00  0.00    -0.359 N 
HETATM   21  C   UNL     1     -40.760 -42.427  14.484  1.00  0.00     0.152 C 
HETATM   22  C   UNL     1     -42.408 -43.378  12.916  1.00  0.00     0.152 C 
HETATM   23  O   UNL     1     -38.820 -43.946  13.247  1.00  0.00    -0.271 OA
ENDBRANCH  18  19
ENDBRANCH  17  18
ENDBRANCH  15  17
ENDBRANCH   6  13
BRANCH   2  24
HETATM   24  C   UNL     1     -45.021 -53.574  13.384  1.00  0.00     0.172 C 
BRANCH  24  25
HETATM   25  C   UNL     1     -45.172 -53.845  14.890  1.00  0.00     0.102 C 
HETATM   26  C   UNL     1     -45.369 -52.605  15.792  1.00  0.00     0.153 C 
HETATM   27  O   UNL     1     -44.701 -52.884  17.047  1.00  0.00    -0.383 OA
HETATM   28  C   UNL     1     -46.807 -52.235  16.121  1.00  0.00     0.042 C 
HETATM   29  C   UNL     1     -44.054 -54.158  16.939  1.00  0.00     0.171 C 
HETATM   30  C   UNL     1     -43.867 -54.392  15.458  1.00  0.00     0.068 C 
BRANCH  25  31
HETATM   31  O   UNL     1     -46.163 -54.854  15.125  1.00  0.00    -0.385 OA
HETATM   32  H   UNL     1     -45.723 -55.714  15.266  1.00  0.00     0.210 HD
ENDBRANCH  25  31
ENDBRANCH  24  25
ENDBRANCH   2  24
TORSDOF 7
ENDMDL
