MODEL 1
REMARK VINA RESULT:      -6.5      0.000      0.000
REMARK  7 active torsions:
REMARK  status: ('A' for Active; 'I' for Inactive)
REMARK    1  A    between atoms: N_1  and  C_9 
REMARK    2  A    between atoms: N_4  and  C_7 
REMARK    3  A    between atoms: C_11  and  N_18 
REMARK    4  A    between atoms: C_19  and  C_24 
REMARK    5  A    between atoms: C_19  and  C_25 
REMARK    6  A    between atoms: C_24  and  O_29 
REMARK    7  A    between atoms: C_25  and  O_30 
ROOT
HETATM    1  N   UNL     1     -41.098 -48.724  12.041  1.00  0.00    -0.322 N 
HETATM    2  C   UNL     1     -41.447 -46.635  11.529  1.00  0.00     0.122 A 
HETATM    3  C   UNL     1     -41.796 -47.934  11.159  1.00  0.00     0.140 A 
HETATM    4  N   UNL     1     -40.573 -46.645  12.603  1.00  0.00    -0.346 N 
ATOM      5  HN  UNL     1     -40.171 -45.840  13.083  1.00  0.00     0.167 HD
HETATM    6  C   UNL     1     -41.990 -45.548  10.791  1.00  0.00     0.135 A 
HETATM    7  C   UNL     1     -40.375 -47.910  12.867  1.00  0.00     0.185 A 
HETATM    8  N   UNL     1     -42.618 -48.282  10.156  1.00  0.00    -0.336 N 
ATOM      9  HN  UNL     1     -42.856 -49.242   9.906  1.00  0.00     0.168 HD
HETATM   10  N   UNL     1     -42.831 -45.875   9.770  1.00  0.00    -0.337 N 
ATOM     11  HN  UNL     1     -43.261 -45.146   9.201  1.00  0.00     0.168 HD
HETATM   12  C   UNL     1     -43.088 -47.183   9.521  1.00  0.00     0.183 A 
ENDROOT
BRANCH   6  13
HETATM   13  N   UNL     1     -41.684 -44.234  11.045  1.00  0.00    -0.363 N 
HETATM   14  C   UNL     1     -42.704 -43.228  11.285  1.00  0.00     0.160 C 
HETATM   15  C   UNL     1     -41.942 -41.907  11.611  1.00  0.00     0.246 C 
HETATM   16  C   UNL     1     -40.467 -42.382  11.802  1.00  0.00     0.034 C 
HETATM   17  C   UNL     1     -40.378 -43.634  10.894  1.00  0.00     0.131 C 
HETATM   18  C   UNL     1     -40.047 -42.759  13.227  1.00  0.00     0.014 C 
BRANCH  15  19
HETATM   19  N   UNL     1     -42.615 -41.139  12.690  1.00  0.00     0.099 N 
HETATM   20  C   UNL     1     -44.095 -41.103  12.526  1.00  0.00     0.299 C 
HETATM   21  C   UNL     1     -44.601 -40.090  11.477  1.00  0.00     0.198 C 
HETATM   22  O   UNL     1     -44.070 -38.776  11.687  1.00  0.00    -0.388 OA
HETATM   23  C   UNL     1     -42.641 -38.809  11.751  1.00  0.00     0.198 C 
HETATM   24  C   UNL     1     -42.169 -39.746  12.865  1.00  0.00     0.299 C 
ENDBRANCH  15  19
ENDBRANCH   6  13
BRANCH   1  25
HETATM   25  C   UNL     1     -41.022 -50.150  12.217  1.00  0.00     0.094 C 
HETATM   26  C   UNL     1     -40.874 -50.658  13.689  1.00  0.00     0.039 C 
HETATM   27  C   UNL     1     -40.087 -51.876  13.075  1.00  0.00     0.006 C 
HETATM   28  C   UNL     1     -39.655 -50.831  11.973  1.00  0.00     0.039 C 
BRANCH  27  29
HETATM   29  C   UNL     1     -38.966 -52.403  13.969  1.00  0.00     0.175 C 
BRANCH  29  30
HETATM   30  O   UNL     1     -38.672 -53.758  13.637  1.00  0.00    -0.400 OA
HETATM   31  H   UNL     1     -39.527 -54.214  13.507  1.00  0.00     0.209 HD
ENDBRANCH  29  30
ENDBRANCH  27  29
BRANCH  27  32
HETATM   32  C   UNL     1     -41.007 -53.026  12.620  1.00  0.00     0.175 C 
BRANCH  32  33
HETATM   33  O   UNL     1     -40.502 -53.598  11.417  1.00  0.00    -0.400 OA
HETATM   34  H   UNL     1     -39.574 -53.847  11.578  1.00  0.00     0.209 HD
ENDBRANCH  32  33
ENDBRANCH  27  32
ENDBRANCH   1  25
TORSDOF 7
ENDMDL
MODEL 2
REMARK VINA RESULT:      -6.5      4.944     10.212
REMARK  7 active torsions:
REMARK  status: ('A' for Active; 'I' for Inactive)
REMARK    1  A    between atoms: N_1  and  C_9 
REMARK    2  A    between atoms: N_4  and  C_7 
REMARK    3  A    between atoms: C_11  and  N_18 
REMARK    4  A    between atoms: C_19  and  C_24 
REMARK    5  A    between atoms: C_19  and  C_25 
REMARK    6  A    between atoms: C_24  and  O_29 
REMARK    7  A    between atoms: C_25  and  O_30 
ROOT
HETATM    1  N   UNL     1     -42.213 -49.420  12.414  1.00  0.00    -0.322 N 
HETATM    2  C   UNL     1     -42.863 -51.329  13.238  1.00  0.00     0.122 A 
HETATM    3  C   UNL     1     -41.969 -50.770  12.325  1.00  0.00     0.140 A 
HETATM    4  N   UNL     1     -43.615 -50.346  13.859  1.00  0.00    -0.346 N 
ATOM      5  HN  UNL     1     -44.330 -50.471  14.576  1.00  0.00     0.167 HD
HETATM    6  C   UNL     1     -42.889 -52.742  13.386  1.00  0.00     0.135 A 
HETATM    7  C   UNL     1     -43.210 -49.223  13.327  1.00  0.00     0.185 A 
HETATM    8  N   UNL     1     -41.099 -51.439  11.552  1.00  0.00    -0.336 N 
ATOM      9  HN  UNL     1     -40.455 -51.003  10.890  1.00  0.00     0.168 HD
HETATM   10  N   UNL     1     -42.012 -53.444  12.614  1.00  0.00    -0.337 N 
ATOM     11  HN  UNL     1     -41.973 -54.462  12.671  1.00  0.00     0.168 HD
HETATM   12  C   UNL     1     -41.193 -52.771  11.769  1.00  0.00     0.183 A 
ENDROOT
BRANCH   6  13
HETATM   13  N   UNL     1     -43.755 -53.399  14.226  1.00  0.00    -0.363 N 
HETATM   14  C   UNL     1     -43.644 -53.325  15.672  1.00  0.00     0.160 C 
HETATM   15  C   UNL     1     -44.853 -54.130  16.242  1.00  0.00     0.246 C 
HETATM   16  C   UNL     1     -45.744 -54.375  14.983  1.00  0.00     0.034 C 
HETATM   17  C   UNL     1     -44.719 -54.396  13.821  1.00  0.00     0.131 C 
HETATM   18  C   UNL     1     -46.820 -53.324  14.690  1.00  0.00     0.014 C 
BRANCH  15  19
HETATM   19  N   UNL     1     -45.433 -53.472  17.440  1.00  0.00     0.099 N 
HETATM   20  C   UNL     1     -44.422 -52.695  18.210  1.00  0.00     0.299 C 
HETATM   21  C   UNL     1     -43.507 -53.550  19.112  1.00  0.00     0.198 C 
HETATM   22  O   UNL     1     -44.249 -54.427  19.967  1.00  0.00    -0.388 OA
HETATM   23  C   UNL     1     -45.153 -55.235  19.207  1.00  0.00     0.198 C 
HETATM   24  C   UNL     1     -46.113 -54.360  18.398  1.00  0.00     0.299 C 
ENDBRANCH  15  19
ENDBRANCH   6  13
BRANCH   1  25
HETATM   25  C   UNL     1     -41.628 -48.282  11.756  1.00  0.00     0.094 C 
HETATM   26  C   UNL     1     -42.350 -46.911  11.970  1.00  0.00     0.039 C 
HETATM   27  C   UNL     1     -41.818 -46.530  10.538  1.00  0.00     0.006 C 
HETATM   28  C   UNL     1     -41.947 -48.077  10.256  1.00  0.00     0.039 C 
BRANCH  27  29
HETATM   29  C   UNL     1     -42.763 -45.627   9.746  1.00  0.00     0.175 C 
BRANCH  29  30
HETATM   30  O   UNL     1     -42.660 -45.913   8.354  1.00  0.00    -0.400 OA
HETATM   31  H   UNL     1     -43.022 -45.142   7.874  1.00  0.00     0.209 HD
ENDBRANCH  29  30
ENDBRANCH  27  29
BRANCH  27  32
HETATM   32  C   UNL     1     -40.393 -45.942  10.557  1.00  0.00     0.175 C 
BRANCH  32  33
HETATM   33  O   UNL     1     -40.224 -45.056   9.454  1.00  0.00    -0.400 OA
HETATM   34  H   UNL     1     -40.915 -44.372   9.519  1.00  0.00     0.209 HD
ENDBRANCH  32  33
ENDBRANCH  27  32
ENDBRANCH   1  25
TORSDOF 7
ENDMDL
MODEL 3
REMARK VINA RESULT:      -6.4      3.930     10.874
REMARK  7 active torsions:
REMARK  status: ('A' for Active; 'I' for Inactive)
REMARK    1  A    between atoms: N_1  and  C_9 
REMARK    2  A    between atoms: N_4  and  C_7 
REMARK    3  A    between atoms: C_11  and  N_18 
REMARK    4  A    between atoms: C_19  and  C_24 
REMARK    5  A    between atoms: C_19  and  C_25 
REMARK    6  A    between atoms: C_24  and  O_29 
REMARK    7  A    between atoms: C_25  and  O_30 
ROOT
HETATM    1  N   UNL     1     -41.993 -49.055  12.293  1.00  0.00    -0.322 N 
HETATM    2  C   UNL     1     -41.296 -50.920  13.179  1.00  0.00     0.122 A 
HETATM    3  C   UNL     1     -40.846 -49.778  12.516  1.00  0.00     0.140 A 
HETATM    4  N   UNL     1     -42.669 -50.881  13.354  1.00  0.00    -0.346 N 
ATOM      5  HN  UNL     1     -43.256 -51.574  13.817  1.00  0.00     0.167 HD
HETATM    6  C   UNL     1     -40.347 -51.911  13.548  1.00  0.00     0.135 A 
HETATM    7  C   UNL     1     -43.050 -49.762  12.795  1.00  0.00     0.185 A 
HETATM    8  N   UNL     1     -39.575 -49.500  12.183  1.00  0.00    -0.336 N 
ATOM      9  HN  UNL     1     -39.273 -48.655  11.697  1.00  0.00     0.168 HD
HETATM   10  N   UNL     1     -39.049 -51.650  13.225  1.00  0.00    -0.337 N 
ATOM     11  HN  UNL     1     -38.313 -52.316  13.463  1.00  0.00     0.168 HD
HETATM   12  C   UNL     1     -38.749 -50.495  12.582  1.00  0.00     0.183 A 
ENDROOT
BRANCH   6  13
HETATM   13  N   UNL     1     -40.686 -53.088  14.168  1.00  0.00    -0.363 N 
HETATM   14  C   UNL     1     -39.836 -53.717  15.165  1.00  0.00     0.160 C 
HETATM   15  C   UNL     1     -40.616 -54.969  15.672  1.00  0.00     0.246 C 
HETATM   16  C   UNL     1     -42.043 -54.769  15.071  1.00  0.00     0.034 C 
HETATM   17  C   UNL     1     -41.773 -53.957  13.780  1.00  0.00     0.131 C 
HETATM   18  C   UNL     1     -43.054 -54.016  15.942  1.00  0.00     0.014 C 
BRANCH  15  19
HETATM   19  N   UNL     1     -40.452 -55.160  17.136  1.00  0.00     0.099 N 
HETATM   20  C   UNL     1     -39.045 -54.962  17.583  1.00  0.00     0.299 C 
HETATM   21  C   UNL     1     -38.111 -56.161  17.313  1.00  0.00     0.198 C 
HETATM   22  O   UNL     1     -38.646 -57.392  17.812  1.00  0.00    -0.388 OA
HETATM   23  C   UNL     1     -39.963 -57.618  17.303  1.00  0.00     0.198 C 
HETATM   24  C   UNL     1     -40.893 -56.460  17.670  1.00  0.00     0.299 C 
ENDBRANCH  15  19
ENDBRANCH   6  13
BRANCH   1  25
HETATM   25  C   UNL     1     -42.233 -47.780  11.672  1.00  0.00     0.094 C 
HETATM   26  C   UNL     1     -43.666 -47.551  11.089  1.00  0.00     0.039 C 
HETATM   27  C   UNL     1     -42.970 -46.611  10.035  1.00  0.00     0.006 C 
HETATM   28  C   UNL     1     -41.743 -47.587  10.217  1.00  0.00     0.039 C 
BRANCH  27  29
HETATM   29  C   UNL     1     -43.634 -46.625   8.659  1.00  0.00     0.175 C 
BRANCH  29  30
HETATM   30  O   UNL     1     -42.738 -46.109   7.679  1.00  0.00    -0.400 OA
HETATM   31  H   UNL     1     -41.877 -45.969   8.121  1.00  0.00     0.209 HD
ENDBRANCH  29  30
ENDBRANCH  27  29
BRANCH  27  32
HETATM   32  C   UNL     1     -42.790 -45.165  10.537  1.00  0.00     0.175 C 
BRANCH  32  33
HETATM   33  O   UNL     1     -43.586 -44.281   9.753  1.00  0.00    -0.400 OA
HETATM   34  H   UNL     1     -44.493 -44.312  10.107  1.00  0.00     0.209 HD
ENDBRANCH  32  33
ENDBRANCH  27  32
ENDBRANCH   1  25
TORSDOF 7
ENDMDL
MODEL 4
REMARK VINA RESULT:      -6.2      3.545     10.651
REMARK  7 active torsions:
REMARK  status: ('A' for Active; 'I' for Inactive)
REMARK    1  A    between atoms: N_1  and  C_9 
REMARK    2  A    between atoms: N_4  and  C_7 
REMARK    3  A    between atoms: C_11  and  N_18 
REMARK    4  A    between atoms: C_19  and  C_24 
REMARK    5  A    between atoms: C_19  and  C_25 
REMARK    6  A    between atoms: C_24  and  O_29 
REMARK    7  A    between atoms: C_25  and  O_30 
ROOT
HETATM    1  N   UNL     1     -40.393 -48.576  11.935  1.00  0.00    -0.322 N 
HETATM    2  C   UNL     1     -40.108 -50.549  12.814  1.00  0.00     0.122 A 
HETATM    3  C   UNL     1     -39.405 -49.436  12.352  1.00  0.00     0.140 A 
HETATM    4  N   UNL     1     -41.474 -50.361  12.684  1.00  0.00    -0.346 N 
ATOM      5  HN  UNL     1     -42.218 -51.003  12.954  1.00  0.00     0.167 HD
HETATM    6  C   UNL     1     -39.373 -51.660  13.310  1.00  0.00     0.135 A 
HETATM    7  C   UNL     1     -41.602 -49.179  12.139  1.00  0.00     0.185 A 
HETATM    8  N   UNL     1     -38.071 -49.291  12.330  1.00  0.00    -0.336 N 
ATOM      9  HN  UNL     1     -37.582 -48.464  11.985  1.00  0.00     0.168 HD
HETATM   10  N   UNL     1     -38.016 -51.536  13.301  1.00  0.00    -0.337 N 
ATOM     11  HN  UNL     1     -37.426 -52.292  13.646  1.00  0.00     0.168 HD
HETATM   12  C   UNL     1     -37.462 -50.392  12.827  1.00  0.00     0.183 A 
ENDROOT
BRANCH   6  13
HETATM   13  N   UNL     1     -39.962 -52.819  13.752  1.00  0.00    -0.363 N 
HETATM   14  C   UNL     1     -39.659 -53.402  15.048  1.00  0.00     0.160 C 
HETATM   15  C   UNL     1     -40.590 -54.645  15.192  1.00  0.00     0.246 C 
HETATM   16  C   UNL     1     -41.589 -54.485  14.002  1.00  0.00     0.034 C 
HETATM   17  C   UNL     1     -40.759 -53.714  12.945  1.00  0.00     0.131 C 
HETATM   18  C   UNL     1     -42.881 -53.715  14.291  1.00  0.00     0.014 C 
BRANCH  15  19
HETATM   19  N   UNL     1     -41.109 -54.783  16.577  1.00  0.00     0.099 N 
HETATM   20  C   UNL     1     -40.102 -54.398  17.605  1.00  0.00     0.299 C 
HETATM   21  C   UNL     1     -39.032 -55.474  17.889  1.00  0.00     0.198 C 
HETATM   22  O   UNL     1     -39.609 -56.753  18.180  1.00  0.00    -0.388 OA
HETATM   23  C   UNL     1     -40.506 -57.155  17.141  1.00  0.00     0.198 C 
HETATM   24  C   UNL     1     -41.613 -56.116  16.948  1.00  0.00     0.299 C 
ENDBRANCH  15  19
ENDBRANCH   6  13
BRANCH   1  25
HETATM   25  C   UNL     1     -40.354 -47.253  11.372  1.00  0.00     0.094 C 
HETATM   26  C   UNL     1     -40.585 -46.069  12.368  1.00  0.00     0.039 C 
HETATM   27  C   UNL     1     -41.201 -45.298  11.141  1.00  0.00     0.006 C 
HETATM   28  C   UNL     1     -41.627 -46.739  10.657  1.00  0.00     0.039 C 
BRANCH  27  29
HETATM   29  C   UNL     1     -42.345 -44.355  11.512  1.00  0.00     0.175 C 
BRANCH  29  30
HETATM   30  O   UNL     1     -43.089 -44.007  10.347  1.00  0.00    -0.400 OA
HETATM   31  H   UNL     1     -43.980 -43.736  10.645  1.00  0.00     0.209 HD
ENDBRANCH  29  30
ENDBRANCH  27  29
BRANCH  27  32
HETATM   32  C   UNL     1     -40.144 -44.564  10.292  1.00  0.00     0.175 C 
BRANCH  32  33
HETATM   33  O   UNL     1     -40.395 -43.162  10.321  1.00  0.00    -0.400 OA
HETATM   34  H   UNL     1     -39.581 -42.713  10.029  1.00  0.00     0.209 HD
ENDBRANCH  32  33
ENDBRANCH  27  32
ENDBRANCH   1  25
TORSDOF 7
ENDMDL
MODEL 5
REMARK VINA RESULT:      -6.2      2.819      4.267
REMARK  7 active torsions:
REMARK  status: ('A' for Active; 'I' for Inactive)
REMARK    1  A    between atoms: N_1  and  C_9 
REMARK    2  A    between atoms: N_4  and  C_7 
REMARK    3  A    between atoms: C_11  and  N_18 
REMARK    4  A    between atoms: C_19  and  C_24 
REMARK    5  A    between atoms: C_19  and  C_25 
REMARK    6  A    between atoms: C_24  and  O_29 
REMARK    7  A    between atoms: C_25  and  O_30 
ROOT
HETATM    1  N   UNL     1     -42.478 -50.998  13.195  1.00  0.00    -0.322 N 
HETATM    2  C   UNL     1     -41.651 -49.146  12.398  1.00  0.00     0.122 A 
HETATM    3  C   UNL     1     -41.354 -50.496  12.583  1.00  0.00     0.140 A 
HETATM    4  N   UNL     1     -42.916 -48.848  12.877  1.00  0.00    -0.346 N 
ATOM      5  HN  UNL     1     -43.391 -47.946  12.857  1.00  0.00     0.167 HD
HETATM    6  C   UNL     1     -40.673 -48.310  11.795  1.00  0.00     0.135 A 
HETATM    7  C   UNL     1     -43.369 -49.975  13.360  1.00  0.00     0.185 A 
HETATM    8  N   UNL     1     -40.213 -51.114  12.238  1.00  0.00    -0.336 N 
ATOM      9  HN  UNL     1     -40.021 -52.105  12.387  1.00  0.00     0.168 HD
HETATM   10  N   UNL     1     -39.507 -48.915  11.432  1.00  0.00    -0.337 N 
ATOM     11  HN  UNL     1     -38.761 -48.377  10.990  1.00  0.00     0.168 HD
HETATM   12  C   UNL     1     -39.351 -50.241  11.667  1.00  0.00     0.183 A 
ENDROOT
BRANCH   6  13
HETATM   13  N   UNL     1     -40.846 -46.962  11.601  1.00  0.00    -0.363 N 
HETATM   14  C   UNL     1     -40.784 -46.004  12.691  1.00  0.00     0.160 C 
HETATM   15  C   UNL     1     -40.945 -44.595  12.041  1.00  0.00     0.246 C 
HETATM   16  C   UNL     1     -40.805 -44.888  10.514  1.00  0.00     0.034 C 
HETATM   17  C   UNL     1     -41.319 -46.344  10.383  1.00  0.00     0.131 C 
HETATM   18  C   UNL     1     -39.393 -44.795   9.925  1.00  0.00     0.014 C 
BRANCH  15  19
HETATM   19  N   UNL     1     -40.060 -43.591  12.684  1.00  0.00     0.099 N 
HETATM   20  C   UNL     1     -40.104 -43.660  14.171  1.00  0.00     0.299 C 
HETATM   21  C   UNL     1     -41.341 -42.991  14.808  1.00  0.00     0.198 C 
HETATM   22  O   UNL     1     -41.535 -41.650  14.344  1.00  0.00    -0.388 OA
HETATM   23  C   UNL     1     -41.583 -41.606  12.915  1.00  0.00     0.198 C 
HETATM   24  C   UNL     1     -40.302 -42.186  12.312  1.00  0.00     0.299 C 
ENDBRANCH  15  19
ENDBRANCH   6  13
BRANCH   1  25
HETATM   25  C   UNL     1     -42.833 -52.318  13.642  1.00  0.00     0.094 C 
HETATM   26  C   UNL     1     -43.694 -53.175  12.657  1.00  0.00     0.039 C 
HETATM   27  C   UNL     1     -44.294 -53.855  13.943  1.00  0.00     0.006 C 
HETATM   28  C   UNL     1     -44.032 -52.449  14.611  1.00  0.00     0.039 C 
BRANCH  27  29
HETATM   29  C   UNL     1     -45.761 -54.262  13.803  1.00  0.00     0.175 C 
BRANCH  29  30
HETATM   30  O   UNL     1     -45.879 -55.682  13.831  1.00  0.00    -0.400 OA
HETATM   31  H   UNL     1     -46.037 -55.939  14.762  1.00  0.00     0.209 HD
ENDBRANCH  29  30
ENDBRANCH  27  29
BRANCH  27  32
HETATM   32  C   UNL     1     -43.448 -55.038  14.456  1.00  0.00     0.175 C 
BRANCH  32  33
HETATM   33  O   UNL     1     -43.812 -55.342  15.799  1.00  0.00    -0.400 OA
HETATM   34  H   UNL     1     -43.246 -56.077  16.097  1.00  0.00     0.209 HD
ENDBRANCH  32  33
ENDBRANCH  27  32
ENDBRANCH   1  25
TORSDOF 7
ENDMDL
MODEL 6
REMARK VINA RESULT:      -6.1      3.216      9.907
REMARK  7 active torsions:
REMARK  status: ('A' for Active; 'I' for Inactive)
REMARK    1  A    between atoms: N_1  and  C_9 
REMARK    2  A    between atoms: N_4  and  C_7 
REMARK    3  A    between atoms: C_11  and  N_18 
REMARK    4  A    between atoms: C_19  and  C_24 
REMARK    5  A    between atoms: C_19  and  C_25 
REMARK    6  A    between atoms: C_24  and  O_29 
REMARK    7  A    between atoms: C_25  and  O_30 
ROOT
HETATM    1  N   UNL     1     -40.354 -47.527  12.461  1.00  0.00    -0.322 N 
HETATM    2  C   UNL     1     -40.000 -49.552  13.183  1.00  0.00     0.122 A 
HETATM    3  C   UNL     1     -39.564 -48.629  12.233  1.00  0.00     0.140 A 
HETATM    4  N   UNL     1     -41.014 -49.020  13.961  1.00  0.00    -0.346 N 
ATOM      5  HN  UNL     1     -41.503 -49.468  14.735  1.00  0.00     0.167 HD
HETATM    6  C   UNL     1     -39.392 -50.836  13.212  1.00  0.00     0.135 A 
HETATM    7  C   UNL     1     -41.208 -47.817  13.487  1.00  0.00     0.185 A 
HETATM    8  N   UNL     1     -38.600 -48.822  11.318  1.00  0.00    -0.336 N 
ATOM      9  HN  UNL     1     -38.302 -48.128  10.633  1.00  0.00     0.168 HD
HETATM   10  N   UNL     1     -38.408 -51.057  12.296  1.00  0.00    -0.337 N 
ATOM     11  HN  UNL     1     -37.925 -51.955  12.261  1.00  0.00     0.168 HD
HETATM   12  C   UNL     1     -38.080 -50.066  11.430  1.00  0.00     0.183 A 
ENDROOT
BRANCH   6  13
HETATM   13  N   UNL     1     -39.771 -51.833  14.079  1.00  0.00    -0.363 N 
HETATM   14  C   UNL     1     -41.139 -52.312  14.165  1.00  0.00     0.160 C 
HETATM   15  C   UNL     1     -41.124 -53.485  15.192  1.00  0.00     0.246 C 
HETATM   16  C   UNL     1     -39.601 -53.754  15.405  1.00  0.00     0.034 C 
HETATM   17  C   UNL     1     -38.956 -52.370  15.144  1.00  0.00     0.131 C 
HETATM   18  C   UNL     1     -38.954 -54.796  14.486  1.00  0.00     0.014 C 
BRANCH  15  19
HETATM   19  N   UNL     1     -42.017 -54.594  14.770  1.00  0.00     0.099 N 
HETATM   20  C   UNL     1     -43.275 -54.105  14.138  1.00  0.00     0.299 C 
HETATM   21  C   UNL     1     -44.344 -53.611  15.136  1.00  0.00     0.198 C 
HETATM   22  O   UNL     1     -44.618 -54.572  16.161  1.00  0.00    -0.388 OA
HETATM   23  C   UNL     1     -43.414 -54.967  16.825  1.00  0.00     0.198 C 
HETATM   24  C   UNL     1     -42.409 -55.544  15.826  1.00  0.00     0.299 C 
ENDBRANCH  15  19
ENDBRANCH   6  13
BRANCH   1  25
HETATM   25  C   UNL     1     -40.410 -46.228  11.846  1.00  0.00     0.094 C 
HETATM   26  C   UNL     1     -40.953 -45.062  12.736  1.00  0.00     0.039 C 
HETATM   27  C   UNL     1     -41.471 -44.422  11.394  1.00  0.00     0.006 C 
HETATM   28  C   UNL     1     -41.615 -45.922  10.924  1.00  0.00     0.039 C 
BRANCH  27  29
HETATM   29  C   UNL     1     -42.777 -43.643  11.543  1.00  0.00     0.175 C 
BRANCH  29  30
HETATM   30  O   UNL     1     -43.361 -43.418  10.263  1.00  0.00    -0.400 OA
HETATM   31  H   UNL     1     -44.331 -43.465  10.377  1.00  0.00     0.209 HD
ENDBRANCH  29  30
ENDBRANCH  27  29
BRANCH  27  32
HETATM   32  C   UNL     1     -40.406 -43.568  10.678  1.00  0.00     0.175 C 
BRANCH  32  33
HETATM   33  O   UNL     1     -40.829 -42.208  10.638  1.00  0.00    -0.400 OA
HETATM   34  H   UNL     1     -41.772 -42.187  10.880  1.00  0.00     0.209 HD
ENDBRANCH  32  33
ENDBRANCH  27  32
ENDBRANCH   1  25
TORSDOF 7
ENDMDL
MODEL 7
REMARK VINA RESULT:      -6.0      3.851      6.345
REMARK  7 active torsions:
REMARK  status: ('A' for Active; 'I' for Inactive)
REMARK    1  A    between atoms: N_1  and  C_9 
REMARK    2  A    between atoms: N_4  and  C_7 
REMARK    3  A    between atoms: C_11  and  N_18 
REMARK    4  A    between atoms: C_19  and  C_24 
REMARK    5  A    between atoms: C_19  and  C_25 
REMARK    6  A    between atoms: C_24  and  O_29 
REMARK    7  A    between atoms: C_25  and  O_30 
ROOT
HETATM    1  N   UNL     1     -39.777 -53.874  14.927  1.00  0.00    -0.322 N 
HETATM    2  C   UNL     1     -39.825 -52.159  13.584  1.00  0.00     0.122 A 
HETATM    3  C   UNL     1     -40.257 -53.479  13.701  1.00  0.00     0.140 A 
HETATM    4  N   UNL     1     -39.112 -51.771  14.707  1.00  0.00    -0.346 N 
ATOM      5  HN  UNL     1     -38.695 -50.859  14.894  1.00  0.00     0.167 HD
HETATM    6  C   UNL     1     -40.140 -51.441  12.399  1.00  0.00     0.135 A 
HETATM    7  C   UNL     1     -39.091 -52.828  15.476  1.00  0.00     0.185 A 
HETATM    8  N   UNL     1     -40.967 -54.167  12.792  1.00  0.00    -0.336 N 
ATOM      9  HN  UNL     1     -41.271 -55.135  12.903  1.00  0.00     0.168 HD
HETATM   10  N   UNL     1     -40.863 -52.116  11.462  1.00  0.00    -0.337 N 
ATOM     11  HN  UNL     1     -41.129 -51.661  10.588  1.00  0.00     0.168 HD
HETATM   12  C   UNL     1     -41.224 -53.400  11.707  1.00  0.00     0.183 A 
ENDROOT
BRANCH   6  13
HETATM   13  N   UNL     1     -39.731 -50.151  12.165  1.00  0.00    -0.363 N 
HETATM   14  C   UNL     1     -40.653 -49.101  11.767  1.00  0.00     0.160 C 
HETATM   15  C   UNL     1     -39.810 -47.791  11.688  1.00  0.00     0.246 C 
HETATM   16  C   UNL     1     -38.456 -48.196  12.353  1.00  0.00     0.034 C 
HETATM   17  C   UNL     1     -38.357 -49.714  12.059  1.00  0.00     0.131 C 
HETATM   18  C   UNL     1     -38.337 -47.963  13.862  1.00  0.00     0.014 C 
BRANCH  15  19
HETATM   19  N   UNL     1     -40.565 -46.622  12.206  1.00  0.00     0.099 N 
HETATM   20  C   UNL     1     -41.953 -46.556  11.670  1.00  0.00     0.299 C 
HETATM   21  C   UNL     1     -42.061 -46.001  10.234  1.00  0.00     0.198 C 
HETATM   22  O   UNL     1     -41.386 -44.746  10.083  1.00  0.00    -0.388 OA
HETATM   23  C   UNL     1     -40.026 -44.844  10.515  1.00  0.00     0.198 C 
HETATM   24  C   UNL     1     -39.953 -45.303  11.973  1.00  0.00     0.299 C 
ENDBRANCH  15  19
ENDBRANCH   6  13
BRANCH   1  25
HETATM   25  C   UNL     1     -39.881 -55.108  15.659  1.00  0.00     0.094 C 
HETATM   26  C   UNL     1     -40.326 -54.991  17.154  1.00  0.00     0.039 C 
HETATM   27  C   UNL     1     -39.464 -56.285  17.399  1.00  0.00     0.006 C 
HETATM   28  C   UNL     1     -38.577 -55.721  16.222  1.00  0.00     0.039 C 
BRANCH  27  29
HETATM   29  C   UNL     1     -38.795 -56.333  18.773  1.00  0.00     0.175 C 
BRANCH  29  30
HETATM   30  O   UNL     1     -39.538 -57.176  19.649  1.00  0.00    -0.400 OA
HETATM   31  H   UNL     1     -39.159 -58.075  19.573  1.00  0.00     0.209 HD
ENDBRANCH  29  30
ENDBRANCH  27  29
BRANCH  27  32
HETATM   32  C   UNL     1     -40.236 -57.591  17.125  1.00  0.00     0.175 C 
BRANCH  32  33
HETATM   33  O   UNL     1     -39.398 -58.710  17.398  1.00  0.00    -0.400 OA
HETATM   34  H   UNL     1     -39.944 -59.513  17.311  1.00  0.00     0.209 HD
ENDBRANCH  32  33
ENDBRANCH  27  32
ENDBRANCH   1  25
TORSDOF 7
ENDMDL
MODEL 8
REMARK VINA RESULT:      -6.0      8.538     14.667
REMARK  7 active torsions:
REMARK  status: ('A' for Active; 'I' for Inactive)
REMARK    1  A    between atoms: N_1  and  C_9 
REMARK    2  A    between atoms: N_4  and  C_7 
REMARK    3  A    between atoms: C_11  and  N_18 
REMARK    4  A    between atoms: C_19  and  C_24 
REMARK    5  A    between atoms: C_19  and  C_25 
REMARK    6  A    between atoms: C_24  and  O_29 
REMARK    7  A    between atoms: C_25  and  O_30 
ROOT
HETATM    1  N   UNL     1     -40.154 -55.056  15.550  1.00  0.00    -0.322 N 
HETATM    2  C   UNL     1     -38.819 -55.948  17.023  1.00  0.00     0.122 A 
HETATM    3  C   UNL     1     -40.168 -55.707  16.761  1.00  0.00     0.140 A 
HETATM    4  N   UNL     1     -38.022 -55.462  16.000  1.00  0.00    -0.346 N 
ATOM      5  HN  UNL     1     -37.006 -55.515  15.926  1.00  0.00     0.167 HD
HETATM    6  C   UNL     1     -38.469 -56.604  18.234  1.00  0.00     0.135 A 
HETATM    7  C   UNL     1     -38.854 -54.922  15.150  1.00  0.00     0.185 A 
HETATM    8  N   UNL     1     -41.204 -56.042  17.546  1.00  0.00    -0.336 N 
ATOM      9  HN  UNL     1     -42.182 -55.853  17.329  1.00  0.00     0.168 HD
HETATM   10  N   UNL     1     -39.503 -56.958  19.048  1.00  0.00    -0.337 N 
ATOM     11  HN  UNL     1     -39.325 -57.436  19.931  1.00  0.00     0.168 HD
HETATM   12  C   UNL     1     -40.771 -56.666  18.666  1.00  0.00     0.183 A 
ENDROOT
BRANCH   6  13
HETATM   13  N   UNL     1     -37.171 -56.855  18.610  1.00  0.00    -0.363 N 
HETATM   14  C   UNL     1     -36.668 -58.202  18.819  1.00  0.00     0.160 C 
HETATM   15  C   UNL     1     -35.150 -58.052  19.146  1.00  0.00     0.246 C 
HETATM   16  C   UNL     1     -34.858 -56.556  18.807  1.00  0.00     0.034 C 
HETATM   17  C   UNL     1     -36.221 -55.862  19.055  1.00  0.00     0.131 C 
HETATM   18  C   UNL     1     -34.390 -56.256  17.379  1.00  0.00     0.014 C 
BRANCH  15  19
HETATM   19  N   UNL     1     -34.344 -59.124  18.510  1.00  0.00     0.099 N 
HETATM   20  C   UNL     1     -35.025 -60.448  18.547  1.00  0.00     0.299 C 
HETATM   21  C   UNL     1     -34.939 -61.177  19.905  1.00  0.00     0.198 C 
HETATM   22  O   UNL     1     -33.594 -61.271  20.389  1.00  0.00    -0.388 OA
HETATM   23  C   UNL     1     -32.978 -59.980  20.437  1.00  0.00     0.198 C 
HETATM   24  C   UNL     1     -32.990 -59.322  19.055  1.00  0.00     0.299 C 
ENDBRANCH  15  19
ENDBRANCH   6  13
BRANCH   1  25
HETATM   25  C   UNL     1     -41.204 -54.544  14.710  1.00  0.00     0.094 C 
HETATM   26  C   UNL     1     -40.853 -54.357  13.198  1.00  0.00     0.039 C 
HETATM   27  C   UNL     1     -41.896 -53.178  13.212  1.00  0.00     0.006 C 
HETATM   28  C   UNL     1     -41.448 -53.016  14.717  1.00  0.00     0.039 C 
BRANCH  27  29
HETATM   29  C   UNL     1     -41.535 -52.021  12.282  1.00  0.00     0.175 C 
BRANCH  29  30
HETATM   30  O   UNL     1     -41.257 -52.513  10.974  1.00  0.00    -0.400 OA
HETATM   31  H   UNL     1     -40.714 -51.838  10.521  1.00  0.00     0.209 HD
ENDBRANCH  29  30
ENDBRANCH  27  29
BRANCH  27  32
HETATM   32  C   UNL     1     -43.344 -53.645  12.964  1.00  0.00     0.175 C 
BRANCH  32  33
HETATM   33  O   UNL     1     -43.833 -53.071  11.755  1.00  0.00    -0.400 OA
HETATM   34  H   UNL     1     -43.090 -52.603  11.331  1.00  0.00     0.209 HD
ENDBRANCH  32  33
ENDBRANCH  27  32
ENDBRANCH   1  25
TORSDOF 7
ENDMDL
MODEL 9
REMARK VINA RESULT:      -6.0      3.078      4.078
REMARK  7 active torsions:
REMARK  status: ('A' for Active; 'I' for Inactive)
REMARK    1  A    between atoms: N_1  and  C_9 
REMARK    2  A    between atoms: N_4  and  C_7 
REMARK    3  A    between atoms: C_11  and  N_18 
REMARK    4  A    between atoms: C_19  and  C_24 
REMARK    5  A    between atoms: C_19  and  C_25 
REMARK    6  A    between atoms: C_24  and  O_29 
REMARK    7  A    between atoms: C_25  and  O_30 
ROOT
HETATM    1  N   UNL     1     -42.758 -50.592  13.319  1.00  0.00    -0.322 N 
HETATM    2  C   UNL     1     -41.518 -48.825  13.022  1.00  0.00     0.122 A 
HETATM    3  C   UNL     1     -41.740 -50.111  12.530  1.00  0.00     0.140 A 
HETATM    4  N   UNL     1     -42.379 -48.540  14.069  1.00  0.00    -0.346 N 
ATOM      5  HN  UNL     1     -42.444 -47.673  14.600  1.00  0.00     0.167 HD
HETATM    6  C   UNL     1     -40.494 -48.038  12.430  1.00  0.00     0.135 A 
HETATM    7  C   UNL     1     -43.090 -49.626  14.227  1.00  0.00     0.185 A 
HETATM    8  N   UNL     1     -41.077 -50.704  11.524  1.00  0.00    -0.336 N 
ATOM      9  HN  UNL     1     -41.261 -51.649  11.185  1.00  0.00     0.168 HD
HETATM   10  N   UNL     1     -39.809 -48.616  11.403  1.00  0.00    -0.337 N 
ATOM     11  HN  UNL     1     -39.062 -48.107  10.928  1.00  0.00     0.168 HD
HETATM   12  C   UNL     1     -40.132 -49.876  11.022  1.00  0.00     0.183 A 
ENDROOT
BRANCH   6  13
HETATM   13  N   UNL     1     -40.165 -46.776  12.861  1.00  0.00    -0.363 N 
HETATM   14  C   UNL     1     -40.799 -45.582  12.329  1.00  0.00     0.160 C 
HETATM   15  C   UNL     1     -40.210 -44.383  13.136  1.00  0.00     0.246 C 
HETATM   16  C   UNL     1     -39.448 -45.080  14.307  1.00  0.00     0.034 C 
HETATM   17  C   UNL     1     -39.036 -46.445  13.700  1.00  0.00     0.131 C 
HETATM   18  C   UNL     1     -40.241 -45.317  15.596  1.00  0.00     0.014 C 
BRANCH  15  19
HETATM   19  N   UNL     1     -41.246 -43.362  13.434  1.00  0.00     0.099 N 
HETATM   20  C   UNL     1     -42.153 -43.115  12.279  1.00  0.00     0.299 C 
HETATM   21  C   UNL     1     -41.561 -42.206  11.181  1.00  0.00     0.198 C 
HETATM   22  O   UNL     1     -41.046 -40.978  11.709  1.00  0.00    -0.388 OA
HETATM   23  C   UNL     1     -40.106 -41.229  12.757  1.00  0.00     0.198 C 
HETATM   24  C   UNL     1     -40.749 -42.048  13.878  1.00  0.00     0.299 C 
ENDBRANCH  15  19
ENDBRANCH   6  13
BRANCH   1  25
HETATM   25  C   UNL     1     -43.469 -51.842  13.332  1.00  0.00     0.094 C 
HETATM   26  C   UNL     1     -45.014 -51.758  13.562  1.00  0.00     0.039 C 
HETATM   27  C   UNL     1     -44.883 -53.175  14.235  1.00  0.00     0.006 C 
HETATM   28  C   UNL     1     -43.443 -52.669  14.639  1.00  0.00     0.039 C 
BRANCH  27  29
HETATM   29  C   UNL     1     -45.857 -53.404  15.390  1.00  0.00     0.175 C 
BRANCH  29  30
HETATM   30  O   UNL     1     -45.448 -54.534  16.157  1.00  0.00    -0.400 OA
HETATM   31  H   UNL     1     -45.050 -55.175  15.535  1.00  0.00     0.209 HD
ENDBRANCH  29  30
ENDBRANCH  27  29
BRANCH  27  32
HETATM   32  C   UNL     1     -44.954 -54.336  13.224  1.00  0.00     0.175 C 
BRANCH  32  33
HETATM   33  O   UNL     1     -45.988 -55.240  13.603  1.00  0.00    -0.400 OA
HETATM   34  H   UNL     1     -45.861 -56.061  13.095  1.00  0.00     0.209 HD
ENDBRANCH  32  33
ENDBRANCH  27  32
ENDBRANCH   1  25
TORSDOF 7
ENDMDL
