MODEL 1
REMARK VINA RESULT:      -6.5      0.000      0.000
REMARK  4 active torsions:
REMARK  status: ('A' for Active; 'I' for Inactive)
REMARK    1  A    between atoms: C_5  and  C_6 
REMARK    2  A    between atoms: C_6  and  C_7 
REMARK    3  A    between atoms: C_7  and  N_8 
REMARK       I    between atoms: N_8  and  C_9 
REMARK    4  A    between atoms: C_9  and  C_11 
ROOT
HETATM    1  N   UNL     1     -41.650 -48.406  10.049  1.00  0.00    -0.360 N 
HETATM    2  C   UNL     1     -42.749 -47.580  10.031  1.00  0.00     0.223 C 
HETATM    3  O   UNL     1     -43.486 -47.501  11.022  1.00  0.00    -0.273 OA
HETATM    4  H   UNL     1     -40.887 -48.249   9.396  1.00  0.00     0.162 HD
ENDROOT
BRANCH   1   5
HETATM    5  C   UNL     1     -41.286 -48.979  11.341  1.00  0.00     0.128 C 
BRANCH   5   6
HETATM    6  C   UNL     1     -40.381 -50.204  11.287  1.00  0.00     0.077 C 
BRANCH   6   7
HETATM    7  C   UNL     1     -40.965 -51.382  11.994  1.00  0.00     0.018 A 
HETATM    8  N   UNL     1     -42.320 -51.641  11.828  1.00  0.00    -0.357 N 
HETATM    9  C   UNL     1     -42.657 -52.702  12.529  1.00  0.00     0.046 A 
ATOM     10  HN  UNL     1     -42.956 -51.092  11.251  1.00  0.00     0.166 HD
HETATM   11  C   UNL     1     -44.036 -53.252  12.604  1.00  0.00     0.076 C 
HETATM   12  S   UNL     1     -41.383 -53.456  13.400  1.00  0.00    -0.087 SA
HETATM   13  C   UNL     1     -40.297 -52.271  12.810  1.00  0.00     0.076 A 
ENDBRANCH   6   7
ENDBRANCH   5   6
ENDBRANCH   1   5
BRANCH   2  14
HETATM   14  C   UNL     1     -43.132 -46.855   8.742  1.00  0.00     0.096 C 
HETATM   15  C   UNL     1     -44.088 -45.665   8.780  1.00  0.00     0.025 C 
HETATM   16  C   UNL     1     -45.533 -46.036   9.108  1.00  0.00     0.103 C 
HETATM   17  C   UNL     1     -46.010 -47.380   8.593  1.00  0.00     0.217 C 
HETATM   18  O   UNL     1     -47.196 -47.700   8.622  1.00  0.00    -0.274 OA
HETATM   19  N   UNL     1     -45.062 -48.273   8.195  1.00  0.00    -0.360 N 
HETATM   20  C   UNL     1     -43.727 -47.891   7.788  1.00  0.00     0.136 C 
HETATM   21  H   UNL     1     -45.414 -49.188   7.938  1.00  0.00     0.162 HD
ENDBRANCH   2  14
TORSDOF 4
ENDMDL
MODEL 2
REMARK VINA RESULT:      -6.0      3.885      6.616
REMARK  4 active torsions:
REMARK  status: ('A' for Active; 'I' for Inactive)
REMARK    1  A    between atoms: C_5  and  C_6 
REMARK    2  A    between atoms: C_6  and  C_7 
REMARK    3  A    between atoms: C_7  and  N_8 
REMARK       I    between atoms: N_8  and  C_9 
REMARK    4  A    between atoms: C_9  and  C_11 
ROOT
HETATM    1  N   UNL     1     -43.765 -50.230  12.659  1.00  0.00    -0.360 N 
HETATM    2  C   UNL     1     -44.438 -51.089  13.497  1.00  0.00     0.223 C 
HETATM    3  O   UNL     1     -43.813 -51.807  14.287  1.00  0.00    -0.273 OA
HETATM    4  H   UNL     1     -44.250 -49.436  12.250  1.00  0.00     0.162 HD
ENDROOT
BRANCH   1   5
HETATM    5  C   UNL     1     -42.339 -50.052  12.917  1.00  0.00     0.128 C 
BRANCH   5   6
HETATM    6  C   UNL     1     -41.499 -49.640  11.714  1.00  0.00     0.077 C 
BRANCH   6   7
HETATM    7  C   UNL     1     -41.889 -48.305  11.171  1.00  0.00     0.018 A 
HETATM    8  N   UNL     1     -42.589 -48.263   9.973  1.00  0.00    -0.357 N 
HETATM    9  C   UNL     1     -42.835 -47.013   9.647  1.00  0.00     0.046 A 
ATOM     10  HN  UNL     1     -42.870 -49.078   9.428  1.00  0.00     0.166 HD
HETATM   11  C   UNL     1     -43.547 -46.595   8.411  1.00  0.00     0.076 C 
HETATM   12  S   UNL     1     -42.269 -45.828  10.755  1.00  0.00    -0.087 SA
HETATM   13  C   UNL     1     -41.633 -47.075  11.741  1.00  0.00     0.076 A 
ENDBRANCH   6   7
ENDBRANCH   5   6
ENDBRANCH   1   5
BRANCH   2  14
HETATM   14  C   UNL     1     -45.952 -51.247  13.363  1.00  0.00     0.096 C 
HETATM   15  C   UNL     1     -46.831 -51.353  14.607  1.00  0.00     0.025 C 
HETATM   16  C   UNL     1     -46.670 -52.663  15.375  1.00  0.00     0.103 C 
HETATM   17  C   UNL     1     -46.382 -53.895  14.540  1.00  0.00     0.217 C 
HETATM   18  O   UNL     1     -46.428 -55.026  15.017  1.00  0.00    -0.274 OA
HETATM   19  N   UNL     1     -45.960 -53.701  13.259  1.00  0.00    -0.360 N 
HETATM   20  C   UNL     1     -46.213 -52.489  12.510  1.00  0.00     0.136 C 
HETATM   21  H   UNL     1     -45.698 -54.544  12.760  1.00  0.00     0.162 HD
ENDBRANCH   2  14
TORSDOF 4
ENDMDL
MODEL 3
REMARK VINA RESULT:      -5.8      4.786      6.352
REMARK  4 active torsions:
REMARK  status: ('A' for Active; 'I' for Inactive)
REMARK    1  A    between atoms: C_5  and  C_6 
REMARK    2  A    between atoms: C_6  and  C_7 
REMARK    3  A    between atoms: C_7  and  N_8 
REMARK       I    between atoms: N_8  and  C_9 
REMARK    4  A    between atoms: C_9  and  C_11 
ROOT
HETATM    1  N   UNL     1     -43.082 -52.654  11.944  1.00  0.00    -0.360 N 
HETATM    2  C   UNL     1     -43.802 -53.061  13.043  1.00  0.00     0.223 C 
HETATM    3  O   UNL     1     -43.249 -53.169  14.145  1.00  0.00    -0.273 OA
HETATM    4  H   UNL     1     -43.564 -52.266  11.137  1.00  0.00     0.162 HD
ENDROOT
BRANCH   1   5
HETATM    5  C   UNL     1     -41.736 -52.149  12.196  1.00  0.00     0.128 C 
BRANCH   5   6
HETATM    6  C   UNL     1     -41.634 -50.652  12.465  1.00  0.00     0.077 C 
BRANCH   6   7
HETATM    7  C   UNL     1     -40.221 -50.173  12.520  1.00  0.00     0.018 A 
HETATM    8  N   UNL     1     -39.394 -50.445  11.438  1.00  0.00    -0.357 N 
HETATM    9  C   UNL     1     -38.192 -49.961  11.666  1.00  0.00     0.046 A 
ATOM     10  HN  UNL     1     -39.675 -50.945  10.595  1.00  0.00     0.166 HD
HETATM   11  C   UNL     1     -37.045 -50.090  10.729  1.00  0.00     0.076 C 
HETATM   12  S   UNL     1     -37.990 -49.142  13.163  1.00  0.00    -0.087 SA
HETATM   13  C   UNL     1     -39.627 -49.468  13.546  1.00  0.00     0.076 A 
ENDBRANCH   6   7
ENDBRANCH   5   6
ENDBRANCH   1   5
BRANCH   2  14
HETATM   14  C   UNL     1     -45.255 -53.500  12.878  1.00  0.00     0.096 C 
HETATM   15  C   UNL     1     -46.322 -52.496  12.448  1.00  0.00     0.025 C 
HETATM   16  C   UNL     1     -46.663 -51.454  13.512  1.00  0.00     0.103 C 
HETATM   17  C   UNL     1     -46.596 -51.924  14.951  1.00  0.00     0.217 C 
HETATM   18  O   UNL     1     -47.034 -51.243  15.875  1.00  0.00    -0.274 OA
HETATM   19  N   UNL     1     -45.931 -53.086  15.203  1.00  0.00    -0.360 N 
HETATM   20  C   UNL     1     -45.708 -54.110  14.205  1.00  0.00     0.136 C 
HETATM   21  H   UNL     1     -45.835 -53.323  16.184  1.00  0.00     0.162 HD
ENDBRANCH   2  14
TORSDOF 4
ENDMDL
MODEL 4
REMARK VINA RESULT:      -5.8      3.455      6.323
REMARK  4 active torsions:
REMARK  status: ('A' for Active; 'I' for Inactive)
REMARK    1  A    between atoms: C_5  and  C_6 
REMARK    2  A    between atoms: C_6  and  C_7 
REMARK    3  A    between atoms: C_7  and  N_8 
REMARK       I    between atoms: N_8  and  C_9 
REMARK    4  A    between atoms: C_9  and  C_11 
ROOT
HETATM    1  N   UNL     1     -42.847 -51.827  12.140  1.00  0.00    -0.360 N 
HETATM    2  C   UNL     1     -43.591 -52.594  13.006  1.00  0.00     0.223 C 
HETATM    3  O   UNL     1     -43.124 -52.924  14.104  1.00  0.00    -0.273 OA
HETATM    4  H   UNL     1     -43.311 -51.300  11.404  1.00  0.00     0.162 HD
ENDROOT
BRANCH   1   5
HETATM    5  C   UNL     1     -41.618 -51.249  12.671  1.00  0.00     0.128 C 
BRANCH   5   6
HETATM    6  C   UNL     1     -40.627 -50.737  11.632  1.00  0.00     0.077 C 
BRANCH   6   7
HETATM    7  C   UNL     1     -40.805 -49.284  11.336  1.00  0.00     0.018 A 
HETATM    8  N   UNL     1     -41.912 -48.897  10.592  1.00  0.00    -0.357 N 
HETATM    9  C   UNL     1     -41.898 -47.592  10.422  1.00  0.00     0.046 A 
ATOM     10  HN  UNL     1     -42.627 -49.528  10.231  1.00  0.00     0.166 HD
HETATM   11  C   UNL     1     -42.921 -46.837   9.653  1.00  0.00     0.076 C 
HETATM   12  S   UNL     1     -40.585 -46.760  11.155  1.00  0.00    -0.087 SA
HETATM   13  C   UNL     1     -39.978 -48.254  11.732  1.00  0.00     0.076 A 
ENDBRANCH   6   7
ENDBRANCH   5   6
ENDBRANCH   1   5
BRANCH   2  14
HETATM   14  C   UNL     1     -44.944 -53.146  12.561  1.00  0.00     0.096 C 
HETATM   15  C   UNL     1     -46.126 -52.205  12.338  1.00  0.00     0.025 C 
HETATM   16  C   UNL     1     -46.692 -51.599  13.621  1.00  0.00     0.103 C 
HETATM   17  C   UNL     1     -46.644 -52.480  14.853  1.00  0.00     0.217 C 
HETATM   18  O   UNL     1     -47.240 -52.183  15.885  1.00  0.00    -0.274 OA
HETATM   19  N   UNL     1     -45.822 -53.566  14.817  1.00  0.00    -0.360 N 
HETATM   20  C   UNL     1     -45.379 -54.191  13.589  1.00  0.00     0.136 C 
HETATM   21  H   UNL     1     -45.752 -54.082  15.687  1.00  0.00     0.162 HD
ENDBRANCH   2  14
TORSDOF 4
ENDMDL
MODEL 5
REMARK VINA RESULT:      -5.7      3.546      7.014
REMARK  4 active torsions:
REMARK  status: ('A' for Active; 'I' for Inactive)
REMARK    1  A    between atoms: C_5  and  C_6 
REMARK    2  A    between atoms: C_6  and  C_7 
REMARK    3  A    between atoms: C_7  and  N_8 
REMARK       I    between atoms: N_8  and  C_9 
REMARK    4  A    between atoms: C_9  and  C_11 
ROOT
HETATM    1  N   UNL     1     -43.186 -50.647  12.415  1.00  0.00    -0.360 N 
HETATM    2  C   UNL     1     -42.850 -51.609  13.339  1.00  0.00     0.223 C 
HETATM    3  O   UNL     1     -42.436 -51.282  14.458  1.00  0.00    -0.273 OA
HETATM    4  H   UNL     1     -43.804 -50.879  11.642  1.00  0.00     0.162 HD
ENDROOT
BRANCH   1   5
HETATM    5  C   UNL     1     -43.249 -49.272  12.901  1.00  0.00     0.128 C 
BRANCH   5   6
HETATM    6  C   UNL     1     -42.466 -48.249  12.085  1.00  0.00     0.077 C 
BRANCH   6   7
HETATM    7  C   UNL     1     -43.121 -47.932  10.781  1.00  0.00     0.018 A 
HETATM    8  N   UNL     1     -44.494 -47.721  10.771  1.00  0.00    -0.357 N 
HETATM    9  C   UNL     1     -44.894 -47.467   9.544  1.00  0.00     0.046 A 
ATOM     10  HN  UNL     1     -45.100 -47.758  11.591  1.00  0.00     0.166 HD
HETATM   11  C   UNL     1     -46.308 -47.214   9.160  1.00  0.00     0.076 C 
HETATM   12  S   UNL     1     -43.662 -47.444   8.347  1.00  0.00    -0.087 SA
HETATM   13  C   UNL     1     -42.504 -47.815   9.553  1.00  0.00     0.076 A 
ENDBRANCH   6   7
ENDBRANCH   5   6
ENDBRANCH   1   5
BRANCH   2  14
HETATM   14  C   UNL     1     -42.869 -53.084  12.938  1.00  0.00     0.096 C 
HETATM   15  C   UNL     1     -44.152 -53.727  12.420  1.00  0.00     0.025 C 
HETATM   16  C   UNL     1     -45.233 -53.909  13.484  1.00  0.00     0.103 C 
HETATM   17  C   UNL     1     -44.744 -54.210  14.886  1.00  0.00     0.217 C 
HETATM   18  O   UNL     1     -45.512 -54.567  15.777  1.00  0.00    -0.274 OA
HETATM   19  N   UNL     1     -43.433 -53.963  15.161  1.00  0.00    -0.360 N 
HETATM   20  C   UNL     1     -42.403 -53.897  14.146  1.00  0.00     0.136 C 
HETATM   21  H   UNL     1     -43.164 -54.096  16.130  1.00  0.00     0.162 HD
ENDBRANCH   2  14
TORSDOF 4
ENDMDL
MODEL 6
REMARK VINA RESULT:      -5.7      4.738      5.914
REMARK  4 active torsions:
REMARK  status: ('A' for Active; 'I' for Inactive)
REMARK    1  A    between atoms: C_5  and  C_6 
REMARK    2  A    between atoms: C_6  and  C_7 
REMARK    3  A    between atoms: C_7  and  N_8 
REMARK       I    between atoms: N_8  and  C_9 
REMARK    4  A    between atoms: C_9  and  C_11 
ROOT
HETATM    1  N   UNL     1     -43.248 -51.184  12.483  1.00  0.00    -0.360 N 
HETATM    2  C   UNL     1     -44.099 -51.366  13.548  1.00  0.00     0.223 C 
HETATM    3  O   UNL     1     -43.649 -51.651  14.664  1.00  0.00    -0.273 OA
HETATM    4  H   UNL     1     -43.558 -50.658  11.670  1.00  0.00     0.162 HD
ENDROOT
BRANCH   1   5
HETATM    5  C   UNL     1     -41.823 -51.115  12.791  1.00  0.00     0.128 C 
BRANCH   5   6
HETATM    6  C   UNL     1     -40.998 -52.324  12.366  1.00  0.00     0.077 C 
BRANCH   6   7
HETATM    7  C   UNL     1     -40.636 -53.205  13.516  1.00  0.00     0.018 A 
HETATM    8  N   UNL     1     -41.656 -53.886  14.168  1.00  0.00    -0.357 N 
HETATM    9  C   UNL     1     -41.154 -54.599  15.153  1.00  0.00     0.046 A 
ATOM     10  HN  UNL     1     -42.644 -53.841  13.920  1.00  0.00     0.166 HD
HETATM   11  C   UNL     1     -41.963 -55.435  16.078  1.00  0.00     0.076 C 
HETATM   12  S   UNL     1     -39.449 -54.514  15.341  1.00  0.00    -0.087 SA
HETATM   13  C   UNL     1     -39.371 -53.432  14.016  1.00  0.00     0.076 A 
ENDBRANCH   6   7
ENDBRANCH   5   6
ENDBRANCH   1   5
BRANCH   2  14
HETATM   14  C   UNL     1     -45.610 -51.340  13.324  1.00  0.00     0.096 C 
HETATM   15  C   UNL     1     -46.567 -51.306  14.513  1.00  0.00     0.025 C 
HETATM   16  C   UNL     1     -46.616 -52.606  15.313  1.00  0.00     0.103 C 
HETATM   17  C   UNL     1     -46.435 -53.884  14.520  1.00  0.00     0.217 C 
HETATM   18  O   UNL     1     -46.649 -54.989  15.014  1.00  0.00    -0.274 OA
HETATM   19  N   UNL     1     -45.918 -53.777  13.264  1.00  0.00    -0.360 N 
HETATM   20  C   UNL     1     -45.974 -52.562  12.479  1.00  0.00     0.136 C 
HETATM   21  H   UNL     1     -45.733 -54.658  12.798  1.00  0.00     0.162 HD
ENDBRANCH   2  14
TORSDOF 4
ENDMDL
MODEL 7
REMARK VINA RESULT:      -5.6      4.984      6.142
REMARK  4 active torsions:
REMARK  status: ('A' for Active; 'I' for Inactive)
REMARK    1  A    between atoms: C_5  and  C_6 
REMARK    2  A    between atoms: C_6  and  C_7 
REMARK    3  A    between atoms: C_7  and  N_8 
REMARK       I    between atoms: N_8  and  C_9 
REMARK    4  A    between atoms: C_9  and  C_11 
ROOT
HETATM    1  N   UNL     1     -43.079 -52.555  11.899  1.00  0.00    -0.360 N 
HETATM    2  C   UNL     1     -43.955 -52.577  12.960  1.00  0.00     0.223 C 
HETATM    3  O   UNL     1     -43.539 -52.416  14.114  1.00  0.00    -0.273 OA
HETATM    4  H   UNL     1     -43.424 -52.373  10.961  1.00  0.00     0.162 HD
ENDROOT
BRANCH   1   5
HETATM    5  C   UNL     1     -41.720 -52.108  12.185  1.00  0.00     0.128 C 
BRANCH   5   6
HETATM    6  C   UNL     1     -40.662 -53.205  12.230  1.00  0.00     0.077 C 
BRANCH   6   7
HETATM    7  C   UNL     1     -40.298 -53.596  13.624  1.00  0.00     0.018 A 
HETATM    8  N   UNL     1     -41.187 -54.392  14.335  1.00  0.00    -0.357 N 
HETATM    9  C   UNL     1     -40.709 -54.624  15.538  1.00  0.00     0.046 A 
ATOM     10  HN  UNL     1     -42.076 -54.743  13.979  1.00  0.00     0.166 HD
HETATM   11  C   UNL     1     -41.409 -55.423  16.578  1.00  0.00     0.076 C 
HETATM   12  S   UNL     1     -39.174 -53.930  15.878  1.00  0.00    -0.087 SA
HETATM   13  C   UNL     1     -39.148 -53.254  14.304  1.00  0.00     0.076 A 
ENDBRANCH   6   7
ENDBRANCH   5   6
ENDBRANCH   1   5
BRANCH   2  14
HETATM   14  C   UNL     1     -45.423 -52.929  12.725  1.00  0.00     0.096 C 
HETATM   15  C   UNL     1     -46.504 -51.859  12.859  1.00  0.00     0.025 C 
HETATM   16  C   UNL     1     -46.750 -51.397  14.294  1.00  0.00     0.103 C 
HETATM   17  C   UNL     1     -46.584 -52.450  15.371  1.00  0.00     0.217 C 
HETATM   18  O   UNL     1     -46.942 -52.253  16.530  1.00  0.00    -0.274 OA
HETATM   19  N   UNL     1     -45.918 -53.591  15.037  1.00  0.00    -0.360 N 
HETATM   20  C   UNL     1     -45.785 -54.068  13.678  1.00  0.00     0.136 C 
HETATM   21  H   UNL     1     -45.754 -54.233  15.805  1.00  0.00     0.162 HD
ENDBRANCH   2  14
TORSDOF 4
ENDMDL
MODEL 8
REMARK VINA RESULT:      -5.5      5.273      6.740
REMARK  4 active torsions:
REMARK  status: ('A' for Active; 'I' for Inactive)
REMARK    1  A    between atoms: C_5  and  C_6 
REMARK    2  A    between atoms: C_6  and  C_7 
REMARK    3  A    between atoms: C_7  and  N_8 
REMARK       I    between atoms: N_8  and  C_9 
REMARK    4  A    between atoms: C_9  and  C_11 
ROOT
HETATM    1  N   UNL     1     -40.837 -52.394  14.469  1.00  0.00    -0.360 N 
HETATM    2  C   UNL     1     -39.604 -52.038  13.976  1.00  0.00     0.223 C 
HETATM    3  O   UNL     1     -38.861 -52.893  13.478  1.00  0.00    -0.273 OA
HETATM    4  H   UNL     1     -41.560 -51.689  14.584  1.00  0.00     0.162 HD
ENDROOT
BRANCH   1   5
HETATM    5  C   UNL     1     -41.296 -53.745  14.164  1.00  0.00     0.128 C 
BRANCH   5   6
HETATM    6  C   UNL     1     -42.160 -53.881  12.916  1.00  0.00     0.077 C 
BRANCH   6   7
HETATM    7  C   UNL     1     -43.614 -53.692  13.200  1.00  0.00     0.018 A 
HETATM    8  N   UNL     1     -44.333 -52.826  12.387  1.00  0.00    -0.357 N 
HETATM    9  C   UNL     1     -45.585 -52.777  12.791  1.00  0.00     0.046 A 
ATOM     10  HN  UNL     1     -43.951 -52.307  11.597  1.00  0.00     0.166 HD
HETATM   11  C   UNL     1     -46.634 -51.931  12.163  1.00  0.00     0.076 C 
HETATM   12  S   UNL     1     -45.973 -53.769  14.138  1.00  0.00    -0.087 SA
HETATM   13  C   UNL     1     -44.345 -54.297  14.200  1.00  0.00     0.076 A 
ENDBRANCH   6   7
ENDBRANCH   5   6
ENDBRANCH   1   5
BRANCH   2  14
HETATM   14  C   UNL     1     -39.098 -50.607  14.157  1.00  0.00     0.096 C 
HETATM   15  C   UNL     1     -39.590 -49.492  13.239  1.00  0.00     0.025 C 
HETATM   16  C   UNL     1     -39.072 -49.589  11.805  1.00  0.00     0.103 C 
HETATM   17  C   UNL     1     -37.674 -50.152  11.638  1.00  0.00     0.217 C 
HETATM   18  O   UNL     1     -37.079 -50.097  10.565  1.00  0.00    -0.274 OA
HETATM   19  N   UNL     1     -37.137 -50.824  12.694  1.00  0.00    -0.360 N 
HETATM   20  C   UNL     1     -37.572 -50.641  14.062  1.00  0.00     0.136 C 
HETATM   21  H   UNL     1     -36.238 -51.257  12.515  1.00  0.00     0.162 HD
ENDBRANCH   2  14
TORSDOF 4
ENDMDL
MODEL 9
REMARK VINA RESULT:      -5.3      4.364      6.327
REMARK  4 active torsions:
REMARK  status: ('A' for Active; 'I' for Inactive)
REMARK    1  A    between atoms: C_5  and  C_6 
REMARK    2  A    between atoms: C_6  and  C_7 
REMARK    3  A    between atoms: C_7  and  N_8 
REMARK       I    between atoms: N_8  and  C_9 
REMARK    4  A    between atoms: C_9  and  C_11 
ROOT
HETATM    1  N   UNL     1     -40.254 -51.622  11.661  1.00  0.00    -0.360 N 
HETATM    2  C   UNL     1     -40.315 -50.249  11.710  1.00  0.00     0.223 C 
HETATM    3  O   UNL     1     -41.403 -49.669  11.608  1.00  0.00    -0.273 OA
HETATM    4  H   UNL     1     -39.450 -52.109  12.047  1.00  0.00     0.162 HD
ENDROOT
BRANCH   1   5
HETATM    5  C   UNL     1     -41.527 -52.333  11.718  1.00  0.00     0.128 C 
BRANCH   5   6
HETATM    6  C   UNL     1     -41.859 -52.982  13.058  1.00  0.00     0.077 C 
BRANCH   6   7
HETATM    7  C   UNL     1     -43.324 -53.212  13.237  1.00  0.00     0.018 A 
HETATM    8  N   UNL     1     -44.206 -52.386  12.551  1.00  0.00    -0.357 N 
HETATM    9  C   UNL     1     -45.444 -52.727  12.837  1.00  0.00     0.046 A 
ATOM     10  HN  UNL     1     -43.935 -51.631  11.922  1.00  0.00     0.166 HD
HETATM   11  C   UNL     1     -46.647 -52.040  12.298  1.00  0.00     0.076 C 
HETATM   12  S   UNL     1     -45.623 -54.054  13.914  1.00  0.00    -0.087 SA
HETATM   13  C   UNL     1     -43.918 -54.179  14.020  1.00  0.00     0.076 A 
ENDBRANCH   6   7
ENDBRANCH   5   6
ENDBRANCH   1   5
BRANCH   2  14
HETATM   14  C   UNL     1     -39.023 -49.434  11.764  1.00  0.00     0.096 C 
HETATM   15  C   UNL     1     -37.668 -50.136  11.789  1.00  0.00     0.025 C 
HETATM   16  C   UNL     1     -37.368 -50.867  13.097  1.00  0.00     0.103 C 
HETATM   17  C   UNL     1     -37.920 -50.233  14.357  1.00  0.00     0.217 C 
HETATM   18  O   UNL     1     -37.583 -50.615  15.475  1.00  0.00    -0.274 OA
HETATM   19  N   UNL     1     -38.894 -49.291  14.213  1.00  0.00    -0.360 N 
HETATM   20  C   UNL     1     -39.096 -48.533  12.997  1.00  0.00     0.136 C 
HETATM   21  H   UNL     1     -39.297 -48.953  15.079  1.00  0.00     0.162 HD
ENDBRANCH   2  14
TORSDOF 4
ENDMDL
