MODEL 1
REMARK VINA RESULT:      -6.2      0.000      0.000
REMARK  6 active torsions:
REMARK  status: ('A' for Active; 'I' for Inactive)
REMARK    1  A    between atoms: C_2  and  N_3 
REMARK    2  A    between atoms: C_2  and  C_13 
REMARK    3  A    between atoms: N_3  and  C_4 
REMARK    4  A    between atoms: C_4  and  C_5 
REMARK    5  A    between atoms: C_5  and  N_6 
REMARK       I    between atoms: C_13  and  N_15 
REMARK    6  A    between atoms: N_15  and  C_17 
ROOT
HETATM    1  C   UNL     1     -39.861 -50.638  12.074  1.00  0.00     0.053 C 
HETATM    2  C   UNL     1     -41.322 -50.227  12.247  1.00  0.00     0.307 C 
ENDROOT
BRANCH   2   3
HETATM    3  N   UNL     1     -41.845 -49.372  11.148  1.00  0.00     0.098 N 
HETATM    4  H   UNL     1     -42.780 -49.061  11.415  1.00  0.00     0.317 HD
BRANCH   3   5
HETATM    5  C   UNL     1     -41.040 -48.184  10.843  1.00  0.00     0.292 C 
BRANCH   5   6
HETATM    6  C   UNL     1     -41.942 -46.960  10.669  1.00  0.00     0.178 C 
BRANCH   6   7
HETATM    7  N   UNL     1     -43.049 -47.259   9.786  1.00  0.00    -0.302 N 
HETATM    8  C   UNL     1     -44.368 -47.332  10.133  1.00  0.00     0.118 A 
HETATM    9  C   UNL     1     -45.053 -47.670   8.983  1.00  0.00    -0.028 A 
HETATM   10  C   UNL     1     -46.507 -47.870   8.814  1.00  0.00     0.051 C 
HETATM   11  C   UNL     1     -44.037 -47.788   8.008  1.00  0.00     0.115 A 
HETATM   12  N   UNL     1     -42.813 -47.531   8.483  1.00  0.00    -0.310 N 
ATOM     13  HN  UNL     1     -41.923 -47.538   7.986  1.00  0.00     0.186 HD
ENDBRANCH   6   7
ENDBRANCH   5   6
ENDBRANCH   3   5
ENDBRANCH   2   3
BRANCH   2  14
HETATM   14  C   UNL     1     -42.197 -51.484  12.555  1.00  0.00     0.252 C 
HETATM   15  O   UNL     1     -42.077 -52.504  11.871  1.00  0.00    -0.271 OA
HETATM   16  N   UNL     1     -43.071 -51.431  13.654  1.00  0.00    -0.350 N 
HETATM   17  C   UNL     1     -42.926 -50.404  14.693  1.00  0.00     0.153 C 
BRANCH  16  18
HETATM   18  C   UNL     1     -43.930 -52.601  14.041  1.00  0.00     0.086 C 
HETATM   19  C   UNL     1     -44.868 -53.255  12.997  1.00  0.00     0.025 C 
HETATM   20  C   UNL     1     -46.069 -52.397  12.588  1.00  0.00     0.002 C 
HETATM   21  C   UNL     1     -46.797 -51.740  13.762  1.00  0.00     0.000 C 
HETATM   22  C   UNL     1     -45.843 -51.170  14.804  1.00  0.00     0.002 C 
HETATM   23  C   UNL     1     -44.843 -52.241  15.238  1.00  0.00     0.025 C 
ENDBRANCH  16  18
ENDBRANCH   2  14
TORSDOF 6
ENDMDL
MODEL 2
REMARK VINA RESULT:      -5.9      1.236      1.666
REMARK  6 active torsions:
REMARK  status: ('A' for Active; 'I' for Inactive)
REMARK    1  A    between atoms: C_2  and  N_3 
REMARK    2  A    between atoms: C_2  and  C_13 
REMARK    3  A    between atoms: N_3  and  C_4 
REMARK    4  A    between atoms: C_4  and  C_5 
REMARK    5  A    between atoms: C_5  and  N_6 
REMARK       I    between atoms: C_13  and  N_15 
REMARK    6  A    between atoms: N_15  and  C_17 
ROOT
HETATM    1  C   UNL     1     -39.633 -50.958  13.174  1.00  0.00     0.053 C 
HETATM    2  C   UNL     1     -40.896 -50.902  12.316  1.00  0.00     0.307 C 
ENDROOT
BRANCH   2   3
HETATM    3  N   UNL     1     -40.670 -50.391  10.938  1.00  0.00     0.098 N 
HETATM    4  H   UNL     1     -41.410 -50.766  10.343  1.00  0.00     0.317 HD
BRANCH   3   5
HETATM    5  C   UNL     1     -40.675 -48.931  10.804  1.00  0.00     0.292 C 
BRANCH   5   6
HETATM    6  C   UNL     1     -41.942 -48.343  11.429  1.00  0.00     0.178 C 
BRANCH   6   7
HETATM    7  N   UNL     1     -42.891 -47.962  10.404  1.00  0.00    -0.302 N 
HETATM    8  C   UNL     1     -44.198 -47.612  10.597  1.00  0.00     0.118 A 
HETATM    9  C   UNL     1     -44.719 -47.359   9.344  1.00  0.00    -0.028 A 
HETATM   10  C   UNL     1     -46.093 -46.941   8.997  1.00  0.00     0.051 C 
HETATM   11  C   UNL     1     -43.635 -47.603   8.472  1.00  0.00     0.115 A 
HETATM   12  N   UNL     1     -42.513 -47.961   9.107  1.00  0.00    -0.310 N 
ATOM     13  HN  UNL     1     -41.599 -48.180   8.710  1.00  0.00     0.186 HD
ENDBRANCH   6   7
ENDBRANCH   5   6
ENDBRANCH   3   5
ENDBRANCH   2   3
BRANCH   2  14
HETATM   14  C   UNL     1     -41.643 -52.273  12.379  1.00  0.00     0.252 C 
HETATM   15  O   UNL     1     -41.022 -53.325  12.207  1.00  0.00    -0.271 OA
HETATM   16  N   UNL     1     -43.014 -52.267  12.688  1.00  0.00    -0.350 N 
HETATM   17  C   UNL     1     -43.654 -51.089  13.286  1.00  0.00     0.153 C 
BRANCH  16  18
HETATM   18  C   UNL     1     -43.807 -53.538  12.798  1.00  0.00     0.086 C 
HETATM   19  C   UNL     1     -45.332 -53.480  13.064  1.00  0.00     0.025 C 
HETATM   20  C   UNL     1     -45.719 -53.014  14.472  1.00  0.00     0.002 C 
HETATM   21  C   UNL     1     -44.909 -53.668  15.592  1.00  0.00     0.000 C 
HETATM   22  C   UNL     1     -43.425 -53.772  15.265  1.00  0.00     0.002 C 
HETATM   23  C   UNL     1     -43.235 -54.450  13.909  1.00  0.00     0.025 C 
ENDBRANCH  16  18
ENDBRANCH   2  14
TORSDOF 6
ENDMDL
MODEL 3
REMARK VINA RESULT:      -5.8      1.365      1.675
REMARK  6 active torsions:
REMARK  status: ('A' for Active; 'I' for Inactive)
REMARK    1  A    between atoms: C_2  and  N_3 
REMARK    2  A    between atoms: C_2  and  C_13 
REMARK    3  A    between atoms: N_3  and  C_4 
REMARK    4  A    between atoms: C_4  and  C_5 
REMARK    5  A    between atoms: C_5  and  N_6 
REMARK       I    between atoms: C_13  and  N_15 
REMARK    6  A    between atoms: N_15  and  C_17 
ROOT
HETATM    1  C   UNL     1     -38.541 -50.544  12.177  1.00  0.00     0.053 C 
HETATM    2  C   UNL     1     -40.061 -50.466  12.318  1.00  0.00     0.307 C 
ENDROOT
BRANCH   2   3
HETATM    3  N   UNL     1     -40.758 -49.974  11.100  1.00  0.00     0.098 N 
HETATM    4  H   UNL     1     -41.176 -50.780  10.634  1.00  0.00     0.317 HD
BRANCH   3   5
HETATM    5  C   UNL     1     -41.818 -48.989  11.342  1.00  0.00     0.292 C 
BRANCH   5   6
HETATM    6  C   UNL     1     -41.553 -47.714  10.538  1.00  0.00     0.178 C 
BRANCH   6   7
HETATM    7  N   UNL     1     -42.770 -47.236   9.916  1.00  0.00    -0.302 N 
HETATM    8  C   UNL     1     -44.034 -47.702  10.141  1.00  0.00     0.118 A 
HETATM    9  C   UNL     1     -44.867 -46.975   9.314  1.00  0.00    -0.028 A 
HETATM   10  C   UNL     1     -46.334 -47.085   9.174  1.00  0.00     0.051 C 
HETATM   11  C   UNL     1     -43.987 -46.109   8.626  1.00  0.00     0.115 A 
HETATM   12  N   UNL     1     -42.708 -46.252   8.992  1.00  0.00    -0.310 N 
ATOM     13  HN  UNL     1     -41.890 -45.744   8.656  1.00  0.00     0.186 HD
ENDBRANCH   6   7
ENDBRANCH   5   6
ENDBRANCH   3   5
ENDBRANCH   2   3
BRANCH   2  14
HETATM   14  C   UNL     1     -40.613 -51.818  12.873  1.00  0.00     0.252 C 
HETATM   15  O   UNL     1     -40.320 -52.881  12.319  1.00  0.00    -0.271 OA
HETATM   16  N   UNL     1     -41.400 -51.786  14.037  1.00  0.00    -0.350 N 
HETATM   17  C   UNL     1     -41.412 -50.608  14.915  1.00  0.00     0.153 C 
BRANCH  16  18
HETATM   18  C   UNL     1     -41.950 -53.038  14.657  1.00  0.00     0.086 C 
HETATM   19  C   UNL     1     -42.406 -54.214  13.758  1.00  0.00     0.025 C 
HETATM   20  C   UNL     1     -43.681 -53.948  12.952  1.00  0.00     0.002 C 
HETATM   21  C   UNL     1     -44.807 -53.301  13.759  1.00  0.00     0.000 C 
HETATM   22  C   UNL     1     -44.313 -52.197  14.685  1.00  0.00     0.002 C 
HETATM   23  C   UNL     1     -43.170 -52.718  15.555  1.00  0.00     0.025 C 
ENDBRANCH  16  18
ENDBRANCH   2  14
TORSDOF 6
ENDMDL
MODEL 4
REMARK VINA RESULT:      -5.8      3.890      6.544
REMARK  6 active torsions:
REMARK  status: ('A' for Active; 'I' for Inactive)
REMARK    1  A    between atoms: C_2  and  N_3 
REMARK    2  A    between atoms: C_2  and  C_13 
REMARK    3  A    between atoms: N_3  and  C_4 
REMARK    4  A    between atoms: C_4  and  C_5 
REMARK    5  A    between atoms: C_5  and  N_6 
REMARK       I    between atoms: C_13  and  N_15 
REMARK    6  A    between atoms: N_15  and  C_17 
ROOT
HETATM    1  C   UNL     1     -42.214 -54.093  14.706  1.00  0.00     0.053 C 
HETATM    2  C   UNL     1     -41.788 -53.488  13.369  1.00  0.00     0.307 C 
ENDROOT
BRANCH   2   3
HETATM    3  N   UNL     1     -42.829 -53.564  12.310  1.00  0.00     0.098 N 
HETATM    4  H   UNL     1     -42.527 -54.261  11.628  1.00  0.00     0.317 HD
BRANCH   3   5
HETATM    5  C   UNL     1     -44.169 -53.936  12.777  1.00  0.00     0.292 C 
BRANCH   5   6
HETATM    6  C   UNL     1     -45.152 -52.786  12.544  1.00  0.00     0.178 C 
BRANCH   6   7
HETATM    7  N   UNL     1     -45.543 -52.182  13.800  1.00  0.00    -0.302 N 
HETATM    8  C   UNL     1     -46.760 -52.290  14.409  1.00  0.00     0.118 A 
HETATM    9  C   UNL     1     -46.686 -51.530  15.560  1.00  0.00    -0.028 A 
HETATM   10  C   UNL     1     -47.734 -51.316  16.578  1.00  0.00     0.051 C 
HETATM   11  C   UNL     1     -45.377 -50.999  15.529  1.00  0.00     0.115 A 
HETATM   12  N   UNL     1     -44.668 -51.397  14.467  1.00  0.00    -0.310 N 
ATOM     13  HN  UNL     1     -43.705 -51.165  14.221  1.00  0.00     0.186 HD
ENDBRANCH   6   7
ENDBRANCH   5   6
ENDBRANCH   3   5
ENDBRANCH   2   3
BRANCH   2  14
HETATM   14  C   UNL     1     -41.204 -52.056  13.595  1.00  0.00     0.252 C 
HETATM   15  O   UNL     1     -41.959 -51.082  13.652  1.00  0.00    -0.271 OA
HETATM   16  N   UNL     1     -39.817 -51.928  13.781  1.00  0.00    -0.350 N 
HETATM   17  C   UNL     1     -38.983 -53.088  14.119  1.00  0.00     0.153 C 
BRANCH  16  18
HETATM   18  C   UNL     1     -39.171 -50.595  14.031  1.00  0.00     0.086 C 
HETATM   19  C   UNL     1     -39.582 -49.362  13.187  1.00  0.00     0.025 C 
HETATM   20  C   UNL     1     -39.127 -49.406  11.725  1.00  0.00     0.002 C 
HETATM   21  C   UNL     1     -37.673 -49.842  11.536  1.00  0.00     0.000 C 
HETATM   22  C   UNL     1     -37.284 -51.010  12.433  1.00  0.00     0.002 C 
HETATM   23  C   UNL     1     -37.634 -50.692  13.886  1.00  0.00     0.025 C 
ENDBRANCH  16  18
ENDBRANCH   2  14
TORSDOF 6
ENDMDL
MODEL 5
REMARK VINA RESULT:      -5.8      2.502      3.207
REMARK  6 active torsions:
REMARK  status: ('A' for Active; 'I' for Inactive)
REMARK    1  A    between atoms: C_2  and  N_3 
REMARK    2  A    between atoms: C_2  and  C_13 
REMARK    3  A    between atoms: N_3  and  C_4 
REMARK    4  A    between atoms: C_4  and  C_5 
REMARK    5  A    between atoms: C_5  and  N_6 
REMARK       I    between atoms: C_13  and  N_15 
REMARK    6  A    between atoms: N_15  and  C_17 
ROOT
HETATM    1  C   UNL     1     -38.533 -48.881  13.666  1.00  0.00     0.053 C 
HETATM    2  C   UNL     1     -39.573 -49.499  12.732  1.00  0.00     0.307 C 
ENDROOT
BRANCH   2   3
HETATM    3  N   UNL     1     -39.636 -48.863  11.390  1.00  0.00     0.098 N 
HETATM    4  H   UNL     1     -38.890 -49.265  10.821  1.00  0.00     0.317 HD
BRANCH   3   5
HETATM    5  C   UNL     1     -40.902 -49.043  10.671  1.00  0.00     0.292 C 
BRANCH   5   6
HETATM    6  C   UNL     1     -41.971 -48.104  11.234  1.00  0.00     0.178 C 
BRANCH   6   7
HETATM    7  N   UNL     1     -43.001 -47.848  10.249  1.00  0.00    -0.302 N 
HETATM    8  C   UNL     1     -44.295 -47.490  10.501  1.00  0.00     0.118 A 
HETATM    9  C   UNL     1     -44.914 -47.383   9.271  1.00  0.00    -0.028 A 
HETATM   10  C   UNL     1     -46.316 -47.018   8.986  1.00  0.00     0.051 C 
HETATM   11  C   UNL     1     -43.894 -47.716   8.352  1.00  0.00     0.115 A 
HETATM   12  N   UNL     1     -42.722 -47.991   8.934  1.00  0.00    -0.310 N 
ATOM     13  HN  UNL     1     -41.837 -48.246   8.496  1.00  0.00     0.186 HD
ENDBRANCH   6   7
ENDBRANCH   5   6
ENDBRANCH   3   5
ENDBRANCH   2   3
BRANCH   2  14
HETATM   14  C   UNL     1     -39.405 -51.052  12.702  1.00  0.00     0.252 C 
HETATM   15  O   UNL     1     -38.294 -51.550  12.505  1.00  0.00    -0.271 OA
HETATM   16  N   UNL     1     -40.536 -51.846  12.955  1.00  0.00    -0.350 N 
HETATM   17  C   UNL     1     -41.738 -51.281  13.582  1.00  0.00     0.153 C 
BRANCH  16  18
HETATM   18  C   UNL     1     -40.464 -53.346  12.974  1.00  0.00     0.086 C 
HETATM   19  C   UNL     1     -41.743 -54.182  13.226  1.00  0.00     0.025 C 
HETATM   20  C   UNL     1     -42.288 -54.104  14.656  1.00  0.00     0.002 C 
HETATM   21  C   UNL     1     -41.219 -54.247  15.741  1.00  0.00     0.000 C 
HETATM   22  C   UNL     1     -39.948 -53.468  15.425  1.00  0.00     0.002 C 
HETATM   23  C   UNL     1     -39.444 -53.836  14.030  1.00  0.00     0.025 C 
ENDBRANCH  16  18
ENDBRANCH   2  14
TORSDOF 6
ENDMDL
MODEL 6
REMARK VINA RESULT:      -5.7      3.254      4.806
REMARK  6 active torsions:
REMARK  status: ('A' for Active; 'I' for Inactive)
REMARK    1  A    between atoms: C_2  and  N_3 
REMARK    2  A    between atoms: C_2  and  C_13 
REMARK    3  A    between atoms: N_3  and  C_4 
REMARK    4  A    between atoms: C_4  and  C_5 
REMARK    5  A    between atoms: C_5  and  N_6 
REMARK       I    between atoms: C_13  and  N_15 
REMARK    6  A    between atoms: N_15  and  C_17 
ROOT
HETATM    1  C   UNL     1     -41.690 -55.200  16.065  1.00  0.00     0.053 C 
HETATM    2  C   UNL     1     -42.042 -54.362  14.837  1.00  0.00     0.307 C 
ENDROOT
BRANCH   2   3
HETATM    3  N   UNL     1     -41.114 -54.548  13.690  1.00  0.00     0.098 N 
HETATM    4  H   UNL     1     -41.676 -54.768  12.868  1.00  0.00     0.317 HD
BRANCH   3   5
HETATM    5  C   UNL     1     -40.276 -53.387  13.370  1.00  0.00     0.292 C 
BRANCH   5   6
HETATM    6  C   UNL     1     -40.818 -52.664  12.135  1.00  0.00     0.178 C 
BRANCH   6   7
HETATM    7  N   UNL     1     -40.383 -51.283  12.114  1.00  0.00    -0.302 N 
HETATM    8  C   UNL     1     -39.779 -50.608  13.136  1.00  0.00     0.118 A 
HETATM    9  C   UNL     1     -39.572 -49.321  12.679  1.00  0.00    -0.028 A 
HETATM   10  C   UNL     1     -38.947 -48.189  13.395  1.00  0.00     0.051 C 
HETATM   11  C   UNL     1     -40.107 -49.337  11.372  1.00  0.00     0.115 A 
HETATM   12  N   UNL     1     -40.595 -50.530  11.012  1.00  0.00    -0.310 N 
ATOM     13  HN  UNL     1     -41.022 -50.803  10.127  1.00  0.00     0.186 HD
ENDBRANCH   6   7
ENDBRANCH   5   6
ENDBRANCH   3   5
ENDBRANCH   2   3
BRANCH   2  14
HETATM   14  C   UNL     1     -43.551 -54.550  14.479  1.00  0.00     0.252 C 
HETATM   15  O   UNL     1     -44.114 -55.622  14.716  1.00  0.00    -0.271 OA
HETATM   16  N   UNL     1     -44.245 -53.456  13.936  1.00  0.00    -0.350 N 
HETATM   17  C   UNL     1     -43.711 -52.092  14.031  1.00  0.00     0.153 C 
BRANCH  16  18
HETATM   18  C   UNL     1     -45.704 -53.537  13.587  1.00  0.00     0.086 C 
HETATM   19  C   UNL     1     -46.458 -52.273  13.102  1.00  0.00     0.025 C 
HETATM   20  C   UNL     1     -46.684 -51.209  14.181  1.00  0.00     0.002 C 
HETATM   21  C   UNL     1     -47.186 -51.767  15.514  1.00  0.00     0.000 C 
HETATM   22  C   UNL     1     -46.472 -53.049  15.924  1.00  0.00     0.002 C 
HETATM   23  C   UNL     1     -46.529 -54.066  14.785  1.00  0.00     0.025 C 
ENDBRANCH  16  18
ENDBRANCH   2  14
TORSDOF 6
ENDMDL
MODEL 7
REMARK VINA RESULT:      -5.7      2.239      3.354
REMARK  6 active torsions:
REMARK  status: ('A' for Active; 'I' for Inactive)
REMARK    1  A    between atoms: C_2  and  N_3 
REMARK    2  A    between atoms: C_2  and  C_13 
REMARK    3  A    between atoms: N_3  and  C_4 
REMARK    4  A    between atoms: C_4  and  C_5 
REMARK    5  A    between atoms: C_5  and  N_6 
REMARK       I    between atoms: C_13  and  N_15 
REMARK    6  A    between atoms: N_15  and  C_17 
ROOT
HETATM    1  C   UNL     1     -40.851 -54.178  12.904  1.00  0.00     0.053 C 
HETATM    2  C   UNL     1     -41.660 -53.084  13.598  1.00  0.00     0.307 C 
ENDROOT
BRANCH   2   3
HETATM    3  N   UNL     1     -41.126 -51.712  13.389  1.00  0.00     0.098 N 
HETATM    4  H   UNL     1     -40.229 -51.651  13.873  1.00  0.00     0.317 HD
BRANCH   3   5
HETATM    5  C   UNL     1     -40.914 -51.329  11.989  1.00  0.00     0.292 C 
BRANCH   5   6
HETATM    6  C   UNL     1     -39.801 -50.284  11.885  1.00  0.00     0.178 C 
BRANCH   6   7
HETATM    7  N   UNL     1     -40.322 -49.026  11.394  1.00  0.00    -0.302 N 
HETATM    8  C   UNL     1     -39.878 -47.778  11.727  1.00  0.00     0.118 A 
HETATM    9  C   UNL     1     -40.683 -46.886  11.047  1.00  0.00    -0.028 A 
HETATM   10  C   UNL     1     -40.620 -45.410  11.057  1.00  0.00     0.051 C 
HETATM   11  C   UNL     1     -41.587 -47.715  10.346  1.00  0.00     0.115 A 
HETATM   12  N   UNL     1     -41.371 -49.021  10.542  1.00  0.00    -0.310 N 
ATOM     13  HN  UNL     1     -41.873 -49.816  10.146  1.00  0.00     0.186 HD
ENDBRANCH   6   7
ENDBRANCH   5   6
ENDBRANCH   3   5
ENDBRANCH   2   3
BRANCH   2  14
HETATM   14  C   UNL     1     -43.176 -53.243  13.255  1.00  0.00     0.252 C 
HETATM   15  O   UNL     1     -43.569 -53.077  12.098  1.00  0.00    -0.271 OA
HETATM   16  N   UNL     1     -44.051 -53.629  14.284  1.00  0.00    -0.350 N 
HETATM   17  C   UNL     1     -43.547 -54.216  15.533  1.00  0.00     0.153 C 
BRANCH  16  18
HETATM   18  C   UNL     1     -45.519 -53.833  14.041  1.00  0.00     0.086 C 
HETATM   19  C   UNL     1     -46.288 -52.884  13.088  1.00  0.00     0.025 C 
HETATM   20  C   UNL     1     -46.485 -51.462  13.622  1.00  0.00     0.002 C 
HETATM   21  C   UNL     1     -46.947 -51.399  15.079  1.00  0.00     0.000 C 
HETATM   22  C   UNL     1     -46.220 -52.396  15.973  1.00  0.00     0.002 C 
HETATM   23  C   UNL     1     -46.308 -53.798  15.372  1.00  0.00     0.025 C 
ENDBRANCH  16  18
ENDBRANCH   2  14
TORSDOF 6
ENDMDL
MODEL 8
REMARK VINA RESULT:      -5.6      3.939      5.645
REMARK  6 active torsions:
REMARK  status: ('A' for Active; 'I' for Inactive)
REMARK    1  A    between atoms: C_2  and  N_3 
REMARK    2  A    between atoms: C_2  and  C_13 
REMARK    3  A    between atoms: N_3  and  C_4 
REMARK    4  A    between atoms: C_4  and  C_5 
REMARK    5  A    between atoms: C_5  and  N_6 
REMARK       I    between atoms: C_13  and  N_15 
REMARK    6  A    between atoms: N_15  and  C_17 
ROOT
HETATM    1  C   UNL     1     -42.449 -54.660  17.753  1.00  0.00     0.053 C 
HETATM    2  C   UNL     1     -41.897 -54.457  16.343  1.00  0.00     0.307 C 
ENDROOT
BRANCH   2   3
HETATM    3  N   UNL     1     -40.604 -55.148  16.093  1.00  0.00     0.098 N 
HETATM    4  H   UNL     1     -40.781 -55.910  15.438  1.00  0.00     0.317 HD
BRANCH   3   5
HETATM    5  C   UNL     1     -39.542 -54.305  15.533  1.00  0.00     0.292 C 
BRANCH   5   6
HETATM    6  C   UNL     1     -39.381 -54.577  14.035  1.00  0.00     0.178 C 
BRANCH   6   7
HETATM    7  N   UNL     1     -40.029 -53.545  13.253  1.00  0.00    -0.302 N 
HETATM    8  C   UNL     1     -39.947 -52.198  13.460  1.00  0.00     0.118 A 
HETATM    9  C   UNL     1     -40.744 -51.610  12.497  1.00  0.00    -0.028 A 
HETATM   10  C   UNL     1     -40.999 -50.171  12.280  1.00  0.00     0.051 C 
HETATM   11  C   UNL     1     -41.266 -52.707  11.776  1.00  0.00     0.115 A 
HETATM   12  N   UNL     1     -40.830 -53.891  12.221  1.00  0.00    -0.310 N 
ATOM     13  HN  UNL     1     -41.048 -54.823  11.869  1.00  0.00     0.186 HD
ENDBRANCH   6   7
ENDBRANCH   5   6
ENDBRANCH   3   5
ENDBRANCH   2   3
BRANCH   2  14
HETATM   14  C   UNL     1     -43.006 -54.766  15.287  1.00  0.00     0.252 C 
HETATM   15  O   UNL     1     -43.441 -55.914  15.164  1.00  0.00    -0.271 OA
HETATM   16  N   UNL     1     -43.521 -53.698  14.533  1.00  0.00    -0.350 N 
HETATM   17  C   UNL     1     -43.314 -52.304  14.948  1.00  0.00     0.153 C 
BRANCH  16  18
HETATM   18  C   UNL     1     -44.607 -53.897  13.515  1.00  0.00     0.086 C 
HETATM   19  C   UNL     1     -44.996 -52.742  12.559  1.00  0.00     0.025 C 
HETATM   20  C   UNL     1     -45.718 -51.569  13.230  1.00  0.00     0.002 C 
HETATM   21  C   UNL     1     -46.830 -51.988  14.193  1.00  0.00     0.000 C 
HETATM   22  C   UNL     1     -46.438 -53.172  15.068  1.00  0.00     0.002 C 
HETATM   23  C   UNL     1     -45.930 -54.320  14.197  1.00  0.00     0.025 C 
ENDBRANCH  16  18
ENDBRANCH   2  14
TORSDOF 6
ENDMDL
MODEL 9
REMARK VINA RESULT:      -5.6      2.374      3.322
REMARK  6 active torsions:
REMARK  status: ('A' for Active; 'I' for Inactive)
REMARK    1  A    between atoms: C_2  and  N_3 
REMARK    2  A    between atoms: C_2  and  C_13 
REMARK    3  A    between atoms: N_3  and  C_4 
REMARK    4  A    between atoms: C_4  and  C_5 
REMARK    5  A    between atoms: C_5  and  N_6 
REMARK       I    between atoms: C_13  and  N_15 
REMARK    6  A    between atoms: N_15  and  C_17 
ROOT
HETATM    1  C   UNL     1     -40.038 -51.659  13.616  1.00  0.00     0.053 C 
HETATM    2  C   UNL     1     -41.180 -51.282  12.672  1.00  0.00     0.307 C 
ENDROOT
BRANCH   2   3
HETATM    3  N   UNL     1     -40.746 -51.001  11.278  1.00  0.00     0.098 N 
HETATM    4  H   UNL     1     -41.563 -51.097  10.674  1.00  0.00     0.317 HD
BRANCH   3   5
HETATM    5  C   UNL     1     -40.173 -49.668  11.059  1.00  0.00     0.292 C 
BRANCH   5   6
HETATM    6  C   UNL     1     -41.273 -48.605  11.080  1.00  0.00     0.178 C 
BRANCH   6   7
HETATM    7  N   UNL     1     -40.705 -47.280  11.211  1.00  0.00    -0.302 N 
HETATM    8  C   UNL     1     -40.112 -46.757  12.325  1.00  0.00     0.118 A 
HETATM    9  C   UNL     1     -39.749 -45.465  12.000  1.00  0.00    -0.028 A 
HETATM   10  C   UNL     1     -39.070 -44.468  12.853  1.00  0.00     0.051 C 
HETATM   11  C   UNL     1     -40.189 -45.317  10.666  1.00  0.00     0.115 A 
HETATM   12  N   UNL     1     -40.763 -46.419  10.171  1.00  0.00    -0.310 N 
ATOM     13  HN  UNL     1     -41.150 -46.572   9.239  1.00  0.00     0.186 HD
ENDBRANCH   6   7
ENDBRANCH   5   6
ENDBRANCH   3   5
ENDBRANCH   2   3
BRANCH   2  14
HETATM   14  C   UNL     1     -42.333 -52.329  12.788  1.00  0.00     0.252 C 
HETATM   15  O   UNL     1     -42.074 -53.535  12.819  1.00  0.00    -0.271 OA
HETATM   16  N   UNL     1     -43.651 -51.855  12.907  1.00  0.00    -0.350 N 
HETATM   17  C   UNL     1     -43.927 -50.461  13.278  1.00  0.00     0.153 C 
BRANCH  16  18
HETATM   18  C   UNL     1     -44.820 -52.787  13.051  1.00  0.00     0.086 C 
HETATM   19  C   UNL     1     -46.266 -52.240  12.953  1.00  0.00     0.025 C 
HETATM   20  C   UNL     1     -46.703 -51.369  14.135  1.00  0.00     0.002 C 
HETATM   21  C   UNL     1     -46.340 -51.946  15.504  1.00  0.00     0.000 C 
HETATM   22  C   UNL     1     -44.938 -52.539  15.543  1.00  0.00     0.002 C 
HETATM   23  C   UNL     1     -44.761 -53.539  14.402  1.00  0.00     0.025 C 
ENDBRANCH  16  18
ENDBRANCH   2  14
TORSDOF 6
ENDMDL
