MODEL 1
REMARK VINA RESULT:      -6.7      0.000      0.000
REMARK  4 active torsions:
REMARK  status: ('A' for Active; 'I' for Inactive)
REMARK    1  A    between atoms: C_2  and  C_4 
REMARK    2  A    between atoms: C_8  and  C_9 
REMARK    3  A    between atoms: C_9  and  C_10 
REMARK    4  A    between atoms: C_10  and  N_11 
REMARK       I    between atoms: N_11  and  C_12 
REMARK       I    between atoms: C_12  and  N_14 
ROOT
HETATM    1  C   UNL     1     -39.448 -50.117  11.640  1.00  0.00     0.132 C 
ENDROOT
BRANCH   1   2
HETATM    2  C   UNL     1     -39.830 -48.638  11.685  1.00  0.00     0.106 C 
BRANCH   2   3
HETATM    3  C   UNL     1     -41.168 -48.378  11.094  1.00  0.00     0.149 A 
HETATM    4  O   UNL     1     -42.234 -48.706  11.882  1.00  0.00    -0.223 OA
HETATM    5  N   UNL     1     -43.379 -48.350  11.176  1.00  0.00    -0.247 N 
HETATM    6  C   UNL     1     -42.897 -47.837  10.037  1.00  0.00     0.107 A 
ATOM      7  HN  UNL     1     -44.353 -48.454  11.460  1.00  0.00     0.196 HD
HETATM    8  N   UNL     1     -41.522 -47.838   9.944  1.00  0.00    -0.327 N 
ATOM      9  HN  UNL     1     -40.929 -47.507   9.183  1.00  0.00     0.169 HD
BRANCH   6  10
HETATM   10  C   UNL     1     -43.811 -47.296   8.985  1.00  0.00     0.047 C 
HETATM   11  C   UNL     1     -43.541 -47.915   7.614  1.00  0.00     0.017 C 
HETATM   12  C   UNL     1     -45.283 -47.452   9.365  1.00  0.00     0.017 C 
ENDBRANCH   6  10
ENDBRANCH   2   3
ENDBRANCH   1   2
BRANCH   1  13
HETATM   13  N   UNL     1     -40.559 -51.045  11.868  1.00  0.00    -0.343 N 
HETATM   14  C   UNL     1     -40.430 -52.123  12.711  1.00  0.00     0.318 C 
HETATM   15  O   UNL     1     -39.357 -52.404  13.234  1.00  0.00    -0.247 OA
HETATM   16  N   UNL     1     -41.575 -52.866  12.913  1.00  0.00    -0.329 N 
HETATM   17  C   UNL     1     -42.884 -52.695  12.271  1.00  0.00     0.159 C 
HETATM   18  C   UNL     1     -41.483 -54.101  13.704  1.00  0.00     0.159 C 
HETATM   19  C   UNL     1     -44.013 -52.833  13.315  1.00  0.00     0.136 C 
HETATM   20  C   UNL     1     -45.381 -52.797  12.649  1.00  0.00     0.041 C 
HETATM   21  O   UNL     1     -43.909 -54.079  14.028  1.00  0.00    -0.378 OA
HETATM   22  C   UNL     1     -42.644 -54.184  14.709  1.00  0.00     0.136 C 
HETATM   23  C   UNL     1     -42.636 -55.506  15.465  1.00  0.00     0.041 C 
HETATM   24  H   UNL     1     -41.458 -50.596  11.904  1.00  0.00     0.164 HD
ENDBRANCH   1  13
TORSDOF 4
ENDMDL
MODEL 2
REMARK VINA RESULT:      -6.5      2.235      6.483
REMARK  4 active torsions:
REMARK  status: ('A' for Active; 'I' for Inactive)
REMARK    1  A    between atoms: C_2  and  C_4 
REMARK    2  A    between atoms: C_8  and  C_9 
REMARK    3  A    between atoms: C_9  and  C_10 
REMARK    4  A    between atoms: C_10  and  N_11 
REMARK       I    between atoms: N_11  and  C_12 
REMARK       I    between atoms: C_12  and  N_14 
ROOT
HETATM    1  C   UNL     1     -40.560 -51.281  11.830  1.00  0.00     0.132 C 
ENDROOT
BRANCH   1   2
HETATM    2  C   UNL     1     -41.453 -52.520  11.866  1.00  0.00     0.106 C 
BRANCH   2   3
HETATM    3  C   UNL     1     -42.771 -52.255  12.498  1.00  0.00     0.149 A 
HETATM    4  O   UNL     1     -42.759 -51.368  13.537  1.00  0.00    -0.223 OA
HETATM    5  N   UNL     1     -44.077 -51.224  13.957  1.00  0.00    -0.247 N 
HETATM    6  C   UNL     1     -44.758 -52.029  13.132  1.00  0.00     0.107 A 
ATOM      7  HN  UNL     1     -44.438 -50.643  14.714  1.00  0.00     0.196 HD
HETATM    8  N   UNL     1     -43.980 -52.693  12.207  1.00  0.00    -0.327 N 
ATOM      9  HN  UNL     1     -44.265 -53.354  11.484  1.00  0.00     0.169 HD
BRANCH   6  10
HETATM   10  C   UNL     1     -46.245 -52.151  13.223  1.00  0.00     0.047 C 
HETATM   11  C   UNL     1     -46.809 -51.411  14.436  1.00  0.00     0.017 C 
HETATM   12  C   UNL     1     -46.940 -51.692  11.942  1.00  0.00     0.017 C 
ENDBRANCH   6  10
ENDBRANCH   2   3
ENDBRANCH   1   2
BRANCH   1  13
HETATM   13  N   UNL     1     -41.256 -50.034  11.497  1.00  0.00    -0.343 N 
HETATM   14  C   UNL     1     -40.707 -48.809  11.790  1.00  0.00     0.318 C 
HETATM   15  O   UNL     1     -39.660 -48.708  12.421  1.00  0.00    -0.247 OA
HETATM   16  N   UNL     1     -41.415 -47.712  11.342  1.00  0.00    -0.329 N 
HETATM   17  C   UNL     1     -42.720 -47.696  10.670  1.00  0.00     0.159 C 
HETATM   18  C   UNL     1     -40.953 -46.371  11.724  1.00  0.00     0.159 C 
HETATM   19  C   UNL     1     -42.702 -46.702   9.490  1.00  0.00     0.136 C 
HETATM   20  C   UNL     1     -44.083 -46.568   8.866  1.00  0.00     0.041 C 
HETATM   21  O   UNL     1     -42.291 -45.392   9.924  1.00  0.00    -0.378 OA
HETATM   22  C   UNL     1     -40.975 -45.427  10.510  1.00  0.00     0.136 C 
HETATM   23  C   UNL     1     -40.607 -44.002  10.901  1.00  0.00     0.041 C 
HETATM   24  H   UNL     1     -41.747 -50.068  10.621  1.00  0.00     0.164 HD
ENDBRANCH   1  13
TORSDOF 4
ENDMDL
MODEL 3
REMARK VINA RESULT:      -6.3      1.518      1.737
REMARK  4 active torsions:
REMARK  status: ('A' for Active; 'I' for Inactive)
REMARK    1  A    between atoms: C_2  and  C_4 
REMARK    2  A    between atoms: C_8  and  C_9 
REMARK    3  A    between atoms: C_9  and  C_10 
REMARK    4  A    between atoms: C_10  and  N_11 
REMARK       I    between atoms: N_11  and  C_12 
REMARK       I    between atoms: C_12  and  N_14 
ROOT
HETATM    1  C   UNL     1     -40.205 -50.604  12.540  1.00  0.00     0.132 C 
ENDROOT
BRANCH   1   2
HETATM    2  C   UNL     1     -39.973 -49.641  11.376  1.00  0.00     0.106 C 
BRANCH   2   3
HETATM    3  C   UNL     1     -41.199 -48.885  11.010  1.00  0.00     0.149 A 
HETATM    4  O   UNL     1     -41.841 -48.267  12.044  1.00  0.00    -0.223 OA
HETATM    5  N   UNL     1     -42.924 -47.587  11.495  1.00  0.00    -0.247 N 
HETATM    6  C   UNL     1     -42.829 -47.853  10.187  1.00  0.00     0.107 A 
ATOM      7  HN  UNL     1     -43.622 -47.020  11.975  1.00  0.00     0.196 HD
HETATM    8  N   UNL     1     -41.767 -48.663   9.841  1.00  0.00    -0.327 N 
ATOM      9  HN  UNL     1     -41.492 -49.002   8.920  1.00  0.00     0.169 HD
BRANCH   6  10
HETATM   10  C   UNL     1     -43.802 -47.280   9.208  1.00  0.00     0.047 C 
HETATM   11  C   UNL     1     -43.536 -47.763   7.782  1.00  0.00     0.017 C 
HETATM   12  C   UNL     1     -45.251 -47.557   9.607  1.00  0.00     0.017 C 
ENDBRANCH   6  10
ENDBRANCH   2   3
ENDBRANCH   1   2
BRANCH   1  13
HETATM   13  N   UNL     1     -41.608 -50.960  12.771  1.00  0.00    -0.343 N 
HETATM   14  C   UNL     1     -42.047 -52.255  12.640  1.00  0.00     0.318 C 
HETATM   15  O   UNL     1     -41.308 -53.148  12.237  1.00  0.00    -0.247 OA
HETATM   16  N   UNL     1     -43.368 -52.478  12.975  1.00  0.00    -0.329 N 
HETATM   17  C   UNL     1     -44.375 -51.485  13.369  1.00  0.00     0.159 C 
HETATM   18  C   UNL     1     -43.939 -53.811  12.744  1.00  0.00     0.159 C 
HETATM   19  C   UNL     1     -45.200 -52.007  14.564  1.00  0.00     0.136 C 
HETATM   20  C   UNL     1     -46.338 -51.055  14.901  1.00  0.00     0.041 C 
HETATM   21  O   UNL     1     -45.779 -53.292  14.271  1.00  0.00    -0.378 OA
HETATM   22  C   UNL     1     -44.762 -54.263  13.962  1.00  0.00     0.136 C 
HETATM   23  C   UNL     1     -45.456 -55.593  13.705  1.00  0.00     0.041 C 
HETATM   24  H   UNL     1     -42.032 -50.454  13.528  1.00  0.00     0.164 HD
ENDBRANCH   1  13
TORSDOF 4
ENDMDL
MODEL 4
REMARK VINA RESULT:      -6.3      3.060      5.759
REMARK  4 active torsions:
REMARK  status: ('A' for Active; 'I' for Inactive)
REMARK    1  A    between atoms: C_2  and  C_4 
REMARK    2  A    between atoms: C_8  and  C_9 
REMARK    3  A    between atoms: C_9  and  C_10 
REMARK    4  A    between atoms: C_10  and  N_11 
REMARK       I    between atoms: N_11  and  C_12 
REMARK       I    between atoms: C_12  and  N_14 
ROOT
HETATM    1  C   UNL     1     -41.335 -54.677  14.925  1.00  0.00     0.132 C 
ENDROOT
BRANCH   1   2
HETATM    2  C   UNL     1     -42.835 -54.964  14.944  1.00  0.00     0.106 C 
BRANCH   2   3
HETATM    3  C   UNL     1     -43.618 -53.954  14.184  1.00  0.00     0.149 A 
HETATM    4  O   UNL     1     -43.358 -53.894  12.845  1.00  0.00    -0.223 OA
HETATM    5  N   UNL     1     -44.211 -52.932  12.313  1.00  0.00    -0.247 N 
HETATM    6  C   UNL     1     -44.906 -52.509  13.377  1.00  0.00     0.107 A 
ATOM      7  HN  UNL     1     -44.289 -52.623  11.344  1.00  0.00     0.196 HD
HETATM    8  N   UNL     1     -44.565 -53.120  14.565  1.00  0.00    -0.327 N 
ATOM      9  HN  UNL     1     -44.946 -52.966  15.499  1.00  0.00     0.169 HD
BRANCH   6  10
HETATM   10  C   UNL     1     -45.974 -51.473  13.240  1.00  0.00     0.047 C 
HETATM   11  C   UNL     1     -46.818 -51.679  11.982  1.00  0.00     0.017 C 
HETATM   12  C   UNL     1     -46.867 -51.399  14.479  1.00  0.00     0.017 C 
ENDBRANCH   6  10
ENDBRANCH   2   3
ENDBRANCH   1   2
BRANCH   1  13
HETATM   13  N   UNL     1     -40.980 -53.287  14.624  1.00  0.00    -0.343 N 
HETATM   14  C   UNL     1     -39.834 -52.975  13.932  1.00  0.00     0.318 C 
HETATM   15  O   UNL     1     -39.018 -53.836  13.618  1.00  0.00    -0.247 OA
HETATM   16  N   UNL     1     -39.660 -51.640  13.631  1.00  0.00    -0.329 N 
HETATM   17  C   UNL     1     -40.504 -50.509  14.034  1.00  0.00     0.159 C 
HETATM   18  C   UNL     1     -38.402 -51.218  13.001  1.00  0.00     0.159 C 
HETATM   19  C   UNL     1     -40.714 -49.547  12.845  1.00  0.00     0.136 C 
HETATM   20  C   UNL     1     -41.470 -48.300  13.277  1.00  0.00     0.041 C 
HETATM   21  O   UNL     1     -39.453 -49.123  12.295  1.00  0.00    -0.378 OA
HETATM   22  C   UNL     1     -38.680 -50.249  11.838  1.00  0.00     0.136 C 
HETATM   23  C   UNL     1     -37.388 -49.709  11.239  1.00  0.00     0.041 C 
HETATM   24  H   UNL     1     -41.770 -52.710  14.397  1.00  0.00     0.164 HD
ENDBRANCH   1  13
TORSDOF 4
ENDMDL
MODEL 5
REMARK VINA RESULT:      -6.2      1.969      7.071
REMARK  4 active torsions:
REMARK  status: ('A' for Active; 'I' for Inactive)
REMARK    1  A    between atoms: C_2  and  C_4 
REMARK    2  A    between atoms: C_8  and  C_9 
REMARK    3  A    between atoms: C_9  and  C_10 
REMARK    4  A    between atoms: C_10  and  N_11 
REMARK       I    between atoms: N_11  and  C_12 
REMARK       I    between atoms: C_12  and  N_14 
ROOT
HETATM    1  C   UNL     1     -40.147 -49.897  13.854  1.00  0.00     0.132 C 
ENDROOT
BRANCH   1   2
HETATM    2  C   UNL     1     -39.496 -51.201  13.397  1.00  0.00     0.106 C 
BRANCH   2   3
HETATM    3  C   UNL     1     -40.489 -52.281  13.157  1.00  0.00     0.149 A 
HETATM    4  O   UNL     1     -39.980 -53.455  12.682  1.00  0.00    -0.223 OA
HETATM    5  N   UNL     1     -41.048 -54.339  12.567  1.00  0.00    -0.247 N 
HETATM    6  C   UNL     1     -42.095 -53.618  12.988  1.00  0.00     0.107 A 
ATOM      7  HN  UNL     1     -41.037 -55.305  12.241  1.00  0.00     0.196 HD
HETATM    8  N   UNL     1     -41.790 -52.327  13.363  1.00  0.00    -0.327 N 
ATOM      9  HN  UNL     1     -42.411 -51.595  13.711  1.00  0.00     0.169 HD
BRANCH   6  10
HETATM   10  C   UNL     1     -43.466 -54.211  13.054  1.00  0.00     0.047 C 
HETATM   11  C   UNL     1     -43.815 -54.699  14.460  1.00  0.00     0.017 C 
HETATM   12  C   UNL     1     -44.536 -53.248  12.538  1.00  0.00     0.017 C 
ENDBRANCH   6  10
ENDBRANCH   2   3
ENDBRANCH   1   2
BRANCH   1  13
HETATM   13  N   UNL     1     -40.231 -48.859  12.823  1.00  0.00    -0.343 N 
HETATM   14  C   UNL     1     -41.303 -48.786  11.966  1.00  0.00     0.318 C 
HETATM   15  O   UNL     1     -42.186 -49.638  11.968  1.00  0.00    -0.247 OA
HETATM   16  N   UNL     1     -41.309 -47.709  11.103  1.00  0.00    -0.329 N 
HETATM   17  C   UNL     1     -40.270 -46.686  10.933  1.00  0.00     0.159 C 
HETATM   18  C   UNL     1     -42.358 -47.633  10.078  1.00  0.00     0.159 C 
HETATM   19  C   UNL     1     -40.911 -45.286  10.824  1.00  0.00     0.136 C 
HETATM   20  C   UNL     1     -39.864 -44.228  10.510  1.00  0.00     0.041 C 
HETATM   21  O   UNL     1     -41.895 -45.249   9.774  1.00  0.00    -0.378 OA
HETATM   22  C   UNL     1     -42.942 -46.212  10.008  1.00  0.00     0.136 C 
HETATM   23  C   UNL     1     -43.953 -46.076   8.879  1.00  0.00     0.041 C 
HETATM   24  H   UNL     1     -39.878 -47.966  13.121  1.00  0.00     0.164 HD
ENDBRANCH   1  13
TORSDOF 4
ENDMDL
MODEL 6
REMARK VINA RESULT:      -6.1      2.510      6.423
REMARK  4 active torsions:
REMARK  status: ('A' for Active; 'I' for Inactive)
REMARK    1  A    between atoms: C_2  and  C_4 
REMARK    2  A    between atoms: C_8  and  C_9 
REMARK    3  A    between atoms: C_9  and  C_10 
REMARK    4  A    between atoms: C_10  and  N_11 
REMARK       I    between atoms: N_11  and  C_12 
REMARK       I    between atoms: C_12  and  N_14 
ROOT
HETATM    1  C   UNL     1     -41.217 -54.390  13.419  1.00  0.00     0.132 C 
ENDROOT
BRANCH   1   2
HETATM    2  C   UNL     1     -42.062 -54.414  14.693  1.00  0.00     0.106 C 
BRANCH   2   3
HETATM    3  C   UNL     1     -43.496 -54.127  14.430  1.00  0.00     0.149 A 
HETATM    4  O   UNL     1     -44.344 -55.188  14.566  1.00  0.00    -0.223 OA
HETATM    5  N   UNL     1     -45.628 -54.710  14.324  1.00  0.00    -0.247 N 
HETATM    6  C   UNL     1     -45.434 -53.409  14.073  1.00  0.00     0.107 A 
ATOM      7  HN  UNL     1     -46.507 -55.227  14.337  1.00  0.00     0.196 HD
HETATM    8  N   UNL     1     -44.117 -53.004  14.126  1.00  0.00    -0.327 N 
ATOM      9  HN  UNL     1     -43.724 -52.076  13.971  1.00  0.00     0.169 HD
BRANCH   6  10
HETATM   10  C   UNL     1     -46.583 -52.497  13.785  1.00  0.00     0.047 C 
HETATM   11  C   UNL     1     -46.778 -51.453  14.885  1.00  0.00     0.017 C 
HETATM   12  C   UNL     1     -46.455 -51.822  12.420  1.00  0.00     0.017 C 
ENDBRANCH   6  10
ENDBRANCH   2   3
ENDBRANCH   1   2
BRANCH   1  13
HETATM   13  N   UNL     1     -40.482 -53.142  13.195  1.00  0.00    -0.343 N 
HETATM   14  C   UNL     1     -40.986 -52.149  12.390  1.00  0.00     0.318 C 
HETATM   15  O   UNL     1     -42.025 -52.302  11.755  1.00  0.00    -0.247 OA
HETATM   16  N   UNL     1     -40.244 -50.987  12.333  1.00  0.00    -0.329 N 
HETATM   17  C   UNL     1     -38.943 -50.719  12.959  1.00  0.00     0.159 C 
HETATM   18  C   UNL     1     -40.657 -49.931  11.400  1.00  0.00     0.159 C 
HETATM   19  C   UNL     1     -38.935 -49.312  13.593  1.00  0.00     0.136 C 
HETATM   20  C   UNL     1     -37.554 -48.960  14.126  1.00  0.00     0.041 C 
HETATM   21  O   UNL     1     -39.298 -48.308  12.627  1.00  0.00    -0.378 OA
HETATM   22  C   UNL     1     -40.609 -48.556  12.087  1.00  0.00     0.136 C 
HETATM   23  C   UNL     1     -40.926 -47.432  11.110  1.00  0.00     0.041 C 
HETATM   24  H   UNL     1     -39.998 -52.808  14.010  1.00  0.00     0.164 HD
ENDBRANCH   1  13
TORSDOF 4
ENDMDL
MODEL 7
REMARK VINA RESULT:      -6.1      3.038      4.856
REMARK  4 active torsions:
REMARK  status: ('A' for Active; 'I' for Inactive)
REMARK    1  A    between atoms: C_2  and  C_4 
REMARK    2  A    between atoms: C_8  and  C_9 
REMARK    3  A    between atoms: C_9  and  C_10 
REMARK    4  A    between atoms: C_10  and  N_11 
REMARK       I    between atoms: N_11  and  C_12 
REMARK       I    between atoms: C_12  and  N_14 
ROOT
HETATM    1  C   UNL     1     -41.468 -54.501  13.589  1.00  0.00     0.132 C 
ENDROOT
BRANCH   1   2
HETATM    2  C   UNL     1     -40.482 -53.459  14.113  1.00  0.00     0.106 C 
BRANCH   2   3
HETATM    3  C   UNL     1     -40.226 -52.373  13.130  1.00  0.00     0.149 A 
HETATM    4  O   UNL     1     -41.122 -52.283  12.105  1.00  0.00    -0.223 OA
HETATM    5  N   UNL     1     -40.738 -51.193  11.330  1.00  0.00    -0.247 N 
HETATM    6  C   UNL     1     -39.655 -50.727  11.963  1.00  0.00     0.107 A 
ATOM      7  HN  UNL     1     -41.178 -50.835  10.482  1.00  0.00     0.196 HD
HETATM    8  N   UNL     1     -39.299 -51.436  13.091  1.00  0.00    -0.327 N 
ATOM      9  HN  UNL     1     -38.520 -51.278  13.729  1.00  0.00     0.169 HD
BRANCH   6  10
HETATM   10  C   UNL     1     -38.931 -49.517  11.468  1.00  0.00     0.047 C 
HETATM   11  C   UNL     1     -39.167 -48.299  12.361  1.00  0.00     0.017 C 
HETATM   12  C   UNL     1     -37.434 -49.772  11.293  1.00  0.00     0.017 C 
ENDBRANCH   6  10
ENDBRANCH   2   3
ENDBRANCH   1   2
BRANCH   1  13
HETATM   13  N   UNL     1     -42.849 -54.027  13.454  1.00  0.00    -0.343 N 
HETATM   14  C   UNL     1     -43.606 -53.710  14.556  1.00  0.00     0.318 C 
HETATM   15  O   UNL     1     -43.193 -53.896  15.696  1.00  0.00    -0.247 OA
HETATM   16  N   UNL     1     -44.856 -53.187  14.293  1.00  0.00    -0.329 N 
HETATM   17  C   UNL     1     -45.502 -53.011  12.987  1.00  0.00     0.159 C 
HETATM   18  C   UNL     1     -45.767 -52.939  15.419  1.00  0.00     0.159 C 
HETATM   19  C   UNL     1     -46.195 -51.634  12.914  1.00  0.00     0.136 C 
HETATM   20  C   UNL     1     -46.986 -51.487  11.623  1.00  0.00     0.041 C 
HETATM   21  O   UNL     1     -47.113 -51.459  14.009  1.00  0.00    -0.378 OA
HETATM   22  C   UNL     1     -46.437 -51.561  15.277  1.00  0.00     0.136 C 
HETATM   23  C   UNL     1     -47.469 -51.325  16.370  1.00  0.00     0.041 C 
HETATM   24  H   UNL     1     -42.991 -53.421  12.665  1.00  0.00     0.164 HD
ENDBRANCH   1  13
TORSDOF 4
ENDMDL
MODEL 8
REMARK VINA RESULT:      -5.9      2.078      6.495
REMARK  4 active torsions:
REMARK  status: ('A' for Active; 'I' for Inactive)
REMARK    1  A    between atoms: C_2  and  C_4 
REMARK    2  A    between atoms: C_8  and  C_9 
REMARK    3  A    between atoms: C_9  and  C_10 
REMARK    4  A    between atoms: C_10  and  N_11 
REMARK       I    between atoms: N_11  and  C_12 
REMARK       I    between atoms: C_12  and  N_14 
ROOT
HETATM    1  C   UNL     1     -39.378 -51.036  14.231  1.00  0.00     0.132 C 
ENDROOT
BRANCH   1   2
HETATM    2  C   UNL     1     -39.530 -52.446  13.662  1.00  0.00     0.106 C 
BRANCH   2   3
HETATM    3  C   UNL     1     -40.906 -52.717  13.171  1.00  0.00     0.149 A 
HETATM    4  O   UNL     1     -41.193 -52.235  11.926  1.00  0.00    -0.223 OA
HETATM    5  N   UNL     1     -42.496 -52.625  11.635  1.00  0.00    -0.247 N 
HETATM    6  C   UNL     1     -42.868 -53.307  12.725  1.00  0.00     0.107 A 
ATOM      7  HN  UNL     1     -43.038 -52.436  10.792  1.00  0.00     0.196 HD
HETATM    8  N   UNL     1     -41.906 -53.386  13.709  1.00  0.00    -0.327 N 
ATOM      9  HN  UNL     1     -41.954 -53.844  14.620  1.00  0.00     0.169 HD
BRANCH   6  10
HETATM   10  C   UNL     1     -44.220 -53.938  12.818  1.00  0.00     0.047 C 
HETATM   11  C   UNL     1     -44.406 -54.711  14.125  1.00  0.00     0.017 C 
HETATM   12  C   UNL     1     -45.345 -52.920  12.632  1.00  0.00     0.017 C 
ENDBRANCH   6  10
ENDBRANCH   2   3
ENDBRANCH   1   2
BRANCH   1  13
HETATM   13  N   UNL     1     -40.136 -50.002  13.520  1.00  0.00    -0.343 N 
HETATM   14  C   UNL     1     -39.586 -48.774  13.245  1.00  0.00     0.318 C 
HETATM   15  O   UNL     1     -38.475 -48.459  13.660  1.00  0.00    -0.247 OA
HETATM   16  N   UNL     1     -40.367 -47.923  12.489  1.00  0.00    -0.329 N 
HETATM   17  C   UNL     1     -41.741 -48.140  12.021  1.00  0.00     0.159 C 
HETATM   18  C   UNL     1     -39.895 -46.551  12.260  1.00  0.00     0.159 C 
HETATM   19  C   UNL     1     -41.883 -47.687  10.552  1.00  0.00     0.136 C 
HETATM   20  C   UNL     1     -43.330 -47.775  10.091  1.00  0.00     0.041 C 
HETATM   21  O   UNL     1     -41.455 -46.322  10.388  1.00  0.00    -0.378 OA
HETATM   22  C   UNL     1     -40.080 -46.157  10.784  1.00  0.00     0.136 C 
HETATM   23  C   UNL     1     -39.703 -44.702  10.542  1.00  0.00     0.041 C 
HETATM   24  H   UNL     1     -40.725 -50.365  12.791  1.00  0.00     0.164 HD
ENDBRANCH   1  13
TORSDOF 4
ENDMDL
MODEL 9
REMARK VINA RESULT:      -5.5      3.724      6.453
REMARK  4 active torsions:
REMARK  status: ('A' for Active; 'I' for Inactive)
REMARK    1  A    between atoms: C_2  and  C_4 
REMARK    2  A    between atoms: C_8  and  C_9 
REMARK    3  A    between atoms: C_9  and  C_10 
REMARK    4  A    between atoms: C_10  and  N_11 
REMARK       I    between atoms: N_11  and  C_12 
REMARK       I    between atoms: C_12  and  N_14 
ROOT
HETATM    1  C   UNL     1     -41.348 -54.285  13.839  1.00  0.00     0.132 C 
ENDROOT
BRANCH   1   2
HETATM    2  C   UNL     1     -42.408 -54.697  14.860  1.00  0.00     0.106 C 
BRANCH   2   3
HETATM    3  C   UNL     1     -43.782 -54.314  14.441  1.00  0.00     0.149 A 
HETATM    4  O   UNL     1     -44.651 -55.350  14.257  1.00  0.00    -0.223 OA
HETATM    5  N   UNL     1     -45.877 -54.790  13.915  1.00  0.00    -0.247 N 
HETATM    6  C   UNL     1     -45.634 -53.473  13.931  1.00  0.00     0.107 A 
ATOM      7  HN  UNL     1     -46.753 -55.267  13.703  1.00  0.00     0.196 HD
HETATM    8  N   UNL     1     -44.336 -53.134  14.252  1.00  0.00    -0.327 N 
ATOM      9  HN  UNL     1     -43.914 -52.208  14.324  1.00  0.00     0.169 HD
BRANCH   6  10
HETATM   10  C   UNL     1     -46.715 -52.483  13.640  1.00  0.00     0.047 C 
HETATM   11  C   UNL     1     -46.768 -51.366  14.683  1.00  0.00     0.017 C 
HETATM   12  C   UNL     1     -46.598 -51.898  12.233  1.00  0.00     0.017 C 
ENDBRANCH   6  10
ENDBRANCH   2   3
ENDBRANCH   1   2
BRANCH   1  13
HETATM   13  N   UNL     1     -40.806 -52.936  14.028  1.00  0.00    -0.343 N 
HETATM   14  C   UNL     1     -39.718 -52.709  14.836  1.00  0.00     0.318 C 
HETATM   15  O   UNL     1     -39.214 -53.608  15.502  1.00  0.00    -0.247 OA
HETATM   16  N   UNL     1     -39.247 -51.412  14.857  1.00  0.00    -0.329 N 
HETATM   17  C   UNL     1     -39.818 -50.236  14.191  1.00  0.00     0.159 C 
HETATM   18  C   UNL     1     -38.165 -51.071  15.790  1.00  0.00     0.159 C 
HETATM   19  C   UNL     1     -38.701 -49.394  13.541  1.00  0.00     0.136 C 
HETATM   20  C   UNL     1     -39.256 -48.100  12.964  1.00  0.00     0.041 C 
HETATM   21  O   UNL     1     -37.691 -49.042  14.505  1.00  0.00    -0.378 OA
HETATM   22  C   UNL     1     -37.095 -50.218  15.086  1.00  0.00     0.136 C 
HETATM   23  C   UNL     1     -36.018 -49.756  16.058  1.00  0.00     0.041 C 
HETATM   24  H   UNL     1     -40.827 -52.374  13.196  1.00  0.00     0.164 HD
ENDBRANCH   1  13
TORSDOF 4
ENDMDL
