MODEL 1
REMARK VINA RESULT:      -6.6      0.000      0.000
REMARK  7 active torsions:
REMARK  status: ('A' for Active; 'I' for Inactive)
REMARK    1  A    between atoms: N_2  and  C_15 
REMARK    2  A    between atoms: C_6  and  N_7 
REMARK    3  A    between atoms: N_9  and  C_21 
REMARK    4  A    between atoms: C_15  and  C_16 
REMARK    5  A    between atoms: C_16  and  O_24 
REMARK    6  A    between atoms: C_21  and  C_26 
REMARK    7  A    between atoms: C_26  and  O_27 
ROOT
HETATM    1  C   UNL     1     -41.141 -47.482  11.900  1.00  0.00     0.122 A 
HETATM    2  N   UNL     1     -40.282 -45.547  11.360  1.00  0.00    -0.324 N 
HETATM    3  C   UNL     1     -41.146 -46.513  10.915  1.00  0.00     0.140 A 
HETATM    4  N   UNL     1     -40.273 -47.122  12.918  1.00  0.00    -0.346 N 
ATOM      5  HN  UNL     1     -40.056 -47.653  13.762  1.00  0.00     0.167 HD
HETATM    6  C   UNL     1     -41.993 -48.598  11.726  1.00  0.00     0.135 A 
HETATM    7  C   UNL     1     -39.789 -45.954  12.567  1.00  0.00     0.185 A 
HETATM    8  N   UNL     1     -41.854 -46.508   9.775  1.00  0.00    -0.336 N 
ATOM      9  HN  UNL     1     -41.797 -45.785   9.058  1.00  0.00     0.168 HD
HETATM   10  N   UNL     1     -42.766 -48.607  10.597  1.00  0.00    -0.337 N 
ATOM     11  HN  UNL     1     -43.422 -49.369  10.427  1.00  0.00     0.168 HD
HETATM   12  C   UNL     1     -42.650 -47.592   9.709  1.00  0.00     0.183 A 
ENDROOT
BRANCH   6  13
HETATM   13  N   UNL     1     -42.107 -49.627  12.672  1.00  0.00    -0.362 N 
HETATM   14  C   UNL     1     -43.356 -49.670  13.432  1.00  0.00     0.160 C 
HETATM   15  C   UNL     1     -43.239 -50.735  14.568  1.00  0.00     0.237 C 
HETATM   16  N   UNL     1     -42.884 -52.107  14.077  1.00  0.00     0.098 N 
HETATM   17  C   UNL     1     -44.450 -50.712  15.498  1.00  0.00     0.044 C 
HETATM   18  C   UNL     1     -41.582 -51.957  13.374  1.00  0.00     0.293 C 
HETATM   19  C   UNL     1     -41.587 -50.928  12.219  1.00  0.00     0.154 C 
BRANCH  16  20
HETATM   20  C   UNL     1     -43.917 -52.712  13.206  1.00  0.00     0.304 C 
BRANCH  20  21
HETATM   21  C   UNL     1     -44.742 -53.856  13.867  1.00  0.00     0.142 C 
HETATM   22  C   UNL     1     -43.834 -54.879  14.537  1.00  0.00     0.041 C 
BRANCH  21  23
HETATM   23  O   UNL     1     -45.553 -54.549  12.920  1.00  0.00    -0.394 OA
HETATM   24  H   UNL     1     -46.441 -54.639  13.307  1.00  0.00     0.210 HD
ENDBRANCH  21  23
ENDBRANCH  20  21
ENDBRANCH  16  20
ENDBRANCH   6  13
BRANCH   2  25
HETATM   25  C   UNL     1     -40.037 -44.262  10.745  1.00  0.00     0.171 C 
BRANCH  25  26
HETATM   26  C   UNL     1     -40.834 -43.100  11.351  1.00  0.00     0.097 C 
HETATM   27  C   UNL     1     -40.179 -42.376  12.512  1.00  0.00     0.068 C 
HETATM   28  C   UNL     1     -41.362 -41.872  13.326  1.00  0.00     0.170 C 
HETATM   29  O   UNL     1     -42.495 -42.690  13.016  1.00  0.00    -0.388 OA
HETATM   30  C   UNL     1     -42.106 -43.636  12.012  1.00  0.00     0.207 C 
BRANCH  26  31
HETATM   31  O   UNL     1     -41.206 -42.143  10.353  1.00  0.00    -0.386 OA
HETATM   32  H   UNL     1     -41.947 -42.490   9.822  1.00  0.00     0.210 HD
ENDBRANCH  26  31
ENDBRANCH  25  26
ENDBRANCH   2  25
TORSDOF 7
ENDMDL
MODEL 2
REMARK VINA RESULT:      -6.5      2.258      8.585
REMARK  7 active torsions:
REMARK  status: ('A' for Active; 'I' for Inactive)
REMARK    1  A    between atoms: N_2  and  C_15 
REMARK    2  A    between atoms: C_6  and  N_7 
REMARK    3  A    between atoms: N_9  and  C_21 
REMARK    4  A    between atoms: C_15  and  C_16 
REMARK    5  A    between atoms: C_16  and  O_24 
REMARK    6  A    between atoms: C_21  and  C_26 
REMARK    7  A    between atoms: C_26  and  O_27 
ROOT
HETATM    1  C   UNL     1     -40.449 -50.543  12.377  1.00  0.00     0.122 A 
HETATM    2  N   UNL     1     -40.417 -52.634  13.006  1.00  0.00    -0.324 N 
HETATM    3  C   UNL     1     -40.017 -51.381  13.387  1.00  0.00     0.140 A 
HETATM    4  N   UNL     1     -41.083 -51.276  11.388  1.00  0.00    -0.346 N 
ATOM      5  HN  UNL     1     -41.485 -50.924  10.519  1.00  0.00     0.167 HD
HETATM    6  C   UNL     1     -40.209 -49.156  12.529  1.00  0.00     0.135 A 
HETATM    7  C   UNL     1     -41.057 -52.520  11.805  1.00  0.00     0.185 A 
HETATM    8  N   UNL     1     -39.360 -51.042  14.508  1.00  0.00    -0.336 N 
ATOM      9  HN  UNL     1     -39.029 -51.704  15.210  1.00  0.00     0.168 HD
HETATM   10  N   UNL     1     -39.583 -48.766  13.681  1.00  0.00    -0.337 N 
ATOM     11  HN  UNL     1     -39.406 -47.778  13.864  1.00  0.00     0.168 HD
HETATM   12  C   UNL     1     -39.200 -49.708  14.576  1.00  0.00     0.183 A 
ENDROOT
BRANCH   6  13
HETATM   13  N   UNL     1     -40.633 -48.202  11.594  1.00  0.00    -0.362 N 
HETATM   14  C   UNL     1     -42.079 -48.077  11.408  1.00  0.00     0.160 C 
HETATM   15  C   UNL     1     -42.369 -47.128  10.203  1.00  0.00     0.237 C 
HETATM   16  N   UNL     1     -41.747 -45.771  10.337  1.00  0.00     0.098 N 
HETATM   17  C   UNL     1     -43.857 -47.088   9.855  1.00  0.00     0.044 C 
HETATM   18  C   UNL     1     -40.285 -46.012  10.463  1.00  0.00     0.293 C 
HETATM   19  C   UNL     1     -39.881 -46.936  11.635  1.00  0.00     0.154 C 
BRANCH  16  20
HETATM   20  C   UNL     1     -42.277 -44.982  11.472  1.00  0.00     0.304 C 
BRANCH  20  21
HETATM   21  C   UNL     1     -42.611 -43.498  11.138  1.00  0.00     0.142 C 
HETATM   22  C   UNL     1     -43.025 -42.728  12.384  1.00  0.00     0.041 C 
BRANCH  21  23
HETATM   23  O   UNL     1     -43.670 -43.388  10.188  1.00  0.00    -0.394 OA
HETATM   24  H   UNL     1     -44.319 -44.084  10.391  1.00  0.00     0.210 HD
ENDBRANCH  21  23
ENDBRANCH  20  21
ENDBRANCH  16  20
ENDBRANCH   6  13
BRANCH   2  25
HETATM   25  C   UNL     1     -40.314 -53.846  13.789  1.00  0.00     0.171 C 
BRANCH  25  26
HETATM   26  C   UNL     1     -41.415 -54.022  14.843  1.00  0.00     0.097 C 
HETATM   27  C   UNL     1     -41.127 -55.018  15.949  1.00  0.00     0.068 C 
HETATM   28  C   UNL     1     -42.509 -55.520  16.341  1.00  0.00     0.170 C 
HETATM   29  O   UNL     1     -43.390 -55.305  15.233  1.00  0.00    -0.388 OA
HETATM   30  C   UNL     1     -42.655 -54.642  14.195  1.00  0.00     0.207 C 
BRANCH  26  31
HETATM   31  O   UNL     1     -41.784 -52.767  15.428  1.00  0.00    -0.386 OA
HETATM   32  H   UNL     1     -42.727 -52.785  15.679  1.00  0.00     0.210 HD
ENDBRANCH  26  31
ENDBRANCH  25  26
ENDBRANCH   2  25
TORSDOF 7
ENDMDL
MODEL 3
REMARK VINA RESULT:      -6.5      2.570      2.761
REMARK  7 active torsions:
REMARK  status: ('A' for Active; 'I' for Inactive)
REMARK    1  A    between atoms: N_2  and  C_15 
REMARK    2  A    between atoms: C_6  and  N_7 
REMARK    3  A    between atoms: N_9  and  C_21 
REMARK    4  A    between atoms: C_15  and  C_16 
REMARK    5  A    between atoms: C_16  and  O_24 
REMARK    6  A    between atoms: C_21  and  C_26 
REMARK    7  A    between atoms: C_26  and  O_27 
ROOT
HETATM    1  C   UNL     1     -40.187 -47.263  12.143  1.00  0.00     0.122 A 
HETATM    2  N   UNL     1     -40.326 -45.191  11.470  1.00  0.00    -0.324 N 
HETATM    3  C   UNL     1     -40.750 -46.458  11.172  1.00  0.00     0.140 A 
HETATM    4  N   UNL     1     -39.414 -46.502  13.004  1.00  0.00    -0.346 N 
ATOM      5  HN  UNL     1     -38.869 -46.832  13.801  1.00  0.00     0.167 HD
HETATM    6  C   UNL     1     -40.497 -48.644  12.110  1.00  0.00     0.135 A 
HETATM    7  C   UNL     1     -39.533 -45.267  12.579  1.00  0.00     0.185 A 
HETATM    8  N   UNL     1     -41.554 -46.831  10.164  1.00  0.00    -0.336 N 
ATOM      9  HN  UNL     1     -41.919 -46.203   9.448  1.00  0.00     0.168 HD
HETATM   10  N   UNL     1     -41.351 -49.056  11.124  1.00  0.00    -0.337 N 
ATOM     11  HN  UNL     1     -41.636 -50.033  11.063  1.00  0.00     0.168 HD
HETATM   12  C   UNL     1     -41.812 -48.151  10.229  1.00  0.00     0.183 A 
ENDROOT
BRANCH   6  13
HETATM   13  N   UNL     1     -40.019 -49.556  13.061  1.00  0.00    -0.362 N 
HETATM   14  C   UNL     1     -41.010 -50.100  13.991  1.00  0.00     0.160 C 
HETATM   15  C   UNL     1     -40.287 -50.931  15.097  1.00  0.00     0.237 C 
HETATM   16  N   UNL     1     -39.424 -52.033  14.559  1.00  0.00     0.098 N 
HETATM   17  C   UNL     1     -41.253 -51.387  16.189  1.00  0.00     0.044 C 
HETATM   18  C   UNL     1     -38.427 -51.367  13.679  1.00  0.00     0.293 C 
HETATM   19  C   UNL     1     -39.036 -50.520  12.538  1.00  0.00     0.154 C 
BRANCH  16  20
HETATM   20  C   UNL     1     -40.180 -53.085  13.842  1.00  0.00     0.304 C 
BRANCH  20  21
HETATM   21  C   UNL     1     -39.714 -54.541  14.138  1.00  0.00     0.142 C 
HETATM   22  C   UNL     1     -39.255 -54.695  15.581  1.00  0.00     0.041 C 
BRANCH  21  23
HETATM   23  O   UNL     1     -38.635 -54.940  13.294  1.00  0.00    -0.394 OA
HETATM   24  H   UNL     1     -37.881 -54.357  13.487  1.00  0.00     0.210 HD
ENDBRANCH  21  23
ENDBRANCH  20  21
ENDBRANCH  16  20
ENDBRANCH   6  13
BRANCH   2  25
HETATM   25  C   UNL     1     -40.747 -43.967  10.823  1.00  0.00     0.171 C 
BRANCH  25  26
HETATM   26  C   UNL     1     -42.158 -43.498  11.200  1.00  0.00     0.097 C 
HETATM   27  C   UNL     1     -42.432 -42.015  11.040  1.00  0.00     0.068 C 
HETATM   28  C   UNL     1     -43.491 -41.736  12.097  1.00  0.00     0.170 C 
HETATM   29  O   UNL     1     -43.394 -42.752  13.100  1.00  0.00    -0.388 OA
HETATM   30  C   UNL     1     -42.380 -43.684  12.702  1.00  0.00     0.207 C 
BRANCH  26  31
HETATM   31  O   UNL     1     -43.161 -44.238  10.494  1.00  0.00    -0.386 OA
HETATM   32  H   UNL     1     -43.953 -44.339  11.056  1.00  0.00     0.210 HD
ENDBRANCH  26  31
ENDBRANCH  25  26
ENDBRANCH   2  25
TORSDOF 7
ENDMDL
MODEL 4
REMARK VINA RESULT:      -6.5      1.629      8.474
REMARK  7 active torsions:
REMARK  status: ('A' for Active; 'I' for Inactive)
REMARK    1  A    between atoms: N_2  and  C_15 
REMARK    2  A    between atoms: C_6  and  N_7 
REMARK    3  A    between atoms: N_9  and  C_21 
REMARK    4  A    between atoms: C_15  and  C_16 
REMARK    5  A    between atoms: C_16  and  O_24 
REMARK    6  A    between atoms: C_21  and  C_26 
REMARK    7  A    between atoms: C_26  and  O_27 
ROOT
HETATM    1  C   UNL     1     -42.299 -49.864  12.809  1.00  0.00     0.122 A 
HETATM    2  N   UNL     1     -43.083 -50.994  14.505  1.00  0.00    -0.324 N 
HETATM    3  C   UNL     1     -42.306 -51.120  13.385  1.00  0.00     0.140 A 
HETATM    4  N   UNL     1     -43.076 -48.994  13.555  1.00  0.00    -0.346 N 
ATOM      5  HN  UNL     1     -43.266 -48.011  13.358  1.00  0.00     0.167 HD
HETATM    6  C   UNL     1     -41.523 -49.683  11.639  1.00  0.00     0.135 A 
HETATM    7  C   UNL     1     -43.517 -49.701  14.568  1.00  0.00     0.185 A 
HETATM    8  N   UNL     1     -41.675 -52.223  12.951  1.00  0.00    -0.336 N 
ATOM      9  HN  UNL     1     -41.739 -53.141  13.392  1.00  0.00     0.168 HD
HETATM   10  N   UNL     1     -40.828 -50.774  11.192  1.00  0.00    -0.337 N 
ATOM     11  HN  UNL     1     -40.228 -50.702  10.370  1.00  0.00     0.168 HD
HETATM   12  C   UNL     1     -40.946 -51.950  11.853  1.00  0.00     0.183 A 
ENDROOT
BRANCH   6  13
HETATM   13  N   UNL     1     -41.403 -48.449  10.985  1.00  0.00    -0.362 N 
HETATM   14  C   UNL     1     -42.654 -47.817  10.564  1.00  0.00     0.160 C 
HETATM   15  C   UNL     1     -42.336 -46.568   9.684  1.00  0.00     0.237 C 
HETATM   16  N   UNL     1     -41.450 -45.562  10.357  1.00  0.00     0.098 N 
HETATM   17  C   UNL     1     -43.601 -45.961   9.078  1.00  0.00     0.044 C 
HETATM   18  C   UNL     1     -40.198 -46.292  10.689  1.00  0.00     0.293 C 
HETATM   19  C   UNL     1     -40.396 -47.548  11.569  1.00  0.00     0.154 C 
BRANCH  16  20
HETATM   20  C   UNL     1     -42.060 -44.938  11.553  1.00  0.00     0.304 C 
BRANCH  20  21
HETATM   21  C   UNL     1     -41.852 -43.398  11.664  1.00  0.00     0.142 C 
HETATM   22  C   UNL     1     -43.168 -42.647  11.513  1.00  0.00     0.041 C 
BRANCH  21  23
HETATM   23  O   UNL     1     -40.954 -42.906  10.671  1.00  0.00    -0.394 OA
HETATM   24  H   UNL     1     -41.148 -43.377   9.842  1.00  0.00     0.210 HD
ENDBRANCH  21  23
ENDBRANCH  20  21
ENDBRANCH  16  20
ENDBRANCH   6  13
BRANCH   2  25
HETATM   25  C   UNL     1     -43.297 -52.001  15.522  1.00  0.00     0.171 C 
BRANCH  25  26
HETATM   26  C   UNL     1     -44.236 -53.140  15.105  1.00  0.00     0.097 C 
HETATM   27  C   UNL     1     -45.526 -52.726  14.424  1.00  0.00     0.068 C 
HETATM   28  C   UNL     1     -46.494 -53.840  14.796  1.00  0.00     0.170 C 
HETATM   29  O   UNL     1     -46.012 -54.467  15.989  1.00  0.00    -0.388 OA
HETATM   30  C   UNL     1     -44.768 -53.851  16.350  1.00  0.00     0.207 C 
BRANCH  26  31
HETATM   31  O   UNL     1     -43.561 -54.100  14.283  1.00  0.00    -0.386 OA
HETATM   32  H   UNL     1     -43.116 -54.762  14.846  1.00  0.00     0.210 HD
ENDBRANCH  26  31
ENDBRANCH  25  26
ENDBRANCH   2  25
TORSDOF 7
ENDMDL
MODEL 5
REMARK VINA RESULT:      -6.5      1.849      3.127
REMARK  7 active torsions:
REMARK  status: ('A' for Active; 'I' for Inactive)
REMARK    1  A    between atoms: N_2  and  C_15 
REMARK    2  A    between atoms: C_6  and  N_7 
REMARK    3  A    between atoms: N_9  and  C_21 
REMARK    4  A    between atoms: C_15  and  C_16 
REMARK    5  A    between atoms: C_16  and  O_24 
REMARK    6  A    between atoms: C_21  and  C_26 
REMARK    7  A    between atoms: C_26  and  O_27 
ROOT
HETATM    1  C   UNL     1     -41.850 -49.894  12.089  1.00  0.00     0.122 A 
HETATM    2  N   UNL     1     -42.021 -47.948  11.112  1.00  0.00    -0.324 N 
HETATM    3  C   UNL     1     -41.124 -48.944  11.396  1.00  0.00     0.140 A 
HETATM    4  N   UNL     1     -43.160 -49.474  12.243  1.00  0.00    -0.346 N 
ATOM      5  HN  UNL     1     -43.913 -49.964  12.727  1.00  0.00     0.167 HD
HETATM    6  C   UNL     1     -41.177 -51.077  12.477  1.00  0.00     0.135 A 
HETATM    7  C   UNL     1     -43.229 -48.314  11.635  1.00  0.00     0.185 A 
HETATM    8  N   UNL     1     -39.826 -48.990  11.058  1.00  0.00    -0.336 N 
ATOM      9  HN  UNL     1     -39.324 -48.245  10.576  1.00  0.00     0.168 HD
HETATM   10  N   UNL     1     -39.862 -51.182  12.110  1.00  0.00    -0.337 N 
ATOM     11  HN  UNL     1     -39.329 -52.022  12.335  1.00  0.00     0.168 HD
HETATM   12  C   UNL     1     -39.278 -50.157  11.445  1.00  0.00     0.183 A 
ENDROOT
BRANCH   6  13
HETATM   13  N   UNL     1     -41.811 -52.131  13.149  1.00  0.00    -0.362 N 
HETATM   14  C   UNL     1     -41.973 -51.972  14.595  1.00  0.00     0.160 C 
HETATM   15  C   UNL     1     -42.507 -53.304  15.209  1.00  0.00     0.237 C 
HETATM   16  N   UNL     1     -43.788 -53.783  14.596  1.00  0.00     0.098 N 
HETATM   17  C   UNL     1     -42.540 -53.254  16.736  1.00  0.00     0.044 C 
HETATM   18  C   UNL     1     -43.497 -53.963  13.149  1.00  0.00     0.293 C 
HETATM   19  C   UNL     1     -42.967 -52.698  12.434  1.00  0.00     0.154 C 
BRANCH  16  20
HETATM   20  C   UNL     1     -44.933 -52.871  14.820  1.00  0.00     0.304 C 
BRANCH  20  21
HETATM   21  C   UNL     1     -46.088 -53.006  13.784  1.00  0.00     0.142 C 
HETATM   22  C   UNL     1     -46.564 -51.642  13.302  1.00  0.00     0.041 C 
BRANCH  21  23
HETATM   23  O   UNL     1     -47.216 -53.692  14.326  1.00  0.00    -0.394 OA
HETATM   24  H   UNL     1     -47.622 -54.202  13.604  1.00  0.00     0.210 HD
ENDBRANCH  21  23
ENDBRANCH  20  21
ENDBRANCH  16  20
ENDBRANCH   6  13
BRANCH   2  25
HETATM   25  C   UNL     1     -41.783 -46.784  10.289  1.00  0.00     0.171 C 
BRANCH  25  26
HETATM   26  C   UNL     1     -41.238 -45.565  11.046  1.00  0.00     0.097 C 
HETATM   27  C   UNL     1     -42.229 -44.450  11.315  1.00  0.00     0.068 C 
HETATM   28  C   UNL     1     -41.357 -43.204  11.355  1.00  0.00     0.170 C 
HETATM   29  O   UNL     1     -40.157 -43.480  10.625  1.00  0.00    -0.388 OA
HETATM   30  C   UNL     1     -40.201 -44.844  10.184  1.00  0.00     0.207 C 
BRANCH  26  31
HETATM   31  O   UNL     1     -40.620 -45.950  12.280  1.00  0.00    -0.386 OA
HETATM   32  H   UNL     1     -41.162 -46.628  12.723  1.00  0.00     0.210 HD
ENDBRANCH  26  31
ENDBRANCH  25  26
ENDBRANCH   2  25
TORSDOF 7
ENDMDL
MODEL 6
REMARK VINA RESULT:      -6.5      2.987      4.174
REMARK  7 active torsions:
REMARK  status: ('A' for Active; 'I' for Inactive)
REMARK    1  A    between atoms: N_2  and  C_15 
REMARK    2  A    between atoms: C_6  and  N_7 
REMARK    3  A    between atoms: N_9  and  C_21 
REMARK    4  A    between atoms: C_15  and  C_16 
REMARK    5  A    between atoms: C_16  and  O_24 
REMARK    6  A    between atoms: C_21  and  C_26 
REMARK    7  A    between atoms: C_26  and  O_27 
ROOT
HETATM    1  C   UNL     1     -40.141 -50.540  12.650  1.00  0.00     0.122 A 
HETATM    2  N   UNL     1     -41.253 -49.141  11.394  1.00  0.00    -0.324 N 
HETATM    3  C   UNL     1     -39.985 -49.578  11.670  1.00  0.00     0.140 A 
HETATM    4  N   UNL     1     -41.480 -50.670  12.981  1.00  0.00    -0.346 N 
ATOM      5  HN  UNL     1     -41.885 -51.289  13.683  1.00  0.00     0.167 HD
HETATM    6  C   UNL     1     -38.979 -51.207  13.104  1.00  0.00     0.135 A 
HETATM    7  C   UNL     1     -42.115 -49.828  12.200  1.00  0.00     0.185 A 
HETATM    8  N   UNL     1     -38.841 -49.170  11.098  1.00  0.00    -0.336 N 
ATOM      9  HN  UNL     1     -38.772 -48.429  10.401  1.00  0.00     0.168 HD
HETATM   10  N   UNL     1     -37.798 -50.851  12.511  1.00  0.00    -0.337 N 
ATOM     11  HN  UNL     1     -36.928 -51.316  12.773  1.00  0.00     0.168 HD
HETATM   12  C   UNL     1     -37.798 -49.876  11.572  1.00  0.00     0.183 A 
ENDROOT
BRANCH   6  13
HETATM   13  N   UNL     1     -39.010 -52.228  14.064  1.00  0.00    -0.362 N 
HETATM   14  C   UNL     1     -39.344 -51.820  15.430  1.00  0.00     0.160 C 
HETATM   15  C   UNL     1     -39.139 -53.026  16.399  1.00  0.00     0.237 C 
HETATM   16  N   UNL     1     -39.920 -54.248  16.019  1.00  0.00     0.098 N 
HETATM   17  C   UNL     1     -39.313 -52.618  17.861  1.00  0.00     0.044 C 
HETATM   18  C   UNL     1     -39.466 -54.604  14.648  1.00  0.00     0.293 C 
HETATM   19  C   UNL     1     -39.632 -53.479  13.600  1.00  0.00     0.154 C 
BRANCH  16  20
HETATM   20  C   UNL     1     -41.388 -54.060  16.083  1.00  0.00     0.304 C 
BRANCH  20  21
HETATM   21  C   UNL     1     -42.225 -55.269  15.570  1.00  0.00     0.142 C 
HETATM   22  C   UNL     1     -43.431 -54.807  14.763  1.00  0.00     0.041 C 
BRANCH  21  23
HETATM   23  O   UNL     1     -42.704 -56.082  16.641  1.00  0.00    -0.394 OA
HETATM   24  H   UNL     1     -42.434 -56.998  16.456  1.00  0.00     0.210 HD
ENDBRANCH  21  23
ENDBRANCH  20  21
ENDBRANCH  16  20
ENDBRANCH   6  13
BRANCH   2  25
HETATM   25  C   UNL     1     -41.639 -48.223  10.345  1.00  0.00     0.171 C 
BRANCH  25  26
HETATM   26  C   UNL     1     -41.350 -46.747  10.649  1.00  0.00     0.097 C 
HETATM   27  C   UNL     1     -41.590 -46.301  12.078  1.00  0.00     0.068 C 
HETATM   28  C   UNL     1     -41.951 -44.830  11.933  1.00  0.00     0.170 C 
HETATM   29  O   UNL     1     -42.433 -44.621  10.602  1.00  0.00    -0.388 OA
HETATM   30  C   UNL     1     -42.338 -45.861   9.888  1.00  0.00     0.207 C 
BRANCH  26  31
HETATM   31  O   UNL     1     -40.019 -46.384  10.263  1.00  0.00    -0.386 OA
HETATM   32  H   UNL     1     -39.385 -47.040  10.608  1.00  0.00     0.210 HD
ENDBRANCH  26  31
ENDBRANCH  25  26
ENDBRANCH   2  25
TORSDOF 7
ENDMDL
MODEL 7
REMARK VINA RESULT:      -6.5      1.387      8.766
REMARK  7 active torsions:
REMARK  status: ('A' for Active; 'I' for Inactive)
REMARK    1  A    between atoms: N_2  and  C_15 
REMARK    2  A    between atoms: C_6  and  N_7 
REMARK    3  A    between atoms: N_9  and  C_21 
REMARK    4  A    between atoms: C_15  and  C_16 
REMARK    5  A    between atoms: C_16  and  O_24 
REMARK    6  A    between atoms: C_21  and  C_26 
REMARK    7  A    between atoms: C_26  and  O_27 
ROOT
HETATM    1  C   UNL     1     -42.083 -50.144  12.657  1.00  0.00     0.122 A 
HETATM    2  N   UNL     1     -42.321 -52.223  13.284  1.00  0.00    -0.324 N 
HETATM    3  C   UNL     1     -42.489 -50.934  13.715  1.00  0.00     0.140 A 
HETATM    4  N   UNL     1     -41.655 -50.939  11.606  1.00  0.00    -0.346 N 
ATOM      5  HN  UNL     1     -41.285 -50.630  10.707  1.00  0.00     0.167 HD
HETATM    6  C   UNL     1     -42.191 -48.741  12.806  1.00  0.00     0.135 A 
HETATM    7  C   UNL     1     -41.824 -52.175  12.013  1.00  0.00     0.185 A 
HETATM    8  N   UNL     1     -42.961 -50.528  14.905  1.00  0.00    -0.336 N 
ATOM      9  HN  UNL     1     -43.216 -51.151  15.672  1.00  0.00     0.168 HD
HETATM   10  N   UNL     1     -42.713 -48.290  13.988  1.00  0.00    -0.337 N 
ATOM     11  HN  UNL     1     -42.844 -47.291  14.147  1.00  0.00     0.168 HD
HETATM   12  C   UNL     1     -43.052 -49.186  14.945  1.00  0.00     0.183 A 
ENDROOT
BRANCH   6  13
HETATM   13  N   UNL     1     -41.849 -47.837  11.791  1.00  0.00    -0.362 N 
HETATM   14  C   UNL     1     -42.957 -47.097  11.183  1.00  0.00     0.160 C 
HETATM   15  C   UNL     1     -42.434 -46.296   9.950  1.00  0.00     0.237 C 
HETATM   16  N   UNL     1     -41.303 -45.364  10.268  1.00  0.00     0.098 N 
HETATM   17  C   UNL     1     -43.573 -45.634   9.176  1.00  0.00     0.044 C 
HETATM   18  C   UNL     1     -40.221 -46.221  10.822  1.00  0.00     0.293 C 
HETATM   19  C   UNL     1     -40.629 -47.057  12.058  1.00  0.00     0.154 C 
BRANCH  16  20
HETATM   20  C   UNL     1     -41.674 -44.273  11.198  1.00  0.00     0.304 C 
BRANCH  20  21
HETATM   21  C   UNL     1     -40.747 -43.023  11.142  1.00  0.00     0.142 C 
HETATM   22  C   UNL     1     -40.317 -42.588  12.536  1.00  0.00     0.041 C 
BRANCH  21  23
HETATM   23  O   UNL     1     -41.385 -41.910  10.517  1.00  0.00    -0.394 OA
HETATM   24  H   UNL     1     -42.337 -42.106  10.472  1.00  0.00     0.210 HD
ENDBRANCH  21  23
ENDBRANCH  20  21
ENDBRANCH  16  20
ENDBRANCH   6  13
BRANCH   2  25
HETATM   25  C   UNL     1     -42.725 -53.423  13.982  1.00  0.00     0.171 C 
BRANCH  25  26
HETATM   26  C   UNL     1     -44.142 -53.909  13.651  1.00  0.00     0.097 C 
HETATM   27  C   UNL     1     -45.273 -52.970  14.026  1.00  0.00     0.068 C 
HETATM   28  C   UNL     1     -46.439 -53.910  14.290  1.00  0.00     0.170 C 
HETATM   29  O   UNL     1     -45.906 -55.200  14.610  1.00  0.00    -0.388 OA
HETATM   30  C   UNL     1     -44.478 -55.136  14.500  1.00  0.00     0.207 C 
BRANCH  26  31
HETATM   31  O   UNL     1     -44.266 -54.261  12.269  1.00  0.00    -0.386 OA
HETATM   32  H   UNL     1     -43.712 -55.041  12.076  1.00  0.00     0.210 HD
ENDBRANCH  26  31
ENDBRANCH  25  26
ENDBRANCH   2  25
TORSDOF 7
ENDMDL
MODEL 8
REMARK VINA RESULT:      -6.5      2.912      8.763
REMARK  7 active torsions:
REMARK  status: ('A' for Active; 'I' for Inactive)
REMARK    1  A    between atoms: N_2  and  C_15 
REMARK    2  A    between atoms: C_6  and  N_7 
REMARK    3  A    between atoms: N_9  and  C_21 
REMARK    4  A    between atoms: C_15  and  C_16 
REMARK    5  A    between atoms: C_16  and  O_24 
REMARK    6  A    between atoms: C_21  and  C_26 
REMARK    7  A    between atoms: C_26  and  O_27 
ROOT
HETATM    1  C   UNL     1     -41.985 -52.607  13.569  1.00  0.00     0.122 A 
HETATM    2  N   UNL     1     -43.820 -53.763  13.311  1.00  0.00    -0.324 N 
HETATM    3  C   UNL     1     -42.614 -53.774  13.960  1.00  0.00     0.140 A 
HETATM    4  N   UNL     1     -42.786 -51.909  12.680  1.00  0.00    -0.346 N 
ATOM      5  HN  UNL     1     -42.570 -51.026  12.216  1.00  0.00     0.167 HD
HETATM    6  C   UNL     1     -40.716 -52.327  14.130  1.00  0.00     0.135 A 
HETATM    7  C   UNL     1     -43.879 -52.624  12.561  1.00  0.00     0.185 A 
HETATM    8  N   UNL     1     -42.153 -54.709  14.806  1.00  0.00    -0.336 N 
ATOM      9  HN  UNL     1     -42.640 -55.574  15.037  1.00  0.00     0.168 HD
HETATM   10  N   UNL     1     -40.232 -53.235  15.033  1.00  0.00    -0.337 N 
ATOM     11  HN  UNL     1     -39.337 -53.076  15.494  1.00  0.00     0.168 HD
HETATM   12  C   UNL     1     -40.957 -54.345  15.305  1.00  0.00     0.183 A 
ENDROOT
BRANCH   6  13
HETATM   13  N   UNL     1     -39.996 -51.159  13.843  1.00  0.00    -0.362 N 
HETATM   14  C   UNL     1     -39.307 -51.125  12.553  1.00  0.00     0.160 C 
HETATM   15  C   UNL     1     -38.400 -49.856  12.480  1.00  0.00     0.237 C 
HETATM   16  N   UNL     1     -39.136 -48.570  12.707  1.00  0.00     0.098 N 
HETATM   17  C   UNL     1     -37.529 -49.850  11.224  1.00  0.00     0.044 C 
HETATM   18  C   UNL     1     -39.746 -48.691  14.058  1.00  0.00     0.293 C 
HETATM   19  C   UNL     1     -40.676 -49.914  14.240  1.00  0.00     0.154 C 
BRANCH  16  20
HETATM   20  C   UNL     1     -40.148 -48.273  11.668  1.00  0.00     0.304 C 
BRANCH  20  21
HETATM   21  C   UNL     1     -40.456 -46.759  11.469  1.00  0.00     0.142 C 
HETATM   22  C   UNL     1     -41.955 -46.489  11.499  1.00  0.00     0.041 C 
BRANCH  21  23
HETATM   23  O   UNL     1     -39.950 -46.268  10.229  1.00  0.00    -0.394 OA
HETATM   24  H   UNL     1     -39.978 -47.001   9.591  1.00  0.00     0.210 HD
ENDBRANCH  21  23
ENDBRANCH  20  21
ENDBRANCH  16  20
ENDBRANCH   6  13
BRANCH   2  25
HETATM   25  C   UNL     1     -44.901 -54.707  13.488  1.00  0.00     0.171 C 
BRANCH  25  26
HETATM   26  C   UNL     1     -46.011 -54.237  14.437  1.00  0.00     0.097 C 
HETATM   27  C   UNL     1     -46.664 -52.912  14.096  1.00  0.00     0.068 C 
HETATM   28  C   UNL     1     -47.100 -52.373  15.450  1.00  0.00     0.170 C 
HETATM   29  O   UNL     1     -46.291 -52.994  16.455  1.00  0.00    -0.388 OA
HETATM   30  C   UNL     1     -45.418 -53.933  15.814  1.00  0.00     0.207 C 
BRANCH  26  31
HETATM   31  O   UNL     1     -47.028 -55.235  14.588  1.00  0.00    -0.386 OA
HETATM   32  H   UNL     1     -46.800 -56.021  14.058  1.00  0.00     0.210 HD
ENDBRANCH  26  31
ENDBRANCH  25  26
ENDBRANCH   2  25
TORSDOF 7
ENDMDL
MODEL 9
REMARK VINA RESULT:      -6.5      2.029      8.828
REMARK  7 active torsions:
REMARK  status: ('A' for Active; 'I' for Inactive)
REMARK    1  A    between atoms: N_2  and  C_15 
REMARK    2  A    between atoms: C_6  and  N_7 
REMARK    3  A    between atoms: N_9  and  C_21 
REMARK    4  A    between atoms: C_15  and  C_16 
REMARK    5  A    between atoms: C_16  and  O_24 
REMARK    6  A    between atoms: C_21  and  C_26 
REMARK    7  A    between atoms: C_26  and  O_27 
ROOT
HETATM    1  C   UNL     1     -42.990 -51.059  12.620  1.00  0.00     0.122 A 
HETATM    2  N   UNL     1     -44.331 -52.782  12.669  1.00  0.00    -0.324 N 
HETATM    3  C   UNL     1     -43.021 -52.432  12.476  1.00  0.00     0.140 A 
HETATM    4  N   UNL     1     -44.264 -50.578  12.876  1.00  0.00    -0.346 N 
ATOM      5  HN  UNL     1     -44.542 -49.605  13.008  1.00  0.00     0.167 HD
HETATM    6  C   UNL     1     -41.733 -50.416  12.515  1.00  0.00     0.135 A 
HETATM    7  C   UNL     1     -45.036 -51.638  12.911  1.00  0.00     0.185 A 
HETATM    8  N   UNL     1     -41.989 -53.252  12.218  1.00  0.00    -0.336 N 
ATOM      9  HN  UNL     1     -42.067 -54.260  12.084  1.00  0.00     0.168 HD
HETATM   10  N   UNL     1     -40.650 -51.224  12.299  1.00  0.00    -0.337 N 
ATOM     11  HN  UNL     1     -39.713 -50.826  12.242  1.00  0.00     0.168 HD
HETATM   12  C   UNL     1     -40.837 -52.558  12.161  1.00  0.00     0.183 A 
ENDROOT
BRANCH   6  13
HETATM   13  N   UNL     1     -41.566 -49.035  12.681  1.00  0.00    -0.362 N 
HETATM   14  C   UNL     1     -40.209 -48.579  12.985  1.00  0.00     0.160 C 
HETATM   15  C   UNL     1     -40.235 -47.058  13.336  1.00  0.00     0.237 C 
HETATM   16  N   UNL     1     -40.840 -46.201  12.265  1.00  0.00     0.098 N 
HETATM   17  C   UNL     1     -38.874 -46.562  13.822  1.00  0.00     0.044 C 
HETATM   18  C   UNL     1     -42.224 -46.711  12.077  1.00  0.00     0.293 C 
HETATM   19  C   UNL     1     -42.316 -48.212  11.717  1.00  0.00     0.154 C 
BRANCH  16  20
HETATM   20  C   UNL     1     -40.074 -46.202  10.998  1.00  0.00     0.304 C 
BRANCH  20  21
HETATM   21  C   UNL     1     -39.550 -44.805  10.550  1.00  0.00     0.142 C 
HETATM   22  C   UNL     1     -40.427 -43.683  11.090  1.00  0.00     0.041 C 
BRANCH  21  23
HETATM   23  O   UNL     1     -39.508 -44.679   9.129  1.00  0.00    -0.394 OA
HETATM   24  H   UNL     1     -38.621 -44.951   8.838  1.00  0.00     0.210 HD
ENDBRANCH  21  23
ENDBRANCH  20  21
ENDBRANCH  16  20
ENDBRANCH   6  13
BRANCH   2  25
HETATM   25  C   UNL     1     -44.861 -54.125  12.747  1.00  0.00     0.171 C 
BRANCH  25  26
HETATM   26  C   UNL     1     -45.351 -54.539  14.141  1.00  0.00     0.097 C 
HETATM   27  C   UNL     1     -46.119 -53.487  14.917  1.00  0.00     0.068 C 
HETATM   28  C   UNL     1     -45.825 -53.835  16.369  1.00  0.00     0.170 C 
HETATM   29  O   UNL     1     -44.605 -54.583  16.407  1.00  0.00    -0.388 OA
HETATM   30  C   UNL     1     -44.152 -54.775  15.061  1.00  0.00     0.207 C 
BRANCH  26  31
HETATM   31  O   UNL     1     -46.129 -55.741  14.086  1.00  0.00    -0.386 OA
HETATM   32  H   UNL     1     -45.897 -56.248  13.286  1.00  0.00     0.210 HD
ENDBRANCH  26  31
ENDBRANCH  25  26
ENDBRANCH   2  25
TORSDOF 7
ENDMDL
