MODEL 1
REMARK VINA RESULT:      -5.9      0.000      0.000
REMARK  5 active torsions:
REMARK  status: ('A' for Active; 'I' for Inactive)
REMARK    1  A    between atoms: C_2  and  N_3 
REMARK    2  A    between atoms: C_2  and  C_16 
REMARK       I    between atoms: N_3  and  C_4 
REMARK       I    between atoms: C_4  and  N_6 
REMARK    3  A    between atoms: N_6  and  C_7 
REMARK    4  A    between atoms: C_7  and  C_8 
REMARK    5  A    between atoms: C_8  and  C_9 
ROOT
HETATM    1  N   UNL     1     -42.856 -52.020  12.388  1.00  0.00    -0.336 N 
HETATM    2  C   UNL     1     -41.866 -51.095  12.592  1.00  0.00     0.316 C 
HETATM    3  O   UNL     1     -41.332 -50.888  13.674  1.00  0.00    -0.247 OA
HETATM    4  N   UNL     1     -41.523 -50.452  11.428  1.00  0.00    -0.343 N 
HETATM    5  H   UNL     1     -43.509 -51.789  11.652  1.00  0.00     0.164 HD
HETATM    6  H   UNL     1     -41.730 -50.959  10.576  1.00  0.00     0.164 HD
ENDROOT
BRANCH   1   7
HETATM    7  C   UNL     1     -43.403 -52.811  13.496  1.00  0.00     0.111 C 
HETATM    8  C   UNL     1     -42.836 -54.228  13.404  1.00  0.00     0.035 C 
BRANCH   7   9
HETATM    9  C   UNL     1     -44.949 -52.776  13.494  1.00  0.00     0.143 C 
HETATM   10  C   UNL     1     -45.564 -51.381  13.419  1.00  0.00     0.036 C 
HETATM   11  C   UNL     1     -46.788 -51.444  14.310  1.00  0.00     0.029 C 
HETATM   12  C   UNL     1     -46.815 -52.864  14.833  1.00  0.00     0.168 C 
HETATM   13  O   UNL     1     -45.479 -53.360  14.701  1.00  0.00    -0.384 OA
ENDBRANCH   7   9
ENDBRANCH   1   7
BRANCH   4  14
HETATM   14  C   UNL     1     -40.333 -49.617  11.404  1.00  0.00     0.130 C 
BRANCH  14  15
HETATM   15  C   UNL     1     -40.634 -48.119  11.398  1.00  0.00     0.077 C 
BRANCH  15  16
HETATM   16  C   UNL     1     -41.882 -47.775  10.644  1.00  0.00     0.018 A 
HETATM   17  C   UNL     1     -43.008 -47.155  11.153  1.00  0.00     0.076 A 
HETATM   18  S   UNL     1     -44.201 -47.005   9.934  1.00  0.00    -0.087 SA
HETATM   19  C   UNL     1     -43.142 -47.768   8.819  1.00  0.00     0.046 A 
HETATM   20  C   UNL     1     -43.575 -48.022   7.417  1.00  0.00     0.076 C 
HETATM   21  N   UNL     1     -41.961 -48.102   9.298  1.00  0.00    -0.357 N 
ATOM     22  HN  UNL     1     -41.213 -48.538   8.757  1.00  0.00     0.166 HD
ENDBRANCH  15  16
ENDBRANCH  14  15
ENDBRANCH   4  14
TORSDOF 5
ENDMDL
MODEL 2
REMARK VINA RESULT:      -5.7      2.451      6.025
REMARK  5 active torsions:
REMARK  status: ('A' for Active; 'I' for Inactive)
REMARK    1  A    between atoms: C_2  and  N_3 
REMARK    2  A    between atoms: C_2  and  C_16 
REMARK       I    between atoms: N_3  and  C_4 
REMARK       I    between atoms: C_4  and  N_6 
REMARK    3  A    between atoms: N_6  and  C_7 
REMARK    4  A    between atoms: C_7  and  C_8 
REMARK    5  A    between atoms: C_8  and  C_9 
ROOT
HETATM    1  N   UNL     1     -41.879 -49.427  11.120  1.00  0.00    -0.336 N 
HETATM    2  C   UNL     1     -41.187 -50.301  11.916  1.00  0.00     0.316 C 
HETATM    3  O   UNL     1     -40.568 -49.972  12.921  1.00  0.00    -0.247 OA
HETATM    4  N   UNL     1     -41.299 -51.594  11.469  1.00  0.00    -0.343 N 
HETATM    5  H   UNL     1     -41.932 -49.690  10.145  1.00  0.00     0.164 HD
HETATM    6  H   UNL     1     -42.117 -51.788  10.903  1.00  0.00     0.164 HD
ENDROOT
BRANCH   1   7
HETATM    7  C   UNL     1     -41.881 -47.985  11.390  1.00  0.00     0.111 C 
HETATM    8  C   UNL     1     -42.908 -47.700  12.486  1.00  0.00     0.035 C 
BRANCH   7   9
HETATM    9  C   UNL     1     -42.138 -47.178  10.095  1.00  0.00     0.143 C 
HETATM   10  C   UNL     1     -42.846 -45.841  10.297  1.00  0.00     0.036 C 
HETATM   11  C   UNL     1     -43.773 -45.706   9.107  1.00  0.00     0.029 C 
HETATM   12  C   UNL     1     -43.540 -46.955   8.287  1.00  0.00     0.168 C 
HETATM   13  O   UNL     1     -42.977 -47.917   9.185  1.00  0.00    -0.384 OA
ENDBRANCH   7   9
ENDBRANCH   1   7
BRANCH   4  14
HETATM   14  C   UNL     1     -40.835 -52.680  12.318  1.00  0.00     0.130 C 
BRANCH  14  15
HETATM   15  C   UNL     1     -41.961 -53.566  12.850  1.00  0.00     0.077 C 
BRANCH  15  16
HETATM   16  C   UNL     1     -43.168 -52.788  13.277  1.00  0.00     0.018 A 
HETATM   17  C   UNL     1     -43.321 -52.086  14.458  1.00  0.00     0.076 A 
HETATM   18  S   UNL     1     -44.884 -51.390  14.532  1.00  0.00    -0.087 SA
HETATM   19  C   UNL     1     -45.244 -52.063  12.994  1.00  0.00     0.046 A 
HETATM   20  C   UNL     1     -46.586 -51.865  12.378  1.00  0.00     0.076 C 
HETATM   21  N   UNL     1     -44.269 -52.749  12.433  1.00  0.00    -0.357 N 
ATOM     22  HN  UNL     1     -44.317 -53.188  11.513  1.00  0.00     0.166 HD
ENDBRANCH  15  16
ENDBRANCH  14  15
ENDBRANCH   4  14
TORSDOF 5
ENDMDL
MODEL 3
REMARK VINA RESULT:      -5.7      2.751      6.657
REMARK  5 active torsions:
REMARK  status: ('A' for Active; 'I' for Inactive)
REMARK    1  A    between atoms: C_2  and  N_3 
REMARK    2  A    between atoms: C_2  and  C_16 
REMARK       I    between atoms: N_3  and  C_4 
REMARK       I    between atoms: C_4  and  N_6 
REMARK    3  A    between atoms: N_6  and  C_7 
REMARK    4  A    between atoms: C_7  and  C_8 
REMARK    5  A    between atoms: C_8  and  C_9 
ROOT
HETATM    1  N   UNL     1     -42.065 -48.293  10.263  1.00  0.00    -0.336 N 
HETATM    2  C   UNL     1     -42.104 -49.032  11.416  1.00  0.00     0.316 C 
HETATM    3  O   UNL     1     -42.908 -48.851  12.322  1.00  0.00    -0.247 OA
HETATM    4  N   UNL     1     -41.154 -50.024  11.416  1.00  0.00    -0.343 N 
HETATM    5  H   UNL     1     -41.148 -48.203   9.846  1.00  0.00     0.164 HD
HETATM    6  H   UNL     1     -40.836 -50.321  10.501  1.00  0.00     0.164 HD
ENDROOT
BRANCH   1   7
HETATM    7  C   UNL     1     -42.972 -47.159  10.051  1.00  0.00     0.111 C 
HETATM    8  C   UNL     1     -43.412 -47.161   8.587  1.00  0.00     0.035 C 
BRANCH   7   9
HETATM    9  C   UNL     1     -42.311 -45.830  10.484  1.00  0.00     0.143 C 
HETATM   10  C   UNL     1     -40.788 -45.801  10.379  1.00  0.00     0.036 C 
HETATM   11  C   UNL     1     -40.328 -45.000  11.580  1.00  0.00     0.029 C 
HETATM   12  C   UNL     1     -41.601 -44.606  12.296  1.00  0.00     0.168 C 
HETATM   13  O   UNL     1     -42.601 -45.535  11.866  1.00  0.00    -0.384 OA
ENDBRANCH   7   9
ENDBRANCH   1   7
BRANCH   4  14
HETATM   14  C   UNL     1     -41.205 -51.053  12.442  1.00  0.00     0.130 C 
BRANCH  14  15
HETATM   15  C   UNL     1     -41.751 -52.390  11.942  1.00  0.00     0.077 C 
BRANCH  15  16
HETATM   16  C   UNL     1     -43.073 -52.747  12.548  1.00  0.00     0.018 A 
HETATM   17  C   UNL     1     -43.445 -53.983  13.046  1.00  0.00     0.076 A 
HETATM   18  S   UNL     1     -45.065 -53.932  13.600  1.00  0.00    -0.087 SA
HETATM   19  C   UNL     1     -45.157 -52.279  13.146  1.00  0.00     0.046 A 
HETATM   20  C   UNL     1     -46.420 -51.513  13.332  1.00  0.00     0.076 C 
HETATM   21  N   UNL     1     -44.055 -51.770  12.632  1.00  0.00    -0.357 N 
ATOM     22  HN  UNL     1     -43.941 -50.800  12.338  1.00  0.00     0.166 HD
ENDBRANCH  15  16
ENDBRANCH  14  15
ENDBRANCH   4  14
TORSDOF 5
ENDMDL
MODEL 4
REMARK VINA RESULT:      -5.7      1.485      1.962
REMARK  5 active torsions:
REMARK  status: ('A' for Active; 'I' for Inactive)
REMARK    1  A    between atoms: C_2  and  N_3 
REMARK    2  A    between atoms: C_2  and  C_16 
REMARK       I    between atoms: N_3  and  C_4 
REMARK       I    between atoms: C_4  and  N_6 
REMARK    3  A    between atoms: N_6  and  C_7 
REMARK    4  A    between atoms: C_7  and  C_8 
REMARK    5  A    between atoms: C_8  and  C_9 
ROOT
HETATM    1  N   UNL     1     -44.357 -51.162  12.917  1.00  0.00    -0.336 N 
HETATM    2  C   UNL     1     -43.052 -51.474  12.638  1.00  0.00     0.316 C 
HETATM    3  O   UNL     1     -42.608 -52.615  12.615  1.00  0.00    -0.247 OA
HETATM    4  N   UNL     1     -42.311 -50.353  12.353  1.00  0.00    -0.343 N 
HETATM    5  H   UNL     1     -44.494 -50.262  13.356  1.00  0.00     0.164 HD
HETATM    6  H   UNL     1     -42.841 -49.555  12.022  1.00  0.00     0.164 HD
ENDROOT
BRANCH   1   7
HETATM    7  C   UNL     1     -45.330 -52.199  13.276  1.00  0.00     0.111 C 
HETATM    8  C   UNL     1     -46.574 -52.016  12.407  1.00  0.00     0.035 C 
BRANCH   7   9
HETATM    9  C   UNL     1     -45.640 -52.169  14.791  1.00  0.00     0.143 C 
HETATM   10  C   UNL     1     -47.113 -52.342  15.153  1.00  0.00     0.036 C 
HETATM   11  C   UNL     1     -47.337 -51.420  16.335  1.00  0.00     0.029 C 
HETATM   12  C   UNL     1     -45.989 -50.784  16.593  1.00  0.00     0.168 C 
HETATM   13  O   UNL     1     -45.254 -50.906  15.371  1.00  0.00    -0.384 OA
ENDBRANCH   7   9
ENDBRANCH   1   7
BRANCH   4  14
HETATM   14  C   UNL     1     -40.975 -50.509  11.800  1.00  0.00     0.130 C 
BRANCH  14  15
HETATM   15  C   UNL     1     -40.317 -49.187  11.406  1.00  0.00     0.077 C 
BRANCH  15  16
HETATM   16  C   UNL     1     -41.278 -48.208  10.806  1.00  0.00     0.018 A 
HETATM   17  C   UNL     1     -41.619 -46.969  11.316  1.00  0.00     0.076 A 
HETATM   18  S   UNL     1     -42.788 -46.220  10.313  1.00  0.00    -0.087 SA
HETATM   19  C   UNL     1     -42.758 -47.587   9.275  1.00  0.00     0.046 A 
HETATM   20  C   UNL     1     -43.642 -47.648   8.078  1.00  0.00     0.076 C 
HETATM   21  N   UNL     1     -41.921 -48.544   9.622  1.00  0.00    -0.357 N 
ATOM     22  HN  UNL     1     -41.767 -49.406   9.098  1.00  0.00     0.166 HD
ENDBRANCH  15  16
ENDBRANCH  14  15
ENDBRANCH   4  14
TORSDOF 5
ENDMDL
MODEL 5
REMARK VINA RESULT:      -5.5      1.353      1.476
REMARK  5 active torsions:
REMARK  status: ('A' for Active; 'I' for Inactive)
REMARK    1  A    between atoms: C_2  and  N_3 
REMARK    2  A    between atoms: C_2  and  C_16 
REMARK       I    between atoms: N_3  and  C_4 
REMARK       I    between atoms: C_4  and  N_6 
REMARK    3  A    between atoms: N_6  and  C_7 
REMARK    4  A    between atoms: C_7  and  C_8 
REMARK    5  A    between atoms: C_8  and  C_9 
ROOT
HETATM    1  N   UNL     1     -42.860 -52.102  12.547  1.00  0.00    -0.336 N 
HETATM    2  C   UNL     1     -42.428 -50.828  12.805  1.00  0.00     0.316 C 
HETATM    3  O   UNL     1     -42.291 -50.363  13.929  1.00  0.00    -0.247 OA
HETATM    4  N   UNL     1     -42.136 -50.147  11.648  1.00  0.00    -0.343 N 
HETATM    5  H   UNL     1     -43.365 -52.213  11.678  1.00  0.00     0.164 HD
HETATM    6  H   UNL     1     -41.911 -50.727  10.849  1.00  0.00     0.164 HD
ENDROOT
BRANCH   1   7
HETATM    7  C   UNL     1     -43.257 -53.008  13.631  1.00  0.00     0.111 C 
HETATM    8  C   UNL     1     -42.364 -54.249  13.574  1.00  0.00     0.035 C 
BRANCH   7   9
HETATM    9  C   UNL     1     -44.764 -53.343  13.552  1.00  0.00     0.143 C 
HETATM   10  C   UNL     1     -45.701 -52.208  13.956  1.00  0.00     0.036 C 
HETATM   11  C   UNL     1     -46.841 -52.883  14.691  1.00  0.00     0.029 C 
HETATM   12  C   UNL     1     -46.507 -54.358  14.657  1.00  0.00     0.168 C 
HETATM   13  O   UNL     1     -45.096 -54.438  14.430  1.00  0.00    -0.384 OA
ENDBRANCH   7   9
ENDBRANCH   1   7
BRANCH   4  14
HETATM   14  C   UNL     1     -41.438 -48.874  11.733  1.00  0.00     0.130 C 
BRANCH  14  15
HETATM   15  C   UNL     1     -42.357 -47.690  12.031  1.00  0.00     0.077 C 
BRANCH  15  16
HETATM   16  C   UNL     1     -43.150 -47.249  10.840  1.00  0.00     0.018 A 
HETATM   17  C   UNL     1     -42.858 -46.188  10.002  1.00  0.00     0.076 A 
HETATM   18  S   UNL     1     -44.069 -46.034   8.801  1.00  0.00    -0.087 SA
HETATM   19  C   UNL     1     -44.891 -47.384   9.473  1.00  0.00     0.046 A 
HETATM   20  C   UNL     1     -46.180 -47.851   8.891  1.00  0.00     0.076 C 
HETATM   21  N   UNL     1     -44.307 -47.942  10.514  1.00  0.00    -0.357 N 
ATOM     22  HN  UNL     1     -44.655 -48.765  11.008  1.00  0.00     0.166 HD
ENDBRANCH  15  16
ENDBRANCH  14  15
ENDBRANCH   4  14
TORSDOF 5
ENDMDL
MODEL 6
REMARK VINA RESULT:      -5.5      3.781      6.293
REMARK  5 active torsions:
REMARK  status: ('A' for Active; 'I' for Inactive)
REMARK    1  A    between atoms: C_2  and  N_3 
REMARK    2  A    between atoms: C_2  and  C_16 
REMARK       I    between atoms: N_3  and  C_4 
REMARK       I    between atoms: C_4  and  N_6 
REMARK    3  A    between atoms: N_6  and  C_7 
REMARK    4  A    between atoms: C_7  and  C_8 
REMARK    5  A    between atoms: C_8  and  C_9 
ROOT
HETATM    1  N   UNL     1     -41.969 -47.520   9.488  1.00  0.00    -0.336 N 
HETATM    2  C   UNL     1     -41.480 -48.021  10.666  1.00  0.00     0.316 C 
HETATM    3  O   UNL     1     -42.006 -48.929  11.298  1.00  0.00    -0.247 OA
HETATM    4  N   UNL     1     -40.310 -47.403  11.035  1.00  0.00    -0.343 N 
HETATM    5  H   UNL     1     -41.764 -46.544   9.324  1.00  0.00     0.164 HD
HETATM    6  H   UNL     1     -39.786 -46.979  10.278  1.00  0.00     0.164 HD
ENDROOT
BRANCH   1   7
HETATM    7  C   UNL     1     -43.226 -48.011   8.913  1.00  0.00     0.111 C 
HETATM    8  C   UNL     1     -43.107 -47.969   7.389  1.00  0.00     0.035 C 
BRANCH   7   9
HETATM    9  C   UNL     1     -44.434 -47.207   9.449  1.00  0.00     0.143 C 
HETATM   10  C   UNL     1     -45.763 -47.958   9.443  1.00  0.00     0.036 C 
HETATM   11  C   UNL     1     -46.799 -46.917   9.070  1.00  0.00     0.029 C 
HETATM   12  C   UNL     1     -46.016 -45.634   8.897  1.00  0.00     0.168 C 
HETATM   13  O   UNL     1     -44.662 -46.027   8.652  1.00  0.00    -0.384 OA
ENDBRANCH   7   9
ENDBRANCH   1   7
BRANCH   4  14
HETATM   14  C   UNL     1     -39.524 -47.965  12.121  1.00  0.00     0.130 C 
BRANCH  14  15
HETATM   15  C   UNL     1     -38.674 -49.165  11.706  1.00  0.00     0.077 C 
BRANCH  15  16
HETATM   16  C   UNL     1     -39.011 -50.413  12.462  1.00  0.00     0.018 A 
HETATM   17  C   UNL     1     -38.348 -50.911  13.569  1.00  0.00     0.076 A 
HETATM   18  S   UNL     1     -39.062 -52.385  14.070  1.00  0.00    -0.087 SA
HETATM   19  C   UNL     1     -40.199 -52.257  12.790  1.00  0.00     0.046 A 
HETATM   20  C   UNL     1     -41.221 -53.319  12.577  1.00  0.00     0.076 C 
HETATM   21  N   UNL     1     -40.086 -51.181  12.037  1.00  0.00    -0.357 N 
ATOM     22  HN  UNL     1     -40.699 -50.947  11.256  1.00  0.00     0.166 HD
ENDBRANCH  15  16
ENDBRANCH  14  15
ENDBRANCH   4  14
TORSDOF 5
ENDMDL
MODEL 7
REMARK VINA RESULT:      -5.4      1.624      2.113
REMARK  5 active torsions:
REMARK  status: ('A' for Active; 'I' for Inactive)
REMARK    1  A    between atoms: C_2  and  N_3 
REMARK    2  A    between atoms: C_2  and  C_16 
REMARK       I    between atoms: N_3  and  C_4 
REMARK       I    between atoms: C_4  and  N_6 
REMARK    3  A    between atoms: N_6  and  C_7 
REMARK    4  A    between atoms: C_7  and  C_8 
REMARK    5  A    between atoms: C_8  and  C_9 
ROOT
HETATM    1  N   UNL     1     -41.884 -52.476  12.860  1.00  0.00    -0.336 N 
HETATM    2  C   UNL     1     -40.899 -51.593  13.217  1.00  0.00     0.316 C 
HETATM    3  O   UNL     1     -40.877 -50.981  14.278  1.00  0.00    -0.247 OA
HETATM    4  N   UNL     1     -39.923 -51.503  12.255  1.00  0.00    -0.343 N 
HETATM    5  H   UNL     1     -42.056 -52.541  11.866  1.00  0.00     0.164 HD
HETATM    6  H   UNL     1     -39.841 -52.308  11.644  1.00  0.00     0.164 HD
ENDROOT
BRANCH   1   7
HETATM    7  C   UNL     1     -43.046 -52.714  13.723  1.00  0.00     0.111 C 
HETATM    8  C   UNL     1     -43.288 -54.222  13.801  1.00  0.00     0.035 C 
BRANCH   7   9
HETATM    9  C   UNL     1     -44.281 -51.928  13.222  1.00  0.00     0.143 C 
HETATM   10  C   UNL     1     -45.135 -51.300  14.320  1.00  0.00     0.036 C 
HETATM   11  C   UNL     1     -46.564 -51.449  13.837  1.00  0.00     0.029 C 
HETATM   12  C   UNL     1     -46.451 -52.137  12.494  1.00  0.00     0.168 C 
HETATM   13  O   UNL     1     -45.177 -52.788  12.490  1.00  0.00    -0.384 OA
ENDBRANCH   7   9
ENDBRANCH   1   7
BRANCH   4  14
HETATM   14  C   UNL     1     -38.685 -50.805  12.565  1.00  0.00     0.130 C 
BRANCH  14  15
HETATM   15  C   UNL     1     -38.454 -49.560  11.710  1.00  0.00     0.077 C 
BRANCH  15  16
HETATM   16  C   UNL     1     -39.629 -48.632  11.695  1.00  0.00     0.018 A 
HETATM   17  C   UNL     1     -39.934 -47.673  12.644  1.00  0.00     0.076 A 
HETATM   18  S   UNL     1     -41.395 -46.880  12.232  1.00  0.00    -0.087 SA
HETATM   19  C   UNL     1     -41.518 -47.859  10.827  1.00  0.00     0.046 A 
HETATM   20  C   UNL     1     -42.682 -47.722   9.909  1.00  0.00     0.076 C 
HETATM   21  N   UNL     1     -40.532 -48.715  10.645  1.00  0.00    -0.357 N 
ATOM     22  HN  UNL     1     -40.445 -49.346   9.848  1.00  0.00     0.166 HD
ENDBRANCH  15  16
ENDBRANCH  14  15
ENDBRANCH   4  14
TORSDOF 5
ENDMDL
MODEL 8
REMARK VINA RESULT:      -5.3      2.670      3.949
REMARK  5 active torsions:
REMARK  status: ('A' for Active; 'I' for Inactive)
REMARK    1  A    between atoms: C_2  and  N_3 
REMARK    2  A    between atoms: C_2  and  C_16 
REMARK       I    between atoms: N_3  and  C_4 
REMARK       I    between atoms: C_4  and  N_6 
REMARK    3  A    between atoms: N_6  and  C_7 
REMARK    4  A    between atoms: C_7  and  C_8 
REMARK    5  A    between atoms: C_8  and  C_9 
ROOT
HETATM    1  N   UNL     1     -42.972 -51.879  12.419  1.00  0.00    -0.336 N 
HETATM    2  C   UNL     1     -41.787 -51.199  12.513  1.00  0.00     0.316 C 
HETATM    3  O   UNL     1     -41.011 -51.297  13.456  1.00  0.00    -0.247 OA
HETATM    4  N   UNL     1     -41.559 -50.419  11.406  1.00  0.00    -0.343 N 
HETATM    5  H   UNL     1     -43.697 -51.401  11.900  1.00  0.00     0.164 HD
HETATM    6  H   UNL     1     -42.039 -50.711  10.563  1.00  0.00     0.164 HD
ENDROOT
BRANCH   1   7
HETATM    7  C   UNL     1     -43.439 -52.755  13.499  1.00  0.00     0.111 C 
HETATM    8  C   UNL     1     -42.855 -54.150  13.275  1.00  0.00     0.035 C 
BRANCH   7   9
HETATM    9  C   UNL     1     -44.983 -52.751  13.591  1.00  0.00     0.143 C 
HETATM   10  C   UNL     1     -45.634 -51.375  13.481  1.00  0.00     0.036 C 
HETATM   11  C   UNL     1     -46.799 -51.416  14.449  1.00  0.00     0.029 C 
HETATM   12  C   UNL     1     -46.762 -52.805  15.045  1.00  0.00     0.168 C 
HETATM   13  O   UNL     1     -45.425 -53.280  14.857  1.00  0.00    -0.384 OA
ENDBRANCH   7   9
ENDBRANCH   1   7
BRANCH   4  14
HETATM   14  C   UNL     1     -40.248 -49.818  11.220  1.00  0.00     0.130 C 
BRANCH  14  15
HETATM   15  C   UNL     1     -40.159 -48.374  11.711  1.00  0.00     0.077 C 
BRANCH  15  16
HETATM   16  C   UNL     1     -39.295 -48.219  12.925  1.00  0.00     0.018 A 
HETATM   17  C   UNL     1     -39.057 -47.049  13.623  1.00  0.00     0.076 A 
HETATM   18  S   UNL     1     -37.971 -47.344  14.914  1.00  0.00    -0.087 SA
HETATM   19  C   UNL     1     -37.897 -48.998  14.460  1.00  0.00     0.046 A 
HETATM   20  C   UNL     1     -37.027 -49.949  15.206  1.00  0.00     0.076 C 
HETATM   21  N   UNL     1     -38.642 -49.336  13.427  1.00  0.00    -0.357 N 
ATOM     22  HN  UNL     1     -38.728 -50.281  13.052  1.00  0.00     0.166 HD
ENDBRANCH  15  16
ENDBRANCH  14  15
ENDBRANCH   4  14
TORSDOF 5
ENDMDL
MODEL 9
REMARK VINA RESULT:      -5.3      4.196      5.835
REMARK  5 active torsions:
REMARK  status: ('A' for Active; 'I' for Inactive)
REMARK    1  A    between atoms: C_2  and  N_3 
REMARK    2  A    between atoms: C_2  and  C_16 
REMARK       I    between atoms: N_3  and  C_4 
REMARK       I    between atoms: C_4  and  N_6 
REMARK    3  A    between atoms: N_6  and  C_7 
REMARK    4  A    between atoms: C_7  and  C_8 
REMARK    5  A    between atoms: C_8  and  C_9 
ROOT
HETATM    1  N   UNL     1     -44.753 -51.930  12.514  1.00  0.00    -0.336 N 
HETATM    2  C   UNL     1     -43.587 -52.645  12.422  1.00  0.00     0.316 C 
HETATM    3  O   UNL     1     -43.535 -53.866  12.344  1.00  0.00    -0.247 OA
HETATM    4  N   UNL     1     -42.487 -51.823  12.395  1.00  0.00    -0.343 N 
HETATM    5  H   UNL     1     -44.679 -51.061  13.024  1.00  0.00     0.164 HD
HETATM    6  H   UNL     1     -42.660 -50.878  12.075  1.00  0.00     0.164 HD
ENDROOT
BRANCH   1   7
HETATM    7  C   UNL     1     -46.056 -52.600  12.585  1.00  0.00     0.111 C 
HETATM    8  C   UNL     1     -47.016 -51.889  11.630  1.00  0.00     0.035 C 
BRANCH   7   9
HETATM    9  C   UNL     1     -46.576 -52.649  14.041  1.00  0.00     0.143 C 
HETATM   10  C   UNL     1     -46.809 -51.288  14.691  1.00  0.00     0.036 C 
HETATM   11  C   UNL     1     -46.383 -51.466  16.134  1.00  0.00     0.029 C 
HETATM   12  C   UNL     1     -45.945 -52.910  16.236  1.00  0.00     0.168 C 
HETATM   13  O   UNL     1     -45.636 -53.324  14.902  1.00  0.00    -0.384 OA
ENDBRANCH   7   9
ENDBRANCH   1   7
BRANCH   4  14
HETATM   14  C   UNL     1     -41.190 -52.387  12.059  1.00  0.00     0.130 C 
BRANCH  14  15
HETATM   15  C   UNL     1     -40.054 -51.890  12.952  1.00  0.00     0.077 C 
BRANCH  15  16
HETATM   16  C   UNL     1     -39.653 -52.883  13.999  1.00  0.00     0.018 A 
HETATM   17  C   UNL     1     -39.695 -54.261  13.887  1.00  0.00     0.076 A 
HETATM   18  S   UNL     1     -39.182 -54.986  15.350  1.00  0.00    -0.087 SA
HETATM   19  C   UNL     1     -38.937 -53.427  16.026  1.00  0.00     0.046 A 
HETATM   20  C   UNL     1     -38.472 -53.276  17.432  1.00  0.00     0.076 C 
HETATM   21  N   UNL     1     -39.195 -52.415  15.222  1.00  0.00    -0.357 N 
ATOM     22  HN  UNL     1     -39.075 -51.431  15.464  1.00  0.00     0.166 HD
ENDBRANCH  15  16
ENDBRANCH  14  15
ENDBRANCH   4  14
TORSDOF 5
ENDMDL
