MODEL 1
REMARK VINA RESULT:      -5.4      0.000      0.000
REMARK  3 active torsions:
REMARK  status: ('A' for Active; 'I' for Inactive)
REMARK    1  A    between atoms: C_7  and  C_8 
REMARK    2  A    between atoms: C_8  and  C_9 
REMARK    3  A    between atoms: C_9  and  O_11 
ROOT
HETATM    1  C   UNL     1     -46.536 -48.154   8.762  1.00  0.00     0.089 C 
HETATM    2  C   UNL     1     -45.347 -47.492   9.391  1.00  0.00     0.080 C 
HETATM    3  N   UNL     1     -44.601 -48.137  10.223  1.00  0.00    -0.349 N 
ATOM      4  HN  UNL     1     -44.789 -49.115  10.446  1.00  0.00     0.167 HD
HETATM    5  C   UNL     1     -43.546 -47.471  10.803  1.00  0.00     0.018 C 
HETATM    6  C   UNL     1     -42.782 -48.287  11.813  1.00  0.00     0.069 C 
HETATM    7  C   UNL     1     -43.209 -46.203  10.506  1.00  0.00     0.042 C 
HETATM    8  C   UNL     1     -44.006 -45.538   9.453  1.00  0.00     0.255 C 
HETATM    9  O   UNL     1     -43.631 -44.470   8.973  1.00  0.00    -0.268 OA
HETATM   10  N   UNL     1     -45.118 -46.197   9.032  1.00  0.00    -0.313 N 
HETATM   11  H   UNL     1     -45.672 -45.753   8.314  1.00  0.00     0.170 HD
ENDROOT
BRANCH   7  12
HETATM   12  C   UNL     1     -42.140 -45.366  11.147  1.00  0.00     0.156 C 
BRANCH  12  13
HETATM   13  C   UNL     1     -40.821 -45.445  10.410  1.00  0.00     0.143 C 
HETATM   14  O   UNL     1     -40.303 -44.483   9.860  1.00  0.00    -0.650 OA
BRANCH  13  15
HETATM   15  O   UNL     1     -40.268 -46.681  10.370  1.00  0.00    -0.776 OA
HETATM   16  H   UNL     1     -40.716 -47.302   9.746  1.00  0.00     0.167 HD
ENDBRANCH  13  15
ENDBRANCH  12  13
ENDBRANCH   7  12
TORSDOF 3
ENDMDL
MODEL 2
REMARK VINA RESULT:      -5.3      7.472      9.190
REMARK  3 active torsions:
REMARK  status: ('A' for Active; 'I' for Inactive)
REMARK    1  A    between atoms: C_7  and  C_8 
REMARK    2  A    between atoms: C_8  and  C_9 
REMARK    3  A    between atoms: C_9  and  O_11 
ROOT
HETATM    1  C   UNL     1     -40.844 -52.289  12.073  1.00  0.00     0.089 C 
HETATM    2  C   UNL     1     -42.035 -53.002  12.640  1.00  0.00     0.080 C 
HETATM    3  N   UNL     1     -41.921 -53.723  13.704  1.00  0.00    -0.349 N 
ATOM      4  HN  UNL     1     -41.029 -53.798  14.194  1.00  0.00     0.167 HD
HETATM    5  C   UNL     1     -43.035 -54.389  14.161  1.00  0.00     0.018 C 
HETATM    6  C   UNL     1     -42.783 -55.260  15.363  1.00  0.00     0.069 C 
HETATM    7  C   UNL     1     -44.253 -54.283  13.597  1.00  0.00     0.042 C 
HETATM    8  C   UNL     1     -44.373 -53.347  12.459  1.00  0.00     0.255 C 
HETATM    9  O   UNL     1     -45.482 -53.029  12.032  1.00  0.00    -0.268 OA
HETATM   10  N   UNL     1     -43.210 -52.839  11.970  1.00  0.00    -0.313 N 
HETATM   11  H   UNL     1     -43.279 -52.199  11.192  1.00  0.00     0.170 HD
ENDROOT
BRANCH   7  12
HETATM   12  C   UNL     1     -45.499 -55.034  13.964  1.00  0.00     0.156 C 
BRANCH  12  13
HETATM   13  C   UNL     1     -46.330 -54.311  15.001  1.00  0.00     0.143 C 
HETATM   14  O   UNL     1     -47.184 -53.484  14.717  1.00  0.00    -0.650 OA
BRANCH  13  15
HETATM   15  O   UNL     1     -46.028 -54.622  16.285  1.00  0.00    -0.776 OA
HETATM   16  H   UNL     1     -45.624 -53.879  16.795  1.00  0.00     0.167 HD
ENDBRANCH  13  15
ENDBRANCH  12  13
ENDBRANCH   7  12
TORSDOF 3
ENDMDL
MODEL 3
REMARK VINA RESULT:      -5.0      1.886      2.057
REMARK  3 active torsions:
REMARK  status: ('A' for Active; 'I' for Inactive)
REMARK    1  A    between atoms: C_7  and  C_8 
REMARK    2  A    between atoms: C_8  and  C_9 
REMARK    3  A    between atoms: C_9  and  O_11 
ROOT
HETATM    1  C   UNL     1     -43.915 -48.193   7.531  1.00  0.00     0.089 C 
HETATM    2  C   UNL     1     -43.353 -47.297   8.593  1.00  0.00     0.080 C 
HETATM    3  N   UNL     1     -42.386 -47.700   9.346  1.00  0.00    -0.349 N 
ATOM      4  HN  UNL     1     -41.967 -48.621   9.214  1.00  0.00     0.167 HD
HETATM    5  C   UNL     1     -41.933 -46.853  10.332  1.00  0.00     0.018 C 
HETATM    6  C   UNL     1     -40.854 -47.442  11.202  1.00  0.00     0.069 C 
HETATM    7  C   UNL     1     -42.400 -45.605  10.518  1.00  0.00     0.042 C 
HETATM    8  C   UNL     1     -43.418 -45.131   9.555  1.00  0.00     0.255 C 
HETATM    9  O   UNL     1     -43.732 -43.943   9.521  1.00  0.00    -0.268 OA
HETATM   10  N   UNL     1     -43.922 -46.063   8.704  1.00  0.00    -0.313 N 
HETATM   11  H   UNL     1     -44.619 -45.753   8.041  1.00  0.00     0.170 HD
ENDROOT
BRANCH   7  12
HETATM   12  C   UNL     1     -42.038 -44.646  11.615  1.00  0.00     0.156 C 
BRANCH  12  13
HETATM   13  C   UNL     1     -40.818 -43.816  11.282  1.00  0.00     0.143 C 
HETATM   14  O   UNL     1     -39.694 -44.090  11.679  1.00  0.00    -0.650 OA
BRANCH  13  15
HETATM   15  O   UNL     1     -41.070 -42.714  10.536  1.00  0.00    -0.776 OA
HETATM   16  H   UNL     1     -42.022 -42.454  10.511  1.00  0.00     0.167 HD
ENDBRANCH  13  15
ENDBRANCH  12  13
ENDBRANCH   7  12
TORSDOF 3
ENDMDL
MODEL 4
REMARK VINA RESULT:      -5.0      7.269      8.912
REMARK  3 active torsions:
REMARK  status: ('A' for Active; 'I' for Inactive)
REMARK    1  A    between atoms: C_7  and  C_8 
REMARK    2  A    between atoms: C_8  and  C_9 
REMARK    3  A    between atoms: C_9  and  O_11 
ROOT
HETATM    1  C   UNL     1     -47.860 -51.003  17.118  1.00  0.00     0.089 C 
HETATM    2  C   UNL     1     -47.132 -51.791  16.070  1.00  0.00     0.080 C 
HETATM    3  N   UNL     1     -47.094 -51.378  14.848  1.00  0.00    -0.349 N 
ATOM      4  HN  UNL     1     -47.533 -50.497  14.578  1.00  0.00     0.167 HD
HETATM    5  C   UNL     1     -46.447 -52.158  13.918  1.00  0.00     0.018 C 
HETATM    6  C   UNL     1     -46.522 -51.628  12.510  1.00  0.00     0.069 C 
HETATM    7  C   UNL     1     -45.797 -53.297  14.220  1.00  0.00     0.042 C 
HETATM    8  C   UNL     1     -45.751 -53.671  15.650  1.00  0.00     0.255 C 
HETATM    9  O   UNL     1     -45.001 -54.567  16.032  1.00  0.00    -0.268 OA
HETATM   10  N   UNL     1     -46.531 -52.940  16.490  1.00  0.00    -0.313 N 
HETATM   11  H   UNL     1     -46.510 -53.186  17.469  1.00  0.00     0.170 HD
ENDROOT
BRANCH   7  12
HETATM   12  C   UNL     1     -45.144 -54.258  13.269  1.00  0.00     0.156 C 
BRANCH  12  13
HETATM   13  C   UNL     1     -43.716 -53.875  12.945  1.00  0.00     0.143 C 
HETATM   14  O   UNL     1     -42.764 -54.191  13.644  1.00  0.00    -0.650 OA
BRANCH  13  15
HETATM   15  O   UNL     1     -43.573 -53.114  11.834  1.00  0.00    -0.776 OA
HETATM   16  H   UNL     1     -44.121 -52.292  11.835  1.00  0.00     0.167 HD
ENDBRANCH  13  15
ENDBRANCH  12  13
ENDBRANCH   7  12
TORSDOF 3
ENDMDL
MODEL 5
REMARK VINA RESULT:      -4.9      8.336      9.548
REMARK  3 active torsions:
REMARK  status: ('A' for Active; 'I' for Inactive)
REMARK    1  A    between atoms: C_7  and  C_8 
REMARK    2  A    between atoms: C_8  and  C_9 
REMARK    3  A    between atoms: C_9  and  O_11 
ROOT
HETATM    1  C   UNL     1     -45.457 -54.890  13.704  1.00  0.00     0.089 C 
HETATM    2  C   UNL     1     -44.025 -54.702  14.104  1.00  0.00     0.080 C 
HETATM    3  N   UNL     1     -43.576 -55.218  15.198  1.00  0.00    -0.349 N 
ATOM      4  HN  UNL     1     -44.178 -55.786  15.795  1.00  0.00     0.167 HD
HETATM    5  C   UNL     1     -42.264 -54.982  15.539  1.00  0.00     0.018 C 
HETATM    6  C   UNL     1     -41.858 -55.565  16.867  1.00  0.00     0.069 C 
HETATM    7  C   UNL     1     -41.403 -54.295  14.765  1.00  0.00     0.042 C 
HETATM    8  C   UNL     1     -41.917 -53.829  13.460  1.00  0.00     0.255 C 
HETATM    9  O   UNL     1     -41.144 -53.391  12.610  1.00  0.00    -0.268 OA
HETATM   10  N   UNL     1     -43.254 -53.967  13.253  1.00  0.00    -0.313 N 
HETATM   11  H   UNL     1     -43.617 -53.652  12.365  1.00  0.00     0.170 HD
ENDROOT
BRANCH   7  12
HETATM   12  C   UNL     1     -39.989 -53.910  15.090  1.00  0.00     0.156 C 
BRANCH  12  13
HETATM   13  C   UNL     1     -38.987 -54.956  14.653  1.00  0.00     0.143 C 
HETATM   14  O   UNL     1     -38.522 -55.794  15.412  1.00  0.00    -0.650 OA
BRANCH  13  15
HETATM   15  O   UNL     1     -38.609 -54.870  13.356  1.00  0.00    -0.776 OA
HETATM   16  H   UNL     1     -38.852 -55.659  12.813  1.00  0.00     0.167 HD
ENDBRANCH  13  15
ENDBRANCH  12  13
ENDBRANCH   7  12
TORSDOF 3
ENDMDL
MODEL 6
REMARK VINA RESULT:      -4.8      7.869      9.448
REMARK  3 active torsions:
REMARK  status: ('A' for Active; 'I' for Inactive)
REMARK    1  A    between atoms: C_7  and  C_8 
REMARK    2  A    between atoms: C_8  and  C_9 
REMARK    3  A    between atoms: C_9  and  O_11 
ROOT
HETATM    1  C   UNL     1     -41.235 -52.720  12.158  1.00  0.00     0.089 C 
HETATM    2  C   UNL     1     -42.546 -53.167  12.732  1.00  0.00     0.080 C 
HETATM    3  N   UNL     1     -43.656 -52.688  12.282  1.00  0.00    -0.349 N 
ATOM      4  HN  UNL     1     -43.665 -52.020  11.511  1.00  0.00     0.167 HD
HETATM    5  C   UNL     1     -44.829 -53.102  12.870  1.00  0.00     0.018 C 
HETATM    6  C   UNL     1     -46.063 -52.432  12.324  1.00  0.00     0.069 C 
HETATM    7  C   UNL     1     -44.890 -54.025  13.848  1.00  0.00     0.042 C 
HETATM    8  C   UNL     1     -43.610 -54.646  14.249  1.00  0.00     0.255 C 
HETATM    9  O   UNL     1     -43.603 -55.642  14.970  1.00  0.00    -0.268 OA
HETATM   10  N   UNL     1     -42.481 -54.089  13.734  1.00  0.00    -0.313 N 
HETATM   11  H   UNL     1     -41.600 -54.503  14.001  1.00  0.00     0.170 HD
ENDROOT
BRANCH   7  12
HETATM   12  C   UNL     1     -46.103 -54.472  14.610  1.00  0.00     0.156 C 
BRANCH  12  13
HETATM   13  C   UNL     1     -46.212 -53.814  15.968  1.00  0.00     0.143 C 
HETATM   14  O   UNL     1     -46.619 -52.672  16.127  1.00  0.00    -0.650 OA
BRANCH  13  15
HETATM   15  O   UNL     1     -45.782 -54.576  17.002  1.00  0.00    -0.776 OA
HETATM   16  H   UNL     1     -45.206 -54.095  17.645  1.00  0.00     0.167 HD
ENDBRANCH  13  15
ENDBRANCH  12  13
ENDBRANCH   7  12
TORSDOF 3
ENDMDL
MODEL 7
REMARK VINA RESULT:      -4.7      8.149      9.849
REMARK  3 active torsions:
REMARK  status: ('A' for Active; 'I' for Inactive)
REMARK    1  A    between atoms: C_7  and  C_8 
REMARK    2  A    between atoms: C_8  and  C_9 
REMARK    3  A    between atoms: C_9  and  O_11 
ROOT
HETATM    1  C   UNL     1     -46.432 -50.074  18.154  1.00  0.00     0.089 C 
HETATM    2  C   UNL     1     -46.394 -51.193  17.157  1.00  0.00     0.080 C 
HETATM    3  N   UNL     1     -46.474 -50.947  15.893  1.00  0.00    -0.349 N 
ATOM      4  HN  UNL     1     -46.536 -49.989  15.548  1.00  0.00     0.167 HD
HETATM    5  C   UNL     1     -46.474 -52.012  15.022  1.00  0.00     0.018 C 
HETATM    6  C   UNL     1     -46.645 -51.626  13.576  1.00  0.00     0.069 C 
HETATM    7  C   UNL     1     -46.334 -53.294  15.409  1.00  0.00     0.042 C 
HETATM    8  C   UNL     1     -46.115 -53.527  16.852  1.00  0.00     0.255 C 
HETATM    9  O   UNL     1     -45.763 -54.635  17.254  1.00  0.00    -0.268 OA
HETATM   10  N   UNL     1     -46.272 -52.451  17.668  1.00  0.00    -0.313 N 
HETATM   11  H   UNL     1     -46.126 -52.597  18.656  1.00  0.00     0.170 HD
ENDROOT
BRANCH   7  12
HETATM   12  C   UNL     1     -46.413 -54.522  14.549  1.00  0.00     0.156 C 
BRANCH  12  13
HETATM   13  C   UNL     1     -45.092 -54.856  13.890  1.00  0.00     0.143 C 
HETATM   14  O   UNL     1     -44.828 -54.559  12.734  1.00  0.00    -0.650 OA
BRANCH  13  15
HETATM   15  O   UNL     1     -44.230 -55.550  14.671  1.00  0.00    -0.776 OA
HETATM   16  H   UNL     1     -43.479 -55.959  14.176  1.00  0.00     0.167 HD
ENDBRANCH  13  15
ENDBRANCH  12  13
ENDBRANCH   7  12
TORSDOF 3
ENDMDL
MODEL 8
REMARK VINA RESULT:      -4.6      7.334      7.889
REMARK  3 active torsions:
REMARK  status: ('A' for Active; 'I' for Inactive)
REMARK    1  A    between atoms: C_7  and  C_8 
REMARK    2  A    between atoms: C_8  and  C_9 
REMARK    3  A    between atoms: C_9  and  O_11 
ROOT
HETATM    1  C   UNL     1     -46.752 -51.569  15.212  1.00  0.00     0.089 C 
HETATM    2  C   UNL     1     -45.468 -52.236  14.819  1.00  0.00     0.080 C 
HETATM    3  N   UNL     1     -44.465 -52.258  15.631  1.00  0.00    -0.349 N 
ATOM      4  HN  UNL     1     -44.536 -51.849  16.562  1.00  0.00     0.167 HD
HETATM    5  C   UNL     1     -43.297 -52.848  15.206  1.00  0.00     0.018 C 
HETATM    6  C   UNL     1     -42.165 -52.757  16.196  1.00  0.00     0.069 C 
HETATM    7  C   UNL     1     -43.158 -53.458  14.014  1.00  0.00     0.042 C 
HETATM    8  C   UNL     1     -44.365 -53.526  13.164  1.00  0.00     0.255 C 
HETATM    9  O   UNL     1     -44.382 -54.248  12.169  1.00  0.00    -0.268 OA
HETATM   10  N   UNL     1     -45.437 -52.800  13.578  1.00  0.00    -0.313 N 
HETATM   11  H   UNL     1     -46.268 -52.837  13.005  1.00  0.00     0.170 HD
ENDROOT
BRANCH   7  12
HETATM   12  C   UNL     1     -41.907 -54.045  13.428  1.00  0.00     0.156 C 
BRANCH  12  13
HETATM   13  C   UNL     1     -41.135 -53.050  12.590  1.00  0.00     0.143 C 
HETATM   14  O   UNL     1     -40.996 -51.876  12.905  1.00  0.00    -0.650 OA
BRANCH  13  15
HETATM   15  O   UNL     1     -40.637 -53.549  11.434  1.00  0.00    -0.776 OA
HETATM   16  H   UNL     1     -40.618 -54.536  11.397  1.00  0.00     0.167 HD
ENDBRANCH  13  15
ENDBRANCH  12  13
ENDBRANCH   7  12
TORSDOF 3
ENDMDL
MODEL 9
REMARK VINA RESULT:      -4.6     21.041     21.916
REMARK  3 active torsions:
REMARK  status: ('A' for Active; 'I' for Inactive)
REMARK    1  A    between atoms: C_7  and  C_8 
REMARK    2  A    between atoms: C_8  and  C_9 
REMARK    3  A    between atoms: C_9  and  O_11 
ROOT
HETATM    1  C   UNL     1     -33.230 -52.556  -6.238  1.00  0.00     0.089 C 
HETATM    2  C   UNL     1     -31.774 -52.848  -6.036  1.00  0.00     0.080 C 
HETATM    3  N   UNL     1     -30.883 -51.954  -6.303  1.00  0.00    -0.349 N 
ATOM      4  HN  UNL     1     -31.153 -51.026  -6.628  1.00  0.00     0.167 HD
HETATM    5  C   UNL     1     -29.558 -52.286  -6.138  1.00  0.00     0.018 C 
HETATM    6  C   UNL     1     -28.595 -51.201  -6.545  1.00  0.00     0.069 C 
HETATM    7  C   UNL     1     -29.138 -53.470  -5.655  1.00  0.00     0.042 C 
HETATM    8  C   UNL     1     -30.190 -54.422  -5.238  1.00  0.00     0.255 C 
HETATM    9  O   UNL     1     -29.897 -55.425  -4.591  1.00  0.00    -0.268 OA
HETATM   10  N   UNL     1     -31.468 -54.090  -5.564  1.00  0.00    -0.313 N 
HETATM   11  H   UNL     1     -32.196 -54.732  -5.285  1.00  0.00     0.170 HD
ENDROOT
BRANCH   7  12
HETATM   12  C   UNL     1     -27.724 -53.956  -5.525  1.00  0.00     0.156 C 
BRANCH  12  13
HETATM   13  C   UNL     1     -27.155 -53.727  -4.142  1.00  0.00     0.143 C 
HETATM   14  O   UNL     1     -26.818 -52.625  -3.732  1.00  0.00    -0.650 OA
BRANCH  13  15
HETATM   15  O   UNL     1     -27.008 -54.848  -3.397  1.00  0.00    -0.776 OA
HETATM   16  H   UNL     1     -26.306 -54.783  -2.706  1.00  0.00     0.167 HD
ENDBRANCH  13  15
ENDBRANCH  12  13
ENDBRANCH   7  12
TORSDOF 3
ENDMDL
