MODEL 1
REMARK VINA RESULT:      -5.8      0.000      0.000
REMARK  4 active torsions:
REMARK  status: ('A' for Active; 'I' for Inactive)
REMARK    1  A    between atoms: O_2  and  C_3 
REMARK    2  A    between atoms: C_3  and  C_4 
REMARK    3  A    between atoms: C_4  and  N_5 
REMARK       I    between atoms: N_5  and  C_6 
REMARK       I    between atoms: C_6  and  N_8 
REMARK    4  A    between atoms: N_8  and  C_9 
ROOT
HETATM    1  N   UNL     1     -42.617 -51.885  12.083  1.00  0.00    -0.340 N 
HETATM    2  C   UNL     1     -41.280 -51.892  11.856  1.00  0.00     0.321 C 
HETATM    3  O   UNL     1     -40.591 -52.907  11.934  1.00  0.00    -0.247 OA
HETATM    4  N   UNL     1     -40.700 -50.703  11.528  1.00  0.00    -0.295 N 
HETATM    5  H   UNL     1     -43.081 -50.980  12.002  1.00  0.00     0.164 HD
HETATM    6  H   UNL     1     -39.706 -50.776  11.375  1.00  0.00     0.172 HD
ENDROOT
BRANCH   1   7
HETATM    7  C   UNL     1     -43.375 -53.053  12.451  1.00  0.00     0.162 C 
BRANCH   7   8
HETATM    8  C   UNL     1     -44.746 -52.610  12.991  1.00  0.00     0.076 C 
HETATM    9  C   UNL     1     -44.947 -53.012  14.483  1.00  0.00     0.040 C 
HETATM   10  C   UNL     1     -44.501 -51.599  14.896  1.00  0.00     0.006 C 
HETATM   11  C   UNL     1     -44.825 -51.125  13.474  1.00  0.00     0.040 C 
BRANCH   8  12
HETATM   12  O   UNL     1     -45.841 -52.945  12.090  1.00  0.00    -0.383 OA
HETATM   13  C   UNL     1     -46.846 -51.969  11.861  1.00  0.00     0.202 C 
ENDBRANCH   8  12
ENDBRANCH   7   8
ENDBRANCH   1   7
BRANCH   4  14
HETATM   14  C   UNL     1     -41.304 -49.446  11.408  1.00  0.00     0.109 A 
HETATM   15  C   UNL     1     -41.761 -48.818  12.561  1.00  0.00     0.055 A 
HETATM   16  C   UNL     1     -42.385 -47.569  12.452  1.00  0.00    -0.057 A 
HETATM   17  C   UNL     1     -42.948 -46.864  13.649  1.00  0.00     0.048 C 
HETATM   18  C   UNL     1     -42.517 -46.994  11.189  1.00  0.00     0.024 A 
HETATM   19  C   UNL     1     -42.026 -47.682  10.097  1.00  0.00     0.090 A 
HETATM   20  N   UNL     1     -41.434 -48.890  10.184  1.00  0.00    -0.352 N 
ATOM     21  HN  UNL     1     -41.093 -49.369   9.350  1.00  0.00     0.166 HD
ENDBRANCH   4  14
TORSDOF 4
ENDMDL
MODEL 2
REMARK VINA RESULT:      -5.7      1.749      4.990
REMARK  4 active torsions:
REMARK  status: ('A' for Active; 'I' for Inactive)
REMARK    1  A    between atoms: O_2  and  C_3 
REMARK    2  A    between atoms: C_3  and  C_4 
REMARK    3  A    between atoms: C_4  and  N_5 
REMARK       I    between atoms: N_5  and  C_6 
REMARK       I    between atoms: C_6  and  N_8 
REMARK    4  A    between atoms: N_8  and  C_9 
ROOT
HETATM    1  N   UNL     1     -41.989 -50.895  11.958  1.00  0.00    -0.340 N 
HETATM    2  C   UNL     1     -41.791 -52.219  12.174  1.00  0.00     0.321 C 
HETATM    3  O   UNL     1     -40.729 -52.788  11.929  1.00  0.00    -0.247 OA
HETATM    4  N   UNL     1     -42.836 -52.927  12.688  1.00  0.00    -0.295 N 
HETATM    5  H   UNL     1     -42.917 -50.537  12.187  1.00  0.00     0.164 HD
HETATM    6  H   UNL     1     -42.624 -53.904  12.822  1.00  0.00     0.172 HD
ENDROOT
BRANCH   1   7
HETATM    7  C   UNL     1     -40.992 -50.013  11.409  1.00  0.00     0.162 C 
BRANCH   7   8
HETATM    8  C   UNL     1     -41.584 -48.598  11.294  1.00  0.00     0.076 C 
HETATM    9  C   UNL     1     -42.670 -48.326  12.378  1.00  0.00     0.040 C 
HETATM   10  C   UNL     1     -41.599 -47.638  13.242  1.00  0.00     0.006 C 
HETATM   11  C   UNL     1     -40.749 -47.466  11.977  1.00  0.00     0.040 C 
BRANCH   8  12
HETATM   12  O   UNL     1     -41.950 -48.250   9.927  1.00  0.00    -0.383 OA
HETATM   13  C   UNL     1     -43.143 -47.511   9.717  1.00  0.00     0.202 C 
ENDBRANCH   8  12
ENDBRANCH   7   8
ENDBRANCH   1   7
BRANCH   4  14
HETATM   14  C   UNL     1     -44.118 -52.470  13.013  1.00  0.00     0.109 A 
HETATM   15  C   UNL     1     -44.335 -51.959  14.288  1.00  0.00     0.055 A 
HETATM   16  C   UNL     1     -45.619 -51.516  14.632  1.00  0.00    -0.057 A 
HETATM   17  C   UNL     1     -45.932 -51.005  16.006  1.00  0.00     0.048 C 
HETATM   18  C   UNL     1     -46.633 -51.594  13.678  1.00  0.00     0.024 A 
HETATM   19  C   UNL     1     -46.327 -52.105  12.432  1.00  0.00     0.090 A 
HETATM   20  N   UNL     1     -45.101 -52.547  12.089  1.00  0.00    -0.352 N 
ATOM     21  HN  UNL     1     -44.920 -52.927  11.161  1.00  0.00     0.166 HD
ENDBRANCH   4  14
TORSDOF 4
ENDMDL
MODEL 3
REMARK VINA RESULT:      -5.7      4.052      6.401
REMARK  4 active torsions:
REMARK  status: ('A' for Active; 'I' for Inactive)
REMARK    1  A    between atoms: O_2  and  C_3 
REMARK    2  A    between atoms: C_3  and  C_4 
REMARK    3  A    between atoms: C_4  and  N_5 
REMARK       I    between atoms: N_5  and  C_6 
REMARK       I    between atoms: C_6  and  N_8 
REMARK    4  A    between atoms: N_8  and  C_9 
ROOT
HETATM    1  N   UNL     1     -40.309 -47.240  10.900  1.00  0.00    -0.340 N 
HETATM    2  C   UNL     1     -41.187 -48.209  10.541  1.00  0.00     0.321 C 
HETATM    3  O   UNL     1     -42.262 -47.972   9.994  1.00  0.00    -0.247 OA
HETATM    4  N   UNL     1     -40.835 -49.498  10.812  1.00  0.00    -0.295 N 
HETATM    5  H   UNL     1     -39.455 -47.557  11.360  1.00  0.00     0.164 HD
HETATM    6  H   UNL     1     -41.530 -50.168  10.523  1.00  0.00     0.172 HD
ENDROOT
BRANCH   1   7
HETATM    7  C   UNL     1     -40.537 -45.833  10.695  1.00  0.00     0.162 C 
BRANCH   7   8
HETATM    8  C   UNL     1     -40.883 -45.181  12.045  1.00  0.00     0.076 C 
HETATM    9  C   UNL     1     -39.970 -45.697  13.197  1.00  0.00     0.040 C 
HETATM   10  C   UNL     1     -39.074 -44.462  13.006  1.00  0.00     0.006 C 
HETATM   11  C   UNL     1     -40.244 -43.775  12.291  1.00  0.00     0.040 C 
BRANCH   8  12
HETATM   12  O   UNL     1     -42.314 -45.180  12.320  1.00  0.00    -0.383 OA
HETATM   13  C   UNL     1     -42.804 -46.042  13.335  1.00  0.00     0.202 C 
ENDBRANCH   8  12
ENDBRANCH   7   8
ENDBRANCH   1   7
BRANCH   4  14
HETATM   14  C   UNL     1     -39.675 -49.967  11.440  1.00  0.00     0.109 A 
HETATM   15  C   UNL     1     -39.777 -50.466  12.733  1.00  0.00     0.055 A 
HETATM   16  C   UNL     1     -38.620 -50.919  13.380  1.00  0.00    -0.057 A 
HETATM   17  C   UNL     1     -38.653 -51.418  14.792  1.00  0.00     0.048 C 
HETATM   18  C   UNL     1     -37.406 -50.864  12.696  1.00  0.00     0.024 A 
HETATM   19  C   UNL     1     -37.396 -50.363  11.409  1.00  0.00     0.090 A 
HETATM   20  N   UNL     1     -38.498 -49.912  10.778  1.00  0.00    -0.352 N 
ATOM     21  HN  UNL     1     -38.445 -49.540   9.830  1.00  0.00     0.166 HD
ENDBRANCH   4  14
TORSDOF 4
ENDMDL
MODEL 4
REMARK VINA RESULT:      -5.5      1.342      1.929
REMARK  4 active torsions:
REMARK  status: ('A' for Active; 'I' for Inactive)
REMARK    1  A    between atoms: O_2  and  C_3 
REMARK    2  A    between atoms: C_3  and  C_4 
REMARK    3  A    between atoms: C_4  and  N_5 
REMARK       I    between atoms: N_5  and  C_6 
REMARK       I    between atoms: C_6  and  N_8 
REMARK    4  A    between atoms: N_8  and  C_9 
ROOT
HETATM    1  N   UNL     1     -42.436 -51.852  12.074  1.00  0.00    -0.340 N 
HETATM    2  C   UNL     1     -41.109 -52.101  11.936  1.00  0.00     0.321 C 
HETATM    3  O   UNL     1     -40.627 -53.230  12.006  1.00  0.00    -0.247 OA
HETATM    4  N   UNL     1     -40.297 -51.031  11.709  1.00  0.00    -0.295 N 
HETATM    5  H   UNL     1     -42.717 -50.873  12.009  1.00  0.00     0.164 HD
HETATM    6  H   UNL     1     -39.325 -51.283  11.618  1.00  0.00     0.172 HD
ENDROOT
BRANCH   1   7
HETATM    7  C   UNL     1     -43.422 -52.869  12.330  1.00  0.00     0.162 C 
BRANCH   7   8
HETATM    8  C   UNL     1     -44.236 -52.476  13.574  1.00  0.00     0.076 C 
HETATM    9  C   UNL     1     -44.789 -51.023  13.479  1.00  0.00     0.040 C 
HETATM   10  C   UNL     1     -46.126 -51.592  12.977  1.00  0.00     0.006 C 
HETATM   11  C   UNL     1     -45.726 -52.947  13.574  1.00  0.00     0.040 C 
BRANCH   8  12
HETATM   12  O   UNL     1     -43.560 -52.818  14.819  1.00  0.00    -0.383 OA
HETATM   13  C   UNL     1     -44.125 -53.834  15.634  1.00  0.00     0.202 C 
ENDBRANCH   8  12
ENDBRANCH   7   8
ENDBRANCH   1   7
BRANCH   4  14
HETATM   14  C   UNL     1     -40.648 -49.679  11.615  1.00  0.00     0.109 A 
HETATM   15  C   UNL     1     -40.420 -48.857  12.713  1.00  0.00     0.055 A 
HETATM   16  C   UNL     1     -40.786 -47.507  12.639  1.00  0.00    -0.057 A 
HETATM   17  C   UNL     1     -40.617 -46.582  13.805  1.00  0.00     0.048 C 
HETATM   18  C   UNL     1     -41.356 -47.032  11.458  1.00  0.00     0.024 A 
HETATM   19  C   UNL     1     -41.537 -47.915  10.412  1.00  0.00     0.090 A 
HETATM   20  N   UNL     1     -41.203 -49.218  10.472  1.00  0.00    -0.352 N 
ATOM     21  HN  UNL     1     -41.363 -49.839   9.679  1.00  0.00     0.166 HD
ENDBRANCH   4  14
TORSDOF 4
ENDMDL
MODEL 5
REMARK VINA RESULT:      -5.4      3.376      5.050
REMARK  4 active torsions:
REMARK  status: ('A' for Active; 'I' for Inactive)
REMARK    1  A    between atoms: O_2  and  C_3 
REMARK    2  A    between atoms: C_3  and  C_4 
REMARK    3  A    between atoms: C_4  and  N_5 
REMARK       I    between atoms: N_5  and  C_6 
REMARK       I    between atoms: C_6  and  N_8 
REMARK    4  A    between atoms: N_8  and  C_9 
ROOT
HETATM    1  N   UNL     1     -44.101 -53.675  14.464  1.00  0.00    -0.340 N 
HETATM    2  C   UNL     1     -44.096 -53.994  13.146  1.00  0.00     0.321 C 
HETATM    3  O   UNL     1     -45.094 -54.389  12.547  1.00  0.00    -0.247 OA
HETATM    4  N   UNL     1     -42.915 -53.861  12.480  1.00  0.00    -0.295 N 
HETATM    5  H   UNL     1     -43.209 -53.371  14.855  1.00  0.00     0.164 HD
HETATM    6  H   UNL     1     -42.978 -54.116  11.506  1.00  0.00     0.172 HD
ENDROOT
BRANCH   1   7
HETATM    7  C   UNL     1     -45.263 -53.773  15.310  1.00  0.00     0.162 C 
BRANCH   7   8
HETATM    8  C   UNL     1     -45.648 -52.365  15.796  1.00  0.00     0.076 C 
HETATM    9  C   UNL     1     -45.333 -51.270  14.733  1.00  0.00     0.040 C 
HETATM   10  C   UNL     1     -46.796 -51.340  14.265  1.00  0.00     0.006 C 
HETATM   11  C   UNL     1     -47.153 -51.983  15.610  1.00  0.00     0.040 C 
BRANCH   8  12
HETATM   12  O   UNL     1     -45.183 -52.090  17.149  1.00  0.00    -0.383 OA
HETATM   13  C   UNL     1     -45.156 -53.160  18.081  1.00  0.00     0.202 C 
ENDBRANCH   8  12
ENDBRANCH   7   8
ENDBRANCH   1   7
BRANCH   4  14
HETATM   14  C   UNL     1     -41.676 -53.448  12.984  1.00  0.00     0.109 A 
HETATM   15  C   UNL     1     -40.912 -54.365  13.698  1.00  0.00     0.055 A 
HETATM   16  C   UNL     1     -39.680 -53.959  14.224  1.00  0.00    -0.057 A 
HETATM   17  C   UNL     1     -38.834 -54.881  15.049  1.00  0.00     0.048 C 
HETATM   18  C   UNL     1     -39.257 -52.649  14.003  1.00  0.00     0.024 A 
HETATM   19  C   UNL     1     -40.072 -51.807  13.274  1.00  0.00     0.090 A 
HETATM   20  N   UNL     1     -41.266 -52.179  12.771  1.00  0.00    -0.352 N 
ATOM     21  HN  UNL     1     -41.842 -51.522  12.246  1.00  0.00     0.166 HD
ENDBRANCH   4  14
TORSDOF 4
ENDMDL
MODEL 6
REMARK VINA RESULT:      -5.4      3.679      5.354
REMARK  4 active torsions:
REMARK  status: ('A' for Active; 'I' for Inactive)
REMARK    1  A    between atoms: O_2  and  C_3 
REMARK    2  A    between atoms: C_3  and  C_4 
REMARK    3  A    between atoms: C_4  and  N_5 
REMARK       I    between atoms: N_5  and  C_6 
REMARK       I    between atoms: C_6  and  N_8 
REMARK    4  A    between atoms: N_8  and  C_9 
ROOT
HETATM    1  N   UNL     1     -44.686 -53.180  15.429  1.00  0.00    -0.340 N 
HETATM    2  C   UNL     1     -45.119 -54.180  14.621  1.00  0.00     0.321 C 
HETATM    3  O   UNL     1     -46.160 -54.802  14.823  1.00  0.00    -0.247 OA
HETATM    4  N   UNL     1     -44.344 -54.487  13.543  1.00  0.00    -0.295 N 
HETATM    5  H   UNL     1     -43.800 -52.745  15.168  1.00  0.00     0.164 HD
HETATM    6  H   UNL     1     -44.721 -55.239  12.986  1.00  0.00     0.172 HD
ENDROOT
BRANCH   1   7
HETATM    7  C   UNL     1     -45.381 -52.745  16.612  1.00  0.00     0.162 C 
BRANCH   7   8
HETATM    8  C   UNL     1     -45.926 -51.325  16.379  1.00  0.00     0.076 C 
HETATM    9  C   UNL     1     -47.293 -51.336  15.632  1.00  0.00     0.040 C 
HETATM   10  C   UNL     1     -48.007 -51.218  16.989  1.00  0.00     0.006 C 
HETATM   11  C   UNL     1     -46.694 -50.697  17.587  1.00  0.00     0.040 C 
BRANCH   8  12
HETATM   12  O   UNL     1     -44.919 -50.417  15.846  1.00  0.00    -0.383 OA
HETATM   13  C   UNL     1     -43.989 -49.839  16.750  1.00  0.00     0.202 C 
ENDBRANCH   8  12
ENDBRANCH   7   8
ENDBRANCH   1   7
BRANCH   4  14
HETATM   14  C   UNL     1     -43.128 -53.913  13.157  1.00  0.00     0.109 A 
HETATM   15  C   UNL     1     -41.955 -54.406  13.717  1.00  0.00     0.055 A 
HETATM   16  C   UNL     1     -40.732 -53.826  13.354  1.00  0.00    -0.057 A 
HETATM   17  C   UNL     1     -39.438 -54.274  13.962  1.00  0.00     0.048 C 
HETATM   18  C   UNL     1     -40.736 -52.780  12.432  1.00  0.00     0.024 A 
HETATM   19  C   UNL     1     -41.945 -52.359  11.916  1.00  0.00     0.090 A 
HETATM   20  N   UNL     1     -43.130 -52.898  12.265  1.00  0.00    -0.352 N 
ATOM     21  HN  UNL     1     -44.002 -52.550  11.867  1.00  0.00     0.166 HD
ENDBRANCH   4  14
TORSDOF 4
ENDMDL
MODEL 7
REMARK VINA RESULT:      -5.4      2.880      5.684
REMARK  4 active torsions:
REMARK  status: ('A' for Active; 'I' for Inactive)
REMARK    1  A    between atoms: O_2  and  C_3 
REMARK    2  A    between atoms: C_3  and  C_4 
REMARK    3  A    between atoms: C_4  and  N_5 
REMARK       I    between atoms: N_5  and  C_6 
REMARK       I    between atoms: C_6  and  N_8 
REMARK    4  A    between atoms: N_8  and  C_9 
ROOT
HETATM    1  N   UNL     1     -42.233 -51.454  13.977  1.00  0.00    -0.340 N 
HETATM    2  C   UNL     1     -42.783 -50.706  12.989  1.00  0.00     0.321 C 
HETATM    3  O   UNL     1     -42.138 -49.905  12.315  1.00  0.00    -0.247 OA
HETATM    4  N   UNL     1     -44.115 -50.870  12.753  1.00  0.00    -0.295 N 
HETATM    5  H   UNL     1     -42.870 -52.075  14.477  1.00  0.00     0.164 HD
HETATM    6  H   UNL     1     -44.461 -50.285  12.009  1.00  0.00     0.172 HD
ENDROOT
BRANCH   1   7
HETATM    7  C   UNL     1     -40.845 -51.389  14.357  1.00  0.00     0.162 C 
BRANCH   7   8
HETATM    8  C   UNL     1     -40.059 -52.449  13.566  1.00  0.00     0.076 C 
HETATM    9  C   UNL     1     -39.121 -53.289  14.483  1.00  0.00     0.040 C 
HETATM   10  C   UNL     1     -40.208 -54.375  14.556  1.00  0.00     0.006 C 
HETATM   11  C   UNL     1     -40.829 -53.780  13.286  1.00  0.00     0.040 C 
BRANCH   8  12
HETATM   12  O   UNL     1     -39.450 -51.911  12.357  1.00  0.00    -0.383 OA
HETATM   13  C   UNL     1     -38.677 -50.725  12.462  1.00  0.00     0.202 C 
ENDBRANCH   8  12
ENDBRANCH   7   8
ENDBRANCH   1   7
BRANCH   4  14
HETATM   14  C   UNL     1     -45.016 -51.710  13.418  1.00  0.00     0.109 A 
HETATM   15  C   UNL     1     -45.809 -51.168  14.423  1.00  0.00     0.055 A 
HETATM   16  C   UNL     1     -46.701 -52.002  15.109  1.00  0.00    -0.057 A 
HETATM   17  C   UNL     1     -47.543 -51.493  16.239  1.00  0.00     0.048 C 
HETATM   18  C   UNL     1     -46.769 -53.348  14.751  1.00  0.00     0.024 A 
HETATM   19  C   UNL     1     -45.954 -53.801  13.733  1.00  0.00     0.090 A 
HETATM   20  N   UNL     1     -45.082 -53.015  13.072  1.00  0.00    -0.352 N 
ATOM     21  HN  UNL     1     -44.490 -53.392  12.333  1.00  0.00     0.166 HD
ENDBRANCH   4  14
TORSDOF 4
ENDMDL
MODEL 8
REMARK VINA RESULT:      -5.2      2.754      4.427
REMARK  4 active torsions:
REMARK  status: ('A' for Active; 'I' for Inactive)
REMARK    1  A    between atoms: O_2  and  C_3 
REMARK    2  A    between atoms: C_3  and  C_4 
REMARK    3  A    between atoms: C_4  and  N_5 
REMARK       I    between atoms: N_5  and  C_6 
REMARK       I    between atoms: C_6  and  N_8 
REMARK    4  A    between atoms: N_8  and  C_9 
ROOT
HETATM    1  N   UNL     1     -44.655 -51.799  13.560  1.00  0.00    -0.340 N 
HETATM    2  C   UNL     1     -44.678 -52.737  12.581  1.00  0.00     0.321 C 
HETATM    3  O   UNL     1     -45.708 -53.299  12.213  1.00  0.00    -0.247 OA
HETATM    4  N   UNL     1     -43.489 -53.053  11.995  1.00  0.00    -0.295 N 
HETATM    5  H   UNL     1     -43.739 -51.412  13.789  1.00  0.00     0.164 HD
HETATM    6  H   UNL     1     -43.575 -53.757  11.278  1.00  0.00     0.172 HD
ENDROOT
BRANCH   1   7
HETATM    7  C   UNL     1     -45.822 -51.365  14.284  1.00  0.00     0.162 C 
BRANCH   7   8
HETATM    8  C   UNL     1     -45.551 -51.495  15.793  1.00  0.00     0.076 C 
HETATM    9  C   UNL     1     -46.737 -52.169  16.546  1.00  0.00     0.040 C 
HETATM   10  C   UNL     1     -45.996 -53.514  16.455  1.00  0.00     0.006 C 
HETATM   11  C   UNL     1     -44.697 -52.735  16.214  1.00  0.00     0.040 C 
BRANCH   8  12
HETATM   12  O   UNL     1     -45.043 -50.263  16.382  1.00  0.00    -0.383 OA
HETATM   13  C   UNL     1     -45.608 -49.819  17.606  1.00  0.00     0.202 C 
ENDBRANCH   8  12
ENDBRANCH   7   8
ENDBRANCH   1   7
BRANCH   4  14
HETATM   14  C   UNL     1     -42.217 -52.543  12.283  1.00  0.00     0.109 A 
HETATM   15  C   UNL     1     -41.378 -53.285  13.107  1.00  0.00     0.055 A 
HETATM   16  C   UNL     1     -40.111 -52.776  13.420  1.00  0.00    -0.057 A 
HETATM   17  C   UNL     1     -39.180 -53.499  14.345  1.00  0.00     0.048 C 
HETATM   18  C   UNL     1     -39.732 -51.547  12.882  1.00  0.00     0.024 A 
HETATM   19  C   UNL     1     -40.623 -50.882  12.064  1.00  0.00     0.090 A 
HETATM   20  N   UNL     1     -41.850 -51.351  11.764  1.00  0.00    -0.352 N 
ATOM     21  HN  UNL     1     -42.482 -50.823  11.163  1.00  0.00     0.166 HD
ENDBRANCH   4  14
TORSDOF 4
ENDMDL
MODEL 9
REMARK VINA RESULT:      -5.1      2.331      5.661
REMARK  4 active torsions:
REMARK  status: ('A' for Active; 'I' for Inactive)
REMARK    1  A    between atoms: O_2  and  C_3 
REMARK    2  A    between atoms: C_3  and  C_4 
REMARK    3  A    between atoms: C_4  and  N_5 
REMARK       I    between atoms: N_5  and  C_6 
REMARK       I    between atoms: C_6  and  N_8 
REMARK    4  A    between atoms: N_8  and  C_9 
ROOT
HETATM    1  N   UNL     1     -40.741 -50.373  13.114  1.00  0.00    -0.340 N 
HETATM    2  C   UNL     1     -39.984 -51.213  12.365  1.00  0.00     0.321 C 
HETATM    3  O   UNL     1     -38.889 -50.899  11.903  1.00  0.00    -0.247 OA
HETATM    4  N   UNL     1     -40.486 -52.458  12.130  1.00  0.00    -0.295 N 
HETATM    5  H   UNL     1     -41.639 -50.741  13.431  1.00  0.00     0.164 HD
HETATM    6  H   UNL     1     -39.877 -53.031  11.566  1.00  0.00     0.172 HD
ENDROOT
BRANCH   1   7
HETATM    7  C   UNL     1     -40.359 -49.023  13.440  1.00  0.00     0.162 C 
BRANCH   7   8
HETATM    8  C   UNL     1     -41.049 -48.057  12.461  1.00  0.00     0.076 C 
HETATM    9  C   UNL     1     -41.296 -46.656  13.095  1.00  0.00     0.040 C 
HETATM   10  C   UNL     1     -40.001 -46.156  12.431  1.00  0.00     0.006 C 
HETATM   11  C   UNL     1     -40.097 -47.334  11.454  1.00  0.00     0.040 C 
BRANCH   8  12
HETATM   12  O   UNL     1     -42.192 -48.661  11.788  1.00  0.00    -0.383 OA
HETATM   13  C   UNL     1     -43.093 -47.808  11.098  1.00  0.00     0.202 C 
ENDBRANCH   8  12
ENDBRANCH   7   8
ENDBRANCH   1   7
BRANCH   4  14
HETATM   14  C   UNL     1     -41.710 -52.994  12.549  1.00  0.00     0.109 A 
HETATM   15  C   UNL     1     -41.722 -53.825  13.664  1.00  0.00     0.055 A 
HETATM   16  C   UNL     1     -42.937 -54.383  14.081  1.00  0.00    -0.057 A 
HETATM   17  C   UNL     1     -43.010 -55.329  15.241  1.00  0.00     0.048 C 
HETATM   18  C   UNL     1     -44.095 -54.076  13.368  1.00  0.00     0.024 A 
HETATM   19  C   UNL     1     -43.994 -53.233  12.279  1.00  0.00     0.090 A 
HETATM   20  N   UNL     1     -42.832 -52.698  11.857  1.00  0.00    -0.352 N 
ATOM     21  HN  UNL     1     -42.800 -52.088  11.041  1.00  0.00     0.166 HD
ENDBRANCH   4  14
TORSDOF 4
ENDMDL
