MODEL 1
REMARK VINA RESULT:      -5.6      0.000      0.000
REMARK  5 active torsions:
REMARK  status: ('A' for Active; 'I' for Inactive)
REMARK    1  A    between atoms: C_2  and  C_4 
REMARK    2  A    between atoms: C_4  and  C_5 
REMARK       I    between atoms: C_5  and  N_7 
REMARK    3  A    between atoms: N_7  and  C_8 
REMARK    4  A    between atoms: C_8  and  C_9 
REMARK    5  A    between atoms: C_15  and  N_16 
ROOT
HETATM    1  C   UNL     1     -40.960 -52.817  12.747  1.00  0.00     0.004 A 
HETATM    2  C   UNL     1     -40.717 -54.139  13.182  1.00  0.00     0.014 A 
HETATM    3  C   UNL     1     -39.611 -54.435  13.957  1.00  0.00     0.018 A 
HETATM    4  C   UNL     1     -38.763 -53.398  14.261  1.00  0.00     0.089 A 
HETATM    5  N   UNL     1     -38.948 -52.131  13.833  1.00  0.00    -0.352 N 
ATOM      6  HN  UNL     1     -38.273 -51.408  14.080  1.00  0.00     0.166 HD
HETATM    7  C   UNL     1     -40.029 -51.815  13.073  1.00  0.00     0.111 A 
ENDROOT
BRANCH   1   8
HETATM    8  C   UNL     1     -42.266 -52.590  12.035  1.00  0.00     0.165 C 
BRANCH   8   9
HETATM    9  N   UNL     1     -43.363 -52.362  12.956  1.00  0.00    -0.357 N 
HETATM   10  C   UNL     1     -44.365 -53.293  13.088  1.00  0.00     0.218 C 
HETATM   11  O   UNL     1     -44.466 -54.269  12.348  1.00  0.00    -0.274 OA
HETATM   12  H   UNL     1     -43.284 -51.602  13.620  1.00  0.00     0.162 HD
BRANCH  10  13
HETATM   13  C   UNL     1     -45.330 -52.998  14.222  1.00  0.00     0.106 C 
BRANCH  13  14
HETATM   14  C   UNL     1     -46.045 -51.645  14.062  1.00  0.00    -0.014 C 
HETATM   15  C   UNL     1     -46.788 -51.555  12.725  1.00  0.00     0.010 C 
HETATM   16  C   UNL     1     -47.035 -51.424  15.207  1.00  0.00     0.010 C 
ENDBRANCH  13  14
ENDBRANCH  10  13
ENDBRANCH   8   9
ENDBRANCH   1   8
BRANCH   7  17
HETATM   17  N   UNL     1     -40.159 -50.489  12.754  1.00  0.00    -0.363 N 
HETATM   18  C   UNL     1     -40.336 -49.496  13.828  1.00  0.00     0.150 C 
HETATM   19  C   UNL     1     -41.457 -48.530  13.397  1.00  0.00     0.187 C 
HETATM   20  O   UNL     1     -41.198 -47.926  12.113  1.00  0.00    -0.388 OA
HETATM   21  C   UNL     1     -40.995 -48.934  11.103  1.00  0.00     0.187 C 
HETATM   22  C   UNL     1     -39.818 -49.848  11.484  1.00  0.00     0.150 C 
ENDBRANCH   7  17
TORSDOF 5
ENDMDL
MODEL 2
REMARK VINA RESULT:      -5.5      2.119      3.835
REMARK  5 active torsions:
REMARK  status: ('A' for Active; 'I' for Inactive)
REMARK    1  A    between atoms: C_2  and  C_4 
REMARK    2  A    between atoms: C_4  and  C_5 
REMARK       I    between atoms: C_5  and  N_7 
REMARK    3  A    between atoms: N_7  and  C_8 
REMARK    4  A    between atoms: C_8  and  C_9 
REMARK    5  A    between atoms: C_15  and  N_16 
ROOT
HETATM    1  C   UNL     1     -41.719 -49.701  12.542  1.00  0.00     0.004 A 
HETATM    2  C   UNL     1     -42.886 -48.940  12.315  1.00  0.00     0.014 A 
HETATM    3  C   UNL     1     -42.816 -47.566  12.172  1.00  0.00     0.018 A 
HETATM    4  C   UNL     1     -41.575 -46.987  12.279  1.00  0.00     0.089 A 
HETATM    5  N   UNL     1     -40.445 -47.682  12.530  1.00  0.00    -0.352 N 
ATOM      6  HN  UNL     1     -39.556 -47.191  12.614  1.00  0.00     0.166 HD
HETATM    7  C   UNL     1     -40.489 -49.032  12.670  1.00  0.00     0.111 A 
ENDROOT
BRANCH   1   8
HETATM    8  C   UNL     1     -41.898 -51.196  12.535  1.00  0.00     0.165 C 
BRANCH   8   9
HETATM    9  N   UNL     1     -43.289 -51.582  12.397  1.00  0.00    -0.357 N 
HETATM   10  C   UNL     1     -43.693 -52.854  12.726  1.00  0.00     0.218 C 
HETATM   11  O   UNL     1     -42.900 -53.751  13.001  1.00  0.00    -0.274 OA
HETATM   12  H   UNL     1     -43.976 -50.858  12.229  1.00  0.00     0.162 HD
BRANCH  10  13
HETATM   13  C   UNL     1     -45.199 -53.042  12.708  1.00  0.00     0.106 C 
BRANCH  13  14
HETATM   14  C   UNL     1     -45.969 -51.710  12.752  1.00  0.00    -0.014 C 
HETATM   15  C   UNL     1     -47.087 -51.672  11.705  1.00  0.00     0.010 C 
HETATM   16  C   UNL     1     -46.568 -51.484  14.141  1.00  0.00     0.010 C 
ENDBRANCH  13  14
ENDBRANCH  10  13
ENDBRANCH   8   9
ENDBRANCH   1   8
BRANCH   7  17
HETATM   17  N   UNL     1     -39.277 -49.647  12.849  1.00  0.00    -0.363 N 
HETATM   18  C   UNL     1     -38.146 -49.295  11.972  1.00  0.00     0.150 C 
HETATM   19  C   UNL     1     -37.455 -50.605  11.545  1.00  0.00     0.187 C 
HETATM   20  O   UNL     1     -37.059 -51.411  12.674  1.00  0.00    -0.388 OA
HETATM   21  C   UNL     1     -38.189 -51.697  13.521  1.00  0.00     0.187 C 
HETATM   22  C   UNL     1     -38.829 -50.393  14.025  1.00  0.00     0.150 C 
ENDBRANCH   7  17
TORSDOF 5
ENDMDL
MODEL 3
REMARK VINA RESULT:      -5.5      2.344      3.119
REMARK  5 active torsions:
REMARK  status: ('A' for Active; 'I' for Inactive)
REMARK    1  A    between atoms: C_2  and  C_4 
REMARK    2  A    between atoms: C_4  and  C_5 
REMARK       I    between atoms: C_5  and  N_7 
REMARK    3  A    between atoms: N_7  and  C_8 
REMARK    4  A    between atoms: C_8  and  C_9 
REMARK    5  A    between atoms: C_15  and  N_16 
ROOT
HETATM    1  C   UNL     1     -40.830 -49.681  12.614  1.00  0.00     0.004 A 
HETATM    2  C   UNL     1     -39.966 -50.659  13.153  1.00  0.00     0.014 A 
HETATM    3  C   UNL     1     -38.680 -50.811  12.668  1.00  0.00     0.018 A 
HETATM    4  C   UNL     1     -38.299 -49.987  11.637  1.00  0.00     0.089 A 
HETATM    5  N   UNL     1     -39.111 -49.066  11.076  1.00  0.00    -0.352 N 
ATOM      6  HN  UNL     1     -38.773 -48.496  10.302  1.00  0.00     0.166 HD
HETATM    7  C   UNL     1     -40.377 -48.897  11.539  1.00  0.00     0.111 A 
ENDROOT
BRANCH   1   8
HETATM    8  C   UNL     1     -42.149 -49.511  13.318  1.00  0.00     0.165 C 
BRANCH   8   9
HETATM    9  N   UNL     1     -43.165 -50.412  12.809  1.00  0.00    -0.357 N 
HETATM   10  C   UNL     1     -43.523 -51.531  13.522  1.00  0.00     0.218 C 
HETATM   11  O   UNL     1     -42.916 -51.900  14.524  1.00  0.00    -0.274 OA
HETATM   12  H   UNL     1     -43.724 -50.112  12.019  1.00  0.00     0.162 HD
BRANCH  10  13
HETATM   13  C   UNL     1     -44.725 -52.263  12.952  1.00  0.00     0.106 C 
BRANCH  13  14
HETATM   14  C   UNL     1     -45.995 -51.394  12.923  1.00  0.00    -0.014 C 
HETATM   15  C   UNL     1     -46.954 -51.836  11.813  1.00  0.00     0.010 C 
HETATM   16  C   UNL     1     -46.716 -51.457  14.271  1.00  0.00     0.010 C 
ENDBRANCH  13  14
ENDBRANCH  10  13
ENDBRANCH   8   9
ENDBRANCH   1   8
BRANCH   7  17
HETATM   17  N   UNL     1     -41.091 -47.887  10.949  1.00  0.00    -0.363 N 
HETATM   18  C   UNL     1     -40.554 -46.515  10.958  1.00  0.00     0.150 C 
HETATM   19  C   UNL     1     -41.706 -45.561  11.332  1.00  0.00     0.187 C 
HETATM   20  O   UNL     1     -42.848 -45.710  10.462  1.00  0.00    -0.388 OA
HETATM   21  C   UNL     1     -43.313 -47.074  10.457  1.00  0.00     0.187 C 
HETATM   22  C   UNL     1     -42.194 -48.023   9.997  1.00  0.00     0.150 C 
ENDBRANCH   7  17
TORSDOF 5
ENDMDL
MODEL 4
REMARK VINA RESULT:      -5.5      3.291      5.305
REMARK  5 active torsions:
REMARK  status: ('A' for Active; 'I' for Inactive)
REMARK    1  A    between atoms: C_2  and  C_4 
REMARK    2  A    between atoms: C_4  and  C_5 
REMARK       I    between atoms: C_5  and  N_7 
REMARK    3  A    between atoms: N_7  and  C_8 
REMARK    4  A    between atoms: C_8  and  C_9 
REMARK    5  A    between atoms: C_15  and  N_16 
ROOT
HETATM    1  C   UNL     1     -42.036 -54.521  14.635  1.00  0.00     0.004 A 
HETATM    2  C   UNL     1     -42.068 -53.871  13.382  1.00  0.00     0.014 A 
HETATM    3  C   UNL     1     -40.913 -53.350  12.827  1.00  0.00     0.018 A 
HETATM    4  C   UNL     1     -39.755 -53.479  13.554  1.00  0.00     0.089 A 
HETATM    5  N   UNL     1     -39.697 -54.064  14.770  1.00  0.00    -0.352 N 
ATOM      6  HN  UNL     1     -38.808 -54.114  15.267  1.00  0.00     0.166 HD
HETATM    7  C   UNL     1     -40.817 -54.585  15.333  1.00  0.00     0.111 A 
ENDROOT
BRANCH   1   8
HETATM    8  C   UNL     1     -43.321 -55.173  15.069  1.00  0.00     0.165 C 
BRANCH   8   9
HETATM    9  N   UNL     1     -44.445 -54.257  15.028  1.00  0.00    -0.357 N 
HETATM   10  C   UNL     1     -45.631 -54.637  14.448  1.00  0.00     0.218 C 
HETATM   11  O   UNL     1     -45.756 -55.684  13.818  1.00  0.00    -0.274 OA
HETATM   12  H   UNL     1     -44.398 -53.412  15.584  1.00  0.00     0.162 HD
BRANCH  10  13
HETATM   13  C   UNL     1     -46.760 -53.643  14.654  1.00  0.00     0.106 C 
BRANCH  13  14
HETATM   14  C   UNL     1     -46.286 -52.180  14.599  1.00  0.00    -0.014 C 
HETATM   15  C   UNL     1     -46.453 -51.587  13.196  1.00  0.00     0.010 C 
HETATM   16  C   UNL     1     -47.062 -51.328  15.605  1.00  0.00     0.010 C 
ENDBRANCH  13  14
ENDBRANCH  10  13
ENDBRANCH   8   9
ENDBRANCH   1   8
BRANCH   7  17
HETATM   17  N   UNL     1     -40.634 -55.220  16.534  1.00  0.00    -0.363 N 
HETATM   18  C   UNL     1     -39.538 -56.194  16.682  1.00  0.00     0.150 C 
HETATM   19  C   UNL     1     -40.099 -57.426  17.420  1.00  0.00     0.187 C 
HETATM   20  O   UNL     1     -40.714 -57.079  18.678  1.00  0.00    -0.388 OA
HETATM   21  C   UNL     1     -41.752 -56.098  18.489  1.00  0.00     0.187 C 
HETATM   22  C   UNL     1     -41.180 -54.829  17.833  1.00  0.00     0.150 C 
ENDBRANCH   7  17
TORSDOF 5
ENDMDL
MODEL 5
REMARK VINA RESULT:      -5.5      2.235      4.255
REMARK  5 active torsions:
REMARK  status: ('A' for Active; 'I' for Inactive)
REMARK    1  A    between atoms: C_2  and  C_4 
REMARK    2  A    between atoms: C_4  and  C_5 
REMARK       I    between atoms: C_5  and  N_7 
REMARK    3  A    between atoms: N_7  and  C_8 
REMARK    4  A    between atoms: C_8  and  C_9 
REMARK    5  A    between atoms: C_15  and  N_16 
ROOT
HETATM    1  C   UNL     1     -42.289 -48.795  12.574  1.00  0.00     0.004 A 
HETATM    2  C   UNL     1     -43.082 -47.717  12.122  1.00  0.00     0.014 A 
HETATM    3  C   UNL     1     -43.003 -47.283  10.811  1.00  0.00     0.018 A 
HETATM    4  C   UNL     1     -42.114 -47.931   9.989  1.00  0.00     0.089 A 
HETATM    5  N   UNL     1     -41.317 -48.941  10.398  1.00  0.00    -0.352 N 
ATOM      6  HN  UNL     1     -40.665 -49.371   9.742  1.00  0.00     0.166 HD
HETATM    7  C   UNL     1     -41.379 -49.387  11.680  1.00  0.00     0.111 A 
ENDROOT
BRANCH   1   8
HETATM    8  C   UNL     1     -42.565 -49.271  13.974  1.00  0.00     0.165 C 
BRANCH   8   9
HETATM    9  N   UNL     1     -43.609 -50.276  14.018  1.00  0.00    -0.357 N 
HETATM   10  C   UNL     1     -43.601 -51.246  14.993  1.00  0.00     0.218 C 
HETATM   11  O   UNL     1     -42.658 -51.401  15.765  1.00  0.00    -0.274 OA
HETATM   12  H   UNL     1     -44.428 -50.147  13.437  1.00  0.00     0.162 HD
BRANCH  10  13
HETATM   13  C   UNL     1     -44.855 -52.101  15.017  1.00  0.00     0.106 C 
BRANCH  13  14
HETATM   14  C   UNL     1     -46.117 -51.324  14.601  1.00  0.00    -0.014 C 
HETATM   15  C   UNL     1     -46.659 -51.811  13.253  1.00  0.00     0.010 C 
HETATM   16  C   UNL     1     -47.206 -51.464  15.666  1.00  0.00     0.010 C 
ENDBRANCH  13  14
ENDBRANCH  10  13
ENDBRANCH   8   9
ENDBRANCH   1   8
BRANCH   7  17
HETATM   17  N   UNL     1     -40.581 -50.462  11.971  1.00  0.00    -0.363 N 
HETATM   18  C   UNL     1     -41.114 -51.827  11.811  1.00  0.00     0.150 C 
HETATM   19  C   UNL     1     -40.702 -52.642  13.054  1.00  0.00     0.187 C 
HETATM   20  O   UNL     1     -39.277 -52.618  13.279  1.00  0.00    -0.388 OA
HETATM   21  C   UNL     1     -38.797 -51.264  13.390  1.00  0.00     0.187 C 
HETATM   22  C   UNL     1     -39.126 -50.470  12.115  1.00  0.00     0.150 C 
ENDBRANCH   7  17
TORSDOF 5
ENDMDL
MODEL 6
REMARK VINA RESULT:      -5.5      1.902      5.806
REMARK  5 active torsions:
REMARK  status: ('A' for Active; 'I' for Inactive)
REMARK    1  A    between atoms: C_2  and  C_4 
REMARK    2  A    between atoms: C_4  and  C_5 
REMARK       I    between atoms: C_5  and  N_7 
REMARK    3  A    between atoms: N_7  and  C_8 
REMARK    4  A    between atoms: C_8  and  C_9 
REMARK    5  A    between atoms: C_15  and  N_16 
ROOT
HETATM    1  C   UNL     1     -41.552 -53.309  13.258  1.00  0.00     0.004 A 
HETATM    2  C   UNL     1     -40.171 -53.546  13.431  1.00  0.00     0.014 A 
HETATM    3  C   UNL     1     -39.712 -54.298  14.497  1.00  0.00     0.018 A 
HETATM    4  C   UNL     1     -40.652 -54.780  15.375  1.00  0.00     0.089 A 
HETATM    5  N   UNL     1     -41.976 -54.543  15.257  1.00  0.00    -0.352 N 
ATOM      6  HN  UNL     1     -42.622 -54.917  15.951  1.00  0.00     0.166 HD
HETATM    7  C   UNL     1     -42.450 -53.810  14.216  1.00  0.00     0.111 A 
ENDROOT
BRANCH   1   8
HETATM    8  C   UNL     1     -41.942 -52.604  11.987  1.00  0.00     0.165 C 
BRANCH   8   9
HETATM    9  N   UNL     1     -40.913 -51.694  11.524  1.00  0.00    -0.357 N 
HETATM   10  C   UNL     1     -40.972 -50.358  11.842  1.00  0.00     0.218 C 
HETATM   11  O   UNL     1     -41.946 -49.849  12.390  1.00  0.00    -0.274 OA
HETATM   12  H   UNL     1     -40.070 -52.084  11.121  1.00  0.00     0.162 HD
BRANCH  10  13
HETATM   13  C   UNL     1     -39.729 -49.579  11.447  1.00  0.00     0.106 C 
BRANCH  13  14
HETATM   14  C   UNL     1     -38.430 -50.223  11.965  1.00  0.00    -0.014 C 
HETATM   15  C   UNL     1     -37.264 -49.992  10.999  1.00  0.00     0.010 C 
HETATM   16  C   UNL     1     -38.068 -49.661  13.342  1.00  0.00     0.010 C 
ENDBRANCH  13  14
ENDBRANCH  10  13
ENDBRANCH   8   9
ENDBRANCH   1   8
BRANCH   7  17
HETATM   17  N   UNL     1     -43.814 -53.692  14.150  1.00  0.00    -0.363 N 
HETATM   18  C   UNL     1     -44.472 -52.514  14.742  1.00  0.00     0.150 C 
HETATM   19  C   UNL     1     -45.701 -53.007  15.532  1.00  0.00     0.187 C 
HETATM   20  O   UNL     1     -46.593 -53.799  14.721  1.00  0.00    -0.388 OA
HETATM   21  C   UNL     1     -45.898 -54.916  14.134  1.00  0.00     0.187 C 
HETATM   22  C   UNL     1     -44.723 -54.427  13.271  1.00  0.00     0.150 C 
ENDBRANCH   7  17
TORSDOF 5
ENDMDL
MODEL 7
REMARK VINA RESULT:      -5.5      2.283      5.482
REMARK  5 active torsions:
REMARK  status: ('A' for Active; 'I' for Inactive)
REMARK    1  A    between atoms: C_2  and  C_4 
REMARK    2  A    between atoms: C_4  and  C_5 
REMARK       I    between atoms: C_5  and  N_7 
REMARK    3  A    between atoms: N_7  and  C_8 
REMARK    4  A    between atoms: C_8  and  C_9 
REMARK    5  A    between atoms: C_15  and  N_16 
ROOT
HETATM    1  C   UNL     1     -44.174 -51.266  13.242  1.00  0.00     0.004 A 
HETATM    2  C   UNL     1     -45.575 -51.216  13.409  1.00  0.00     0.014 A 
HETATM    3  C   UNL     1     -46.320 -52.379  13.475  1.00  0.00     0.018 A 
HETATM    4  C   UNL     1     -45.641 -53.567  13.352  1.00  0.00     0.089 A 
HETATM    5  N   UNL     1     -44.307 -53.648  13.157  1.00  0.00    -0.352 N 
ATOM      6  HN  UNL     1     -43.863 -54.561  13.058  1.00  0.00     0.166 HD
HETATM    7  C   UNL     1     -43.554 -52.520  13.093  1.00  0.00     0.111 A 
ENDROOT
BRANCH   1   8
HETATM    8  C   UNL     1     -43.455 -49.947  13.330  1.00  0.00     0.165 C 
BRANCH   8   9
HETATM    9  N   UNL     1     -43.281 -49.326  12.031  1.00  0.00    -0.357 N 
HETATM   10  C   UNL     1     -42.156 -48.585  11.760  1.00  0.00     0.218 C 
HETATM   11  O   UNL     1     -41.332 -48.291  12.622  1.00  0.00    -0.274 OA
HETATM   12  H   UNL     1     -43.907 -49.593  11.282  1.00  0.00     0.162 HD
BRANCH  10  13
HETATM   13  C   UNL     1     -42.035 -48.165  10.306  1.00  0.00     0.106 C 
BRANCH  13  14
HETATM   14  C   UNL     1     -43.233 -47.328   9.823  1.00  0.00    -0.014 C 
HETATM   15  C   UNL     1     -42.974 -45.827   9.992  1.00  0.00     0.010 C 
HETATM   16  C   UNL     1     -43.538 -47.628   8.355  1.00  0.00     0.010 C 
ENDBRANCH  13  14
ENDBRANCH  10  13
ENDBRANCH   8   9
ENDBRANCH   1   8
BRANCH   7  17
HETATM   17  N   UNL     1     -42.204 -52.717  12.966  1.00  0.00    -0.363 N 
HETATM   18  C   UNL     1     -41.534 -53.725  13.807  1.00  0.00     0.150 C 
HETATM   19  C   UNL     1     -40.232 -53.099  14.346  1.00  0.00     0.187 C 
HETATM   20  O   UNL     1     -39.386 -52.597  13.291  1.00  0.00    -0.388 OA
HETATM   21  C   UNL     1     -40.095 -51.644  12.474  1.00  0.00     0.187 C 
HETATM   22  C   UNL     1     -41.348 -52.289  11.860  1.00  0.00     0.150 C 
ENDBRANCH   7  17
TORSDOF 5
ENDMDL
MODEL 8
REMARK VINA RESULT:      -5.3      1.411      1.795
REMARK  5 active torsions:
REMARK  status: ('A' for Active; 'I' for Inactive)
REMARK    1  A    between atoms: C_2  and  C_4 
REMARK    2  A    between atoms: C_4  and  C_5 
REMARK       I    between atoms: C_5  and  N_7 
REMARK    3  A    between atoms: N_7  and  C_8 
REMARK    4  A    between atoms: C_8  and  C_9 
REMARK    5  A    between atoms: C_15  and  N_16 
ROOT
HETATM    1  C   UNL     1     -42.172 -53.099  13.509  1.00  0.00     0.004 A 
HETATM    2  C   UNL     1     -42.634 -54.321  14.046  1.00  0.00     0.014 A 
HETATM    3  C   UNL     1     -41.978 -54.919  15.106  1.00  0.00     0.018 A 
HETATM    4  C   UNL     1     -40.860 -54.285  15.590  1.00  0.00     0.089 A 
HETATM    5  N   UNL     1     -40.373 -53.134  15.078  1.00  0.00    -0.352 N 
ATOM      6  HN  UNL     1     -39.528 -52.721  15.473  1.00  0.00     0.166 HD
HETATM    7  C   UNL     1     -41.002 -52.526  14.039  1.00  0.00     0.111 A 
ENDROOT
BRANCH   1   8
HETATM    8  C   UNL     1     -43.047 -52.471  12.458  1.00  0.00     0.165 C 
BRANCH   8   9
HETATM    9  N   UNL     1     -44.170 -51.756  13.032  1.00  0.00    -0.357 N 
HETATM   10  C   UNL     1     -45.439 -52.279  12.957  1.00  0.00     0.218 C 
HETATM   11  O   UNL     1     -45.707 -53.276  12.290  1.00  0.00    -0.274 OA
HETATM   12  H   UNL     1     -43.981 -50.966  13.635  1.00  0.00     0.162 HD
BRANCH  10  13
HETATM   13  C   UNL     1     -46.468 -51.510  13.766  1.00  0.00     0.106 C 
BRANCH  13  14
HETATM   14  C   UNL     1     -46.968 -52.290  14.995  1.00  0.00    -0.014 C 
HETATM   15  C   UNL     1     -45.886 -53.223  15.548  1.00  0.00     0.010 C 
HETATM   16  C   UNL     1     -47.416 -51.325  16.094  1.00  0.00     0.010 C 
ENDBRANCH  13  14
ENDBRANCH  10  13
ENDBRANCH   8   9
ENDBRANCH   1   8
BRANCH   7  17
HETATM   17  N   UNL     1     -40.467 -51.328  13.645  1.00  0.00    -0.363 N 
HETATM   18  C   UNL     1     -40.812 -50.099  14.381  1.00  0.00     0.150 C 
HETATM   19  C   UNL     1     -41.115 -48.998  13.346  1.00  0.00     0.187 C 
HETATM   20  O   UNL     1     -40.031 -48.807  12.413  1.00  0.00    -0.388 OA
HETATM   21  C   UNL     1     -39.705 -50.042  11.746  1.00  0.00     0.187 C 
HETATM   22  C   UNL     1     -39.314 -51.120  12.769  1.00  0.00     0.150 C 
ENDBRANCH   7  17
TORSDOF 5
ENDMDL
MODEL 9
REMARK VINA RESULT:      -5.2      2.359      3.374
REMARK  5 active torsions:
REMARK  status: ('A' for Active; 'I' for Inactive)
REMARK    1  A    between atoms: C_2  and  C_4 
REMARK    2  A    between atoms: C_4  and  C_5 
REMARK       I    between atoms: C_5  and  N_7 
REMARK    3  A    between atoms: N_7  and  C_8 
REMARK    4  A    between atoms: C_8  and  C_9 
REMARK    5  A    between atoms: C_15  and  N_16 
ROOT
HETATM    1  C   UNL     1     -39.587 -50.285  12.833  1.00  0.00     0.004 A 
HETATM    2  C   UNL     1     -38.467 -51.129  12.999  1.00  0.00     0.014 A 
HETATM    3  C   UNL     1     -37.332 -50.956  12.229  1.00  0.00     0.018 A 
HETATM    4  C   UNL     1     -37.355 -49.948  11.296  1.00  0.00     0.089 A 
HETATM    5  N   UNL     1     -38.421 -49.146  11.089  1.00  0.00    -0.352 N 
ATOM      6  HN  UNL     1     -38.382 -48.425  10.369  1.00  0.00     0.166 HD
HETATM    7  C   UNL     1     -39.546 -49.295  11.835  1.00  0.00     0.111 A 
ENDROOT
BRANCH   1   8
HETATM    8  C   UNL     1     -40.705 -50.475  13.823  1.00  0.00     0.165 C 
BRANCH   8   9
HETATM    9  N   UNL     1     -41.133 -51.858  13.910  1.00  0.00    -0.357 N 
HETATM   10  C   UNL     1     -42.271 -52.275  13.260  1.00  0.00     0.218 C 
HETATM   11  O   UNL     1     -43.045 -51.495  12.712  1.00  0.00    -0.274 OA
HETATM   12  H   UNL     1     -40.494 -52.537  14.302  1.00  0.00     0.162 HD
BRANCH  10  13
HETATM   13  C   UNL     1     -42.478 -53.779  13.292  1.00  0.00     0.106 C 
BRANCH  13  14
HETATM   14  C   UNL     1     -43.504 -54.219  14.351  1.00  0.00    -0.014 C 
HETATM   15  C   UNL     1     -44.809 -54.695  13.706  1.00  0.00     0.010 C 
HETATM   16  C   UNL     1     -42.929 -55.341  15.219  1.00  0.00     0.010 C 
ENDBRANCH  13  14
ENDBRANCH  10  13
ENDBRANCH   8   9
ENDBRANCH   1   8
BRANCH   7  17
HETATM   17  N   UNL     1     -40.540 -48.383  11.594  1.00  0.00    -0.363 N 
HETATM   18  C   UNL     1     -40.299 -46.955  11.866  1.00  0.00     0.150 C 
HETATM   19  C   UNL     1     -41.540 -46.398  12.593  1.00  0.00     0.187 C 
HETATM   20  O   UNL     1     -42.759 -46.631  11.857  1.00  0.00    -0.388 OA
HETATM   21  C   UNL     1     -42.932 -48.034  11.582  1.00  0.00     0.187 C 
HETATM   22  C   UNL     1     -41.739 -48.577  10.778  1.00  0.00     0.150 C 
ENDBRANCH   7  17
TORSDOF 5
ENDMDL
