MODEL 1
REMARK VINA RESULT:      -6.8      0.000      0.000
REMARK  5 active torsions:
REMARK  status: ('A' for Active; 'I' for Inactive)
REMARK    1  A    between atoms: N_4  and  C_5 
REMARK    2  A    between atoms: C_5  and  C_6 
REMARK    3  A    between atoms: C_6  and  C_7 
REMARK    4  A    between atoms: C_7  and  N_8 
REMARK       I    between atoms: N_8  and  C_9 
REMARK       I    between atoms: C_9  and  N_11 
REMARK    5  A    between atoms: N_11  and  C_12 
ROOT
HETATM    1  N   UNL     1     -40.986 -49.394  10.551  1.00  0.00    -0.343 N 
HETATM    2  C   UNL     1     -42.043 -48.517  10.650  1.00  0.00     0.320 C 
HETATM    3  O   UNL     1     -42.592 -48.280  11.719  1.00  0.00    -0.247 OA
HETATM    4  N   UNL     1     -42.381 -47.976   9.434  1.00  0.00    -0.306 N 
HETATM    5  H   UNL     1     -40.367 -49.257   9.768  1.00  0.00     0.164 HD
HETATM    6  H   UNL     1     -41.908 -48.299   8.607  1.00  0.00     0.171 HD
ENDROOT
BRANCH   1   7
HETATM    7  C   UNL     1     -40.444 -49.953  11.773  1.00  0.00     0.126 C 
BRANCH   7   8
HETATM    8  C   UNL     1     -41.069 -51.285  12.162  1.00  0.00     0.050 C 
BRANCH   8   9
HETATM    9  C   UNL     1     -41.759 -51.214  13.531  1.00  0.00     0.274 C 
BRANCH   9  10
HETATM   10  N   UNL     1     -42.939 -52.084  13.630  1.00  0.00     0.093 N 
HETATM   11  C   UNL     1     -42.795 -53.320  12.832  1.00  0.00     0.303 C 
HETATM   12  C   UNL     1     -44.055 -54.206  12.917  1.00  0.00     0.146 C 
HETATM   13  C   UNL     1     -44.246 -54.821  14.303  1.00  0.00     0.041 C 
HETATM   14  O   UNL     1     -45.222 -53.484  12.490  1.00  0.00    -0.378 OA
HETATM   15  C   UNL     1     -45.404 -52.255  13.212  1.00  0.00     0.146 C 
HETATM   16  C   UNL     1     -44.142 -51.367  13.144  1.00  0.00     0.303 C 
HETATM   17  C   UNL     1     -46.601 -51.540  12.597  1.00  0.00     0.041 C 
ENDBRANCH   9  10
ENDBRANCH   8   9
ENDBRANCH   7   8
ENDBRANCH   1   7
BRANCH   4  18
HETATM   18  C   UNL     1     -43.415 -47.076   9.270  1.00  0.00     0.070 A 
HETATM   19  C   UNL     1     -44.764 -47.271   8.904  1.00  0.00     0.138 A 
HETATM   20  N   UNL     1     -45.447 -46.122   8.850  1.00  0.00    -0.310 N 
HETATM   21  N   UNL     1     -44.531 -45.199   9.177  1.00  0.00    -0.310 N 
ATOM     22  HN  UNL     1     -46.430 -45.982   8.615  1.00  0.00     0.186 HD
HETATM   23  C   UNL     1     -43.298 -45.719   9.445  1.00  0.00     0.138 A 
HETATM   24  H   UNL     1     -44.823 -44.226   9.196  1.00  0.00     0.186 HD
ENDBRANCH   4  18
TORSDOF 5
ENDMDL
MODEL 2
REMARK VINA RESULT:      -6.4      0.990      2.179
REMARK  5 active torsions:
REMARK  status: ('A' for Active; 'I' for Inactive)
REMARK    1  A    between atoms: N_4  and  C_5 
REMARK    2  A    between atoms: C_5  and  C_6 
REMARK    3  A    between atoms: C_6  and  C_7 
REMARK    4  A    between atoms: C_7  and  N_8 
REMARK       I    between atoms: N_8  and  C_9 
REMARK       I    between atoms: C_9  and  N_11 
REMARK    5  A    between atoms: N_11  and  C_12 
ROOT
HETATM    1  N   UNL     1     -40.876 -49.461  10.474  1.00  0.00    -0.343 N 
HETATM    2  C   UNL     1     -41.812 -48.461  10.619  1.00  0.00     0.320 C 
HETATM    3  O   UNL     1     -42.007 -47.906  11.694  1.00  0.00    -0.247 OA
HETATM    4  N   UNL     1     -42.468 -48.193   9.443  1.00  0.00    -0.306 N 
HETATM    5  H   UNL     1     -40.512 -49.596   9.544  1.00  0.00     0.164 HD
HETATM    6  H   UNL     1     -42.278 -48.763   8.636  1.00  0.00     0.171 HD
ENDROOT
BRANCH   1   7
HETATM    7  C   UNL     1     -40.025 -49.770  11.604  1.00  0.00     0.126 C 
BRANCH   7   8
HETATM    8  C   UNL     1     -40.611 -50.819  12.538  1.00  0.00     0.050 C 
BRANCH   8   9
HETATM    9  C   UNL     1     -41.171 -52.022  11.768  1.00  0.00     0.274 C 
BRANCH   9  10
HETATM   10  N   UNL     1     -42.407 -52.559  12.353  1.00  0.00     0.093 N 
HETATM   11  C   UNL     1     -43.201 -51.520  13.043  1.00  0.00     0.303 C 
HETATM   12  C   UNL     1     -44.477 -52.104  13.682  1.00  0.00     0.146 C 
HETATM   13  C   UNL     1     -45.501 -52.553  12.640  1.00  0.00     0.041 C 
HETATM   14  O   UNL     1     -44.155 -53.162  14.601  1.00  0.00    -0.378 OA
HETATM   15  C   UNL     1     -43.359 -54.193  13.996  1.00  0.00     0.146 C 
HETATM   16  C   UNL     1     -42.086 -53.616  13.341  1.00  0.00     0.303 C 
HETATM   17  C   UNL     1     -42.999 -55.190  15.092  1.00  0.00     0.041 C 
ENDBRANCH   9  10
ENDBRANCH   8   9
ENDBRANCH   7   8
ENDBRANCH   1   7
BRANCH   4  18
HETATM   18  C   UNL     1     -43.458 -47.237   9.333  1.00  0.00     0.070 A 
HETATM   19  C   UNL     1     -43.382 -45.837   9.174  1.00  0.00     0.138 A 
HETATM   20  N   UNL     1     -44.590 -45.265   9.114  1.00  0.00    -0.310 N 
HETATM   21  N   UNL     1     -45.432 -46.301   9.238  1.00  0.00    -0.310 N 
ATOM     22  HN  UNL     1     -44.816 -44.277   9.001  1.00  0.00     0.186 HD
HETATM   23  C   UNL     1     -44.805 -47.507   9.365  1.00  0.00     0.138 A 
HETATM   24  H   UNL     1     -46.429 -46.107   9.228  1.00  0.00     0.186 HD
ENDBRANCH   4  18
TORSDOF 5
ENDMDL
MODEL 3
REMARK VINA RESULT:      -6.4      2.329      7.072
REMARK  5 active torsions:
REMARK  status: ('A' for Active; 'I' for Inactive)
REMARK    1  A    between atoms: N_4  and  C_5 
REMARK    2  A    between atoms: C_5  and  C_6 
REMARK    3  A    between atoms: C_6  and  C_7 
REMARK    4  A    between atoms: C_7  and  N_8 
REMARK       I    between atoms: N_8  and  C_9 
REMARK       I    between atoms: C_9  and  N_11 
REMARK    5  A    between atoms: N_11  and  C_12 
ROOT
HETATM    1  N   UNL     1     -41.299 -52.039  11.592  1.00  0.00    -0.343 N 
HETATM    2  C   UNL     1     -42.347 -52.258  12.459  1.00  0.00     0.320 C 
HETATM    3  O   UNL     1     -42.356 -51.800  13.595  1.00  0.00    -0.247 OA
HETATM    4  N   UNL     1     -43.330 -53.033  11.895  1.00  0.00    -0.306 N 
HETATM    5  H   UNL     1     -41.514 -52.107  10.610  1.00  0.00     0.164 HD
HETATM    6  H   UNL     1     -43.184 -53.417  10.976  1.00  0.00     0.171 HD
ENDROOT
BRANCH   1   7
HETATM    7  C   UNL     1     -40.242 -51.141  12.010  1.00  0.00     0.126 C 
BRANCH   7   8
HETATM    8  C   UNL     1     -40.202 -49.839  11.223  1.00  0.00     0.050 C 
BRANCH   8   9
HETATM    9  C   UNL     1     -41.181 -48.800  11.786  1.00  0.00     0.274 C 
BRANCH   9  10
HETATM   10  N   UNL     1     -41.196 -47.546  11.022  1.00  0.00     0.093 N 
HETATM   11  C   UNL     1     -40.967 -46.362  11.878  1.00  0.00     0.303 C 
HETATM   12  C   UNL     1     -41.022 -45.051  11.068  1.00  0.00     0.146 C 
HETATM   13  C   UNL     1     -39.839 -44.904  10.112  1.00  0.00     0.041 C 
HETATM   14  O   UNL     1     -42.279 -44.920  10.384  1.00  0.00    -0.378 OA
HETATM   15  C   UNL     1     -42.573 -46.055   9.553  1.00  0.00     0.146 C 
HETATM   16  C   UNL     1     -42.507 -47.375  10.352  1.00  0.00     0.303 C 
HETATM   17  C   UNL     1     -43.967 -45.843   8.974  1.00  0.00     0.041 C 
ENDBRANCH   9  10
ENDBRANCH   8   9
ENDBRANCH   7   8
ENDBRANCH   1   7
BRANCH   4  18
HETATM   18  C   UNL     1     -44.479 -53.400  12.566  1.00  0.00     0.070 A 
HETATM   19  C   UNL     1     -44.770 -54.532  13.357  1.00  0.00     0.138 A 
HETATM   20  N   UNL     1     -46.021 -54.515  13.830  1.00  0.00    -0.310 N 
HETATM   21  N   UNL     1     -46.525 -53.374  13.338  1.00  0.00    -0.310 N 
ATOM     22  HN  UNL     1     -46.481 -55.205  14.424  1.00  0.00     0.186 HD
HETATM   23  C   UNL     1     -45.639 -52.664  12.579  1.00  0.00     0.138 A 
HETATM   24  H   UNL     1     -47.488 -53.144  13.563  1.00  0.00     0.186 HD
ENDBRANCH   4  18
TORSDOF 5
ENDMDL
MODEL 4
REMARK VINA RESULT:      -6.3      1.437      1.806
REMARK  5 active torsions:
REMARK  status: ('A' for Active; 'I' for Inactive)
REMARK    1  A    between atoms: N_4  and  C_5 
REMARK    2  A    between atoms: C_5  and  C_6 
REMARK    3  A    between atoms: C_6  and  C_7 
REMARK    4  A    between atoms: C_7  and  N_8 
REMARK       I    between atoms: N_8  and  C_9 
REMARK       I    between atoms: C_9  and  N_11 
REMARK    5  A    between atoms: N_11  and  C_12 
ROOT
HETATM    1  N   UNL     1     -40.895 -49.380  10.661  1.00  0.00    -0.343 N 
HETATM    2  C   UNL     1     -41.942 -48.489  10.732  1.00  0.00     0.320 C 
HETATM    3  O   UNL     1     -42.422 -48.137  11.803  1.00  0.00    -0.247 OA
HETATM    4  N   UNL     1     -42.355 -48.076   9.490  1.00  0.00    -0.306 N 
HETATM    5  H   UNL     1     -40.327 -49.332   9.830  1.00  0.00     0.164 HD
HETATM    6  H   UNL     1     -41.936 -48.488   8.673  1.00  0.00     0.171 HD
ENDROOT
BRANCH   1   7
HETATM    7  C   UNL     1     -40.277 -49.812  11.898  1.00  0.00     0.126 C 
BRANCH   7   8
HETATM    8  C   UNL     1     -40.312 -51.320  12.101  1.00  0.00     0.050 C 
BRANCH   8   9
HETATM    9  C   UNL     1     -41.733 -51.883  11.963  1.00  0.00     0.274 C 
BRANCH   9  10
HETATM   10  N   UNL     1     -42.181 -52.623  13.150  1.00  0.00     0.093 N 
HETATM   11  C   UNL     1     -41.200 -53.642  13.582  1.00  0.00     0.303 C 
HETATM   12  C   UNL     1     -41.700 -54.434  14.808  1.00  0.00     0.146 C 
HETATM   13  C   UNL     1     -41.751 -53.581  16.075  1.00  0.00     0.041 C 
HETATM   14  O   UNL     1     -42.965 -55.060  14.536  1.00  0.00    -0.378 OA
HETATM   15  C   UNL     1     -43.956 -54.123  14.085  1.00  0.00     0.146 C 
HETATM   16  C   UNL     1     -43.460 -53.315  12.866  1.00  0.00     0.303 C 
HETATM   17  C   UNL     1     -45.206 -54.921  13.731  1.00  0.00     0.041 C 
ENDBRANCH   9  10
ENDBRANCH   8   9
ENDBRANCH   7   8
ENDBRANCH   1   7
BRANCH   4  18
HETATM   18  C   UNL     1     -43.396 -47.190   9.297  1.00  0.00     0.070 A 
HETATM   19  C   UNL     1     -44.755 -47.409   8.985  1.00  0.00     0.138 A 
HETATM   20  N   UNL     1     -45.442 -46.267   8.875  1.00  0.00    -0.310 N 
HETATM   21  N   UNL     1     -44.520 -45.324   9.113  1.00  0.00    -0.310 N 
ATOM     22  HN  UNL     1     -46.432 -46.143   8.660  1.00  0.00     0.186 HD
HETATM   23  C   UNL     1     -43.278 -45.824   9.379  1.00  0.00     0.138 A 
HETATM   24  H   UNL     1     -44.813 -44.351   9.076  1.00  0.00     0.186 HD
ENDBRANCH   4  18
TORSDOF 5
ENDMDL
MODEL 5
REMARK VINA RESULT:      -6.0      3.540      5.149
REMARK  5 active torsions:
REMARK  status: ('A' for Active; 'I' for Inactive)
REMARK    1  A    between atoms: N_4  and  C_5 
REMARK    2  A    between atoms: C_5  and  C_6 
REMARK    3  A    between atoms: C_6  and  C_7 
REMARK    4  A    between atoms: C_7  and  N_8 
REMARK       I    between atoms: N_8  and  C_9 
REMARK       I    between atoms: C_9  and  N_11 
REMARK    5  A    between atoms: N_11  and  C_12 
ROOT
HETATM    1  N   UNL     1     -41.541 -53.184  15.040  1.00  0.00    -0.343 N 
HETATM    2  C   UNL     1     -41.077 -52.852  13.786  1.00  0.00     0.320 C 
HETATM    3  O   UNL     1     -40.972 -53.683  12.892  1.00  0.00    -0.247 OA
HETATM    4  N   UNL     1     -40.760 -51.519  13.689  1.00  0.00    -0.306 N 
HETATM    5  H   UNL     1     -41.949 -52.434  15.575  1.00  0.00     0.164 HD
HETATM    6  H   UNL     1     -40.817 -50.942  14.511  1.00  0.00     0.171 HD
ENDROOT
BRANCH   1   7
HETATM    7  C   UNL     1     -42.025 -54.532  15.255  1.00  0.00     0.126 C 
BRANCH   7   8
HETATM    8  C   UNL     1     -43.532 -54.613  15.454  1.00  0.00     0.050 C 
BRANCH   8   9
HETATM    9  C   UNL     1     -44.276 -54.792  14.124  1.00  0.00     0.274 C 
BRANCH   9  10
HETATM   10  N   UNL     1     -45.291 -53.757  13.885  1.00  0.00     0.093 N 
HETATM   11  C   UNL     1     -44.729 -52.558  13.226  1.00  0.00     0.303 C 
HETATM   12  C   UNL     1     -45.798 -51.467  13.014  1.00  0.00     0.146 C 
HETATM   13  C   UNL     1     -46.840 -51.864  11.969  1.00  0.00     0.041 C 
HETATM   14  O   UNL     1     -46.409 -51.096  14.261  1.00  0.00    -0.378 OA
HETATM   15  C   UNL     1     -46.953 -52.224  14.965  1.00  0.00     0.146 C 
HETATM   16  C   UNL     1     -45.893 -53.328  15.170  1.00  0.00     0.303 C 
HETATM   17  C   UNL     1     -47.470 -51.716  16.306  1.00  0.00     0.041 C 
ENDBRANCH   9  10
ENDBRANCH   8   9
ENDBRANCH   7   8
ENDBRANCH   1   7
BRANCH   4  18
HETATM   18  C   UNL     1     -40.265 -50.944  12.536  1.00  0.00     0.070 A 
HETATM   19  C   UNL     1     -38.943 -50.647  12.141  1.00  0.00     0.138 A 
HETATM   20  N   UNL     1     -38.889 -50.077  10.932  1.00  0.00    -0.310 N 
HETATM   21  N   UNL     1     -40.175 -50.009  10.561  1.00  0.00    -0.310 N 
ATOM     22  HN  UNL     1     -38.065 -49.768  10.416  1.00  0.00     0.186 HD
HETATM   23  C   UNL     1     -41.041 -50.522  11.484  1.00  0.00     0.138 A 
HETATM   24  H   UNL     1     -40.389 -49.595   9.658  1.00  0.00     0.186 HD
ENDBRANCH   4  18
TORSDOF 5
ENDMDL
MODEL 6
REMARK VINA RESULT:      -5.9      3.719      5.881
REMARK  5 active torsions:
REMARK  status: ('A' for Active; 'I' for Inactive)
REMARK    1  A    between atoms: N_4  and  C_5 
REMARK    2  A    between atoms: C_5  and  C_6 
REMARK    3  A    between atoms: C_6  and  C_7 
REMARK    4  A    between atoms: C_7  and  N_8 
REMARK       I    between atoms: N_8  and  C_9 
REMARK       I    between atoms: C_9  and  N_11 
REMARK    5  A    between atoms: N_11  and  C_12 
ROOT
HETATM    1  N   UNL     1     -40.940 -49.021  10.381  1.00  0.00    -0.343 N 
HETATM    2  C   UNL     1     -42.126 -48.324  10.445  1.00  0.00     0.320 C 
HETATM    3  O   UNL     1     -42.703 -48.120  11.507  1.00  0.00    -0.247 OA
HETATM    4  N   UNL     1     -42.552 -47.915   9.206  1.00  0.00    -0.306 N 
HETATM    5  H   UNL     1     -40.355 -48.829   9.584  1.00  0.00     0.164 HD
HETATM    6  H   UNL     1     -42.035 -48.202   8.392  1.00  0.00     0.171 HD
ENDROOT
BRANCH   1   7
HETATM    7  C   UNL     1     -40.310 -49.414  11.625  1.00  0.00     0.126 C 
BRANCH   7   8
HETATM    8  C   UNL     1     -39.045 -48.629  11.941  1.00  0.00     0.050 C 
BRANCH   8   9
HETATM    9  C   UNL     1     -39.173 -47.844  13.254  1.00  0.00     0.274 C 
BRANCH   9  10
HETATM   10  N   UNL     1     -39.870 -46.560  13.095  1.00  0.00     0.093 N 
HETATM   11  C   UNL     1     -39.043 -45.413  13.529  1.00  0.00     0.303 C 
HETATM   12  C   UNL     1     -39.801 -44.077  13.390  1.00  0.00     0.146 C 
HETATM   13  C   UNL     1     -40.032 -43.684  11.932  1.00  0.00     0.041 C 
HETATM   14  O   UNL     1     -41.029 -44.101  14.136  1.00  0.00    -0.378 OA
HETATM   15  C   UNL     1     -41.868 -45.212  13.778  1.00  0.00     0.146 C 
HETATM   16  C   UNL     1     -41.114 -46.554  13.901  1.00  0.00     0.303 C 
HETATM   17  C   UNL     1     -43.077 -45.185  14.707  1.00  0.00     0.041 C 
ENDBRANCH   9  10
ENDBRANCH   8   9
ENDBRANCH   7   8
ENDBRANCH   1   7
BRANCH   4  18
HETATM   18  C   UNL     1     -43.719 -47.206   9.006  1.00  0.00     0.070 A 
HETATM   19  C   UNL     1     -43.988 -45.822   9.076  1.00  0.00     0.138 A 
HETATM   20  N   UNL     1     -45.269 -45.538   8.816  1.00  0.00    -0.310 N 
HETATM   21  N   UNL     1     -45.814 -46.741   8.585  1.00  0.00    -0.310 N 
ATOM     22  HN  UNL     1     -45.723 -44.625   8.799  1.00  0.00     0.186 HD
HETATM   23  C   UNL     1     -44.927 -47.774   8.679  1.00  0.00     0.138 A 
HETATM   24  H   UNL     1     -46.806 -46.780   8.368  1.00  0.00     0.186 HD
ENDBRANCH   4  18
TORSDOF 5
ENDMDL
MODEL 7
REMARK VINA RESULT:      -5.7      3.611      5.514
REMARK  5 active torsions:
REMARK  status: ('A' for Active; 'I' for Inactive)
REMARK    1  A    between atoms: N_4  and  C_5 
REMARK    2  A    between atoms: C_5  and  C_6 
REMARK    3  A    between atoms: C_6  and  C_7 
REMARK    4  A    between atoms: C_7  and  N_8 
REMARK       I    between atoms: N_8  and  C_9 
REMARK       I    between atoms: C_9  and  N_11 
REMARK    5  A    between atoms: N_11  and  C_12 
ROOT
HETATM    1  N   UNL     1     -40.924 -49.368  10.366  1.00  0.00    -0.343 N 
HETATM    2  C   UNL     1     -41.941 -48.454  10.529  1.00  0.00     0.320 C 
HETATM    3  O   UNL     1     -42.364 -48.143  11.636  1.00  0.00    -0.247 OA
HETATM    4  N   UNL     1     -42.395 -47.968   9.327  1.00  0.00    -0.306 N 
HETATM    5  H   UNL     1     -40.391 -49.293   9.514  1.00  0.00     0.164 HD
HETATM    6  H   UNL     1     -42.023 -48.349   8.474  1.00  0.00     0.171 HD
ENDROOT
BRANCH   1   7
HETATM    7  C   UNL     1     -40.266 -49.878  11.552  1.00  0.00     0.126 C 
BRANCH   7   8
HETATM    8  C   UNL     1     -38.788 -49.523  11.629  1.00  0.00     0.050 C 
BRANCH   8   9
HETATM    9  C   UNL     1     -38.024 -50.459  12.574  1.00  0.00     0.274 C 
BRANCH   9  10
HETATM   10  N   UNL     1     -37.524 -49.783  13.779  1.00  0.00     0.093 N 
HETATM   11  C   UNL     1     -37.722 -50.591  15.001  1.00  0.00     0.303 C 
HETATM   12  C   UNL     1     -37.226 -49.854  16.262  1.00  0.00     0.146 C 
HETATM   13  C   UNL     1     -35.704 -49.713  16.296  1.00  0.00     0.041 C 
HETATM   14  O   UNL     1     -37.881 -48.583  16.407  1.00  0.00    -0.378 OA
HETATM   15  C   UNL     1     -37.747 -47.758  15.238  1.00  0.00     0.146 C 
HETATM   16  C   UNL     1     -38.229 -48.493  13.968  1.00  0.00     0.303 C 
HETATM   17  C   UNL     1     -38.568 -46.496  15.476  1.00  0.00     0.041 C 
ENDBRANCH   9  10
ENDBRANCH   8   9
ENDBRANCH   7   8
ENDBRANCH   1   7
BRANCH   4  18
HETATM   18  C   UNL     1     -43.417 -47.046   9.225  1.00  0.00     0.070 A 
HETATM   19  C   UNL     1     -43.410 -45.638   9.330  1.00  0.00     0.138 A 
HETATM   20  N   UNL     1     -44.629 -45.110   9.172  1.00  0.00    -0.310 N 
HETATM   21  N   UNL     1     -45.409 -46.181   8.970  1.00  0.00    -0.310 N 
ATOM     22  HN  UNL     1     -44.900 -44.127   9.200  1.00  0.00     0.186 HD
HETATM   23  C   UNL     1     -44.731 -47.366   8.985  1.00  0.00     0.138 A 
HETATM   24  H   UNL     1     -46.403 -46.026   8.829  1.00  0.00     0.186 HD
ENDBRANCH   4  18
TORSDOF 5
ENDMDL
MODEL 8
REMARK VINA RESULT:      -5.7      2.714      7.436
REMARK  5 active torsions:
REMARK  status: ('A' for Active; 'I' for Inactive)
REMARK    1  A    between atoms: N_4  and  C_5 
REMARK    2  A    between atoms: C_5  and  C_6 
REMARK    3  A    between atoms: C_6  and  C_7 
REMARK    4  A    between atoms: C_7  and  N_8 
REMARK       I    between atoms: N_8  and  C_9 
REMARK       I    between atoms: C_9  and  N_11 
REMARK    5  A    between atoms: N_11  and  C_12 
ROOT
HETATM    1  N   UNL     1     -41.836 -51.461  11.595  1.00  0.00    -0.343 N 
HETATM    2  C   UNL     1     -42.684 -51.995  12.540  1.00  0.00     0.320 C 
HETATM    3  O   UNL     1     -42.475 -51.875  13.741  1.00  0.00    -0.247 OA
HETATM    4  N   UNL     1     -43.744 -52.655  11.968  1.00  0.00    -0.306 N 
HETATM    5  H   UNL     1     -42.241 -51.269  10.693  1.00  0.00     0.164 HD
HETATM    6  H   UNL     1     -43.776 -52.754  10.967  1.00  0.00     0.171 HD
ENDROOT
BRANCH   1   7
HETATM    7  C   UNL     1     -40.736 -50.637  12.051  1.00  0.00     0.126 C 
BRANCH   7   8
HETATM    8  C   UNL     1     -40.794 -49.205  11.537  1.00  0.00     0.050 C 
BRANCH   8   9
HETATM    9  C   UNL     1     -41.394 -48.249  12.577  1.00  0.00     0.274 C 
BRANCH   9  10
HETATM   10  N   UNL     1     -41.341 -46.840  12.166  1.00  0.00     0.093 N 
HETATM   11  C   UNL     1     -42.592 -46.396  11.515  1.00  0.00     0.303 C 
HETATM   12  C   UNL     1     -42.508 -44.926  11.056  1.00  0.00     0.146 C 
HETATM   13  C   UNL     1     -42.474 -43.948  12.230  1.00  0.00     0.041 C 
HETATM   14  O   UNL     1     -41.398 -44.726  10.165  1.00  0.00    -0.378 OA
HETATM   15  C   UNL     1     -40.152 -45.164  10.731  1.00  0.00     0.146 C 
HETATM   16  C   UNL     1     -40.231 -46.632  11.206  1.00  0.00     0.303 C 
HETATM   17  C   UNL     1     -39.084 -45.000   9.657  1.00  0.00     0.041 C 
ENDBRANCH   9  10
ENDBRANCH   8   9
ENDBRANCH   7   8
ENDBRANCH   1   7
BRANCH   4  18
HETATM   18  C   UNL     1     -44.727 -53.283  12.705  1.00  0.00     0.070 A 
HETATM   19  C   UNL     1     -44.769 -54.566  13.293  1.00  0.00     0.138 A 
HETATM   20  N   UNL     1     -45.924 -54.798  13.927  1.00  0.00    -0.310 N 
HETATM   21  N   UNL     1     -46.616 -53.665  13.739  1.00  0.00    -0.310 N 
ATOM     22  HN  UNL     1     -46.210 -55.637  14.432  1.00  0.00     0.186 HD
HETATM   23  C   UNL     1     -45.941 -52.722  13.019  1.00  0.00     0.138 A 
HETATM   24  H   UNL     1     -47.550 -53.608  14.134  1.00  0.00     0.186 HD
ENDBRANCH   4  18
TORSDOF 5
ENDMDL
MODEL 9
REMARK VINA RESULT:      -5.6      4.375      7.250
REMARK  5 active torsions:
REMARK  status: ('A' for Active; 'I' for Inactive)
REMARK    1  A    between atoms: N_4  and  C_5 
REMARK    2  A    between atoms: C_5  and  C_6 
REMARK    3  A    between atoms: C_6  and  C_7 
REMARK    4  A    between atoms: C_7  and  N_8 
REMARK       I    between atoms: N_8  and  C_9 
REMARK       I    between atoms: C_9  and  N_11 
REMARK    5  A    between atoms: N_11  and  C_12 
ROOT
HETATM    1  N   UNL     1     -43.298 -46.596  12.595  1.00  0.00    -0.343 N 
HETATM    2  C   UNL     1     -43.471 -47.409  11.497  1.00  0.00     0.320 C 
HETATM    3  O   UNL     1     -42.984 -48.532  11.438  1.00  0.00    -0.247 OA
HETATM    4  N   UNL     1     -44.227 -46.806  10.522  1.00  0.00    -0.306 N 
HETATM    5  H   UNL     1     -44.001 -45.888  12.739  1.00  0.00     0.164 HD
HETATM    6  H   UNL     1     -44.515 -45.850  10.648  1.00  0.00     0.171 HD
ENDROOT
BRANCH   1   7
HETATM    7  C   UNL     1     -42.619 -47.144  13.752  1.00  0.00     0.126 C 
BRANCH   7   8
HETATM    8  C   UNL     1     -41.290 -46.467  14.054  1.00  0.00     0.050 C 
BRANCH   8   9
HETATM    9  C   UNL     1     -41.466 -44.976  14.371  1.00  0.00     0.274 C 
BRANCH   9  10
HETATM   10  N   UNL     1     -40.973 -44.096  13.303  1.00  0.00     0.093 N 
HETATM   11  C   UNL     1     -42.045 -43.260  12.722  1.00  0.00     0.303 C 
HETATM   12  C   UNL     1     -41.520 -42.368  11.579  1.00  0.00     0.146 C 
HETATM   13  C   UNL     1     -40.585 -41.267  12.078  1.00  0.00     0.041 C 
HETATM   14  O   UNL     1     -40.906 -43.160  10.547  1.00  0.00    -0.378 OA
HETATM   15  C   UNL     1     -39.870 -44.016  11.054  1.00  0.00     0.146 C 
HETATM   16  C   UNL     1     -40.383 -44.904  12.209  1.00  0.00     0.303 C 
HETATM   17  C   UNL     1     -39.380 -44.871   9.892  1.00  0.00     0.041 C 
ENDBRANCH   9  10
ENDBRANCH   8   9
ENDBRANCH   7   8
ENDBRANCH   1   7
BRANCH   4  18
HETATM   18  C   UNL     1     -44.533 -47.414   9.322  1.00  0.00     0.070 A 
HETATM   19  C   UNL     1     -45.734 -47.989   8.852  1.00  0.00     0.138 A 
HETATM   20  N   UNL     1     -45.611 -48.486   7.617  1.00  0.00    -0.310 N 
HETATM   21  N   UNL     1     -44.333 -48.230   7.303  1.00  0.00    -0.310 N 
ATOM     22  HN  UNL     1     -46.321 -48.949   7.049  1.00  0.00     0.186 HD
HETATM   23  C   UNL     1     -43.644 -47.583   8.288  1.00  0.00     0.138 A 
HETATM   24  H   UNL     1     -43.998 -48.530   6.392  1.00  0.00     0.186 HD
ENDBRANCH   4  18
TORSDOF 5
ENDMDL
