MODEL 1
REMARK VINA RESULT:      -6.6      0.000      0.000
REMARK  4 active torsions:
REMARK  status: ('A' for Active; 'I' for Inactive)
REMARK    1  A    between atoms: N_4  and  C_5 
REMARK    2  A    between atoms: C_5  and  C_6 
REMARK    3  A    between atoms: C_6  and  O_7 
REMARK    4  A    between atoms: O_7  and  C_8 
ROOT
HETATM    1  C   UNL     1     -44.093 -50.633  14.342  1.00  0.00     0.070 A 
HETATM    2  C   UNL     1     -44.767 -50.735  15.563  1.00  0.00     0.037 A 
HETATM    3  C   UNL     1     -46.086 -51.192  15.608  1.00  0.00     0.004 A 
HETATM    4  C   UNL     1     -46.744 -51.553  14.433  1.00  0.00     0.023 A 
HETATM    5  C   UNL     1     -46.080 -51.457  13.206  1.00  0.00     0.047 A 
HETATM    6  C   UNL     1     -46.755 -51.835  11.999  1.00  0.00     0.099 C 
HETATM    7  N   UNL     1     -47.314 -52.143  11.030  1.00  0.00    -0.191 NA
HETATM    8  C   UNL     1     -44.758 -50.994  13.165  1.00  0.00     0.059 A 
ENDROOT
BRANCH   1   9
HETATM    9  O   UNL     1     -42.803 -50.197  14.178  1.00  0.00    -0.349 OA
BRANCH   9  10
HETATM   10  C   UNL     1     -42.337 -50.101  12.829  1.00  0.00     0.196 C 
BRANCH  10  11
HETATM   11  C   UNL     1     -41.528 -48.812  12.645  1.00  0.00     0.160 C 
BRANCH  11  12
HETATM   12  N   UNL     1     -42.006 -48.024  11.502  1.00  0.00    -0.306 N 
HETATM   13  C   UNL     1     -43.331 -48.115  11.115  1.00  0.00     0.125 A 
HETATM   14  C   UNL     1     -43.841 -47.362  10.135  1.00  0.00     0.117 A 
HETATM   15 CL   UNL     1     -45.489 -47.462   9.670  1.00  0.00    -0.077 Cl
HETATM   16  C   UNL     1     -42.952 -46.394   9.446  1.00  0.00     0.272 A 
HETATM   17  N   UNL     1     -41.644 -46.410   9.853  1.00  0.00    -0.274 N 
HETATM   18  O   UNL     1     -43.344 -45.615   8.585  1.00  0.00    -0.266 OA
HETATM   19  C   UNL     1     -41.126 -47.134  10.895  1.00  0.00     0.329 A 
HETATM   20  H   UNL     1     -41.025 -45.744   9.416  1.00  0.00     0.173 HD
HETATM   21  O   UNL     1     -39.965 -46.965  11.255  1.00  0.00    -0.246 OA
ENDBRANCH  11  12
ENDBRANCH  10  11
ENDBRANCH   9  10
ENDBRANCH   1   9
TORSDOF 4
ENDMDL
MODEL 2
REMARK VINA RESULT:      -6.3      2.840      5.939
REMARK  4 active torsions:
REMARK  status: ('A' for Active; 'I' for Inactive)
REMARK    1  A    between atoms: N_4  and  C_5 
REMARK    2  A    between atoms: C_5  and  C_6 
REMARK    3  A    between atoms: C_6  and  O_7 
REMARK    4  A    between atoms: O_7  and  C_8 
ROOT
HETATM    1  C   UNL     1     -42.781 -47.105  10.642  1.00  0.00     0.070 A 
HETATM    2  C   UNL     1     -42.598 -45.782  10.228  1.00  0.00     0.037 A 
HETATM    3  C   UNL     1     -43.501 -45.184   9.347  1.00  0.00     0.004 A 
HETATM    4  C   UNL     1     -44.598 -45.901   8.872  1.00  0.00     0.023 A 
HETATM    5  C   UNL     1     -44.793 -47.225   9.280  1.00  0.00     0.047 A 
HETATM    6  C   UNL     1     -45.925 -47.960   8.795  1.00  0.00     0.099 C 
HETATM    7  N   UNL     1     -46.844 -48.544   8.395  1.00  0.00    -0.191 NA
HETATM    8  C   UNL     1     -43.882 -47.823  10.161  1.00  0.00     0.059 A 
ENDROOT
BRANCH   1   9
HETATM    9  O   UNL     1     -41.960 -47.793  11.498  1.00  0.00    -0.349 OA
BRANCH   9  10
HETATM   10  C   UNL     1     -42.608 -48.492  12.567  1.00  0.00     0.196 C 
BRANCH  10  11
HETATM   11  C   UNL     1     -41.872 -49.805  12.855  1.00  0.00     0.160 C 
BRANCH  11  12
HETATM   12  N   UNL     1     -42.784 -50.956  12.849  1.00  0.00    -0.306 N 
HETATM   13  C   UNL     1     -44.068 -50.813  13.345  1.00  0.00     0.125 A 
HETATM   14  C   UNL     1     -44.967 -51.801  13.291  1.00  0.00     0.117 A 
HETATM   15 CL   UNL     1     -46.565 -51.615  13.887  1.00  0.00    -0.077 Cl
HETATM   16  C   UNL     1     -44.569 -53.091  12.676  1.00  0.00     0.272 A 
HETATM   17  N   UNL     1     -43.265 -53.165  12.264  1.00  0.00    -0.274 N 
HETATM   18  O   UNL     1     -45.343 -54.030  12.520  1.00  0.00    -0.266 OA
HETATM   19  C   UNL     1     -42.355 -52.140  12.259  1.00  0.00     0.329 A 
HETATM   20  H   UNL     1     -42.977 -54.024  11.821  1.00  0.00     0.173 HD
HETATM   21  O   UNL     1     -41.253 -52.287  11.740  1.00  0.00    -0.246 OA
ENDBRANCH  11  12
ENDBRANCH  10  11
ENDBRANCH   9  10
ENDBRANCH   1   9
TORSDOF 4
ENDMDL
MODEL 3
REMARK VINA RESULT:      -6.2      6.136      7.669
REMARK  4 active torsions:
REMARK  status: ('A' for Active; 'I' for Inactive)
REMARK    1  A    between atoms: N_4  and  C_5 
REMARK    2  A    between atoms: C_5  and  C_6 
REMARK    3  A    between atoms: C_6  and  O_7 
REMARK    4  A    between atoms: O_7  and  C_8 
ROOT
HETATM    1  C   UNL     1     -45.433 -53.683  13.841  1.00  0.00     0.070 A 
HETATM    2  C   UNL     1     -45.486 -52.830  12.735  1.00  0.00     0.037 A 
HETATM    3  C   UNL     1     -46.212 -51.639  12.794  1.00  0.00     0.004 A 
HETATM    4  C   UNL     1     -46.889 -51.287  13.961  1.00  0.00     0.023 A 
HETATM    5  C   UNL     1     -46.841 -52.132  15.075  1.00  0.00     0.047 A 
HETATM    6  C   UNL     1     -47.533 -51.766  16.276  1.00  0.00     0.099 C 
HETATM    7  N   UNL     1     -48.098 -51.459  17.242  1.00  0.00    -0.191 NA
HETATM    8  C   UNL     1     -46.116 -53.329  15.010  1.00  0.00     0.059 A 
ENDROOT
BRANCH   1   9
HETATM    9  O   UNL     1     -44.756 -54.875  13.896  1.00  0.00    -0.349 OA
BRANCH   9  10
HETATM   10  C   UNL     1     -43.636 -54.924  14.786  1.00  0.00     0.196 C 
BRANCH  10  11
HETATM   11  C   UNL     1     -42.478 -54.099  14.214  1.00  0.00     0.160 C 
BRANCH  11  12
HETATM   12  N   UNL     1     -41.180 -54.535  14.749  1.00  0.00    -0.306 N 
HETATM   13  C   UNL     1     -41.133 -55.247  15.933  1.00  0.00     0.125 A 
HETATM   14  C   UNL     1     -39.991 -55.739  16.425  1.00  0.00     0.117 A 
HETATM   15 CL   UNL     1     -39.937 -56.640  17.883  1.00  0.00    -0.077 Cl
HETATM   16  C   UNL     1     -38.735 -55.512  15.667  1.00  0.00     0.272 A 
HETATM   17  N   UNL     1     -38.864 -54.749  14.536  1.00  0.00    -0.274 N 
HETATM   18  O   UNL     1     -37.653 -55.981  16.002  1.00  0.00    -0.266 OA
HETATM   19  C   UNL     1     -40.037 -54.293  13.994  1.00  0.00     0.329 A 
HETATM   20  H   UNL     1     -38.028 -54.601  13.992  1.00  0.00     0.173 HD
HETATM   21  O   UNL     1     -40.042 -53.733  12.902  1.00  0.00    -0.246 OA
ENDBRANCH  11  12
ENDBRANCH  10  11
ENDBRANCH   9  10
ENDBRANCH   1   9
TORSDOF 4
ENDMDL
MODEL 4
REMARK VINA RESULT:      -6.1      2.511      3.043
REMARK  4 active torsions:
REMARK  status: ('A' for Active; 'I' for Inactive)
REMARK    1  A    between atoms: N_4  and  C_5 
REMARK    2  A    between atoms: C_5  and  C_6 
REMARK    3  A    between atoms: C_6  and  O_7 
REMARK    4  A    between atoms: O_7  and  C_8 
ROOT
HETATM    1  C   UNL     1     -40.816 -52.288  12.922  1.00  0.00     0.070 A 
HETATM    2  C   UNL     1     -40.076 -53.058  13.825  1.00  0.00     0.037 A 
HETATM    3  C   UNL     1     -40.657 -54.157  14.461  1.00  0.00     0.004 A 
HETATM    4  C   UNL     1     -41.983 -54.498  14.199  1.00  0.00     0.023 A 
HETATM    5  C   UNL     1     -42.733 -53.737  13.296  1.00  0.00     0.047 A 
HETATM    6  C   UNL     1     -44.095 -54.093  13.023  1.00  0.00     0.099 C 
HETATM    7  N   UNL     1     -45.196 -54.392  12.811  1.00  0.00    -0.191 NA
HETATM    8  C   UNL     1     -42.147 -52.632  12.664  1.00  0.00     0.059 A 
ENDROOT
BRANCH   1   9
HETATM    9  O   UNL     1     -40.351 -51.190  12.244  1.00  0.00    -0.349 OA
BRANCH   9  10
HETATM   10  C   UNL     1     -41.343 -50.265  11.786  1.00  0.00     0.196 C 
BRANCH  10  11
HETATM   11  C   UNL     1     -40.838 -48.829  11.956  1.00  0.00     0.160 C 
BRANCH  11  12
HETATM   12  N   UNL     1     -41.563 -47.888  11.091  1.00  0.00    -0.306 N 
HETATM   13  C   UNL     1     -42.889 -48.128  10.781  1.00  0.00     0.125 A 
HETATM   14  C   UNL     1     -43.621 -47.266  10.067  1.00  0.00     0.117 A 
HETATM   15 CL   UNL     1     -45.272 -47.555   9.701  1.00  0.00    -0.077 Cl
HETATM   16  C   UNL     1     -42.984 -46.011   9.597  1.00  0.00     0.272 A 
HETATM   17  N   UNL     1     -41.654 -45.882   9.900  1.00  0.00    -0.274 N 
HETATM   18  O   UNL     1     -43.592 -45.132   8.996  1.00  0.00    -0.266 OA
HETATM   19  C   UNL     1     -40.913 -46.729  10.681  1.00  0.00     0.329 A 
HETATM   20  H   UNL     1     -41.205 -45.026   9.611  1.00  0.00     0.173 HD
HETATM   21  O   UNL     1     -39.762 -46.439  10.995  1.00  0.00    -0.246 OA
ENDBRANCH  11  12
ENDBRANCH  10  11
ENDBRANCH   9  10
ENDBRANCH   1   9
TORSDOF 4
ENDMDL
MODEL 5
REMARK VINA RESULT:      -6.0      2.335      2.643
REMARK  4 active torsions:
REMARK  status: ('A' for Active; 'I' for Inactive)
REMARK    1  A    between atoms: N_4  and  C_5 
REMARK    2  A    between atoms: C_5  and  C_6 
REMARK    3  A    between atoms: C_6  and  O_7 
REMARK    4  A    between atoms: O_7  and  C_8 
ROOT
HETATM    1  C   UNL     1     -43.961 -50.503  14.514  1.00  0.00     0.070 A 
HETATM    2  C   UNL     1     -44.638 -50.573  15.735  1.00  0.00     0.037 A 
HETATM    3  C   UNL     1     -45.948 -51.052  15.792  1.00  0.00     0.004 A 
HETATM    4  C   UNL     1     -46.595 -51.468  14.629  1.00  0.00     0.023 A 
HETATM    5  C   UNL     1     -45.928 -51.404  13.401  1.00  0.00     0.047 A 
HETATM    6  C   UNL     1     -46.592 -51.838  12.207  1.00  0.00     0.099 C 
HETATM    7  N   UNL     1     -47.140 -52.191  11.247  1.00  0.00    -0.191 NA
HETATM    8  C   UNL     1     -44.614 -50.919  13.348  1.00  0.00     0.059 A 
ENDROOT
BRANCH   1   9
HETATM    9  O   UNL     1     -42.679 -50.050  14.338  1.00  0.00    -0.349 OA
BRANCH   9  10
HETATM   10  C   UNL     1     -42.519 -48.935  13.455  1.00  0.00     0.196 C 
BRANCH  10  11
HETATM   11  C   UNL     1     -41.064 -48.845  12.984  1.00  0.00     0.160 C 
BRANCH  11  12
HETATM   12  N   UNL     1     -40.815 -47.623  12.207  1.00  0.00    -0.306 N 
HETATM   13  C   UNL     1     -40.163 -46.557  12.800  1.00  0.00     0.125 A 
HETATM   14  C   UNL     1     -39.837 -45.452  12.119  1.00  0.00     0.117 A 
HETATM   15 CL   UNL     1     -39.010 -44.140  12.850  1.00  0.00    -0.077 Cl
HETATM   16  C   UNL     1     -40.188 -45.376  10.679  1.00  0.00     0.272 A 
HETATM   17  N   UNL     1     -40.882 -46.450  10.189  1.00  0.00    -0.274 N 
HETATM   18  O   UNL     1     -39.871 -44.436   9.959  1.00  0.00    -0.266 OA
HETATM   19  C   UNL     1     -41.166 -47.610  10.861  1.00  0.00     0.329 A 
HETATM   20  H   UNL     1     -41.111 -46.432   9.206  1.00  0.00     0.173 HD
HETATM   21  O   UNL     1     -41.677 -48.560  10.276  1.00  0.00    -0.246 OA
ENDBRANCH  11  12
ENDBRANCH  10  11
ENDBRANCH   9  10
ENDBRANCH   1   9
TORSDOF 4
ENDMDL
MODEL 6
REMARK VINA RESULT:      -6.0      5.608      6.928
REMARK  4 active torsions:
REMARK  status: ('A' for Active; 'I' for Inactive)
REMARK    1  A    between atoms: N_4  and  C_5 
REMARK    2  A    between atoms: C_5  and  C_6 
REMARK    3  A    between atoms: C_6  and  O_7 
REMARK    4  A    between atoms: O_7  and  C_8 
ROOT
HETATM    1  C   UNL     1     -45.883 -52.933  13.723  1.00  0.00     0.070 A 
HETATM    2  C   UNL     1     -46.514 -51.693  13.857  1.00  0.00     0.037 A 
HETATM    3  C   UNL     1     -46.979 -51.266  15.102  1.00  0.00     0.004 A 
HETATM    4  C   UNL     1     -46.817 -52.074  16.226  1.00  0.00     0.023 A 
HETATM    5  C   UNL     1     -46.185 -53.316  16.105  1.00  0.00     0.047 A 
HETATM    6  C   UNL     1     -46.013 -54.143  17.264  1.00  0.00     0.099 C 
HETATM    7  N   UNL     1     -45.881 -54.803  18.209  1.00  0.00    -0.191 NA
HETATM    8  C   UNL     1     -45.724 -53.743  14.853  1.00  0.00     0.059 A 
ENDROOT
BRANCH   1   9
HETATM    9  O   UNL     1     -45.391 -53.454  12.553  1.00  0.00    -0.349 OA
BRANCH   9  10
HETATM   10  C   UNL     1     -44.100 -54.067  12.630  1.00  0.00     0.196 C 
BRANCH  10  11
HETATM   11  C   UNL     1     -43.044 -53.018  12.996  1.00  0.00     0.160 C 
BRANCH  11  12
HETATM   12  N   UNL     1     -41.894 -53.616  13.686  1.00  0.00    -0.306 N 
HETATM   13  C   UNL     1     -42.092 -54.324  14.857  1.00  0.00     0.125 A 
HETATM   14  C   UNL     1     -41.096 -54.959  15.485  1.00  0.00     0.117 A 
HETATM   15 CL   UNL     1     -41.347 -55.854  16.926  1.00  0.00    -0.077 Cl
HETATM   16  C   UNL     1     -39.734 -54.900  14.897  1.00  0.00     0.272 A 
HETATM   17  N   UNL     1     -39.617 -54.131  13.769  1.00  0.00    -0.274 N 
HETATM   18  O   UNL     1     -38.774 -55.504  15.362  1.00  0.00    -0.266 OA
HETATM   19  C   UNL     1     -40.641 -53.528  13.087  1.00  0.00     0.329 A 
HETATM   20  H   UNL     1     -38.706 -54.095  13.338  1.00  0.00     0.173 HD
HETATM   21  O   UNL     1     -40.433 -52.976  12.011  1.00  0.00    -0.246 OA
ENDBRANCH  11  12
ENDBRANCH  10  11
ENDBRANCH   9  10
ENDBRANCH   1   9
TORSDOF 4
ENDMDL
MODEL 7
REMARK VINA RESULT:      -5.8      3.434      4.525
REMARK  4 active torsions:
REMARK  status: ('A' for Active; 'I' for Inactive)
REMARK    1  A    between atoms: N_4  and  C_5 
REMARK    2  A    between atoms: C_5  and  C_6 
REMARK    3  A    between atoms: C_6  and  O_7 
REMARK    4  A    between atoms: O_7  and  C_8 
ROOT
HETATM    1  C   UNL     1     -45.079 -53.518  14.398  1.00  0.00     0.070 A 
HETATM    2  C   UNL     1     -45.342 -53.074  13.098  1.00  0.00     0.037 A 
HETATM    3  C   UNL     1     -46.283 -52.068  12.871  1.00  0.00     0.004 A 
HETATM    4  C   UNL     1     -46.969 -51.494  13.940  1.00  0.00     0.023 A 
HETATM    5  C   UNL     1     -46.713 -51.928  15.245  1.00  0.00     0.047 A 
HETATM    6  C   UNL     1     -47.414 -51.333  16.345  1.00  0.00     0.099 C 
HETATM    7  N   UNL     1     -47.989 -50.843  17.226  1.00  0.00    -0.191 NA
HETATM    8  C   UNL     1     -45.771 -52.941  15.469  1.00  0.00     0.059 A 
ENDROOT
BRANCH   1   9
HETATM    9  O   UNL     1     -44.181 -54.498  14.738  1.00  0.00    -0.349 OA
BRANCH   9  10
HETATM   10  C   UNL     1     -42.908 -54.441  14.085  1.00  0.00     0.196 C 
BRANCH  10  11
HETATM   11  C   UNL     1     -42.084 -53.278  14.646  1.00  0.00     0.160 C 
BRANCH  11  12
HETATM   12  N   UNL     1     -41.699 -52.324  13.597  1.00  0.00    -0.306 N 
HETATM   13  C   UNL     1     -42.459 -51.187  13.394  1.00  0.00     0.125 A 
HETATM   14  C   UNL     1     -42.112 -50.245  12.510  1.00  0.00     0.117 A 
HETATM   15 CL   UNL     1     -43.045 -48.826  12.275  1.00  0.00    -0.077 Cl
HETATM   16  C   UNL     1     -40.866 -50.431  11.726  1.00  0.00     0.272 A 
HETATM   17  N   UNL     1     -40.206 -51.611  11.949  1.00  0.00    -0.274 N 
HETATM   18  O   UNL     1     -40.431 -49.593  10.944  1.00  0.00    -0.266 OA
HETATM   19  C   UNL     1     -40.520 -52.552  12.894  1.00  0.00     0.329 A 
HETATM   20  H   UNL     1     -39.343 -51.749  11.445  1.00  0.00     0.173 HD
HETATM   21  O   UNL     1     -39.776 -53.507  13.094  1.00  0.00    -0.246 OA
ENDBRANCH  11  12
ENDBRANCH  10  11
ENDBRANCH   9  10
ENDBRANCH   1   9
TORSDOF 4
ENDMDL
MODEL 8
REMARK VINA RESULT:      -5.8      1.754      2.176
REMARK  4 active torsions:
REMARK  status: ('A' for Active; 'I' for Inactive)
REMARK    1  A    between atoms: N_4  and  C_5 
REMARK    2  A    between atoms: C_5  and  C_6 
REMARK    3  A    between atoms: C_6  and  O_7 
REMARK    4  A    between atoms: O_7  and  C_8 
ROOT
HETATM    1  C   UNL     1     -44.173 -51.169  13.958  1.00  0.00     0.070 A 
HETATM    2  C   UNL     1     -45.249 -50.944  13.094  1.00  0.00     0.037 A 
HETATM    3  C   UNL     1     -46.455 -51.625  13.273  1.00  0.00     0.004 A 
HETATM    4  C   UNL     1     -46.598 -52.535  14.319  1.00  0.00     0.023 A 
HETATM    5  C   UNL     1     -45.530 -52.767  15.191  1.00  0.00     0.047 A 
HETATM    6  C   UNL     1     -45.680 -53.700  16.270  1.00  0.00     0.099 C 
HETATM    7  N   UNL     1     -45.815 -54.457  17.139  1.00  0.00    -0.191 NA
HETATM    8  C   UNL     1     -44.320 -52.086  15.005  1.00  0.00     0.059 A 
ENDROOT
BRANCH   1   9
HETATM    9  O   UNL     1     -42.946 -50.562  13.876  1.00  0.00    -0.349 OA
BRANCH   9  10
HETATM   10  C   UNL     1     -42.956 -49.144  13.681  1.00  0.00     0.196 C 
BRANCH  10  11
HETATM   11  C   UNL     1     -41.739 -48.722  12.851  1.00  0.00     0.160 C 
BRANCH  11  12
HETATM   12  N   UNL     1     -42.131 -47.994  11.637  1.00  0.00    -0.306 N 
HETATM   13  C   UNL     1     -43.439 -48.060  11.193  1.00  0.00     0.125 A 
HETATM   14  C   UNL     1     -43.873 -47.355  10.142  1.00  0.00     0.117 A 
HETATM   15 CL   UNL     1     -45.500 -47.421   9.606  1.00  0.00    -0.077 Cl
HETATM   16  C   UNL     1     -42.913 -46.471   9.435  1.00  0.00     0.272 A 
HETATM   17  N   UNL     1     -41.626 -46.510   9.905  1.00  0.00    -0.274 N 
HETATM   18  O   UNL     1     -43.232 -45.737   8.507  1.00  0.00    -0.266 OA
HETATM   19  C   UNL     1     -41.187 -47.182  11.016  1.00  0.00     0.329 A 
HETATM   20  H   UNL     1     -40.961 -45.900   9.455  1.00  0.00     0.173 HD
HETATM   21  O   UNL     1     -40.038 -47.035  11.419  1.00  0.00    -0.246 OA
ENDBRANCH  11  12
ENDBRANCH  10  11
ENDBRANCH   9  10
ENDBRANCH   1   9
TORSDOF 4
ENDMDL
MODEL 9
REMARK VINA RESULT:      -5.8      3.214      4.126
REMARK  4 active torsions:
REMARK  status: ('A' for Active; 'I' for Inactive)
REMARK    1  A    between atoms: N_4  and  C_5 
REMARK    2  A    between atoms: C_5  and  C_6 
REMARK    3  A    between atoms: C_6  and  O_7 
REMARK    4  A    between atoms: O_7  and  C_8 
ROOT
HETATM    1  C   UNL     1     -41.141 -52.017  12.383  1.00  0.00     0.070 A 
HETATM    2  C   UNL     1     -42.477 -52.429  12.372  1.00  0.00     0.037 A 
HETATM    3  C   UNL     1     -42.868 -53.585  13.050  1.00  0.00     0.004 A 
HETATM    4  C   UNL     1     -41.927 -54.341  13.748  1.00  0.00     0.023 A 
HETATM    5  C   UNL     1     -40.587 -53.939  13.768  1.00  0.00     0.047 A 
HETATM    6  C   UNL     1     -39.621 -54.714  14.491  1.00  0.00     0.099 C 
HETATM    7  N   UNL     1     -38.850 -55.350  15.079  1.00  0.00    -0.191 NA
HETATM    8  C   UNL     1     -40.199 -52.780  13.083  1.00  0.00     0.059 A 
ENDROOT
BRANCH   1   9
HETATM    9  O   UNL     1     -40.645 -50.904  11.754  1.00  0.00    -0.349 OA
BRANCH   9  10
HETATM   10  C   UNL     1     -41.362 -49.685  11.970  1.00  0.00     0.196 C 
BRANCH  10  11
HETATM   11  C   UNL     1     -40.550 -48.499  11.438  1.00  0.00     0.160 C 
BRANCH  11  12
HETATM   12  N   UNL     1     -41.399 -47.526  10.736  1.00  0.00    -0.306 N 
HETATM   13  C   UNL     1     -42.400 -47.974   9.894  1.00  0.00     0.125 A 
HETATM   14  C   UNL     1     -43.254 -47.138   9.294  1.00  0.00     0.117 A 
HETATM   15 CL   UNL     1     -44.509 -47.697   8.267  1.00  0.00    -0.077 Cl
HETATM   16  C   UNL     1     -43.119 -45.682   9.546  1.00  0.00     0.272 A 
HETATM   17  N   UNL     1     -42.066 -45.323  10.345  1.00  0.00    -0.274 N 
HETATM   18  O   UNL     1     -43.894 -44.846   9.096  1.00  0.00    -0.266 OA
HETATM   19  C   UNL     1     -41.224 -46.174  11.012  1.00  0.00     0.329 A 
HETATM   20  H   UNL     1     -41.968 -44.340  10.550  1.00  0.00     0.173 HD
HETATM   21  O   UNL     1     -40.400 -45.737  11.809  1.00  0.00    -0.246 OA
ENDBRANCH  11  12
ENDBRANCH  10  11
ENDBRANCH   9  10
ENDBRANCH   1   9
TORSDOF 4
ENDMDL
