MODEL 1
REMARK VINA RESULT:      -5.9      0.000      0.000
REMARK  4 active torsions:
REMARK  status: ('A' for Active; 'I' for Inactive)
REMARK       I    between atoms: C_2  and  N_3 
REMARK       I    between atoms: C_2  and  N_13 
REMARK    1  A    between atoms: N_3  and  C_4 
REMARK    2  A    between atoms: C_4  and  C_5 
REMARK    3  A    between atoms: C_5  and  C_6 
REMARK    4  A    between atoms: N_13  and  C_14 
ROOT
HETATM    1  O   UNL     1     -45.234 -55.335  18.669  1.00  0.00    -0.247 OA
HETATM    2  C   UNL     1     -45.134 -54.296  18.028  1.00  0.00     0.316 C 
HETATM    3  N   UNL     1     -46.063 -53.308  18.182  1.00  0.00    -0.343 N 
HETATM    4  N   UNL     1     -44.152 -54.039  17.120  1.00  0.00    -0.338 N 
HETATM    5  H   UNL     1     -46.801 -53.572  18.825  1.00  0.00     0.164 HD
HETATM    6  H   UNL     1     -44.108 -53.107  16.749  1.00  0.00     0.164 HD
ENDROOT
BRANCH   3   7
HETATM    7  C   UNL     1     -46.118 -52.022  17.501  1.00  0.00     0.129 C 
BRANCH   7   8
HETATM    8  C   UNL     1     -47.248 -51.941  16.477  1.00  0.00     0.060 C 
BRANCH   8   9
HETATM    9  C   UNL     1     -46.770 -52.227  15.079  1.00  0.00    -0.041 A 
HETATM   10  C   UNL     1     -46.495 -51.197  14.174  1.00  0.00     0.010 A 
HETATM   11  C   UNL     1     -46.071 -51.504  12.883  1.00  0.00     0.018 A 
HETATM   12  C   UNL     1     -45.922 -52.837  12.540  1.00  0.00     0.087 A 
HETATM   13  N   UNL     1     -46.152 -53.858  13.392  1.00  0.00    -0.375 N 
HETATM   14  C   UNL     1     -46.569 -53.532  14.636  1.00  0.00     0.094 A 
ATOM     15  HN  UNL     1     -46.017 -54.830  13.112  1.00  0.00     0.164 HD
ENDBRANCH   8   9
ENDBRANCH   7   8
ENDBRANCH   3   7
BRANCH   4  16
HETATM   16  C   UNL     1     -43.030 -54.929  16.825  1.00  0.00     0.091 C 
HETATM   17  C   UNL     1     -41.769 -54.476  17.568  1.00  0.00     0.051 C 
HETATM   18  C   UNL     1     -41.011 -53.351  16.863  1.00  0.00     0.171 C 
HETATM   19  O   UNL     1     -40.848 -53.552  15.457  1.00  0.00    -0.380 OA
HETATM   20  C   UNL     1     -42.068 -53.801  14.735  1.00  0.00     0.062 C 
HETATM   21  C   UNL     1     -41.696 -54.122  13.262  1.00  0.00     0.038 C 
HETATM   22  C   UNL     1     -42.999 -52.569  14.773  1.00  0.00     0.038 C 
HETATM   23  C   UNL     1     -42.710 -55.068  15.336  1.00  0.00     0.063 C 
HETATM   24  C   UNL     1     -41.275 -52.914  12.420  1.00  0.00     0.003 C 
HETATM   25  C   UNL     1     -42.235 -51.740  12.553  1.00  0.00     0.000 C 
HETATM   26  C   UNL     1     -42.429 -51.377  14.014  1.00  0.00     0.003 C 
ENDBRANCH   4  16
TORSDOF 4
ENDMDL
MODEL 2
REMARK VINA RESULT:      -5.9      4.359      6.615
REMARK  4 active torsions:
REMARK  status: ('A' for Active; 'I' for Inactive)
REMARK       I    between atoms: C_2  and  N_3 
REMARK       I    between atoms: C_2  and  N_13 
REMARK    1  A    between atoms: N_3  and  C_4 
REMARK    2  A    between atoms: C_4  and  C_5 
REMARK    3  A    between atoms: C_5  and  C_6 
REMARK    4  A    between atoms: N_13  and  C_14 
ROOT
HETATM    1  O   UNL     1     -39.163 -51.659  12.581  1.00  0.00    -0.247 OA
HETATM    2  C   UNL     1     -40.225 -51.053  12.511  1.00  0.00     0.316 C 
HETATM    3  N   UNL     1     -40.360 -50.013  11.639  1.00  0.00    -0.343 N 
HETATM    4  N   UNL     1     -41.319 -51.321  13.277  1.00  0.00    -0.338 N 
HETATM    5  H   UNL     1     -39.502 -49.819  11.136  1.00  0.00     0.164 HD
HETATM    6  H   UNL     1     -42.167 -50.837  13.044  1.00  0.00     0.164 HD
ENDROOT
BRANCH   3   7
HETATM    7  C   UNL     1     -41.531 -49.173  11.429  1.00  0.00     0.129 C 
BRANCH   7   8
HETATM    8  C   UNL     1     -41.171 -47.736  11.056  1.00  0.00     0.060 C 
BRANCH   8   9
HETATM    9  C   UNL     1     -42.270 -47.057  10.284  1.00  0.00    -0.041 A 
HETATM   10  C   UNL     1     -42.981 -47.724   9.282  1.00  0.00     0.010 A 
HETATM   11  C   UNL     1     -43.980 -47.056   8.578  1.00  0.00     0.018 A 
HETATM   12  C   UNL     1     -44.245 -45.737   8.908  1.00  0.00     0.087 A 
HETATM   13  N   UNL     1     -43.600 -45.067   9.885  1.00  0.00    -0.375 N 
HETATM   14  C   UNL     1     -42.631 -45.738  10.547  1.00  0.00     0.094 A 
ATOM     15  HN  UNL     1     -43.832 -44.100  10.113  1.00  0.00     0.164 HD
ENDBRANCH   8   9
ENDBRANCH   7   8
ENDBRANCH   3   7
BRANCH   4  16
HETATM   16  C   UNL     1     -41.419 -52.414  14.243  1.00  0.00     0.091 C 
HETATM   17  C   UNL     1     -41.560 -53.761  13.525  1.00  0.00     0.051 C 
HETATM   18  C   UNL     1     -42.990 -54.074  13.083  1.00  0.00     0.171 C 
HETATM   19  O   UNL     1     -43.978 -53.811  14.083  1.00  0.00    -0.380 OA
HETATM   20  C   UNL     1     -43.951 -52.479  14.627  1.00  0.00     0.062 C 
HETATM   21  C   UNL     1     -44.992 -52.409  15.776  1.00  0.00     0.038 C 
HETATM   22  C   UNL     1     -44.304 -51.430  13.548  1.00  0.00     0.038 C 
HETATM   23  C   UNL     1     -42.558 -52.263  15.252  1.00  0.00     0.063 C 
HETATM   24  C   UNL     1     -46.455 -52.350  15.326  1.00  0.00     0.003 C 
HETATM   25  C   UNL     1     -46.694 -51.314  14.236  1.00  0.00     0.000 C 
HETATM   26  C   UNL     1     -45.748 -51.540  13.072  1.00  0.00     0.003 C 
ENDBRANCH   4  16
TORSDOF 4
ENDMDL
MODEL 3
REMARK VINA RESULT:      -5.8      1.907      3.195
REMARK  4 active torsions:
REMARK  status: ('A' for Active; 'I' for Inactive)
REMARK       I    between atoms: C_2  and  N_3 
REMARK       I    between atoms: C_2  and  N_13 
REMARK    1  A    between atoms: N_3  and  C_4 
REMARK    2  A    between atoms: C_4  and  C_5 
REMARK    3  A    between atoms: C_5  and  C_6 
REMARK    4  A    between atoms: N_13  and  C_14 
ROOT
HETATM    1  O   UNL     1     -45.044 -55.742  14.341  1.00  0.00    -0.247 OA
HETATM    2  C   UNL     1     -44.798 -54.640  13.869  1.00  0.00     0.316 C 
HETATM    3  N   UNL     1     -45.791 -53.912  13.281  1.00  0.00    -0.343 N 
HETATM    4  N   UNL     1     -43.564 -54.062  13.857  1.00  0.00    -0.338 N 
HETATM    5  H   UNL     1     -46.674 -54.409  13.265  1.00  0.00     0.164 HD
HETATM    6  H   UNL     1     -43.511 -53.108  13.552  1.00  0.00     0.164 HD
ENDROOT
BRANCH   3   7
HETATM    7  C   UNL     1     -45.684 -52.601  12.656  1.00  0.00     0.129 C 
BRANCH   7   8
HETATM    8  C   UNL     1     -46.608 -51.564  13.292  1.00  0.00     0.060 C 
BRANCH   8   9
HETATM    9  C   UNL     1     -46.311 -51.358  14.753  1.00  0.00    -0.041 A 
HETATM   10  C   UNL     1     -45.057 -50.923  15.190  1.00  0.00     0.010 A 
HETATM   11  C   UNL     1     -44.816 -50.761  16.553  1.00  0.00     0.018 A 
HETATM   12  C   UNL     1     -45.846 -51.030  17.438  1.00  0.00     0.087 A 
HETATM   13  N   UNL     1     -47.077 -51.426  17.054  1.00  0.00    -0.375 N 
HETATM   14  C   UNL     1     -47.281 -51.581  15.727  1.00  0.00     0.094 A 
ATOM     15  HN  UNL     1     -47.819 -51.600  17.733  1.00  0.00     0.164 HD
ENDBRANCH   8   9
ENDBRANCH   7   8
ENDBRANCH   3   7
BRANCH   4  16
HETATM   16  C   UNL     1     -42.365 -54.635  14.467  1.00  0.00     0.091 C 
HETATM   17  C   UNL     1     -42.374 -54.420  15.984  1.00  0.00     0.051 C 
HETATM   18  C   UNL     1     -41.883 -53.036  16.412  1.00  0.00     0.171 C 
HETATM   19  O   UNL     1     -40.692 -52.611  15.745  1.00  0.00    -0.380 OA
HETATM   20  C   UNL     1     -40.756 -52.647  14.307  1.00  0.00     0.062 C 
HETATM   21  C   UNL     1     -39.351 -52.282  13.755  1.00  0.00     0.038 C 
HETATM   22  C   UNL     1     -41.798 -51.640  13.771  1.00  0.00     0.038 C 
HETATM   23  C   UNL     1     -41.050 -54.104  13.894  1.00  0.00     0.063 C 
HETATM   24  C   UNL     1     -38.983 -50.798  13.844  1.00  0.00     0.003 C 
HETATM   25  C   UNL     1     -40.087 -49.886  13.326  1.00  0.00     0.000 C 
HETATM   26  C   UNL     1     -41.399 -50.191  14.025  1.00  0.00     0.003 C 
ENDBRANCH   4  16
TORSDOF 4
ENDMDL
MODEL 4
REMARK VINA RESULT:      -5.8      2.597      5.588
REMARK  4 active torsions:
REMARK  status: ('A' for Active; 'I' for Inactive)
REMARK       I    between atoms: C_2  and  N_3 
REMARK       I    between atoms: C_2  and  N_13 
REMARK    1  A    between atoms: N_3  and  C_4 
REMARK    2  A    between atoms: C_4  and  C_5 
REMARK    3  A    between atoms: C_5  and  C_6 
REMARK    4  A    between atoms: N_13  and  C_14 
ROOT
HETATM    1  O   UNL     1     -43.113 -56.143  15.519  1.00  0.00    -0.247 OA
HETATM    2  C   UNL     1     -42.613 -55.058  15.251  1.00  0.00     0.316 C 
HETATM    3  N   UNL     1     -41.398 -54.719  15.772  1.00  0.00    -0.343 N 
HETATM    4  N   UNL     1     -43.198 -54.110  14.466  1.00  0.00    -0.338 N 
HETATM    5  H   UNL     1     -41.034 -55.433  16.392  1.00  0.00     0.164 HD
HETATM    6  H   UNL     1     -42.638 -53.314  14.221  1.00  0.00     0.164 HD
ENDROOT
BRANCH   3   7
HETATM    7  C   UNL     1     -40.660 -53.478  15.579  1.00  0.00     0.129 C 
BRANCH   7   8
HETATM    8  C   UNL     1     -39.695 -53.539  14.397  1.00  0.00     0.060 C 
BRANCH   8   9
HETATM    9  C   UNL     1     -39.940 -52.433  13.406  1.00  0.00    -0.041 A 
HETATM   10  C   UNL     1     -39.279 -51.205  13.502  1.00  0.00     0.010 A 
HETATM   11  C   UNL     1     -39.546 -50.200  12.575  1.00  0.00     0.018 A 
HETATM   12  C   UNL     1     -40.462 -50.461  11.570  1.00  0.00     0.087 A 
HETATM   13  N   UNL     1     -41.101 -51.641  11.428  1.00  0.00    -0.375 N 
HETATM   14  C   UNL     1     -40.828 -52.595  12.346  1.00  0.00     0.094 A 
ATOM     15  HN  UNL     1     -41.759 -51.805  10.666  1.00  0.00     0.164 HD
ENDBRANCH   8   9
ENDBRANCH   7   8
ENDBRANCH   3   7
BRANCH   4  16
HETATM   16  C   UNL     1     -44.472 -54.271  13.768  1.00  0.00     0.091 C 
HETATM   17  C   UNL     1     -44.538 -53.353  12.542  1.00  0.00     0.051 C 
HETATM   18  C   UNL     1     -44.944 -51.916  12.872  1.00  0.00     0.171 C 
HETATM   19  O   UNL     1     -46.055 -51.817  13.766  1.00  0.00    -0.380 OA
HETATM   20  C   UNL     1     -45.908 -52.543  15.000  1.00  0.00     0.062 C 
HETATM   21  C   UNL     1     -47.243 -52.433  15.784  1.00  0.00     0.038 C 
HETATM   22  C   UNL     1     -44.760 -51.960  15.855  1.00  0.00     0.038 C 
HETATM   23  C   UNL     1     -45.704 -54.029  14.641  1.00  0.00     0.063 C 
HETATM   24  C   UNL     1     -47.499 -51.076  16.446  1.00  0.00     0.003 C 
HETATM   25  C   UNL     1     -46.298 -50.570  17.234  1.00  0.00     0.000 C 
HETATM   26  C   UNL     1     -45.058 -50.553  16.358  1.00  0.00     0.003 C 
ENDBRANCH   4  16
TORSDOF 4
ENDMDL
MODEL 5
REMARK VINA RESULT:      -5.7      3.184      5.181
REMARK  4 active torsions:
REMARK  status: ('A' for Active; 'I' for Inactive)
REMARK       I    between atoms: C_2  and  N_3 
REMARK       I    between atoms: C_2  and  N_13 
REMARK    1  A    between atoms: N_3  and  C_4 
REMARK    2  A    between atoms: C_4  and  C_5 
REMARK    3  A    between atoms: C_5  and  C_6 
REMARK    4  A    between atoms: N_13  and  C_14 
ROOT
HETATM    1  O   UNL     1     -38.806 -53.820  13.765  1.00  0.00    -0.247 OA
HETATM    2  C   UNL     1     -39.909 -53.426  13.407  1.00  0.00     0.316 C 
HETATM    3  N   UNL     1     -40.982 -54.267  13.451  1.00  0.00    -0.343 N 
HETATM    4  N   UNL     1     -40.164 -52.177  12.925  1.00  0.00    -0.338 N 
HETATM    5  H   UNL     1     -40.727 -55.198  13.762  1.00  0.00     0.164 HD
HETATM    6  H   UNL     1     -41.127 -51.934  12.779  1.00  0.00     0.164 HD
ENDROOT
BRANCH   3   7
HETATM    7  C   UNL     1     -42.354 -53.984  13.055  1.00  0.00     0.129 C 
BRANCH   7   8
HETATM    8  C   UNL     1     -43.266 -53.687  14.244  1.00  0.00     0.060 C 
BRANCH   8   9
HETATM    9  C   UNL     1     -44.499 -52.926  13.838  1.00  0.00    -0.041 A 
HETATM   10  C   UNL     1     -45.104 -52.002  14.694  1.00  0.00     0.010 A 
HETATM   11  C   UNL     1     -46.255 -51.330  14.287  1.00  0.00     0.018 A 
HETATM   12  C   UNL     1     -46.760 -51.597  13.026  1.00  0.00     0.087 A 
HETATM   13  N   UNL     1     -46.190 -52.461  12.161  1.00  0.00    -0.375 N 
HETATM   14  C   UNL     1     -45.079 -53.104  12.584  1.00  0.00     0.094 A 
ATOM     15  HN  UNL     1     -46.580 -52.623  11.231  1.00  0.00     0.164 HD
ENDBRANCH   8   9
ENDBRANCH   7   8
ENDBRANCH   3   7
BRANCH   4  16
HETATM   16  C   UNL     1     -39.182 -51.099  12.830  1.00  0.00     0.091 C 
HETATM   17  C   UNL     1     -38.986 -50.422  14.191  1.00  0.00     0.051 C 
HETATM   18  C   UNL     1     -40.050 -49.372  14.514  1.00  0.00     0.171 C 
HETATM   19  O   UNL     1     -40.338 -48.485  13.430  1.00  0.00    -0.380 OA
HETATM   20  C   UNL     1     -40.697 -49.132  12.195  1.00  0.00     0.062 C 
HETATM   21  C   UNL     1     -40.847 -48.036  11.106  1.00  0.00     0.038 C 
HETATM   22  C   UNL     1     -42.029 -49.902  12.337  1.00  0.00     0.038 C 
HETATM   23  C   UNL     1     -39.514 -50.033  11.785  1.00  0.00     0.063 C 
HETATM   24  C   UNL     1     -42.123 -47.194  11.202  1.00  0.00     0.003 C 
HETATM   25  C   UNL     1     -43.375 -48.042  11.377  1.00  0.00     0.000 C 
HETATM   26  C   UNL     1     -43.221 -48.980  12.560  1.00  0.00     0.003 C 
ENDBRANCH   4  16
TORSDOF 4
ENDMDL
MODEL 6
REMARK VINA RESULT:      -5.6      3.363      5.953
REMARK  4 active torsions:
REMARK  status: ('A' for Active; 'I' for Inactive)
REMARK       I    between atoms: C_2  and  N_3 
REMARK       I    between atoms: C_2  and  N_13 
REMARK    1  A    between atoms: N_3  and  C_4 
REMARK    2  A    between atoms: C_4  and  C_5 
REMARK    3  A    between atoms: C_5  and  C_6 
REMARK    4  A    between atoms: N_13  and  C_14 
ROOT
HETATM    1  O   UNL     1     -44.982 -53.805  12.592  1.00  0.00    -0.247 OA
HETATM    2  C   UNL     1     -43.797 -53.537  12.744  1.00  0.00     0.316 C 
HETATM    3  N   UNL     1     -43.114 -52.886  11.759  1.00  0.00    -0.343 N 
HETATM    4  N   UNL     1     -43.065 -53.867  13.844  1.00  0.00    -0.338 N 
HETATM    5  H   UNL     1     -43.688 -52.714  10.941  1.00  0.00     0.164 HD
HETATM    6  H   UNL     1     -42.138 -53.487  13.904  1.00  0.00     0.164 HD
ENDROOT
BRANCH   3   7
HETATM    7  C   UNL     1     -41.709 -52.500  11.754  1.00  0.00     0.129 C 
BRANCH   7   8
HETATM    8  C   UNL     1     -41.468 -51.128  12.380  1.00  0.00     0.060 C 
BRANCH   8   9
HETATM    9  C   UNL     1     -40.040 -50.678  12.230  1.00  0.00    -0.041 A 
HETATM   10  C   UNL     1     -39.009 -51.251  12.979  1.00  0.00     0.010 A 
HETATM   11  C   UNL     1     -37.702 -50.794  12.823  1.00  0.00     0.018 A 
HETATM   12  C   UNL     1     -37.465 -49.781  11.909  1.00  0.00     0.087 A 
HETATM   13  N   UNL     1     -38.429 -49.221  11.148  1.00  0.00    -0.375 N 
HETATM   14  C   UNL     1     -39.689 -49.679  11.325  1.00  0.00     0.094 A 
ATOM     15  HN  UNL     1     -38.217 -48.487  10.472  1.00  0.00     0.164 HD
ENDBRANCH   8   9
ENDBRANCH   7   8
ENDBRANCH   3   7
BRANCH   4  16
HETATM   16  C   UNL     1     -43.596 -54.524  15.037  1.00  0.00     0.091 C 
HETATM   17  C   UNL     1     -43.784 -53.514  16.174  1.00  0.00     0.051 C 
HETATM   18  C   UNL     1     -42.502 -53.220  16.954  1.00  0.00     0.171 C 
HETATM   19  O   UNL     1     -41.750 -54.386  17.297  1.00  0.00    -0.380 OA
HETATM   20  C   UNL     1     -41.423 -55.244  16.188  1.00  0.00     0.062 C 
HETATM   21  C   UNL     1     -40.727 -56.512  16.753  1.00  0.00     0.038 C 
HETATM   22  C   UNL     1     -40.473 -54.534  15.197  1.00  0.00     0.038 C 
HETATM   23  C   UNL     1     -42.750 -55.693  15.543  1.00  0.00     0.063 C 
HETATM   24  C   UNL     1     -39.280 -56.311  17.210  1.00  0.00     0.003 C 
HETATM   25  C   UNL     1     -38.435 -55.571  16.182  1.00  0.00     0.000 C 
HETATM   26  C   UNL     1     -39.097 -54.262  15.794  1.00  0.00     0.003 C 
ENDBRANCH   4  16
TORSDOF 4
ENDMDL
MODEL 7
REMARK VINA RESULT:      -5.6      4.288      6.646
REMARK  4 active torsions:
REMARK  status: ('A' for Active; 'I' for Inactive)
REMARK       I    between atoms: C_2  and  N_3 
REMARK       I    between atoms: C_2  and  N_13 
REMARK    1  A    between atoms: N_3  and  C_4 
REMARK    2  A    between atoms: C_4  and  C_5 
REMARK    3  A    between atoms: C_5  and  C_6 
REMARK    4  A    between atoms: N_13  and  C_14 
ROOT
HETATM    1  O   UNL     1     -37.075 -51.580  12.531  1.00  0.00    -0.247 OA
HETATM    2  C   UNL     1     -38.061 -51.453  13.245  1.00  0.00     0.316 C 
HETATM    3  N   UNL     1     -38.646 -52.554  13.801  1.00  0.00    -0.343 N 
HETATM    4  N   UNL     1     -38.666 -50.265  13.526  1.00  0.00    -0.338 N 
HETATM    5  H   UNL     1     -38.193 -53.415  13.516  1.00  0.00     0.164 HD
HETATM    6  H   UNL     1     -39.391 -50.277  14.219  1.00  0.00     0.164 HD
ENDROOT
BRANCH   3   7
HETATM    7  C   UNL     1     -39.823 -52.601  14.656  1.00  0.00     0.129 C 
BRANCH   7   8
HETATM    8  C   UNL     1     -40.573 -53.929  14.561  1.00  0.00     0.060 C 
BRANCH   8   9
HETATM    9  C   UNL     1     -41.890 -53.787  13.846  1.00  0.00    -0.041 A 
HETATM   10  C   UNL     1     -43.037 -54.454  14.286  1.00  0.00     0.010 A 
HETATM   11  C   UNL     1     -44.233 -54.310  13.586  1.00  0.00     0.018 A 
HETATM   12  C   UNL     1     -44.246 -53.492  12.469  1.00  0.00     0.087 A 
HETATM   13  N   UNL     1     -43.167 -52.812  12.028  1.00  0.00    -0.375 N 
HETATM   14  C   UNL     1     -42.019 -52.975  12.723  1.00  0.00     0.094 A 
ATOM     15  HN  UNL     1     -43.216 -52.204  11.210  1.00  0.00     0.164 HD
ENDBRANCH   8   9
ENDBRANCH   7   8
ENDBRANCH   3   7
BRANCH   4  16
HETATM   16  C   UNL     1     -38.190 -48.957  13.078  1.00  0.00     0.091 C 
HETATM   17  C   UNL     1     -38.228 -47.945  14.228  1.00  0.00     0.051 C 
HETATM   18  C   UNL     1     -39.606 -47.323  14.454  1.00  0.00     0.171 C 
HETATM   19  O   UNL     1     -40.258 -46.902  13.253  1.00  0.00    -0.380 OA
HETATM   20  C   UNL     1     -40.377 -47.919  12.240  1.00  0.00     0.062 C 
HETATM   21  C   UNL     1     -40.984 -47.262  10.972  1.00  0.00     0.038 C 
HETATM   22  C   UNL     1     -41.293 -49.070  12.713  1.00  0.00     0.038 C 
HETATM   23  C   UNL     1     -38.951 -48.384  11.882  1.00  0.00     0.063 C 
HETATM   24  C   UNL     1     -42.484 -46.961  11.049  1.00  0.00     0.003 C 
HETATM   25  C   UNL     1     -43.296 -48.143  11.560  1.00  0.00     0.000 C 
HETATM   26  C   UNL     1     -42.743 -48.634  12.885  1.00  0.00     0.003 C 
ENDBRANCH   4  16
TORSDOF 4
ENDMDL
MODEL 8
REMARK VINA RESULT:      -5.6      4.142      6.485
REMARK  4 active torsions:
REMARK  status: ('A' for Active; 'I' for Inactive)
REMARK       I    between atoms: C_2  and  N_3 
REMARK       I    between atoms: C_2  and  N_13 
REMARK    1  A    between atoms: N_3  and  C_4 
REMARK    2  A    between atoms: C_4  and  C_5 
REMARK    3  A    between atoms: C_5  and  C_6 
REMARK    4  A    between atoms: N_13  and  C_14 
ROOT
HETATM    1  O   UNL     1     -41.151 -48.365  10.616  1.00  0.00    -0.247 OA
HETATM    2  C   UNL     1     -41.215 -49.181  11.527  1.00  0.00     0.316 C 
HETATM    3  N   UNL     1     -42.383 -49.844  11.767  1.00  0.00    -0.343 N 
HETATM    4  N   UNL     1     -40.188 -49.479  12.371  1.00  0.00    -0.338 N 
HETATM    5  H   UNL     1     -43.129 -49.546  11.150  1.00  0.00     0.164 HD
HETATM    6  H   UNL     1     -40.324 -50.250  12.999  1.00  0.00     0.164 HD
ENDROOT
BRANCH   3   7
HETATM    7  C   UNL     1     -42.650 -50.830  12.806  1.00  0.00     0.129 C 
BRANCH   7   8
HETATM    8  C   UNL     1     -42.515 -52.268  12.310  1.00  0.00     0.060 C 
BRANCH   8   9
HETATM    9  C   UNL     1     -43.525 -53.185  12.945  1.00  0.00    -0.041 A 
HETATM   10  C   UNL     1     -43.139 -54.204  13.820  1.00  0.00     0.010 A 
HETATM   11  C   UNL     1     -44.103 -55.043  14.374  1.00  0.00     0.018 A 
HETATM   12  C   UNL     1     -45.430 -54.829  14.041  1.00  0.00     0.087 A 
HETATM   13  N   UNL     1     -45.844 -53.841  13.221  1.00  0.00    -0.375 N 
HETATM   14  C   UNL     1     -44.887 -53.046  12.693  1.00  0.00     0.094 A 
ATOM     15  HN  UNL     1     -46.832 -53.701  13.010  1.00  0.00     0.164 HD
ENDBRANCH   8   9
ENDBRANCH   7   8
ENDBRANCH   3   7
BRANCH   4  16
HETATM   16  C   UNL     1     -38.838 -48.927  12.275  1.00  0.00     0.091 C 
HETATM   17  C   UNL     1     -37.917 -49.878  11.502  1.00  0.00     0.051 C 
HETATM   18  C   UNL     1     -37.350 -51.013  12.356  1.00  0.00     0.171 C 
HETATM   19  O   UNL     1     -36.857 -50.591  13.629  1.00  0.00    -0.380 OA
HETATM   20  C   UNL     1     -37.796 -49.847  14.427  1.00  0.00     0.062 C 
HETATM   21  C   UNL     1     -37.060 -49.363  15.706  1.00  0.00     0.038 C 
HETATM   22  C   UNL     1     -39.003 -50.723  14.829  1.00  0.00     0.038 C 
HETATM   23  C   UNL     1     -38.195 -48.594  13.622  1.00  0.00     0.063 C 
HETATM   24  C   UNL     1     -36.805 -50.446  16.759  1.00  0.00     0.003 C 
HETATM   25  C   UNL     1     -38.044 -51.278  17.059  1.00  0.00     0.000 C 
HETATM   26  C   UNL     1     -38.620 -51.853  15.777  1.00  0.00     0.003 C 
ENDBRANCH   4  16
TORSDOF 4
ENDMDL
MODEL 9
REMARK VINA RESULT:      -5.6      4.842      7.334
REMARK  4 active torsions:
REMARK  status: ('A' for Active; 'I' for Inactive)
REMARK       I    between atoms: C_2  and  N_3 
REMARK       I    between atoms: C_2  and  N_13 
REMARK    1  A    between atoms: N_3  and  C_4 
REMARK    2  A    between atoms: C_4  and  C_5 
REMARK    3  A    between atoms: C_5  and  C_6 
REMARK    4  A    between atoms: N_13  and  C_14 
ROOT
HETATM    1  O   UNL     1     -38.376 -49.689  11.441  1.00  0.00    -0.247 OA
HETATM    2  C   UNL     1     -39.511 -49.983  11.793  1.00  0.00     0.316 C 
HETATM    3  N   UNL     1     -39.939 -51.275  11.707  1.00  0.00    -0.343 N 
HETATM    4  N   UNL     1     -40.432 -49.092  12.258  1.00  0.00    -0.338 N 
HETATM    5  H   UNL     1     -39.238 -51.886  11.302  1.00  0.00     0.164 HD
HETATM    6  H   UNL     1     -41.284 -49.470  12.628  1.00  0.00     0.164 HD
ENDROOT
BRANCH   3   7
HETATM    7  C   UNL     1     -41.248 -51.807  12.060  1.00  0.00     0.129 C 
BRANCH   7   8
HETATM    8  C   UNL     1     -41.168 -53.145  12.792  1.00  0.00     0.060 C 
BRANCH   8   9
HETATM    9  C   UNL     1     -42.527 -53.660  13.184  1.00  0.00    -0.041 A 
HETATM   10  C   UNL     1     -43.679 -53.294  12.482  1.00  0.00     0.010 A 
HETATM   11  C   UNL     1     -44.921 -53.779  12.887  1.00  0.00     0.018 A 
HETATM   12  C   UNL     1     -44.969 -54.628  13.980  1.00  0.00     0.087 A 
HETATM   13  N   UNL     1     -43.878 -55.025  14.667  1.00  0.00    -0.375 N 
HETATM   14  C   UNL     1     -42.687 -54.534  14.256  1.00  0.00     0.094 A 
ATOM     15  HN  UNL     1     -43.948 -55.665  15.458  1.00  0.00     0.164 HD
ENDBRANCH   8   9
ENDBRANCH   7   8
ENDBRANCH   3   7
BRANCH   4  16
HETATM   16  C   UNL     1     -40.183 -47.668  12.476  1.00  0.00     0.091 C 
HETATM   17  C   UNL     1     -40.941 -47.169  13.711  1.00  0.00     0.051 C 
HETATM   18  C   UNL     1     -42.407 -46.830  13.437  1.00  0.00     0.171 C 
HETATM   19  O   UNL     1     -42.614 -46.066  12.247  1.00  0.00    -0.380 OA
HETATM   20  C   UNL     1     -42.047 -46.637  11.053  1.00  0.00     0.062 C 
HETATM   21  C   UNL     1     -42.251 -45.625   9.894  1.00  0.00     0.038 C 
HETATM   22  C   UNL     1     -42.734 -47.974  10.695  1.00  0.00     0.038 C 
HETATM   23  C   UNL     1     -40.528 -46.777  11.283  1.00  0.00     0.063 C 
HETATM   24  C   UNL     1     -43.679 -45.541   9.348  1.00  0.00     0.003 C 
HETATM   25  C   UNL     1     -44.282 -46.909   9.061  1.00  0.00     0.000 C 
HETATM   26  C   UNL     1     -44.193 -47.796  10.290  1.00  0.00     0.003 C 
ENDBRANCH   4  16
TORSDOF 4
ENDMDL
