MODEL 1
REMARK VINA RESULT:      -5.9      0.000      0.000
REMARK  6 active torsions:
REMARK  status: ('A' for Active; 'I' for Inactive)
REMARK    1  A    between atoms: C_2  and  C_3 
REMARK    2  A    between atoms: C_2  and  N_10 
REMARK    3  A    between atoms: C_3  and  N_4 
REMARK       I    between atoms: N_10  and  C_11 
REMARK    4  A    between atoms: C_11  and  C_13 
REMARK    5  A    between atoms: C_13  and  C_14 
REMARK    6  A    between atoms: C_14  and  N_15 
ROOT
HETATM    1  N   UNL     1     -41.743 -48.274   9.951  1.00  0.00    -0.355 N 
HETATM    2  C   UNL     1     -41.223 -48.623  11.177  1.00  0.00     0.219 C 
HETATM    3  O   UNL     1     -41.477 -48.002  12.204  1.00  0.00    -0.274 OA
HETATM    4  H   UNL     1     -41.583 -48.885   9.158  1.00  0.00     0.162 HD
ENDROOT
BRANCH   1   5
HETATM    5  C   UNL     1     -42.725 -47.188   9.806  1.00  0.00     0.100 C 
HETATM    6  C   UNL     1     -42.030 -45.856  10.086  1.00  0.00     0.034 C 
BRANCH   5   7
HETATM    7  C   UNL     1     -43.405 -47.223   8.422  1.00  0.00     0.172 C 
BRANCH   7   8
HETATM    8  N   UNL     1     -44.747 -47.772   8.462  1.00  0.00    -0.302 N 
HETATM    9  C   UNL     1     -45.691 -47.570   9.427  1.00  0.00     0.111 A 
HETATM   10  C   UNL     1     -46.815 -48.248   9.011  1.00  0.00     0.037 A 
HETATM   11  C   UNL     1     -46.439 -48.844   7.794  1.00  0.00     0.108 A 
HETATM   12  N   UNL     1     -45.174 -48.572   7.463  1.00  0.00    -0.310 N 
ATOM     13  HN  UNL     1     -44.654 -48.892   6.646  1.00  0.00     0.186 HD
ENDBRANCH   7   8
ENDBRANCH   5   7
ENDBRANCH   1   5
BRANCH   2  14
HETATM   14  C   UNL     1     -40.278 -49.807  11.136  1.00  0.00     0.122 C 
BRANCH  14  15
HETATM   15  C   UNL     1     -40.185 -50.446  12.522  1.00  0.00     0.136 C 
BRANCH  15  16
HETATM   16  N   UNL     1     -40.999 -51.651  12.663  1.00  0.00    -0.342 N 
HETATM   17  C   UNL     1     -42.444 -51.569  12.707  1.00  0.00     0.137 C 
HETATM   18  C   UNL     1     -43.015 -52.974  12.628  1.00  0.00     0.104 C 
HETATM   19  S   UNL     1     -41.711 -54.042  13.282  1.00  0.00    -0.068 SA
HETATM   20  C   UNL     1     -40.450 -52.845  13.067  1.00  0.00     0.281 C 
HETATM   21  O   UNL     1     -39.269 -53.070  13.280  1.00  0.00    -0.260 OA
ENDBRANCH  15  16
ENDBRANCH  14  15
ENDBRANCH   2  14
TORSDOF 6
ENDMDL
MODEL 2
REMARK VINA RESULT:      -5.5      2.797      4.416
REMARK  6 active torsions:
REMARK  status: ('A' for Active; 'I' for Inactive)
REMARK    1  A    between atoms: C_2  and  C_3 
REMARK    2  A    between atoms: C_2  and  N_10 
REMARK    3  A    between atoms: C_3  and  N_4 
REMARK       I    between atoms: N_10  and  C_11 
REMARK    4  A    between atoms: C_11  and  C_13 
REMARK    5  A    between atoms: C_13  and  C_14 
REMARK    6  A    between atoms: C_14  and  N_15 
ROOT
HETATM    1  N   UNL     1     -39.852 -50.716  11.687  1.00  0.00    -0.355 N 
HETATM    2  C   UNL     1     -40.229 -51.730  12.540  1.00  0.00     0.219 C 
HETATM    3  O   UNL     1     -39.740 -51.871  13.656  1.00  0.00    -0.274 OA
HETATM    4  H   UNL     1     -40.364 -50.587  10.822  1.00  0.00     0.162 HD
ENDROOT
BRANCH   1   5
HETATM    5  C   UNL     1     -38.907 -49.666  12.100  1.00  0.00     0.100 C 
HETATM    6  C   UNL     1     -37.537 -49.975  11.499  1.00  0.00     0.034 C 
BRANCH   5   7
HETATM    7  C   UNL     1     -39.421 -48.264  11.720  1.00  0.00     0.172 C 
BRANCH   7   8
HETATM    8  N   UNL     1     -40.854 -48.224  11.494  1.00  0.00    -0.302 N 
HETATM    9  C   UNL     1     -41.838 -48.344  12.432  1.00  0.00     0.111 A 
HETATM   10  C   UNL     1     -43.029 -48.195  11.758  1.00  0.00     0.037 A 
HETATM   11  C   UNL     1     -42.655 -48.011  10.415  1.00  0.00     0.108 A 
HETATM   12  N   UNL     1     -41.332 -48.045  10.245  1.00  0.00    -0.310 N 
ATOM     13  HN  UNL     1     -40.805 -47.956   9.376  1.00  0.00     0.186 HD
ENDBRANCH   7   8
ENDBRANCH   5   7
ENDBRANCH   1   5
BRANCH   2  14
HETATM   14  C   UNL     1     -41.260 -52.678  11.959  1.00  0.00     0.122 C 
BRANCH  14  15
HETATM   15  C   UNL     1     -42.662 -52.248  12.392  1.00  0.00     0.136 C 
BRANCH  15  16
HETATM   16  N   UNL     1     -43.374 -53.270  13.154  1.00  0.00    -0.342 N 
HETATM   17  C   UNL     1     -42.654 -54.222  13.973  1.00  0.00     0.137 C 
HETATM   18  C   UNL     1     -43.654 -55.000  14.811  1.00  0.00     0.104 C 
HETATM   19  S   UNL     1     -45.196 -54.936  13.870  1.00  0.00    -0.068 SA
HETATM   20  C   UNL     1     -44.690 -53.573  12.892  1.00  0.00     0.281 C 
HETATM   21  O   UNL     1     -45.422 -53.016  12.090  1.00  0.00    -0.260 OA
ENDBRANCH  15  16
ENDBRANCH  14  15
ENDBRANCH   2  14
TORSDOF 6
ENDMDL
MODEL 3
REMARK VINA RESULT:      -5.5      2.447      2.948
REMARK  6 active torsions:
REMARK  status: ('A' for Active; 'I' for Inactive)
REMARK    1  A    between atoms: C_2  and  C_3 
REMARK    2  A    between atoms: C_2  and  N_10 
REMARK    3  A    between atoms: C_3  and  N_4 
REMARK       I    between atoms: N_10  and  C_11 
REMARK    4  A    between atoms: C_11  and  C_13 
REMARK    5  A    between atoms: C_13  and  C_14 
REMARK    6  A    between atoms: C_14  and  N_15 
ROOT
HETATM    1  N   UNL     1     -42.298 -49.174  11.955  1.00  0.00    -0.355 N 
HETATM    2  C   UNL     1     -42.795 -50.180  12.753  1.00  0.00     0.219 C 
HETATM    3  O   UNL     1     -43.899 -50.118  13.285  1.00  0.00    -0.274 OA
HETATM    4  H   UNL     1     -41.427 -49.326  11.459  1.00  0.00     0.162 HD
ENDROOT
BRANCH   1   5
HETATM    5  C   UNL     1     -43.105 -47.996  11.599  1.00  0.00     0.100 C 
HETATM    6  C   UNL     1     -42.564 -46.783  12.356  1.00  0.00     0.034 C 
BRANCH   5   7
HETATM    7  C   UNL     1     -43.142 -47.778  10.074  1.00  0.00     0.172 C 
BRANCH   7   8
HETATM    8  N   UNL     1     -44.454 -47.399   9.585  1.00  0.00    -0.302 N 
HETATM    9  C   UNL     1     -44.802 -46.223   8.986  1.00  0.00     0.111 A 
HETATM   10  C   UNL     1     -46.132 -46.342   8.653  1.00  0.00     0.037 A 
HETATM   11  C   UNL     1     -46.499 -47.619   9.111  1.00  0.00     0.108 A 
HETATM   12  N   UNL     1     -45.486 -48.262   9.696  1.00  0.00    -0.310 N 
ATOM     13  HN  UNL     1     -45.490 -49.187  10.124  1.00  0.00     0.186 HD
ENDBRANCH   7   8
ENDBRANCH   5   7
ENDBRANCH   1   5
BRANCH   2  14
HETATM   14  C   UNL     1     -41.841 -51.341  12.954  1.00  0.00     0.122 C 
BRANCH  14  15
HETATM   15  C   UNL     1     -42.376 -52.582  12.240  1.00  0.00     0.136 C 
BRANCH  15  16
HETATM   16  N   UNL     1     -43.117 -53.484  13.116  1.00  0.00    -0.342 N 
HETATM   17  C   UNL     1     -42.423 -54.419  13.978  1.00  0.00     0.137 C 
HETATM   18  C   UNL     1     -43.429 -55.052  14.923  1.00  0.00     0.104 C 
HETATM   19  S   UNL     1     -45.011 -54.948  14.054  1.00  0.00    -0.068 SA
HETATM   20  C   UNL     1     -44.463 -53.708  12.944  1.00  0.00     0.281 C 
HETATM   21  O   UNL     1     -45.195 -53.164  12.133  1.00  0.00    -0.260 OA
ENDBRANCH  15  16
ENDBRANCH  14  15
ENDBRANCH   2  14
TORSDOF 6
ENDMDL
MODEL 4
REMARK VINA RESULT:      -5.5      3.714      6.151
REMARK  6 active torsions:
REMARK  status: ('A' for Active; 'I' for Inactive)
REMARK    1  A    between atoms: C_2  and  C_3 
REMARK    2  A    between atoms: C_2  and  N_10 
REMARK    3  A    between atoms: C_3  and  N_4 
REMARK       I    between atoms: N_10  and  C_11 
REMARK    4  A    between atoms: C_11  and  C_13 
REMARK    5  A    between atoms: C_13  and  C_14 
REMARK    6  A    between atoms: C_14  and  N_15 
ROOT
HETATM    1  N   UNL     1     -44.276 -50.725  12.680  1.00  0.00    -0.355 N 
HETATM    2  C   UNL     1     -43.200 -50.271  13.410  1.00  0.00     0.219 C 
HETATM    3  O   UNL     1     -42.915 -50.718  14.516  1.00  0.00    -0.274 OA
HETATM    4  H   UNL     1     -44.399 -50.393  11.730  1.00  0.00     0.162 HD
ENDROOT
BRANCH   1   5
HETATM    5  C   UNL     1     -45.101 -51.855  13.136  1.00  0.00     0.100 C 
HETATM    6  C   UNL     1     -46.553 -51.595  12.735  1.00  0.00     0.034 C 
BRANCH   5   7
HETATM    7  C   UNL     1     -44.566 -53.196  12.597  1.00  0.00     0.172 C 
BRANCH   7   8
HETATM    8  N   UNL     1     -43.711 -53.889  13.543  1.00  0.00    -0.302 N 
HETATM    9  C   UNL     1     -44.098 -54.770  14.510  1.00  0.00     0.111 A 
HETATM   10  C   UNL     1     -42.940 -55.200  15.120  1.00  0.00     0.037 A 
HETATM   11  C   UNL     1     -41.913 -54.503  14.461  1.00  0.00     0.108 A 
HETATM   12  N   UNL     1     -42.377 -53.689  13.511  1.00  0.00    -0.310 N 
ATOM     13  HN  UNL     1     -41.848 -53.064  12.903  1.00  0.00     0.186 HD
ENDBRANCH   7   8
ENDBRANCH   5   7
ENDBRANCH   1   5
BRANCH   2  14
HETATM   14  C   UNL     1     -42.432 -49.144  12.748  1.00  0.00     0.122 C 
BRANCH  14  15
HETATM   15  C   UNL     1     -41.433 -49.716  11.741  1.00  0.00     0.136 C 
BRANCH  15  16
HETATM   16  N   UNL     1     -40.079 -49.842  12.273  1.00  0.00    -0.342 N 
HETATM   17  C   UNL     1     -39.161 -48.723  12.238  1.00  0.00     0.137 C 
HETATM   18  C   UNL     1     -37.930 -49.076  13.053  1.00  0.00     0.104 C 
HETATM   19  S   UNL     1     -37.847 -50.882  13.010  1.00  0.00    -0.068 SA
HETATM   20  C   UNL     1     -39.521 -51.073  12.532  1.00  0.00     0.281 C 
HETATM   21  O   UNL     1     -40.069 -52.158  12.430  1.00  0.00    -0.260 OA
ENDBRANCH  15  16
ENDBRANCH  14  15
ENDBRANCH   2  14
TORSDOF 6
ENDMDL
MODEL 5
REMARK VINA RESULT:      -5.5      1.858      3.656
REMARK  6 active torsions:
REMARK  status: ('A' for Active; 'I' for Inactive)
REMARK    1  A    between atoms: C_2  and  C_3 
REMARK    2  A    between atoms: C_2  and  N_10 
REMARK    3  A    between atoms: C_3  and  N_4 
REMARK       I    between atoms: N_10  and  C_11 
REMARK    4  A    between atoms: C_11  and  C_13 
REMARK    5  A    between atoms: C_13  and  C_14 
REMARK    6  A    between atoms: C_14  and  N_15 
ROOT
HETATM    1  N   UNL     1     -43.373 -48.100  10.666  1.00  0.00    -0.355 N 
HETATM    2  C   UNL     1     -42.381 -48.697  11.412  1.00  0.00     0.219 C 
HETATM    3  O   UNL     1     -41.200 -48.676  11.080  1.00  0.00    -0.274 OA
HETATM    4  H   UNL     1     -44.313 -48.059  11.043  1.00  0.00     0.162 HD
ENDROOT
BRANCH   1   5
HETATM    5  C   UNL     1     -43.068 -47.303   9.467  1.00  0.00     0.100 C 
HETATM    6  C   UNL     1     -44.067 -47.666   8.370  1.00  0.00     0.034 C 
BRANCH   5   7
HETATM    7  C   UNL     1     -43.053 -45.794   9.782  1.00  0.00     0.172 C 
BRANCH   7   8
HETATM    8  N   UNL     1     -41.842 -45.365  10.456  1.00  0.00    -0.302 N 
HETATM    9  C   UNL     1     -41.753 -44.559  11.554  1.00  0.00     0.111 A 
HETATM   10  C   UNL     1     -40.413 -44.473  11.857  1.00  0.00     0.037 A 
HETATM   11  C   UNL     1     -39.776 -45.245  10.870  1.00  0.00     0.108 A 
HETATM   12  N   UNL     1     -40.640 -45.777  10.003  1.00  0.00    -0.310 N 
ATOM     13  HN  UNL     1     -40.439 -46.359   9.190  1.00  0.00     0.186 HD
ENDBRANCH   7   8
ENDBRANCH   5   7
ENDBRANCH   1   5
BRANCH   2  14
HETATM   14  C   UNL     1     -42.883 -49.419  12.647  1.00  0.00     0.122 C 
BRANCH  14  15
HETATM   15  C   UNL     1     -41.712 -50.082  13.373  1.00  0.00     0.136 C 
BRANCH  15  16
HETATM   16  N   UNL     1     -41.714 -51.538  13.273  1.00  0.00    -0.342 N 
HETATM   17  C   UNL     1     -42.740 -52.326  13.923  1.00  0.00     0.137 C 
HETATM   18  C   UNL     1     -42.617 -53.767  13.460  1.00  0.00     0.104 C 
HETATM   19  S   UNL     1     -40.884 -53.954  12.981  1.00  0.00    -0.068 SA
HETATM   20  C   UNL     1     -40.606 -52.229  12.840  1.00  0.00     0.281 C 
HETATM   21  O   UNL     1     -39.559 -51.751  12.437  1.00  0.00    -0.260 OA
ENDBRANCH  15  16
ENDBRANCH  14  15
ENDBRANCH   2  14
TORSDOF 6
ENDMDL
MODEL 6
REMARK VINA RESULT:      -5.4      1.624      2.060
REMARK  6 active torsions:
REMARK  status: ('A' for Active; 'I' for Inactive)
REMARK    1  A    between atoms: C_2  and  C_3 
REMARK    2  A    between atoms: C_2  and  N_10 
REMARK    3  A    between atoms: C_3  and  N_4 
REMARK       I    between atoms: N_10  and  C_11 
REMARK    4  A    between atoms: C_11  and  C_13 
REMARK    5  A    between atoms: C_13  and  C_14 
REMARK    6  A    between atoms: C_14  and  N_15 
ROOT
HETATM    1  N   UNL     1     -40.771 -47.248  10.621  1.00  0.00    -0.355 N 
HETATM    2  C   UNL     1     -40.303 -48.175  11.525  1.00  0.00     0.219 C 
HETATM    3  O   UNL     1     -39.772 -47.856  12.585  1.00  0.00    -0.274 OA
HETATM    4  H   UNL     1     -41.294 -47.571   9.814  1.00  0.00     0.162 HD
ENDROOT
BRANCH   1   5
HETATM    5  C   UNL     1     -40.761 -45.806  10.912  1.00  0.00     0.100 C 
HETATM    6  C   UNL     1     -39.657 -45.147  10.087  1.00  0.00     0.034 C 
BRANCH   5   7
HETATM    7  C   UNL     1     -42.145 -45.172  10.670  1.00  0.00     0.172 C 
BRANCH   7   8
HETATM    8  N   UNL     1     -43.089 -46.084  10.053  1.00  0.00    -0.302 N 
HETATM    9  C   UNL     1     -43.294 -46.277   8.717  1.00  0.00     0.111 A 
HETATM   10  C   UNL     1     -44.245 -47.268   8.617  1.00  0.00     0.037 A 
HETATM   11  C   UNL     1     -44.563 -47.591   9.947  1.00  0.00     0.108 A 
HETATM   12  N   UNL     1     -43.875 -46.861  10.828  1.00  0.00    -0.310 N 
ATOM     13  HN  UNL     1     -43.929 -46.885  11.846  1.00  0.00     0.186 HD
ENDBRANCH   7   8
ENDBRANCH   5   7
ENDBRANCH   1   5
BRANCH   2  14
HETATM   14  C   UNL     1     -40.457 -49.615  11.075  1.00  0.00     0.122 C 
BRANCH  14  15
HETATM   15  C   UNL     1     -39.938 -50.557  12.162  1.00  0.00     0.136 C 
BRANCH  15  16
HETATM   16  N   UNL     1     -40.850 -51.657  12.462  1.00  0.00    -0.342 N 
HETATM   17  C   UNL     1     -42.284 -51.453  12.465  1.00  0.00     0.137 C 
HETATM   18  C   UNL     1     -42.969 -52.803  12.582  1.00  0.00     0.104 C 
HETATM   19  S   UNL     1     -41.764 -53.864  13.411  1.00  0.00    -0.068 SA
HETATM   20  C   UNL     1     -40.406 -52.819  13.048  1.00  0.00     0.281 C 
HETATM   21  O   UNL     1     -39.250 -53.105  13.316  1.00  0.00    -0.260 OA
ENDBRANCH  15  16
ENDBRANCH  14  15
ENDBRANCH   2  14
TORSDOF 6
ENDMDL
MODEL 7
REMARK VINA RESULT:      -5.3      3.113      5.471
REMARK  6 active torsions:
REMARK  status: ('A' for Active; 'I' for Inactive)
REMARK    1  A    between atoms: C_2  and  C_3 
REMARK    2  A    between atoms: C_2  and  N_10 
REMARK    3  A    between atoms: C_3  and  N_4 
REMARK       I    between atoms: N_10  and  C_11 
REMARK    4  A    between atoms: C_11  and  C_13 
REMARK    5  A    between atoms: C_13  and  C_14 
REMARK    6  A    between atoms: C_14  and  N_15 
ROOT
HETATM    1  N   UNL     1     -42.260 -49.351  11.916  1.00  0.00    -0.355 N 
HETATM    2  C   UNL     1     -42.036 -50.645  12.330  1.00  0.00     0.219 C 
HETATM    3  O   UNL     1     -41.246 -51.393  11.763  1.00  0.00    -0.274 OA
HETATM    4  H   UNL     1     -42.844 -48.747  12.484  1.00  0.00     0.162 HD
ENDROOT
BRANCH   1   5
HETATM    5  C   UNL     1     -41.487 -48.741  10.822  1.00  0.00     0.100 C 
HETATM    6  C   UNL     1     -42.429 -47.893   9.968  1.00  0.00     0.034 C 
BRANCH   5   7
HETATM    7  C   UNL     1     -40.287 -47.938  11.360  1.00  0.00     0.172 C 
BRANCH   7   8
HETATM    8  N   UNL     1     -39.200 -48.780  11.824  1.00  0.00    -0.302 N 
HETATM    9  C   UNL     1     -38.610 -48.756  13.055  1.00  0.00     0.111 A 
HETATM   10  C   UNL     1     -37.669 -49.762  13.046  1.00  0.00     0.037 A 
HETATM   11  C   UNL     1     -37.757 -50.318  11.758  1.00  0.00     0.108 A 
HETATM   12  N   UNL     1     -38.676 -49.712  11.003  1.00  0.00    -0.310 N 
ATOM     13  HN  UNL     1     -38.924 -49.909  10.033  1.00  0.00     0.186 HD
ENDBRANCH   7   8
ENDBRANCH   5   7
ENDBRANCH   1   5
BRANCH   2  14
HETATM   14  C   UNL     1     -42.883 -51.073  13.512  1.00  0.00     0.122 C 
BRANCH  14  15
HETATM   15  C   UNL     1     -43.058 -52.592  13.501  1.00  0.00     0.136 C 
BRANCH  15  16
HETATM   16  N   UNL     1     -44.268 -53.044  14.183  1.00  0.00    -0.342 N 
HETATM   17  C   UNL     1     -44.486 -52.745  15.584  1.00  0.00     0.137 C 
HETATM   18  C   UNL     1     -45.906 -53.135  15.951  1.00  0.00     0.104 C 
HETATM   19  S   UNL     1     -46.352 -54.430  14.770  1.00  0.00    -0.068 SA
HETATM   20  C   UNL     1     -45.080 -54.010  13.639  1.00  0.00     0.281 C 
HETATM   21  O   UNL     1     -44.954 -54.540  12.547  1.00  0.00    -0.260 OA
ENDBRANCH  15  16
ENDBRANCH  14  15
ENDBRANCH   2  14
TORSDOF 6
ENDMDL
MODEL 8
REMARK VINA RESULT:      -5.3      3.820      5.031
REMARK  6 active torsions:
REMARK  status: ('A' for Active; 'I' for Inactive)
REMARK    1  A    between atoms: C_2  and  C_3 
REMARK    2  A    between atoms: C_2  and  N_10 
REMARK    3  A    between atoms: C_3  and  N_4 
REMARK       I    between atoms: N_10  and  C_11 
REMARK    4  A    between atoms: C_11  and  C_13 
REMARK    5  A    between atoms: C_13  and  C_14 
REMARK    6  A    between atoms: C_14  and  N_15 
ROOT
HETATM    1  N   UNL     1     -39.779 -51.280  11.965  1.00  0.00    -0.355 N 
HETATM    2  C   UNL     1     -40.523 -51.865  12.966  1.00  0.00     0.219 C 
HETATM    3  O   UNL     1     -40.821 -51.275  13.999  1.00  0.00    -0.274 OA
HETATM    4  H   UNL     1     -39.653 -51.780  11.092  1.00  0.00     0.162 HD
ENDROOT
BRANCH   1   5
HETATM    5  C   UNL     1     -39.377 -49.866  12.023  1.00  0.00     0.100 C 
HETATM    6  C   UNL     1     -37.965 -49.733  11.454  1.00  0.00     0.034 C 
BRANCH   5   7
HETATM    7  C   UNL     1     -40.396 -48.961  11.302  1.00  0.00     0.172 C 
BRANCH   7   8
HETATM    8  N   UNL     1     -40.178 -47.548  11.551  1.00  0.00    -0.302 N 
HETATM    9  C   UNL     1     -39.942 -46.951  12.756  1.00  0.00     0.111 A 
HETATM   10  C   UNL     1     -39.750 -45.614  12.489  1.00  0.00     0.037 A 
HETATM   11  C   UNL     1     -39.911 -45.505  11.097  1.00  0.00     0.108 A 
HETATM   12  N   UNL     1     -40.189 -46.677  10.521  1.00  0.00    -0.310 N 
ATOM     13  HN  UNL     1     -40.367 -46.868   9.535  1.00  0.00     0.186 HD
ENDBRANCH   7   8
ENDBRANCH   5   7
ENDBRANCH   1   5
BRANCH   2  14
HETATM   14  C   UNL     1     -40.896 -53.310  12.698  1.00  0.00     0.122 C 
BRANCH  14  15
HETATM   15  C   UNL     1     -41.626 -53.890  13.910  1.00  0.00     0.136 C 
BRANCH  15  16
HETATM   16  N   UNL     1     -43.071 -53.995  13.724  1.00  0.00    -0.342 N 
HETATM   17  C   UNL     1     -43.810 -52.950  13.047  1.00  0.00     0.137 C 
HETATM   18  C   UNL     1     -45.228 -53.433  12.804  1.00  0.00     0.104 C 
HETATM   19  S   UNL     1     -45.524 -54.667  14.092  1.00  0.00    -0.068 SA
HETATM   20  C   UNL     1     -43.822 -54.902  14.434  1.00  0.00     0.281 C 
HETATM   21  O   UNL     1     -43.406 -55.742  15.215  1.00  0.00    -0.260 OA
ENDBRANCH  15  16
ENDBRANCH  14  15
ENDBRANCH   2  14
TORSDOF 6
ENDMDL
MODEL 9
REMARK VINA RESULT:      -5.3      2.693      4.263
REMARK  6 active torsions:
REMARK  status: ('A' for Active; 'I' for Inactive)
REMARK    1  A    between atoms: C_2  and  C_3 
REMARK    2  A    between atoms: C_2  and  N_10 
REMARK    3  A    between atoms: C_3  and  N_4 
REMARK       I    between atoms: N_10  and  C_11 
REMARK    4  A    between atoms: C_11  and  C_13 
REMARK    5  A    between atoms: C_13  and  C_14 
REMARK    6  A    between atoms: C_14  and  N_15 
ROOT
HETATM    1  N   UNL     1     -42.096 -49.569  11.429  1.00  0.00    -0.355 N 
HETATM    2  C   UNL     1     -41.234 -50.565  11.831  1.00  0.00     0.219 C 
HETATM    3  O   UNL     1     -40.026 -50.522  11.616  1.00  0.00    -0.274 OA
HETATM    4  H   UNL     1     -43.064 -49.609  11.726  1.00  0.00     0.162 HD
ENDROOT
BRANCH   1   5
HETATM    5  C   UNL     1     -41.610 -48.330  10.803  1.00  0.00     0.100 C 
HETATM    6  C   UNL     1     -42.710 -47.774   9.898  1.00  0.00     0.034 C 
BRANCH   5   7
HETATM    7  C   UNL     1     -41.138 -47.311  11.859  1.00  0.00     0.172 C 
BRANCH   7   8
HETATM    8  N   UNL     1     -40.657 -46.071  11.280  1.00  0.00    -0.302 N 
HETATM    9  C   UNL     1     -41.032 -44.804  11.621  1.00  0.00     0.111 A 
HETATM   10  C   UNL     1     -40.276 -43.959  10.839  1.00  0.00     0.037 A 
HETATM   11  C   UNL     1     -39.493 -44.815  10.046  1.00  0.00     0.108 A 
HETATM   12  N   UNL     1     -39.733 -46.104  10.298  1.00  0.00    -0.310 N 
ATOM     13  HN  UNL     1     -39.315 -46.921   9.853  1.00  0.00     0.186 HD
ENDBRANCH   7   8
ENDBRANCH   5   7
ENDBRANCH   1   5
BRANCH   2  14
HETATM   14  C   UNL     1     -41.913 -51.735  12.515  1.00  0.00     0.122 C 
BRANCH  14  15
HETATM   15  C   UNL     1     -41.071 -53.000  12.339  1.00  0.00     0.136 C 
BRANCH  15  16
HETATM   16  N   UNL     1     -40.617 -53.577  13.600  1.00  0.00    -0.342 N 
HETATM   17  C   UNL     1     -41.564 -54.118  14.553  1.00  0.00     0.137 C 
HETATM   18  C   UNL     1     -40.798 -54.843  15.646  1.00  0.00     0.104 C 
HETATM   19  S   UNL     1     -39.170 -54.056  15.670  1.00  0.00    -0.068 SA
HETATM   20  C   UNL     1     -39.344 -53.357  14.073  1.00  0.00     0.281 C 
HETATM   21  O   UNL     1     -38.450 -52.750  13.507  1.00  0.00    -0.260 OA
ENDBRANCH  15  16
ENDBRANCH  14  15
ENDBRANCH   2  14
TORSDOF 6
ENDMDL
