MODEL 1
REMARK VINA RESULT:      -5.8      0.000      0.000
REMARK  5 active torsions:
REMARK  status: ('A' for Active; 'I' for Inactive)
REMARK    1  A    between atoms: C_8  and  C_9 
REMARK    2  A    between atoms: C_9  and  C_10 
REMARK       I    between atoms: C_10  and  N_12 
REMARK    3  A    between atoms: N_12  and  C_13 
REMARK    4  A    between atoms: C_13  and  C_14 
REMARK    5  A    between atoms: C_14  and  C_15 
ROOT
HETATM    1  C   UNL     1     -43.950 -54.093  16.814  1.00  0.00     0.222 C 
HETATM    2  O   UNL     1     -44.992 -54.520  17.307  1.00  0.00    -0.273 OA
HETATM    3  N   UNL     1     -43.430 -52.857  17.143  1.00  0.00    -0.361 N 
HETATM    4  H   UNL     1     -42.598 -52.501  16.688  1.00  0.00     0.162 HD
ENDROOT
BRANCH   1   5
HETATM    5  C   UNL     1     -43.170 -54.892  15.788  1.00  0.00     0.146 C 
BRANCH   5   6
HETATM    6  C   UNL     1     -43.375 -54.481  14.367  1.00  0.00     0.006 A 
HETATM    7  C   UNL     1     -42.480 -53.926  13.401  1.00  0.00     0.038 A 
HETATM    8  C   UNL     1     -41.045 -53.561  13.520  1.00  0.00     0.071 C 
HETATM    9  N   UNL     1     -43.088 -53.742  12.223  1.00  0.00    -0.265 N 
HETATM   10  O   UNL     1     -44.377 -54.196  12.382  1.00  0.00    -0.242 OA
ATOM     11  HN  UNL     1     -42.678 -53.345  11.377  1.00  0.00     0.194 HD
HETATM   12  C   UNL     1     -44.546 -54.644  13.650  1.00  0.00     0.081 A 
HETATM   13  C   UNL     1     -45.874 -55.201  13.968  1.00  0.00     0.079 C 
ENDBRANCH   5   6
ENDBRANCH   1   5
BRANCH   3  14
HETATM   14  C   UNL     1     -44.177 -51.990  18.037  1.00  0.00     0.127 C 
BRANCH  14  15
HETATM   15  C   UNL     1     -44.780 -50.743  17.381  1.00  0.00     0.053 C 
BRANCH  15  16
HETATM   16  C   UNL     1     -45.185 -50.883  15.923  1.00  0.00    -0.082 A 
HETATM   17  C   UNL     1     -46.397 -51.348  15.587  1.00  0.00    -0.024 A 
HETATM   18  C   UNL     1     -46.858 -51.604  14.193  1.00  0.00     0.027 A 
HETATM   19  C   UNL     1     -45.894 -51.264  13.064  1.00  0.00     0.004 A 
HETATM   20  C   UNL     1     -44.510 -50.733  13.422  1.00  0.00     0.005 A 
HETATM   21  C   UNL     1     -44.135 -50.574  14.896  1.00  0.00     0.034 A 
ENDBRANCH  15  16
ENDBRANCH  14  15
ENDBRANCH   3  14
TORSDOF 5
ENDMDL
MODEL 2
REMARK VINA RESULT:      -5.4      4.989      7.225
REMARK  5 active torsions:
REMARK  status: ('A' for Active; 'I' for Inactive)
REMARK    1  A    between atoms: C_8  and  C_9 
REMARK    2  A    between atoms: C_9  and  C_10 
REMARK       I    between atoms: C_10  and  N_12 
REMARK    3  A    between atoms: N_12  and  C_13 
REMARK    4  A    between atoms: C_13  and  C_14 
REMARK    5  A    between atoms: C_14  and  C_15 
ROOT
HETATM    1  C   UNL     1     -42.370 -48.819  11.520  1.00  0.00     0.222 C 
HETATM    2  O   UNL     1     -43.095 -48.283  12.357  1.00  0.00    -0.273 OA
HETATM    3  N   UNL     1     -41.945 -50.128  11.641  1.00  0.00    -0.361 N 
HETATM    4  H   UNL     1     -41.308 -50.535  10.968  1.00  0.00     0.162 HD
ENDROOT
BRANCH   1   5
HETATM    5  C   UNL     1     -41.873 -48.067  10.301  1.00  0.00     0.146 C 
BRANCH   5   6
HETATM    6  C   UNL     1     -42.624 -46.819   9.970  1.00  0.00     0.006 A 
HETATM    7  C   UNL     1     -43.893 -46.612   9.348  1.00  0.00     0.038 A 
HETATM    8  C   UNL     1     -44.869 -47.592   8.809  1.00  0.00     0.071 C 
HETATM    9  N   UNL     1     -44.196 -45.309   9.282  1.00  0.00    -0.265 N 
HETATM   10  O   UNL     1     -43.153 -44.642   9.882  1.00  0.00    -0.242 OA
ATOM     11  HN  UNL     1     -45.032 -44.895   8.870  1.00  0.00     0.194 HD
HETATM   12  C   UNL     1     -42.225 -45.536  10.300  1.00  0.00     0.081 A 
HETATM   13  C   UNL     1     -41.054 -44.975  11.001  1.00  0.00     0.079 C 
ENDBRANCH   5   6
ENDBRANCH   1   5
BRANCH   3  14
HETATM   14  C   UNL     1     -42.293 -50.877  12.835  1.00  0.00     0.127 C 
BRANCH  14  15
HETATM   15  C   UNL     1     -42.980 -52.224  12.581  1.00  0.00     0.053 C 
BRANCH  15  16
HETATM   16  C   UNL     1     -44.339 -52.415  13.232  1.00  0.00    -0.082 A 
HETATM   17  C   UNL     1     -45.147 -51.369  13.458  1.00  0.00    -0.024 A 
HETATM   18  C   UNL     1     -46.458 -51.438  14.165  1.00  0.00     0.027 A 
HETATM   19  C   UNL     1     -46.935 -52.810  14.622  1.00  0.00     0.004 A 
HETATM   20  C   UNL     1     -46.032 -54.015  14.375  1.00  0.00     0.005 A 
HETATM   21  C   UNL     1     -44.680 -53.802  13.694  1.00  0.00     0.034 A 
ENDBRANCH  15  16
ENDBRANCH  14  15
ENDBRANCH   3  14
TORSDOF 5
ENDMDL
MODEL 3
REMARK VINA RESULT:      -5.3      1.585      3.470
REMARK  5 active torsions:
REMARK  status: ('A' for Active; 'I' for Inactive)
REMARK    1  A    between atoms: C_8  and  C_9 
REMARK    2  A    between atoms: C_9  and  C_10 
REMARK       I    between atoms: C_10  and  N_12 
REMARK    3  A    between atoms: N_12  and  C_13 
REMARK    4  A    between atoms: C_13  and  C_14 
REMARK    5  A    between atoms: C_14  and  C_15 
ROOT
HETATM    1  C   UNL     1     -41.768 -53.149  14.160  1.00  0.00     0.222 C 
HETATM    2  O   UNL     1     -40.873 -52.522  14.725  1.00  0.00    -0.273 OA
HETATM    3  N   UNL     1     -42.404 -52.674  13.030  1.00  0.00    -0.361 N 
HETATM    4  H   UNL     1     -43.172 -53.181  12.609  1.00  0.00     0.162 HD
ENDROOT
BRANCH   1   5
HETATM    5  C   UNL     1     -42.251 -54.488  14.682  1.00  0.00     0.146 C 
BRANCH   5   6
HETATM    6  C   UNL     1     -43.498 -54.442  15.503  1.00  0.00     0.006 A 
HETATM    7  C   UNL     1     -43.720 -54.104  16.873  1.00  0.00     0.038 A 
HETATM    8  C   UNL     1     -42.759 -53.705  17.932  1.00  0.00     0.071 C 
HETATM    9  N   UNL     1     -45.021 -54.164  17.185  1.00  0.00    -0.265 N 
HETATM   10  O   UNL     1     -45.677 -54.511  16.026  1.00  0.00    -0.242 OA
ATOM     11  HN  UNL     1     -45.441 -53.987  18.097  1.00  0.00     0.194 HD
HETATM   12  C   UNL     1     -44.776 -54.667  15.026  1.00  0.00     0.081 A 
HETATM   13  C   UNL     1     -45.332 -55.005  13.701  1.00  0.00     0.079 C 
ENDBRANCH   5   6
ENDBRANCH   1   5
BRANCH   3  14
HETATM   14  C   UNL     1     -42.069 -51.351  12.534  1.00  0.00     0.127 C 
BRANCH  14  15
HETATM   15  C   UNL     1     -43.052 -50.241  12.924  1.00  0.00     0.053 C 
BRANCH  15  16
HETATM   16  C   UNL     1     -44.259 -50.674  13.739  1.00  0.00    -0.082 A 
HETATM   17  C   UNL     1     -45.362 -51.144  13.139  1.00  0.00    -0.024 A 
HETATM   18  C   UNL     1     -46.626 -51.512  13.838  1.00  0.00     0.027 A 
HETATM   19  C   UNL     1     -46.646 -51.390  15.356  1.00  0.00     0.004 A 
HETATM   20  C   UNL     1     -45.402 -50.857  16.062  1.00  0.00     0.005 A 
HETATM   21  C   UNL     1     -44.190 -50.454  15.222  1.00  0.00     0.034 A 
ENDBRANCH  15  16
ENDBRANCH  14  15
ENDBRANCH   3  14
TORSDOF 5
ENDMDL
MODEL 4
REMARK VINA RESULT:      -5.3      3.110      4.559
REMARK  5 active torsions:
REMARK  status: ('A' for Active; 'I' for Inactive)
REMARK    1  A    between atoms: C_8  and  C_9 
REMARK    2  A    between atoms: C_9  and  C_10 
REMARK       I    between atoms: C_10  and  N_12 
REMARK    3  A    between atoms: N_12  and  C_13 
REMARK    4  A    between atoms: C_13  and  C_14 
REMARK    5  A    between atoms: C_14  and  C_15 
ROOT
HETATM    1  C   UNL     1     -40.332 -53.053  13.964  1.00  0.00     0.222 C 
HETATM    2  O   UNL     1     -39.816 -53.918  13.258  1.00  0.00    -0.273 OA
HETATM    3  N   UNL     1     -41.478 -53.287  14.699  1.00  0.00    -0.361 N 
HETATM    4  H   UNL     1     -41.916 -52.547  15.235  1.00  0.00     0.162 HD
ENDROOT
BRANCH   1   5
HETATM    5  C   UNL     1     -39.752 -51.656  14.060  1.00  0.00     0.146 C 
BRANCH   5   6
HETATM    6  C   UNL     1     -39.855 -50.835  12.817  1.00  0.00     0.006 A 
HETATM    7  C   UNL     1     -38.866 -50.402  11.881  1.00  0.00     0.038 A 
HETATM    8  C   UNL     1     -37.397 -50.624  11.864  1.00  0.00     0.071 C 
HETATM    9  N   UNL     1     -39.415 -49.704  10.880  1.00  0.00    -0.265 N 
HETATM   10  O   UNL     1     -40.769 -49.689  11.121  1.00  0.00    -0.242 OA
ATOM     11  HN  UNL     1     -38.928 -49.271  10.095  1.00  0.00     0.194 HD
HETATM   12  C   UNL     1     -41.033 -50.367  12.264  1.00  0.00     0.081 A 
HETATM   13  C   UNL     1     -42.456 -50.472  12.642  1.00  0.00     0.079 C 
ENDBRANCH   5   6
ENDBRANCH   1   5
BRANCH   3  14
HETATM   14  C   UNL     1     -42.150 -54.568  14.574  1.00  0.00     0.127 C 
BRANCH  14  15
HETATM   15  C   UNL     1     -43.604 -54.591  15.060  1.00  0.00     0.053 C 
BRANCH  15  16
HETATM   16  C   UNL     1     -44.515 -53.515  14.495  1.00  0.00    -0.082 A 
HETATM   17  C   UNL     1     -45.002 -52.543  15.279  1.00  0.00    -0.024 A 
HETATM   18  C   UNL     1     -45.969 -51.495  14.843  1.00  0.00     0.027 A 
HETATM   19  C   UNL     1     -46.396 -51.503  13.381  1.00  0.00     0.004 A 
HETATM   20  C   UNL     1     -45.854 -52.600  12.469  1.00  0.00     0.005 A 
HETATM   21  C   UNL     1     -44.916 -53.655  13.055  1.00  0.00     0.034 A 
ENDBRANCH  15  16
ENDBRANCH  14  15
ENDBRANCH   3  14
TORSDOF 5
ENDMDL
MODEL 5
REMARK VINA RESULT:      -5.2      4.972      7.124
REMARK  5 active torsions:
REMARK  status: ('A' for Active; 'I' for Inactive)
REMARK    1  A    between atoms: C_8  and  C_9 
REMARK    2  A    between atoms: C_9  and  C_10 
REMARK       I    between atoms: C_10  and  N_12 
REMARK    3  A    between atoms: N_12  and  C_13 
REMARK    4  A    between atoms: C_13  and  C_14 
REMARK    5  A    between atoms: C_14  and  C_15 
ROOT
HETATM    1  C   UNL     1     -42.494 -48.524  11.875  1.00  0.00     0.222 C 
HETATM    2  O   UNL     1     -41.947 -47.937  12.807  1.00  0.00    -0.273 OA
HETATM    3  N   UNL     1     -43.358 -49.583  12.074  1.00  0.00    -0.361 N 
HETATM    4  H   UNL     1     -43.759 -50.086  11.291  1.00  0.00     0.162 HD
ENDROOT
BRANCH   1   5
HETATM    5  C   UNL     1     -42.239 -48.134  10.432  1.00  0.00     0.146 C 
BRANCH   5   6
HETATM    6  C   UNL     1     -42.911 -46.879   9.981  1.00  0.00     0.006 A 
HETATM    7  C   UNL     1     -44.169 -46.652   9.342  1.00  0.00     0.038 A 
HETATM    8  C   UNL     1     -45.211 -47.615   8.903  1.00  0.00     0.071 C 
HETATM    9  N   UNL     1     -44.389 -45.345   9.150  1.00  0.00    -0.265 N 
HETATM   10  O   UNL     1     -43.301 -44.691   9.680  1.00  0.00    -0.242 OA
ATOM     11  HN  UNL     1     -45.200 -44.920   8.700  1.00  0.00     0.194 HD
HETATM   12  C   UNL     1     -42.428 -45.599  10.182  1.00  0.00     0.081 A 
HETATM   13  C   UNL     1     -41.219 -45.048  10.824  1.00  0.00     0.079 C 
ENDBRANCH   5   6
ENDBRANCH   1   5
BRANCH   3  14
HETATM   14  C   UNL     1     -43.566 -50.081  13.422  1.00  0.00     0.127 C 
BRANCH  14  15
HETATM   15  C   UNL     1     -44.694 -51.109  13.568  1.00  0.00     0.053 C 
BRANCH  15  16
HETATM   16  C   UNL     1     -45.459 -51.080  14.880  1.00  0.00    -0.082 A 
HETATM   17  C   UNL     1     -46.740 -51.472  14.940  1.00  0.00    -0.024 A 
HETATM   18  C   UNL     1     -47.601 -51.400  16.154  1.00  0.00     0.027 A 
HETATM   19  C   UNL     1     -46.960 -50.888  17.437  1.00  0.00     0.004 A 
HETATM   20  C   UNL     1     -45.503 -50.436  17.394  1.00  0.00     0.005 A 
HETATM   21  C   UNL     1     -44.746 -50.501  16.068  1.00  0.00     0.034 A 
ENDBRANCH  15  16
ENDBRANCH  14  15
ENDBRANCH   3  14
TORSDOF 5
ENDMDL
MODEL 6
REMARK VINA RESULT:      -5.2      3.020      4.876
REMARK  5 active torsions:
REMARK  status: ('A' for Active; 'I' for Inactive)
REMARK    1  A    between atoms: C_8  and  C_9 
REMARK    2  A    between atoms: C_9  and  C_10 
REMARK       I    between atoms: C_10  and  N_12 
REMARK    3  A    between atoms: N_12  and  C_13 
REMARK    4  A    between atoms: C_13  and  C_14 
REMARK    5  A    between atoms: C_14  and  C_15 
ROOT
HETATM    1  C   UNL     1     -40.594 -52.779  13.759  1.00  0.00     0.222 C 
HETATM    2  O   UNL     1     -39.915 -53.620  13.172  1.00  0.00    -0.273 OA
HETATM    3  N   UNL     1     -41.783 -53.096  14.385  1.00  0.00    -0.361 N 
HETATM    4  H   UNL     1     -42.353 -52.380  14.819  1.00  0.00     0.162 HD
ENDROOT
BRANCH   1   5
HETATM    5  C   UNL     1     -40.178 -51.322  13.816  1.00  0.00     0.146 C 
BRANCH   5   6
HETATM    6  C   UNL     1     -40.650 -50.477  12.678  1.00  0.00     0.006 A 
HETATM    7  C   UNL     1     -41.947 -49.990  12.333  1.00  0.00     0.038 A 
HETATM    8  C   UNL     1     -43.258 -50.192  13.000  1.00  0.00     0.071 C 
HETATM    9  N   UNL     1     -41.904 -49.227  11.233  1.00  0.00    -0.265 N 
HETATM   10  O   UNL     1     -40.583 -49.176  10.854  1.00  0.00    -0.242 OA
ATOM     11  HN  UNL     1     -42.692 -48.776  10.769  1.00  0.00     0.194 HD
HETATM   12  C   UNL     1     -39.836 -49.908  11.716  1.00  0.00     0.081 A 
HETATM   13  C   UNL     1     -38.382 -49.922  11.463  1.00  0.00     0.079 C 
ENDBRANCH   5   6
ENDBRANCH   1   5
BRANCH   3  14
HETATM   14  C   UNL     1     -42.298 -54.449  14.281  1.00  0.00     0.127 C 
BRANCH  14  15
HETATM   15  C   UNL     1     -43.723 -54.646  14.812  1.00  0.00     0.053 C 
BRANCH  15  16
HETATM   16  C   UNL     1     -44.752 -53.625  14.360  1.00  0.00    -0.082 A 
HETATM   17  C   UNL     1     -45.127 -53.546  13.076  1.00  0.00    -0.024 A 
HETATM   18  C   UNL     1     -46.061 -52.528  12.517  1.00  0.00     0.027 A 
HETATM   19  C   UNL     1     -46.672 -51.530  13.492  1.00  0.00     0.004 A 
HETATM   20  C   UNL     1     -46.260 -51.599  14.960  1.00  0.00     0.005 A 
HETATM   21  C   UNL     1     -45.243 -52.654  15.395  1.00  0.00     0.034 A 
ENDBRANCH  15  16
ENDBRANCH  14  15
ENDBRANCH   3  14
TORSDOF 5
ENDMDL
MODEL 7
REMARK VINA RESULT:      -5.2      2.355      4.114
REMARK  5 active torsions:
REMARK  status: ('A' for Active; 'I' for Inactive)
REMARK    1  A    between atoms: C_8  and  C_9 
REMARK    2  A    between atoms: C_9  and  C_10 
REMARK       I    between atoms: C_10  and  N_12 
REMARK    3  A    between atoms: N_12  and  C_13 
REMARK    4  A    between atoms: C_13  and  C_14 
REMARK    5  A    between atoms: C_14  and  C_15 
ROOT
HETATM    1  C   UNL     1     -42.859 -53.876  13.267  1.00  0.00     0.222 C 
HETATM    2  O   UNL     1     -43.234 -54.119  14.412  1.00  0.00    -0.273 OA
HETATM    3  N   UNL     1     -43.702 -53.348  12.309  1.00  0.00    -0.361 N 
HETATM    4  H   UNL     1     -43.387 -53.202  11.357  1.00  0.00     0.162 HD
ENDROOT
BRANCH   1   5
HETATM    5  C   UNL     1     -41.438 -54.160  12.820  1.00  0.00     0.146 C 
BRANCH   5   6
HETATM    6  C   UNL     1     -40.417 -53.164  13.263  1.00  0.00     0.006 A 
HETATM    7  C   UNL     1     -40.220 -51.791  12.920  1.00  0.00     0.038 A 
HETATM    8  C   UNL     1     -40.972 -50.917  11.985  1.00  0.00     0.071 C 
HETATM    9  N   UNL     1     -39.187 -51.265  13.592  1.00  0.00    -0.265 N 
HETATM   10  O   UNL     1     -38.709 -52.267  14.404  1.00  0.00    -0.242 OA
ATOM     11  HN  UNL     1     -38.829 -50.313  13.516  1.00  0.00     0.194 HD
HETATM   12  C   UNL     1     -39.443 -53.390  14.217  1.00  0.00     0.081 A 
HETATM   13  C   UNL     1     -39.073 -54.551  15.050  1.00  0.00     0.079 C 
ENDBRANCH   5   6
ENDBRANCH   1   5
BRANCH   3  14
HETATM   14  C   UNL     1     -45.103 -53.150  12.633  1.00  0.00     0.127 C 
BRANCH  14  15
HETATM   15  C   UNL     1     -45.500 -51.703  12.948  1.00  0.00     0.053 C 
BRANCH  15  16
HETATM   16  C   UNL     1     -45.769 -51.387  14.410  1.00  0.00    -0.082 A 
HETATM   17  C   UNL     1     -46.989 -51.556  14.938  1.00  0.00    -0.024 A 
HETATM   18  C   UNL     1     -47.376 -51.196  16.332  1.00  0.00     0.027 A 
HETATM   19  C   UNL     1     -46.286 -50.637  17.237  1.00  0.00     0.004 A 
HETATM   20  C   UNL     1     -44.889 -50.435  16.659  1.00  0.00     0.005 A 
HETATM   21  C   UNL     1     -44.637 -50.787  15.192  1.00  0.00     0.034 A 
ENDBRANCH  15  16
ENDBRANCH  14  15
ENDBRANCH   3  14
TORSDOF 5
ENDMDL
MODEL 8
REMARK VINA RESULT:      -5.1      1.777      3.376
REMARK  5 active torsions:
REMARK  status: ('A' for Active; 'I' for Inactive)
REMARK    1  A    between atoms: C_8  and  C_9 
REMARK    2  A    between atoms: C_9  and  C_10 
REMARK       I    between atoms: C_10  and  N_12 
REMARK    3  A    between atoms: N_12  and  C_13 
REMARK    4  A    between atoms: C_13  and  C_14 
REMARK    5  A    between atoms: C_14  and  C_15 
ROOT
HETATM    1  C   UNL     1     -44.848 -54.619  14.197  1.00  0.00     0.222 C 
HETATM    2  O   UNL     1     -45.151 -54.709  13.008  1.00  0.00    -0.273 OA
HETATM    3  N   UNL     1     -45.676 -54.021  15.127  1.00  0.00    -0.361 N 
HETATM    4  H   UNL     1     -45.386 -53.912  16.092  1.00  0.00     0.162 HD
ENDROOT
BRANCH   1   5
HETATM    5  C   UNL     1     -43.527 -55.145  14.722  1.00  0.00     0.146 C 
BRANCH   5   6
HETATM    6  C   UNL     1     -42.508 -54.103  15.047  1.00  0.00     0.006 A 
HETATM    7  C   UNL     1     -42.279 -53.335  16.230  1.00  0.00     0.038 A 
HETATM    8  C   UNL     1     -43.010 -53.322  17.522  1.00  0.00     0.071 C 
HETATM    9  N   UNL     1     -41.217 -52.531  16.091  1.00  0.00    -0.265 N 
HETATM   10  O   UNL     1     -40.714 -52.775  14.835  1.00  0.00    -0.242 OA
ATOM     11  HN  UNL     1     -40.854 -51.872  16.780  1.00  0.00     0.194 HD
HETATM   12  C   UNL     1     -41.472 -53.713  14.218  1.00  0.00     0.081 A 
HETATM   13  C   UNL     1     -41.035 -54.112  12.866  1.00  0.00     0.079 C 
ENDBRANCH   5   6
ENDBRANCH   1   5
BRANCH   3  14
HETATM   14  C   UNL     1     -46.909 -53.399  14.680  1.00  0.00     0.127 C 
BRANCH  14  15
HETATM   15  C   UNL     1     -46.920 -51.867  14.725  1.00  0.00     0.053 C 
BRANCH  15  16
HETATM   16  C   UNL     1     -45.560 -51.189  14.739  1.00  0.00    -0.082 A 
HETATM   17  C   UNL     1     -45.074 -50.645  15.863  1.00  0.00    -0.024 A 
HETATM   18  C   UNL     1     -43.795 -49.885  15.962  1.00  0.00     0.027 A 
HETATM   19  C   UNL     1     -42.955 -49.762  14.697  1.00  0.00     0.004 A 
HETATM   20  C   UNL     1     -43.488 -50.374  13.405  1.00  0.00     0.005 A 
HETATM   21  C   UNL     1     -44.847 -51.075  13.423  1.00  0.00     0.034 A 
ENDBRANCH  15  16
ENDBRANCH  14  15
ENDBRANCH   3  14
TORSDOF 5
ENDMDL
MODEL 9
REMARK VINA RESULT:      -5.1      1.778      3.352
REMARK  5 active torsions:
REMARK  status: ('A' for Active; 'I' for Inactive)
REMARK    1  A    between atoms: C_8  and  C_9 
REMARK    2  A    between atoms: C_9  and  C_10 
REMARK       I    between atoms: C_10  and  N_12 
REMARK    3  A    between atoms: N_12  and  C_13 
REMARK    4  A    between atoms: C_13  and  C_14 
REMARK    5  A    between atoms: C_14  and  C_15 
ROOT
HETATM    1  C   UNL     1     -44.719 -54.585  14.292  1.00  0.00     0.222 C 
HETATM    2  O   UNL     1     -45.825 -54.923  14.712  1.00  0.00    -0.273 OA
HETATM    3  N   UNL     1     -44.562 -53.613  13.325  1.00  0.00    -0.361 N 
HETATM    4  H   UNL     1     -43.647 -53.384  12.955  1.00  0.00     0.162 HD
ENDROOT
BRANCH   1   5
HETATM    5  C   UNL     1     -43.446 -55.234  14.797  1.00  0.00     0.146 C 
BRANCH   5   6
HETATM    6  C   UNL     1     -42.363 -54.288  15.201  1.00  0.00     0.006 A 
HETATM    7  C   UNL     1     -41.210 -53.812  14.504  1.00  0.00     0.038 A 
HETATM    8  C   UNL     1     -40.710 -54.132  13.143  1.00  0.00     0.071 C 
HETATM    9  N   UNL     1     -40.522 -52.933  15.244  1.00  0.00    -0.265 N 
HETATM   10  O   UNL     1     -41.220 -52.794  16.421  1.00  0.00    -0.242 OA
ATOM     11  HN  UNL     1     -39.655 -52.462  14.987  1.00  0.00     0.194 HD
HETATM   12  C   UNL     1     -42.317 -53.588  16.393  1.00  0.00     0.081 A 
HETATM   13  C   UNL     1     -43.195 -53.522  17.577  1.00  0.00     0.079 C 
ENDBRANCH   5   6
ENDBRANCH   1   5
BRANCH   3  14
HETATM   14  C   UNL     1     -45.742 -53.023  12.717  1.00  0.00     0.127 C 
BRANCH  14  15
HETATM   15  C   UNL     1     -46.028 -51.573  13.123  1.00  0.00     0.053 C 
BRANCH  15  16
HETATM   16  C   UNL     1     -46.074 -51.293  14.616  1.00  0.00    -0.082 A 
HETATM   17  C   UNL     1     -47.189 -51.516  15.324  1.00  0.00    -0.024 A 
HETATM   18  C   UNL     1     -47.364 -51.195  16.770  1.00  0.00     0.027 A 
HETATM   19  C   UNL     1     -46.164 -50.614  17.506  1.00  0.00     0.004 A 
HETATM   20  C   UNL     1     -44.883 -50.351  16.721  1.00  0.00     0.005 A 
HETATM   21  C   UNL     1     -44.853 -50.667  15.225  1.00  0.00     0.034 A 
ENDBRANCH  15  16
ENDBRANCH  14  15
ENDBRANCH   3  14
TORSDOF 5
ENDMDL
