MODEL 1
REMARK VINA RESULT:      -6.8      0.000      0.000
REMARK  9 active torsions:
REMARK  status: ('A' for Active; 'I' for Inactive)
REMARK    1  A    between atoms: C_2  and  C_4 
REMARK    2  A    between atoms: C_9  and  O_10 
REMARK    3  A    between atoms: O_10  and  C_11 
REMARK    4  A    between atoms: C_11  and  C_12 
REMARK    5  A    between atoms: C_12  and  O_13 
REMARK    6  A    between atoms: C_12  and  C_14 
REMARK    7  A    between atoms: C_14  and  N_15 
REMARK    8  A    between atoms: C_22  and  C_23 
REMARK    9  A    between atoms: C_23  and  N_24 
ROOT
HETATM    1  C   UNL     1     -41.135 -49.340  12.597  1.00  0.00     0.186 C 
ENDROOT
BRANCH   1   2
HETATM    2  C   UNL     1     -40.585 -50.473  11.705  1.00  0.00     0.162 C 
BRANCH   2   3
HETATM    3  C   UNL     1     -41.441 -51.738  11.878  1.00  0.00     0.209 C 
BRANCH   3   4
HETATM    4  O   UNL     1     -42.721 -51.465  12.437  1.00  0.00    -0.348 OA
BRANCH   4   5
HETATM    5  C   UNL     1     -43.319 -52.497  13.128  1.00  0.00     0.075 A 
HETATM    6  C   UNL     1     -44.658 -52.612  13.562  1.00  0.00    -0.021 A 
HETATM    7  C   UNL     1     -45.006 -53.789  14.266  1.00  0.00     0.010 A 
HETATM    8  C   UNL     1     -44.074 -54.786  14.561  1.00  0.00     0.001 A 
HETATM    9  C   UNL     1     -42.756 -54.638  14.161  1.00  0.00     0.003 A 
HETATM   10  C   UNL     1     -42.384 -53.500  13.450  1.00  0.00     0.037 A 
BRANCH   6  11
HETATM   11  C   UNL     1     -45.755 -51.567  13.354  1.00  0.00     0.013 C 
HETATM   12  C   UNL     1     -46.614 -51.892  12.122  1.00  0.00     0.015 C 
HETATM   13  C   UNL     1     -46.697 -51.380  14.557  1.00  0.00     0.015 C 
ENDBRANCH   6  11
ENDBRANCH   4   5
ENDBRANCH   3   4
ENDBRANCH   2   3
BRANCH   2  14
HETATM   14  O   UNL     1     -40.611 -50.031  10.336  1.00  0.00    -0.392 OA
HETATM   15  H   UNL     1     -39.732 -50.180   9.948  1.00  0.00     0.210 HD
ENDBRANCH   2  14
ENDBRANCH   1   2
BRANCH   1  16
HETATM   16  N   UNL     1     -41.706 -48.225  11.838  1.00  0.00    -0.254 N 
HETATM   17  N   UNL     1     -42.904 -48.452  11.208  1.00  0.00    -0.300 N 
HETATM   18  C   UNL     1     -43.422 -47.501  10.494  1.00  0.00     0.029 C 
ATOM     19  HN  UNL     1     -43.377 -49.351  11.299  1.00  0.00     0.187 HD
HETATM   20  C   UNL     1     -44.779 -47.772   9.884  1.00  0.00     0.070 C 
HETATM   21  C   UNL     1     -42.787 -46.182  10.252  1.00  0.00    -0.013 C 
HETATM   22  C   UNL     1     -43.445 -45.107   9.440  1.00  0.00     0.052 C 
HETATM   23  C   UNL     1     -41.596 -46.015  10.852  1.00  0.00     0.103 C 
HETATM   24  C   UNL     1     -41.027 -47.019  11.779  1.00  0.00     0.282 C 
HETATM   25  O   UNL     1     -40.007 -46.772  12.414  1.00  0.00    -0.265 OA
BRANCH  23  26
HETATM   26  C   UNL     1     -40.839 -44.700  10.753  1.00  0.00    -0.031 C 
BRANCH  26  27
HETATM   27  N   UNL     1     -40.211 -43.610  10.670  1.00  0.00    -0.365 N 
ATOM     28  HN2 UNL     1     -40.678 -44.514  10.730  1.00  0.00     0.165 HD
ATOM     29  HN1 UNL     1     -39.704 -42.728  10.603  1.00  0.00     0.165 HD
ENDBRANCH  26  27
ENDBRANCH  23  26
ENDBRANCH   1  16
TORSDOF 9
ENDMDL
MODEL 2
REMARK VINA RESULT:      -6.6      1.681      2.385
REMARK  9 active torsions:
REMARK  status: ('A' for Active; 'I' for Inactive)
REMARK    1  A    between atoms: C_2  and  C_4 
REMARK    2  A    between atoms: C_9  and  O_10 
REMARK    3  A    between atoms: O_10  and  C_11 
REMARK    4  A    between atoms: C_11  and  C_12 
REMARK    5  A    between atoms: C_12  and  O_13 
REMARK    6  A    between atoms: C_12  and  C_14 
REMARK    7  A    between atoms: C_14  and  N_15 
REMARK    8  A    between atoms: C_22  and  C_23 
REMARK    9  A    between atoms: C_23  and  N_24 
ROOT
HETATM    1  C   UNL     1     -42.032 -48.721  11.280  1.00  0.00     0.186 C 
ENDROOT
BRANCH   1   2
HETATM    2  C   UNL     1     -40.843 -49.685  11.482  1.00  0.00     0.162 C 
BRANCH   2   3
HETATM    3  C   UNL     1     -41.339 -51.008  12.089  1.00  0.00     0.209 C 
BRANCH   3   4
HETATM    4  O   UNL     1     -42.698 -50.948  12.505  1.00  0.00    -0.348 OA
BRANCH   4   5
HETATM    5  C   UNL     1     -43.216 -52.096  13.067  1.00  0.00     0.075 A 
HETATM    6  C   UNL     1     -44.545 -52.365  13.461  1.00  0.00    -0.021 A 
HETATM    7  C   UNL     1     -44.802 -53.638  14.023  1.00  0.00     0.010 A 
HETATM    8  C   UNL     1     -43.794 -54.584  14.224  1.00  0.00     0.001 A 
HETATM    9  C   UNL     1     -42.489 -54.286  13.867  1.00  0.00     0.003 A 
HETATM   10  C   UNL     1     -42.205 -53.050  13.293  1.00  0.00     0.037 A 
BRANCH   6  11
HETATM   11  C   UNL     1     -45.722 -51.396  13.349  1.00  0.00     0.013 C 
HETATM   12  C   UNL     1     -46.595 -51.710  12.124  1.00  0.00     0.015 C 
HETATM   13  C   UNL     1     -46.635 -51.351  14.588  1.00  0.00     0.015 C 
ENDBRANCH   6  11
ENDBRANCH   4   5
ENDBRANCH   3   4
ENDBRANCH   2   3
BRANCH   2  14
HETATM   14  O   UNL     1     -40.221 -49.918  10.206  1.00  0.00    -0.392 OA
HETATM   15  H   UNL     1     -40.369 -49.139   9.644  1.00  0.00     0.210 HD
ENDBRANCH   2  14
ENDBRANCH   1   2
BRANCH   1  16
HETATM   16  N   UNL     1     -41.669 -47.309  11.421  1.00  0.00    -0.254 N 
HETATM   17  N   UNL     1     -40.701 -46.830  10.575  1.00  0.00    -0.300 N 
HETATM   18  C   UNL     1     -40.325 -45.593  10.696  1.00  0.00     0.029 C 
ATOM     19  HN  UNL     1     -40.284 -47.433   9.867  1.00  0.00     0.187 HD
HETATM   20  C   UNL     1     -39.312 -45.091   9.693  1.00  0.00     0.070 C 
HETATM   21  C   UNL     1     -40.825 -44.654  11.730  1.00  0.00    -0.013 C 
HETATM   22  C   UNL     1     -40.377 -43.226  11.806  1.00  0.00     0.052 C 
HETATM   23  C   UNL     1     -41.742 -45.175  12.564  1.00  0.00     0.103 C 
HETATM   24  C   UNL     1     -42.296 -46.535  12.384  1.00  0.00     0.282 C 
HETATM   25  O   UNL     1     -43.228 -46.925  13.079  1.00  0.00    -0.265 OA
BRANCH  23  26
HETATM   26  C   UNL     1     -42.399 -44.329  13.643  1.00  0.00    -0.031 C 
BRANCH  26  27
HETATM   27  N   UNL     1     -42.943 -43.627  14.538  1.00  0.00    -0.365 N 
ATOM     28  HN2 UNL     1     -42.482 -44.220  13.848  1.00  0.00     0.165 HD
ATOM     29  HN1 UNL     1     -43.383 -43.059  15.262  1.00  0.00     0.165 HD
ENDBRANCH  26  27
ENDBRANCH  23  26
ENDBRANCH   1  16
TORSDOF 9
ENDMDL
MODEL 3
REMARK VINA RESULT:      -6.4      3.640      5.943
REMARK  9 active torsions:
REMARK  status: ('A' for Active; 'I' for Inactive)
REMARK    1  A    between atoms: C_2  and  C_4 
REMARK    2  A    between atoms: C_9  and  O_10 
REMARK    3  A    between atoms: O_10  and  C_11 
REMARK    4  A    between atoms: C_11  and  C_12 
REMARK    5  A    between atoms: C_12  and  O_13 
REMARK    6  A    between atoms: C_12  and  C_14 
REMARK    7  A    between atoms: C_14  and  N_15 
REMARK    8  A    between atoms: C_22  and  C_23 
REMARK    9  A    between atoms: C_23  and  N_24 
ROOT
HETATM    1  C   UNL     1     -41.976 -50.429  12.709  1.00  0.00     0.186 C 
ENDROOT
BRANCH   1   2
HETATM    2  C   UNL     1     -41.274 -51.577  11.952  1.00  0.00     0.162 C 
BRANCH   2   3
HETATM    3  C   UNL     1     -40.410 -52.395  12.926  1.00  0.00     0.209 C 
BRANCH   3   4
HETATM    4  O   UNL     1     -40.771 -53.771  12.959  1.00  0.00    -0.348 OA
BRANCH   4   5
HETATM    5  C   UNL     1     -41.317 -54.232  14.138  1.00  0.00     0.075 A 
HETATM    6  C   UNL     1     -40.663 -54.557  15.347  1.00  0.00    -0.021 A 
HETATM    7  C   UNL     1     -41.474 -55.018  16.411  1.00  0.00     0.010 A 
HETATM    8  C   UNL     1     -42.855 -55.189  16.279  1.00  0.00     0.001 A 
HETATM    9  C   UNL     1     -43.472 -54.901  15.072  1.00  0.00     0.003 A 
HETATM   10  C   UNL     1     -42.706 -54.427  14.011  1.00  0.00     0.037 A 
BRANCH   6  11
HETATM   11  C   UNL     1     -39.158 -54.471  15.598  1.00  0.00     0.013 C 
HETATM   12  C   UNL     1     -38.792 -53.212  16.399  1.00  0.00     0.015 C 
HETATM   13  C   UNL     1     -38.559 -55.690  16.324  1.00  0.00     0.015 C 
ENDBRANCH   6  11
ENDBRANCH   4   5
ENDBRANCH   3   4
ENDBRANCH   2   3
BRANCH   2  14
HETATM   14  O   UNL     1     -42.280 -52.410  11.349  1.00  0.00    -0.392 OA
HETATM   15  H   UNL     1     -42.925 -52.657  12.034  1.00  0.00     0.210 HD
ENDBRANCH   2  14
ENDBRANCH   1   2
BRANCH   1  16
HETATM   16  N   UNL     1     -43.191 -50.850  13.411  1.00  0.00    -0.254 N 
HETATM   17  N   UNL     1     -44.314 -51.041  12.646  1.00  0.00    -0.300 N 
HETATM   18  C   UNL     1     -45.419 -51.377  13.237  1.00  0.00     0.029 C 
ATOM     19  HN  UNL     1     -44.281 -50.921  11.634  1.00  0.00     0.187 HD
HETATM   20  C   UNL     1     -46.609 -51.651  12.345  1.00  0.00     0.070 C 
HETATM   21  C   UNL     1     -45.586 -51.518  14.704  1.00  0.00    -0.013 C 
HETATM   22  C   UNL     1     -46.881 -51.936  15.333  1.00  0.00     0.052 C 
HETATM   23  C   UNL     1     -44.472 -51.281  15.420  1.00  0.00     0.103 C 
HETATM   24  C   UNL     1     -43.161 -51.025  14.784  1.00  0.00     0.282 C 
HETATM   25  O   UNL     1     -42.143 -50.951  15.465  1.00  0.00    -0.265 OA
BRANCH  23  26
HETATM   26  C   UNL     1     -44.457 -51.440  16.932  1.00  0.00    -0.031 C 
BRANCH  26  27
HETATM   27  N   UNL     1     -44.445 -51.572  18.186  1.00  0.00    -0.365 N 
ATOM     28  HN2 UNL     1     -44.429 -51.425  17.177  1.00  0.00     0.165 HD
ATOM     29  HN1 UNL     1     -44.435 -51.679  19.200  1.00  0.00     0.165 HD
ENDBRANCH  26  27
ENDBRANCH  23  26
ENDBRANCH   1  16
TORSDOF 9
ENDMDL
MODEL 4
REMARK VINA RESULT:      -6.4      3.562      6.218
REMARK  9 active torsions:
REMARK  status: ('A' for Active; 'I' for Inactive)
REMARK    1  A    between atoms: C_2  and  C_4 
REMARK    2  A    between atoms: C_9  and  O_10 
REMARK    3  A    between atoms: O_10  and  C_11 
REMARK    4  A    between atoms: C_11  and  C_12 
REMARK    5  A    between atoms: C_12  and  O_13 
REMARK    6  A    between atoms: C_12  and  C_14 
REMARK    7  A    between atoms: C_14  and  N_15 
REMARK    8  A    between atoms: C_22  and  C_23 
REMARK    9  A    between atoms: C_23  and  N_24 
ROOT
HETATM    1  C   UNL     1     -46.689 -52.648  15.107  1.00  0.00     0.186 C 
ENDROOT
BRANCH   1   2
HETATM    2  C   UNL     1     -46.576 -54.187  15.136  1.00  0.00     0.162 C 
BRANCH   2   3
HETATM    3  C   UNL     1     -45.647 -54.665  14.008  1.00  0.00     0.209 C 
BRANCH   3   4
HETATM    4  O   UNL     1     -44.591 -55.493  14.479  1.00  0.00    -0.348 OA
BRANCH   4   5
HETATM    5  C   UNL     1     -43.321 -54.958  14.418  1.00  0.00     0.075 A 
HETATM    6  C   UNL     1     -42.254 -55.109  15.330  1.00  0.00    -0.021 A 
HETATM    7  C   UNL     1     -41.047 -54.437  15.023  1.00  0.00     0.010 A 
HETATM    8  C   UNL     1     -40.911 -53.623  13.895  1.00  0.00     0.001 A 
HETATM    9  C   UNL     1     -41.982 -53.456  13.033  1.00  0.00     0.003 A 
HETATM   10  C   UNL     1     -43.178 -54.120  13.295  1.00  0.00     0.037 A 
BRANCH   6  11
HETATM   11  C   UNL     1     -42.296 -55.920  16.625  1.00  0.00     0.013 C 
HETATM   12  C   UNL     1     -40.901 -56.434  17.013  1.00  0.00     0.015 C 
HETATM   13  C   UNL     1     -42.880 -55.166  17.834  1.00  0.00     0.015 C 
ENDBRANCH   6  11
ENDBRANCH   4   5
ENDBRANCH   3   4
ENDBRANCH   2   3
BRANCH   2  14
HETATM   14  O   UNL     1     -46.056 -54.583  16.418  1.00  0.00    -0.392 OA
HETATM   15  H   UNL     1     -45.822 -55.526  16.377  1.00  0.00     0.210 HD
ENDBRANCH   2  14
ENDBRANCH   1   2
BRANCH   1  16
HETATM   16  N   UNL     1     -45.394 -51.968  15.039  1.00  0.00    -0.254 N 
HETATM   17  N   UNL     1     -44.573 -52.087  16.133  1.00  0.00    -0.300 N 
HETATM   18  C   UNL     1     -43.433 -51.467  16.126  1.00  0.00     0.029 C 
ATOM     19  HN  UNL     1     -44.853 -52.650  16.935  1.00  0.00     0.187 HD
HETATM   20  C   UNL     1     -42.531 -51.690  17.319  1.00  0.00     0.070 C 
HETATM   21  C   UNL     1     -42.960 -50.577  15.037  1.00  0.00    -0.013 C 
HETATM   22  C   UNL     1     -41.620 -49.907  15.067  1.00  0.00     0.052 C 
HETATM   23  C   UNL     1     -43.812 -50.455  14.003  1.00  0.00     0.103 C 
HETATM   24  C   UNL     1     -45.061 -51.243  13.907  1.00  0.00     0.282 C 
HETATM   25  O   UNL     1     -45.741 -51.208  12.888  1.00  0.00    -0.265 OA
BRANCH  23  26
HETATM   26  C   UNL     1     -43.454 -49.627  12.779  1.00  0.00    -0.031 C 
BRANCH  26  27
HETATM   27  N   UNL     1     -43.157 -48.942  11.763  1.00  0.00    -0.365 N 
ATOM     28  HN2 UNL     1     -43.414 -49.530  12.556  1.00  0.00     0.165 HD
ATOM     29  HN1 UNL     1     -42.918 -48.387  10.941  1.00  0.00     0.165 HD
ENDBRANCH  26  27
ENDBRANCH  23  26
ENDBRANCH   1  16
TORSDOF 9
ENDMDL
MODEL 5
REMARK VINA RESULT:      -6.4      2.956      4.233
REMARK  9 active torsions:
REMARK  status: ('A' for Active; 'I' for Inactive)
REMARK    1  A    between atoms: C_2  and  C_4 
REMARK    2  A    between atoms: C_9  and  O_10 
REMARK    3  A    between atoms: O_10  and  C_11 
REMARK    4  A    between atoms: C_11  and  C_12 
REMARK    5  A    between atoms: C_12  and  O_13 
REMARK    6  A    between atoms: C_12  and  C_14 
REMARK    7  A    between atoms: C_14  and  N_15 
REMARK    8  A    between atoms: C_22  and  C_23 
REMARK    9  A    between atoms: C_23  and  N_24 
ROOT
HETATM    1  C   UNL     1     -40.936 -53.055  14.550  1.00  0.00     0.186 C 
ENDROOT
BRANCH   1   2
HETATM    2  C   UNL     1     -41.556 -54.268  13.826  1.00  0.00     0.162 C 
BRANCH   2   3
HETATM    3  C   UNL     1     -43.006 -54.474  14.295  1.00  0.00     0.209 C 
BRANCH   3   4
HETATM    4  O   UNL     1     -43.525 -53.347  14.990  1.00  0.00    -0.348 OA
BRANCH   4   5
HETATM    5  C   UNL     1     -44.610 -52.721  14.414  1.00  0.00     0.075 A 
HETATM    6  C   UNL     1     -45.494 -51.779  14.987  1.00  0.00    -0.021 A 
HETATM    7  C   UNL     1     -46.538 -51.297  14.163  1.00  0.00     0.010 A 
HETATM    8  C   UNL     1     -46.727 -51.748  12.854  1.00  0.00     0.001 A 
HETATM    9  C   UNL     1     -45.873 -52.700  12.324  1.00  0.00     0.003 A 
HETATM   10  C   UNL     1     -44.823 -53.182  13.101  1.00  0.00     0.037 A 
BRANCH   6  11
HETATM   11  C   UNL     1     -45.430 -51.253  16.421  1.00  0.00     0.013 C 
HETATM   12  C   UNL     1     -44.504 -50.033  16.531  1.00  0.00     0.015 C 
HETATM   13  C   UNL     1     -46.794 -50.874  17.025  1.00  0.00     0.015 C 
ENDBRANCH   6  11
ENDBRANCH   4   5
ENDBRANCH   3   4
ENDBRANCH   2   3
BRANCH   2  14
HETATM   14  O   UNL     1     -41.516 -54.023  12.408  1.00  0.00    -0.392 OA
HETATM   15  H   UNL     1     -41.685 -54.862  11.946  1.00  0.00     0.210 HD
ENDBRANCH   2  14
ENDBRANCH   1   2
BRANCH   1  16
HETATM   16  N   UNL     1     -40.845 -51.858  13.712  1.00  0.00    -0.254 N 
HETATM   17  N   UNL     1     -41.975 -51.085  13.609  1.00  0.00    -0.300 N 
HETATM   18  C   UNL     1     -41.944 -50.037  12.844  1.00  0.00     0.029 C 
ATOM     19  HN  UNL     1     -42.821 -51.330  14.122  1.00  0.00     0.187 HD
HETATM   20  C   UNL     1     -43.187 -49.176  12.824  1.00  0.00     0.070 C 
HETATM   21  C   UNL     1     -40.786 -49.630  12.012  1.00  0.00    -0.013 C 
HETATM   22  C   UNL     1     -40.796 -48.392  11.167  1.00  0.00     0.052 C 
HETATM   23  C   UNL     1     -39.715 -50.436  12.109  1.00  0.00     0.103 C 
HETATM   24  C   UNL     1     -39.656 -51.565  13.064  1.00  0.00     0.282 C 
HETATM   25  O   UNL     1     -38.614 -52.192  13.223  1.00  0.00    -0.265 OA
BRANCH  23  26
HETATM   26  C   UNL     1     -38.424 -50.128  11.367  1.00  0.00    -0.031 C 
BRANCH  26  27
HETATM   27  N   UNL     1     -37.355 -49.872  10.750  1.00  0.00    -0.365 N 
ATOM     28  HN2 UNL     1     -38.225 -50.032  11.256  1.00  0.00     0.165 HD
ATOM     29  HN1 UNL     1     -36.489 -49.665  10.252  1.00  0.00     0.165 HD
ENDBRANCH  26  27
ENDBRANCH  23  26
ENDBRANCH   1  16
TORSDOF 9
ENDMDL
MODEL 6
REMARK VINA RESULT:      -6.4      4.025      7.073
REMARK  9 active torsions:
REMARK  status: ('A' for Active; 'I' for Inactive)
REMARK    1  A    between atoms: C_2  and  C_4 
REMARK    2  A    between atoms: C_9  and  O_10 
REMARK    3  A    between atoms: O_10  and  C_11 
REMARK    4  A    between atoms: C_11  and  C_12 
REMARK    5  A    between atoms: C_12  and  O_13 
REMARK    6  A    between atoms: C_12  and  C_14 
REMARK    7  A    between atoms: C_14  and  N_15 
REMARK    8  A    between atoms: C_22  and  C_23 
REMARK    9  A    between atoms: C_23  and  N_24 
ROOT
HETATM    1  C   UNL     1     -42.057 -54.232  13.613  1.00  0.00     0.186 C 
ENDROOT
BRANCH   1   2
HETATM    2  C   UNL     1     -40.880 -53.365  13.118  1.00  0.00     0.162 C 
BRANCH   2   3
HETATM    3  C   UNL     1     -39.591 -53.760  13.857  1.00  0.00     0.209 C 
BRANCH   3   4
HETATM    4  O   UNL     1     -38.516 -52.863  13.607  1.00  0.00    -0.348 OA
BRANCH   4   5
HETATM    5  C   UNL     1     -38.620 -51.610  14.174  1.00  0.00     0.075 A 
HETATM    6  C   UNL     1     -38.754 -50.359  13.533  1.00  0.00    -0.021 A 
HETATM    7  C   UNL     1     -38.834 -49.217  14.365  1.00  0.00     0.010 A 
HETATM    8  C   UNL     1     -38.748 -49.300  15.758  1.00  0.00     0.001 A 
HETATM    9  C   UNL     1     -38.579 -50.533  16.366  1.00  0.00     0.003 A 
HETATM   10  C   UNL     1     -38.515 -51.678  15.577  1.00  0.00     0.037 A 
BRANCH   6  11
HETATM   11  C   UNL     1     -38.799 -50.131  12.022  1.00  0.00     0.013 C 
HETATM   12  C   UNL     1     -39.575 -48.853  11.669  1.00  0.00     0.015 C 
HETATM   13  C   UNL     1     -37.419 -50.053  11.344  1.00  0.00     0.015 C 
ENDBRANCH   6  11
ENDBRANCH   4   5
ENDBRANCH   3   4
ENDBRANCH   2   3
BRANCH   2  14
HETATM   14  O   UNL     1     -40.728 -53.566  11.701  1.00  0.00    -0.392 OA
HETATM   15  H   UNL     1     -39.998 -54.191  11.555  1.00  0.00     0.210 HD
ENDBRANCH   2  14
ENDBRANCH   1   2
BRANCH   1  16
HETATM   16  N   UNL     1     -43.271 -53.462  13.895  1.00  0.00    -0.254 N 
HETATM   17  N   UNL     1     -43.470 -53.074  15.196  1.00  0.00    -0.300 N 
HETATM   18  C   UNL     1     -44.553 -52.423  15.492  1.00  0.00     0.029 C 
ATOM     19  HN  UNL     1     -42.782 -53.292  15.916  1.00  0.00     0.187 HD
HETATM   20  C   UNL     1     -44.692 -51.950  16.922  1.00  0.00     0.070 C 
HETATM   21  C   UNL     1     -45.640 -52.108  14.533  1.00  0.00    -0.013 C 
HETATM   22  C   UNL     1     -46.859 -51.328  14.923  1.00  0.00     0.052 C 
HETATM   23  C   UNL     1     -45.425 -52.542  13.279  1.00  0.00     0.103 C 
HETATM   24  C   UNL     1     -44.151 -53.171  12.866  1.00  0.00     0.282 C 
HETATM   25  O   UNL     1     -43.938 -53.428  11.686  1.00  0.00    -0.265 OA
BRANCH  23  26
HETATM   26  C   UNL     1     -46.414 -52.251  12.162  1.00  0.00    -0.031 C 
BRANCH  26  27
HETATM   27  N   UNL     1     -47.234 -52.008  11.235  1.00  0.00    -0.365 N 
ATOM     28  HN2 UNL     1     -46.605 -52.228  12.007  1.00  0.00     0.165 HD
ATOM     29  HN1 UNL     1     -47.898 -51.812  10.486  1.00  0.00     0.165 HD
ENDBRANCH  26  27
ENDBRANCH  23  26
ENDBRANCH   1  16
TORSDOF 9
ENDMDL
MODEL 7
REMARK VINA RESULT:      -6.4      3.400      5.154
REMARK  9 active torsions:
REMARK  status: ('A' for Active; 'I' for Inactive)
REMARK    1  A    between atoms: C_2  and  C_4 
REMARK    2  A    between atoms: C_9  and  O_10 
REMARK    3  A    between atoms: O_10  and  C_11 
REMARK    4  A    between atoms: C_11  and  C_12 
REMARK    5  A    between atoms: C_12  and  O_13 
REMARK    6  A    between atoms: C_12  and  C_14 
REMARK    7  A    between atoms: C_14  and  N_15 
REMARK    8  A    between atoms: C_22  and  C_23 
REMARK    9  A    between atoms: C_23  and  N_24 
ROOT
HETATM    1  C   UNL     1     -41.714 -50.251  12.349  1.00  0.00     0.186 C 
ENDROOT
BRANCH   1   2
HETATM    2  C   UNL     1     -40.862 -51.467  11.927  1.00  0.00     0.162 C 
BRANCH   2   3
HETATM    3  C   UNL     1     -40.383 -52.230  13.173  1.00  0.00     0.209 C 
BRANCH   3   4
HETATM    4  O   UNL     1     -40.801 -53.590  13.180  1.00  0.00    -0.348 OA
BRANCH   4   5
HETATM    5  C   UNL     1     -40.625 -54.277  14.363  1.00  0.00     0.075 A 
HETATM    6  C   UNL     1     -41.565 -54.532  15.386  1.00  0.00    -0.021 A 
HETATM    7  C   UNL     1     -41.110 -55.264  16.507  1.00  0.00     0.010 A 
HETATM    8  C   UNL     1     -39.785 -55.691  16.634  1.00  0.00     0.001 A 
HETATM    9  C   UNL     1     -38.869 -55.398  15.638  1.00  0.00     0.003 A 
HETATM   10  C   UNL     1     -39.288 -54.695  14.512  1.00  0.00     0.037 A 
BRANCH   6  11
HETATM   11  C   UNL     1     -43.022 -54.069  15.393  1.00  0.00     0.013 C 
HETATM   12  C   UNL     1     -43.905 -54.978  14.525  1.00  0.00     0.015 C 
HETATM   13  C   UNL     1     -43.658 -53.980  16.793  1.00  0.00     0.015 C 
ENDBRANCH   6  11
ENDBRANCH   4   5
ENDBRANCH   3   4
ENDBRANCH   2   3
BRANCH   2  14
HETATM   14  O   UNL     1     -41.666 -52.321  11.092  1.00  0.00    -0.392 OA
HETATM   15  H   UNL     1     -41.584 -53.234  11.417  1.00  0.00     0.210 HD
ENDBRANCH   2  14
ENDBRANCH   1   2
BRANCH   1  16
HETATM   16  N   UNL     1     -42.882 -50.609  13.157  1.00  0.00    -0.254 N 
HETATM   17  N   UNL     1     -43.858 -51.350  12.541  1.00  0.00    -0.300 N 
HETATM   18  C   UNL     1     -44.926 -51.654  13.214  1.00  0.00     0.029 C 
ATOM     19  HN  UNL     1     -43.748 -51.657  11.575  1.00  0.00     0.187 HD
HETATM   20  C   UNL     1     -45.938 -52.537  12.518  1.00  0.00     0.070 C 
HETATM   21  C   UNL     1     -45.209 -51.208  14.600  1.00  0.00    -0.013 C 
HETATM   22  C   UNL     1     -46.448 -51.612  15.340  1.00  0.00     0.052 C 
HETATM   23  C   UNL     1     -44.246 -50.449  15.152  1.00  0.00     0.103 C 
HETATM   24  C   UNL     1     -42.957 -50.187  14.474  1.00  0.00     0.282 C 
HETATM   25  O   UNL     1     -42.051 -49.607  15.063  1.00  0.00    -0.265 OA
BRANCH  23  26
HETATM   26  C   UNL     1     -44.353 -49.959  16.587  1.00  0.00    -0.031 C 
BRANCH  26  27
HETATM   27  N   UNL     1     -44.441 -49.551  17.777  1.00  0.00    -0.365 N 
ATOM     28  HN2 UNL     1     -44.331 -49.853  16.809  1.00  0.00     0.165 HD
ATOM     29  HN1 UNL     1     -44.512 -49.221  18.740  1.00  0.00     0.165 HD
ENDBRANCH  26  27
ENDBRANCH  23  26
ENDBRANCH   1  16
TORSDOF 9
ENDMDL
MODEL 8
REMARK VINA RESULT:      -6.3      4.416      7.236
REMARK  9 active torsions:
REMARK  status: ('A' for Active; 'I' for Inactive)
REMARK    1  A    between atoms: C_2  and  C_4 
REMARK    2  A    between atoms: C_9  and  O_10 
REMARK    3  A    between atoms: O_10  and  C_11 
REMARK    4  A    between atoms: C_11  and  C_12 
REMARK    5  A    between atoms: C_12  and  O_13 
REMARK    6  A    between atoms: C_12  and  C_14 
REMARK    7  A    between atoms: C_14  and  N_15 
REMARK    8  A    between atoms: C_22  and  C_23 
REMARK    9  A    between atoms: C_23  and  N_24 
ROOT
HETATM    1  C   UNL     1     -45.548 -55.082  13.667  1.00  0.00     0.186 C 
ENDROOT
BRANCH   1   2
HETATM    2  C   UNL     1     -46.482 -54.530  14.765  1.00  0.00     0.162 C 
BRANCH   2   3
HETATM    3  C   UNL     1     -46.827 -53.061  14.471  1.00  0.00     0.209 C 
BRANCH   3   4
HETATM    4  O   UNL     1     -45.818 -52.160  14.909  1.00  0.00    -0.348 OA
BRANCH   4   5
HETATM    5  C   UNL     1     -46.146 -51.345  15.973  1.00  0.00     0.075 A 
HETATM    6  C   UNL     1     -45.309 -50.489  16.722  1.00  0.00    -0.021 A 
HETATM    7  C   UNL     1     -45.912 -49.764  17.777  1.00  0.00     0.010 A 
HETATM    8  C   UNL     1     -47.263 -49.905  18.103  1.00  0.00     0.001 A 
HETATM    9  C   UNL     1     -48.059 -50.779  17.382  1.00  0.00     0.003 A 
HETATM   10  C   UNL     1     -47.502 -51.493  16.325  1.00  0.00     0.037 A 
BRANCH   6  11
HETATM   11  C   UNL     1     -43.808 -50.294  16.503  1.00  0.00     0.013 C 
HETATM   12  C   UNL     1     -43.021 -51.573  16.826  1.00  0.00     0.015 C 
HETATM   13  C   UNL     1     -43.422 -49.841  15.083  1.00  0.00     0.015 C 
ENDBRANCH   6  11
ENDBRANCH   4   5
ENDBRANCH   3   4
ENDBRANCH   2   3
BRANCH   2  14
HETATM   14  O   UNL     1     -47.676 -55.332  14.795  1.00  0.00    -0.392 OA
HETATM   15  H   UNL     1     -47.418 -56.267  14.866  1.00  0.00     0.210 HD
ENDBRANCH   2  14
ENDBRANCH   1   2
BRANCH   1  16
HETATM   16  N   UNL     1     -44.152 -54.668  13.826  1.00  0.00    -0.254 N 
HETATM   17  N   UNL     1     -43.481 -55.154  14.919  1.00  0.00    -0.300 N 
HETATM   18  C   UNL     1     -42.254 -54.780  15.114  1.00  0.00     0.029 C 
ATOM     19  HN  UNL     1     -43.938 -55.797  15.566  1.00  0.00     0.187 HD
HETATM   20  C   UNL     1     -41.533 -55.402  16.288  1.00  0.00     0.070 C 
HETATM   21  C   UNL     1     -41.522 -53.805  14.268  1.00  0.00    -0.013 C 
HETATM   22  C   UNL     1     -40.094 -53.429  14.524  1.00  0.00     0.052 C 
HETATM   23  C   UNL     1     -42.229 -53.321  13.232  1.00  0.00     0.103 C 
HETATM   24  C   UNL     1     -43.582 -53.816  12.894  1.00  0.00     0.282 C 
HETATM   25  O   UNL     1     -44.138 -53.452  11.864  1.00  0.00    -0.265 OA
BRANCH  23  26
HETATM   26  C   UNL     1     -41.607 -52.358  12.234  1.00  0.00    -0.031 C 
BRANCH  26  27
HETATM   27  N   UNL     1     -41.090 -51.559  11.406  1.00  0.00    -0.365 N 
ATOM     28  HN2 UNL     1     -41.547 -52.178  12.075  1.00  0.00     0.165 HD
ATOM     29  HN1 UNL     1     -40.671 -50.913  10.736  1.00  0.00     0.165 HD
ENDBRANCH  26  27
ENDBRANCH  23  26
ENDBRANCH   1  16
TORSDOF 9
ENDMDL
MODEL 9
REMARK VINA RESULT:      -6.3      2.536      7.504
REMARK  9 active torsions:
REMARK  status: ('A' for Active; 'I' for Inactive)
REMARK    1  A    between atoms: C_2  and  C_4 
REMARK    2  A    between atoms: C_9  and  O_10 
REMARK    3  A    between atoms: O_10  and  C_11 
REMARK    4  A    between atoms: C_11  and  C_12 
REMARK    5  A    between atoms: C_12  and  O_13 
REMARK    6  A    between atoms: C_12  and  C_14 
REMARK    7  A    between atoms: C_14  and  N_15 
REMARK    8  A    between atoms: C_22  and  C_23 
REMARK    9  A    between atoms: C_23  and  N_24 
ROOT
HETATM    1  C   UNL     1     -41.604 -50.813  12.986  1.00  0.00     0.186 C 
ENDROOT
BRANCH   1   2
HETATM    2  C   UNL     1     -40.708 -51.065  11.755  1.00  0.00     0.162 C 
BRANCH   2   3
HETATM    3  C   UNL     1     -40.500 -49.753  10.981  1.00  0.00     0.209 C 
BRANCH   3   4
HETATM    4  O   UNL     1     -41.703 -49.010  10.823  1.00  0.00    -0.348 OA
BRANCH   4   5
HETATM    5  C   UNL     1     -41.568 -47.641  10.729  1.00  0.00     0.075 A 
HETATM    6  C   UNL     1     -42.398 -46.715  10.059  1.00  0.00    -0.021 A 
HETATM    7  C   UNL     1     -42.018 -45.353  10.118  1.00  0.00     0.010 A 
HETATM    8  C   UNL     1     -40.858 -44.929  10.772  1.00  0.00     0.001 A 
HETATM    9  C   UNL     1     -40.037 -45.857  11.390  1.00  0.00     0.003 A 
HETATM   10  C   UNL     1     -40.392 -47.203  11.367  1.00  0.00     0.037 A 
BRANCH   6  11
HETATM   11  C   UNL     1     -43.656 -47.059   9.261  1.00  0.00     0.013 C 
HETATM   12  C   UNL     1     -44.500 -45.808   8.976  1.00  0.00     0.015 C 
HETATM   13  C   UNL     1     -43.390 -47.772   7.922  1.00  0.00     0.015 C 
ENDBRANCH   6  11
ENDBRANCH   4   5
ENDBRANCH   3   4
ENDBRANCH   2   3
BRANCH   2  14
HETATM   14  O   UNL     1     -39.446 -51.588  12.208  1.00  0.00    -0.392 OA
HETATM   15  H   UNL     1     -38.735 -51.147  11.713  1.00  0.00     0.210 HD
ENDBRANCH   2  14
ENDBRANCH   1   2
BRANCH   1  16
HETATM   16  N   UNL     1     -42.556 -51.896  13.246  1.00  0.00    -0.254 N 
HETATM   17  N   UNL     1     -43.817 -51.753  12.723  1.00  0.00    -0.300 N 
HETATM   18  C   UNL     1     -44.699 -52.673  12.965  1.00  0.00     0.029 C 
ATOM     19  HN  UNL     1     -44.055 -50.940  12.156  1.00  0.00     0.187 HD
HETATM   20  C   UNL     1     -46.049 -52.509  12.304  1.00  0.00     0.070 C 
HETATM   21  C   UNL     1     -44.470 -53.861  13.824  1.00  0.00    -0.013 C 
HETATM   22  C   UNL     1     -45.518 -54.909  14.047  1.00  0.00     0.052 C 
HETATM   23  C   UNL     1     -43.236 -53.942  14.351  1.00  0.00     0.103 C 
HETATM   24  C   UNL     1     -42.159 -52.989  13.999  1.00  0.00     0.282 C 
HETATM   25  O   UNL     1     -41.012 -53.174  14.390  1.00  0.00    -0.265 OA
BRANCH  23  26
HETATM   26  C   UNL     1     -42.818 -55.127  15.206  1.00  0.00    -0.031 C 
BRANCH  26  27
HETATM   27  N   UNL     1     -42.471 -56.110  15.916  1.00  0.00    -0.365 N 
ATOM     28  HN2 UNL     1     -42.716 -55.325  15.313  1.00  0.00     0.165 HD
ATOM     29  HN1 UNL     1     -42.191 -56.904  16.491  1.00  0.00     0.165 HD
ENDBRANCH  26  27
ENDBRANCH  23  26
ENDBRANCH   1  16
TORSDOF 9
ENDMDL
