MODEL 1
REMARK VINA RESULT:      -7.3      0.000      0.000
REMARK  4 active torsions:
REMARK  status: ('A' for Active; 'I' for Inactive)
REMARK    1  A    between atoms: N_2  and  C_17 
REMARK    2  A    between atoms: C_6  and  N_10 
REMARK    3  A    between atoms: C_17  and  C_22 
REMARK    4  A    between atoms: C_22  and  O_30 
ROOT
HETATM    1  C   UNL     1     -40.746 -51.385  13.252  1.00  0.00     0.117 A 
HETATM    2  N   UNL     1     -39.489 -53.027  13.940  1.00  0.00    -0.324 N 
HETATM    3  C   UNL     1     -40.713 -52.763  13.385  1.00  0.00     0.140 A 
HETATM    4  N   UNL     1     -39.581 -50.819  13.733  1.00  0.00    -0.346 N 
ATOM      5  HN  UNL     1     -39.356 -49.827  13.806  1.00  0.00     0.167 HD
HETATM    6  C   UNL     1     -41.868 -50.828  12.608  1.00  0.00     0.114 A 
HETATM    7  C   UNL     1     -38.829 -51.838  14.074  1.00  0.00     0.185 A 
HETATM    8  N   UNL     1     -41.654 -53.639  13.003  1.00  0.00    -0.336 N 
ATOM      9  HN  UNL     1     -41.598 -54.647  13.145  1.00  0.00     0.168 HD
HETATM   10  N   UNL     1     -42.836 -51.684  12.177  1.00  0.00    -0.341 N 
ATOM     11  HN  UNL     1     -43.661 -51.332  11.691  1.00  0.00     0.167 HD
HETATM   12  C   UNL     1     -42.684 -53.006  12.405  1.00  0.00     0.183 A 
ENDROOT
BRANCH   6  13
HETATM   13  N   UNL     1     -41.912 -49.469  12.298  1.00  0.00    -0.267 NA
HETATM   14  C   UNL     1     -41.247 -49.105  11.059  1.00  0.00     0.099 C 
HETATM   15  C   UNL     1     -40.975 -47.604  11.103  1.00  0.00     0.048 C 
HETATM   16  C   UNL     1     -42.232 -46.766  11.410  1.00  0.00     0.054 C 
HETATM   17  N   UNL     1     -43.069 -46.504  10.219  1.00  0.00    -0.327 N 
HETATM   18  C   UNL     1     -43.051 -47.352  12.584  1.00  0.00     0.048 C 
HETATM   19  C   UNL     1     -41.788 -45.322  11.799  1.00  0.00     0.155 C 
HETATM   20  C   UNL     1     -43.239 -45.144   9.986  1.00  0.00     0.318 C 
HETATM   21  C   UNL     1     -43.462 -47.490   9.236  1.00  0.00     0.155 C 
HETATM   22  O   UNL     1     -43.805 -44.617   9.044  1.00  0.00    -0.247 OA
HETATM   23  N   UNL     1     -42.590 -44.454  10.985  1.00  0.00    -0.341 N 
HETATM   24  H   UNL     1     -42.465 -43.456  10.890  1.00  0.00     0.164 HD
HETATM   25  C   UNL     1     -43.224 -48.865  12.513  1.00  0.00     0.099 C 
ENDBRANCH   6  13
BRANCH   2  26
HETATM   26  C   UNL     1     -38.921 -54.330  14.157  1.00  0.00     0.169 C 
BRANCH  26  27
HETATM   27  C   UNL     1     -38.922 -54.910  15.594  1.00  0.00     0.078 C 
HETATM   28  C   UNL     1     -40.214 -55.655  15.939  1.00  0.00     0.066 C 
HETATM   29  C   UNL     1     -41.301 -54.735  16.466  1.00  0.00     0.170 C 
HETATM   30  O   UNL     1     -40.822 -54.056  17.622  1.00  0.00    -0.391 OA
HETATM   31  C   UNL     1     -39.746 -53.175  17.333  1.00  0.00     0.170 C 
HETATM   32  C   UNL     1     -38.561 -53.907  16.707  1.00  0.00     0.066 C 
BRANCH  27  33
HETATM   33  O   UNL     1     -37.875 -55.915  15.590  1.00  0.00    -0.388 OA
HETATM   34  H   UNL     1     -37.029 -55.500  15.345  1.00  0.00     0.210 HD
ENDBRANCH  27  33
ENDBRANCH  26  27
ENDBRANCH   2  26
TORSDOF 4
ENDMDL
MODEL 2
REMARK VINA RESULT:      -7.2      3.121      8.315
REMARK  4 active torsions:
REMARK  status: ('A' for Active; 'I' for Inactive)
REMARK    1  A    between atoms: N_2  and  C_17 
REMARK    2  A    between atoms: C_6  and  N_10 
REMARK    3  A    between atoms: C_17  and  C_22 
REMARK    4  A    between atoms: C_22  and  O_30 
ROOT
HETATM    1  C   UNL     1     -42.041 -48.574  11.865  1.00  0.00     0.117 A 
HETATM    2  N   UNL     1     -41.543 -46.648  10.976  1.00  0.00    -0.324 N 
HETATM    3  C   UNL     1     -40.975 -47.815  11.412  1.00  0.00     0.140 A 
HETATM    4  N   UNL     1     -43.228 -47.880  11.729  1.00  0.00    -0.346 N 
ATOM      5  HN  UNL     1     -44.158 -48.175  12.027  1.00  0.00     0.167 HD
HETATM    6  C   UNL     1     -41.760 -49.887  12.290  1.00  0.00     0.114 A 
HETATM    7  C   UNL     1     -42.895 -46.760  11.133  1.00  0.00     0.185 A 
HETATM    8  N   UNL     1     -39.683 -48.174  11.366  1.00  0.00    -0.336 N 
ATOM      9  HN  UNL     1     -38.926 -47.570  11.048  1.00  0.00     0.168 HD
HETATM   10  N   UNL     1     -40.466 -50.304  12.234  1.00  0.00    -0.341 N 
ATOM     11  HN  UNL     1     -40.213 -51.252  12.515  1.00  0.00     0.167 HD
HETATM   12  C   UNL     1     -39.522 -49.442  11.799  1.00  0.00     0.183 A 
ENDROOT
BRANCH   6  13
HETATM   13  N   UNL     1     -42.792 -50.767  12.617  1.00  0.00    -0.267 NA
HETATM   14  C   UNL     1     -42.407 -52.167  12.659  1.00  0.00     0.099 C 
HETATM   15  C   UNL     1     -43.682 -53.000  12.557  1.00  0.00     0.048 C 
HETATM   16  C   UNL     1     -44.749 -52.612  13.600  1.00  0.00     0.054 C 
HETATM   17  N   UNL     1     -44.534 -53.238  14.922  1.00  0.00    -0.327 N 
HETATM   18  C   UNL     1     -44.934 -51.080  13.700  1.00  0.00     0.048 C 
HETATM   19  C   UNL     1     -46.113 -53.241  13.178  1.00  0.00     0.155 C 
HETATM   20  C   UNL     1     -45.622 -54.004  15.324  1.00  0.00     0.318 C 
HETATM   21  C   UNL     1     -43.272 -53.298  15.628  1.00  0.00     0.155 C 
HETATM   22  O   UNL     1     -45.713 -54.701  16.319  1.00  0.00    -0.247 OA
HETATM   23  N   UNL     1     -46.597 -53.903  14.356  1.00  0.00    -0.341 N 
HETATM   24  H   UNL     1     -47.393 -54.524  14.395  1.00  0.00     0.164 HD
HETATM   25  C   UNL     1     -43.621 -50.306  13.727  1.00  0.00     0.099 C 
ENDBRANCH   6  13
BRANCH   2  26
HETATM   26  C   UNL     1     -40.864 -45.580  10.294  1.00  0.00     0.169 C 
BRANCH  26  27
HETATM   27  C   UNL     1     -40.542 -44.284  11.079  1.00  0.00     0.078 C 
HETATM   28  C   UNL     1     -39.354 -44.441  12.033  1.00  0.00     0.066 C 
HETATM   29  C   UNL     1     -39.760 -44.989  13.390  1.00  0.00     0.170 C 
HETATM   30  O   UNL     1     -40.728 -44.125  13.976  1.00  0.00    -0.391 OA
HETATM   31  C   UNL     1     -41.947 -44.095  13.247  1.00  0.00     0.170 C 
HETATM   32  C   UNL     1     -41.740 -43.640  11.805  1.00  0.00     0.066 C 
BRANCH  27  33
HETATM   33  O   UNL     1     -40.114 -43.333  10.069  1.00  0.00    -0.388 OA
HETATM   34  H   UNL     1     -39.470 -43.759   9.476  1.00  0.00     0.210 HD
ENDBRANCH  27  33
ENDBRANCH  26  27
ENDBRANCH   2  26
TORSDOF 4
ENDMDL
MODEL 3
REMARK VINA RESULT:      -7.1      2.785      8.562
REMARK  4 active torsions:
REMARK  status: ('A' for Active; 'I' for Inactive)
REMARK    1  A    between atoms: N_2  and  C_17 
REMARK    2  A    between atoms: C_6  and  N_10 
REMARK    3  A    between atoms: C_17  and  C_22 
REMARK    4  A    between atoms: C_22  and  O_30 
ROOT
HETATM    1  C   UNL     1     -41.124 -47.654  11.851  1.00  0.00     0.117 A 
HETATM    2  N   UNL     1     -40.280 -45.687  11.443  1.00  0.00    -0.324 N 
HETATM    3  C   UNL     1     -41.147 -46.616  10.933  1.00  0.00     0.140 A 
HETATM    4  N   UNL     1     -40.250 -47.376  12.883  1.00  0.00    -0.346 N 
ATOM      5  HN  UNL     1     -39.998 -47.981  13.665  1.00  0.00     0.167 HD
HETATM    6  C   UNL     1     -42.011 -48.726  11.629  1.00  0.00     0.114 A 
HETATM    7  C   UNL     1     -39.815 -46.162  12.637  1.00  0.00     0.185 A 
HETATM    8  N   UNL     1     -41.895 -46.528   9.824  1.00  0.00    -0.336 N 
ATOM      9  HN  UNL     1     -41.859 -45.754   9.162  1.00  0.00     0.168 HD
HETATM   10  N   UNL     1     -42.811 -48.665  10.529  1.00  0.00    -0.341 N 
ATOM     11  HN  UNL     1     -43.481 -49.408  10.333  1.00  0.00     0.167 HD
HETATM   12  C   UNL     1     -42.701 -47.603   9.703  1.00  0.00     0.183 A 
ENDROOT
BRANCH   6  13
HETATM   13  N   UNL     1     -42.161 -49.735  12.580  1.00  0.00    -0.267 NA
HETATM   14  C   UNL     1     -43.502 -49.864  13.124  1.00  0.00     0.099 C 
HETATM   15  C   UNL     1     -43.397 -50.644  14.432  1.00  0.00     0.048 C 
HETATM   16  C   UNL     1     -42.648 -51.984  14.284  1.00  0.00     0.054 C 
HETATM   17  N   UNL     1     -43.503 -53.082  13.784  1.00  0.00    -0.327 N 
HETATM   18  C   UNL     1     -41.345 -51.836  13.465  1.00  0.00     0.048 C 
HETATM   19  C   UNL     1     -42.274 -52.507  15.705  1.00  0.00     0.155 C 
HETATM   20  C   UNL     1     -43.542 -54.159  14.663  1.00  0.00     0.318 C 
HETATM   21  C   UNL     1     -44.413 -52.994  12.662  1.00  0.00     0.155 C 
HETATM   22  O   UNL     1     -44.216 -55.170  14.569  1.00  0.00    -0.247 OA
HETATM   23  N   UNL     1     -42.722 -53.870  15.731  1.00  0.00    -0.341 N 
HETATM   24  H   UNL     1     -42.754 -54.463  16.548  1.00  0.00     0.164 HD
HETATM   25  C   UNL     1     -41.506 -50.986  12.209  1.00  0.00     0.099 C 
ENDBRANCH   6  13
BRANCH   2  26
HETATM   26  C   UNL     1     -40.051 -44.367  10.921  1.00  0.00     0.169 C 
BRANCH  26  27
HETATM   27  C   UNL     1     -40.943 -43.205  11.424  1.00  0.00     0.078 C 
HETATM   28  C   UNL     1     -40.260 -42.344  12.491  1.00  0.00     0.066 C 
HETATM   29  C   UNL     1     -40.439 -42.896  13.894  1.00  0.00     0.170 C 
HETATM   30  O   UNL     1     -41.829 -42.998  14.186  1.00  0.00    -0.391 OA
HETATM   31  C   UNL     1     -42.491 -43.948  13.363  1.00  0.00     0.170 C 
HETATM   32  C   UNL     1     -42.358 -43.612  11.880  1.00  0.00     0.066 C 
BRANCH  27  33
HETATM   33  O   UNL     1     -41.116 -42.341  10.271  1.00  0.00    -0.388 OA
HETATM   34  H   UNL     1     -40.451 -42.566   9.596  1.00  0.00     0.210 HD
ENDBRANCH  27  33
ENDBRANCH  26  27
ENDBRANCH   2  26
TORSDOF 4
ENDMDL
MODEL 4
REMARK VINA RESULT:      -7.1      2.285      3.297
REMARK  4 active torsions:
REMARK  status: ('A' for Active; 'I' for Inactive)
REMARK    1  A    between atoms: N_2  and  C_17 
REMARK    2  A    between atoms: C_6  and  N_10 
REMARK    3  A    between atoms: C_17  and  C_22 
REMARK    4  A    between atoms: C_22  and  O_30 
ROOT
HETATM    1  C   UNL     1     -39.668 -49.496  12.888  1.00  0.00     0.117 A 
HETATM    2  N   UNL     1     -39.607 -51.279  14.140  1.00  0.00    -0.324 N 
HETATM    3  C   UNL     1     -39.018 -50.709  13.043  1.00  0.00     0.140 A 
HETATM    4  N   UNL     1     -40.644 -49.338  13.852  1.00  0.00    -0.346 N 
ATOM      5  HN  UNL     1     -41.307 -48.568  13.945  1.00  0.00     0.167 HD
HETATM    6  C   UNL     1     -39.194 -48.639  11.877  1.00  0.00     0.114 A 
HETATM    7  C   UNL     1     -40.532 -50.395  14.621  1.00  0.00     0.185 A 
HETATM    8  N   UNL     1     -38.002 -51.187  12.309  1.00  0.00    -0.336 N 
ATOM      9  HN  UNL     1     -37.570 -52.100  12.444  1.00  0.00     0.168 HD
HETATM   10  N   UNL     1     -38.144 -49.070  11.125  1.00  0.00    -0.341 N 
ATOM     11  HN  UNL     1     -37.754 -48.480  10.391  1.00  0.00     0.167 HD
HETATM   12  C   UNL     1     -37.629 -50.295  11.369  1.00  0.00     0.183 A 
ENDROOT
BRANCH   6  13
HETATM   13  N   UNL     1     -39.690 -47.341  11.751  1.00  0.00    -0.267 NA
HETATM   14  C   UNL     1     -41.027 -47.252  11.191  1.00  0.00     0.099 C 
HETATM   15  C   UNL     1     -41.226 -45.823  10.693  1.00  0.00     0.048 C 
HETATM   16  C   UNL     1     -40.921 -44.756  11.763  1.00  0.00     0.054 C 
HETATM   17  N   UNL     1     -42.050 -44.511  12.687  1.00  0.00    -0.327 N 
HETATM   18  C   UNL     1     -39.601 -45.045  12.515  1.00  0.00     0.048 C 
HETATM   19  C   UNL     1     -40.789 -43.369  11.063  1.00  0.00     0.155 C 
HETATM   20  C   UNL     1     -42.458 -43.182  12.676  1.00  0.00     0.318 C 
HETATM   21  C   UNL     1     -42.839 -45.535  13.339  1.00  0.00     0.155 C 
HETATM   22  O   UNL     1     -43.406 -42.692  13.264  1.00  0.00    -0.247 OA
HETATM   23  N   UNL     1     -41.636 -42.489  11.816  1.00  0.00    -0.341 N 
HETATM   24  H   UNL     1     -41.886 -41.545  11.553  1.00  0.00     0.164 HD
HETATM   25  C   UNL     1     -39.438 -46.506  12.922  1.00  0.00     0.099 C 
ENDBRANCH   6  13
BRANCH   2  26
HETATM   26  C   UNL     1     -39.195 -52.495  14.788  1.00  0.00     0.169 C 
BRANCH  26  27
HETATM   27  C   UNL     1     -39.678 -53.847  14.205  1.00  0.00     0.078 C 
HETATM   28  C   UNL     1     -40.900 -53.704  13.293  1.00  0.00     0.066 C 
HETATM   29  C   UNL     1     -42.211 -53.732  14.059  1.00  0.00     0.170 C 
HETATM   30  O   UNL     1     -42.303 -54.951  14.789  1.00  0.00    -0.391 OA
HETATM   31  C   UNL     1     -41.316 -55.056  15.806  1.00  0.00     0.170 C 
HETATM   32  C   UNL     1     -39.901 -54.967  15.240  1.00  0.00     0.066 C 
BRANCH  27  33
HETATM   33  O   UNL     1     -38.594 -54.290  13.347  1.00  0.00    -0.388 OA
HETATM   34  H   UNL     1     -37.761 -53.880  13.639  1.00  0.00     0.210 HD
ENDBRANCH  27  33
ENDBRANCH  26  27
ENDBRANCH   2  26
TORSDOF 4
ENDMDL
MODEL 5
REMARK VINA RESULT:      -6.9      2.031      8.742
REMARK  4 active torsions:
REMARK  status: ('A' for Active; 'I' for Inactive)
REMARK    1  A    between atoms: N_2  and  C_17 
REMARK    2  A    between atoms: C_6  and  N_10 
REMARK    3  A    between atoms: C_17  and  C_22 
REMARK    4  A    between atoms: C_22  and  O_30 
ROOT
HETATM    1  C   UNL     1     -41.581 -49.795  12.285  1.00  0.00     0.117 A 
HETATM    2  N   UNL     1     -42.205 -48.003  11.213  1.00  0.00    -0.324 N 
HETATM    3  C   UNL     1     -41.110 -48.789  11.458  1.00  0.00     0.140 A 
HETATM    4  N   UNL     1     -42.923 -49.616  12.557  1.00  0.00    -0.346 N 
ATOM      5  HN  UNL     1     -43.512 -50.174  13.176  1.00  0.00     0.167 HD
HETATM    6  C   UNL     1     -40.679 -50.821  12.627  1.00  0.00     0.114 A 
HETATM    7  C   UNL     1     -43.275 -48.572  11.844  1.00  0.00     0.185 A 
HETATM    8  N   UNL     1     -39.869 -48.654  10.967  1.00  0.00    -0.336 N 
ATOM      9  HN  UNL     1     -39.560 -47.880  10.380  1.00  0.00     0.168 HD
HETATM   10  N   UNL     1     -39.415 -50.740  12.127  1.00  0.00    -0.341 N 
ATOM     11  HN  UNL     1     -38.728 -51.466  12.332  1.00  0.00     0.167 HD
HETATM   12  C   UNL     1     -39.086 -49.681  11.357  1.00  0.00     0.183 A 
ENDROOT
BRANCH   6  13
HETATM   13  N   UNL     1     -41.110 -51.947  13.328  1.00  0.00    -0.267 NA
HETATM   14  C   UNL     1     -40.669 -53.215  12.775  1.00  0.00     0.099 C 
HETATM   15  C   UNL     1     -41.574 -54.306  13.340  1.00  0.00     0.048 C 
HETATM   16  C   UNL     1     -41.662 -54.289  14.879  1.00  0.00     0.054 C 
HETATM   17  N   UNL     1     -40.537 -54.986  15.539  1.00  0.00    -0.327 N 
HETATM   18  C   UNL     1     -41.875 -52.862  15.435  1.00  0.00     0.048 C 
HETATM   19  C   UNL     1     -42.872 -55.170  15.320  1.00  0.00     0.155 C 
HETATM   20  C   UNL     1     -40.969 -56.022  16.358  1.00  0.00     0.318 C 
HETATM   21  C   UNL     1     -39.138 -54.825  15.205  1.00  0.00     0.155 C 
HETATM   22  O   UNL     1     -40.282 -56.823  16.968  1.00  0.00    -0.247 OA
HETATM   23  N   UNL     1     -42.345 -56.048  16.326  1.00  0.00    -0.341 N 
HETATM   24  H   UNL     1     -42.831 -56.838  16.729  1.00  0.00     0.164 HD
HETATM   25  C   UNL     1     -40.987 -51.811  14.777  1.00  0.00     0.099 C 
ENDBRANCH   6  13
BRANCH   2  26
HETATM   26  C   UNL     1     -42.264 -46.895  10.298  1.00  0.00     0.169 C 
BRANCH  26  27
HETATM   27  C   UNL     1     -42.136 -45.458  10.863  1.00  0.00     0.078 C 
HETATM   28  C   UNL     1     -40.789 -44.805  10.539  1.00  0.00     0.066 C 
HETATM   29  C   UNL     1     -39.712 -45.145  11.554  1.00  0.00     0.170 C 
HETATM   30  O   UNL     1     -40.139 -44.733  12.848  1.00  0.00    -0.391 OA
HETATM   31  C   UNL     1     -41.273 -45.457  13.305  1.00  0.00     0.170 C 
HETATM   32  C   UNL     1     -42.464 -45.310  12.362  1.00  0.00     0.066 C 
BRANCH  27  33
HETATM   33  O   UNL     1     -43.133 -44.686  10.146  1.00  0.00    -0.388 OA
HETATM   34  H   UNL     1     -43.945 -45.213  10.052  1.00  0.00     0.210 HD
ENDBRANCH  27  33
ENDBRANCH  26  27
ENDBRANCH   2  26
TORSDOF 4
ENDMDL
MODEL 6
REMARK VINA RESULT:      -6.8      2.180      2.885
REMARK  4 active torsions:
REMARK  status: ('A' for Active; 'I' for Inactive)
REMARK    1  A    between atoms: N_2  and  C_17 
REMARK    2  A    between atoms: C_6  and  N_10 
REMARK    3  A    between atoms: C_17  and  C_22 
REMARK    4  A    between atoms: C_22  and  O_30 
ROOT
HETATM    1  C   UNL     1     -39.892 -49.853  13.780  1.00  0.00     0.117 A 
HETATM    2  N   UNL     1     -39.470 -51.683  14.888  1.00  0.00    -0.324 N 
HETATM    3  C   UNL     1     -39.043 -50.947  13.814  1.00  0.00     0.140 A 
HETATM    4  N   UNL     1     -40.828 -49.929  14.793  1.00  0.00    -0.346 N 
ATOM      5  HN  UNL     1     -41.602 -49.290  14.973  1.00  0.00     0.167 HD
HETATM    6  C   UNL     1     -39.622 -48.860  12.819  1.00  0.00     0.114 A 
HETATM    7  C   UNL     1     -40.500 -51.002  15.473  1.00  0.00     0.185 A 
HETATM    8  N   UNL     1     -38.004 -51.195  13.003  1.00  0.00    -0.336 N 
ATOM      9  HN  UNL     1     -37.420 -52.030  13.049  1.00  0.00     0.168 HD
HETATM   10  N   UNL     1     -38.558 -49.056  11.992  1.00  0.00    -0.341 N 
ATOM     11  HN  UNL     1     -38.311 -48.359  11.290  1.00  0.00     0.167 HD
HETATM   12  C   UNL     1     -37.835 -50.190  12.119  1.00  0.00     0.183 A 
ENDROOT
BRANCH   6  13
HETATM   13  N   UNL     1     -40.332 -47.659  12.814  1.00  0.00    -0.267 NA
HETATM   14  C   UNL     1     -39.528 -46.477  13.074  1.00  0.00     0.099 C 
HETATM   15  C   UNL     1     -40.476 -45.358  13.496  1.00  0.00     0.048 C 
HETATM   16  C   UNL     1     -41.629 -45.127  12.498  1.00  0.00     0.054 C 
HETATM   17  N   UNL     1     -41.251 -44.273  11.351  1.00  0.00    -0.327 N 
HETATM   18  C   UNL     1     -42.286 -46.453  12.050  1.00  0.00     0.048 C 
HETATM   19  C   UNL     1     -42.720 -44.251  13.188  1.00  0.00     0.155 C 
HETATM   20  C   UNL     1     -42.051 -43.141  11.253  1.00  0.00     0.318 C 
HETATM   21  C   UNL     1     -40.045 -44.412  10.562  1.00  0.00     0.155 C 
HETATM   22  O   UNL     1     -41.936 -42.216  10.468  1.00  0.00    -0.247 OA
HETATM   23  N   UNL     1     -42.992 -43.193  12.257  1.00  0.00    -0.341 N 
HETATM   24  H   UNL     1     -43.554 -42.375  12.446  1.00  0.00     0.164 HD
HETATM   25  C   UNL     1     -41.281 -47.549  11.711  1.00  0.00     0.099 C 
ENDBRANCH   6  13
BRANCH   2  26
HETATM   26  C   UNL     1     -38.828 -52.853  15.422  1.00  0.00     0.169 C 
BRANCH  26  27
HETATM   27  C   UNL     1     -39.222 -54.240  14.855  1.00  0.00     0.078 C 
HETATM   28  C   UNL     1     -40.730 -54.390  14.632  1.00  0.00     0.066 C 
HETATM   29  C   UNL     1     -41.464 -54.852  15.879  1.00  0.00     0.170 C 
HETATM   30  O   UNL     1     -40.922 -56.097  16.308  1.00  0.00    -0.391 OA
HETATM   31  C   UNL     1     -39.571 -55.986  16.735  1.00  0.00     0.170 C 
HETATM   32  C   UNL     1     -38.665 -55.450  15.630  1.00  0.00     0.066 C 
BRANCH  27  33
HETATM   33  O   UNL     1     -38.622 -54.286  13.534  1.00  0.00    -0.388 OA
HETATM   34  H   UNL     1     -38.200 -55.153  13.400  1.00  0.00     0.210 HD
ENDBRANCH  27  33
ENDBRANCH  26  27
ENDBRANCH   2  26
TORSDOF 4
ENDMDL
MODEL 7
REMARK VINA RESULT:      -6.8      2.313      9.138
REMARK  4 active torsions:
REMARK  status: ('A' for Active; 'I' for Inactive)
REMARK    1  A    between atoms: N_2  and  C_17 
REMARK    2  A    between atoms: C_6  and  N_10 
REMARK    3  A    between atoms: C_17  and  C_22 
REMARK    4  A    between atoms: C_22  and  O_30 
ROOT
HETATM    1  C   UNL     1     -40.642 -47.037  11.602  1.00  0.00     0.117 A 
HETATM    2  N   UNL     1     -40.690 -44.910  11.133  1.00  0.00    -0.324 N 
HETATM    3  C   UNL     1     -41.230 -46.111  10.758  1.00  0.00     0.140 A 
HETATM    4  N   UNL     1     -39.748 -46.422  12.457  1.00  0.00    -0.346 N 
ATOM      5  HN  UNL     1     -39.140 -46.866  13.145  1.00  0.00     0.167 HD
HETATM    6  C   UNL     1     -41.089 -48.370  11.506  1.00  0.00     0.114 A 
HETATM    7  C   UNL     1     -39.856 -45.142  12.190  1.00  0.00     0.185 A 
HETATM    8  N   UNL     1     -42.161 -46.342   9.820  1.00  0.00    -0.336 N 
ATOM      9  HN  UNL     1     -42.548 -45.630   9.201  1.00  0.00     0.168 HD
HETATM   10  N   UNL     1     -42.054 -48.645  10.586  1.00  0.00    -0.341 N 
ATOM     11  HN  UNL     1     -42.424 -49.591  10.489  1.00  0.00     0.167 HD
HETATM   12  C   UNL     1     -42.515 -47.644   9.806  1.00  0.00     0.183 A 
ENDROOT
BRANCH   6  13
HETATM   13  N   UNL     1     -40.661 -49.334  12.418  1.00  0.00    -0.267 NA
HETATM   14  C   UNL     1     -41.719 -50.162  12.970  1.00  0.00     0.099 C 
HETATM   15  C   UNL     1     -41.183 -50.807  14.245  1.00  0.00     0.048 C 
HETATM   16  C   UNL     1     -39.848 -51.550  14.039  1.00  0.00     0.054 C 
HETATM   17  N   UNL     1     -40.015 -52.919  13.505  1.00  0.00    -0.327 N 
HETATM   18  C   UNL     1     -38.840 -50.718  13.213  1.00  0.00     0.048 C 
HETATM   19  C   UNL     1     -39.214 -51.838  15.435  1.00  0.00     0.155 C 
HETATM   20  C   UNL     1     -39.459 -53.880  14.341  1.00  0.00     0.318 C 
HETATM   21  C   UNL     1     -40.868 -53.290  12.396  1.00  0.00     0.155 C 
HETATM   22  O   UNL     1     -39.505 -55.092  14.215  1.00  0.00    -0.247 OA
HETATM   23  N   UNL     1     -38.881 -53.234  15.411  1.00  0.00    -0.341 N 
HETATM   24  H   UNL     1     -38.574 -53.778  16.206  1.00  0.00     0.164 HD
HETATM   25  C   UNL     1     -39.459 -50.045  11.992  1.00  0.00     0.099 C 
ENDBRANCH   6  13
BRANCH   2  26
HETATM   26  C   UNL     1     -41.078 -43.616  10.640  1.00  0.00     0.169 C 
BRANCH  26  27
HETATM   27  C   UNL     1     -42.390 -42.983  11.170  1.00  0.00     0.078 C 
HETATM   28  C   UNL     1     -42.408 -41.457  11.054  1.00  0.00     0.066 C 
HETATM   29  C   UNL     1     -41.766 -40.769  12.246  1.00  0.00     0.170 C 
HETATM   30  O   UNL     1     -42.443 -41.163  13.436  1.00  0.00    -0.391 OA
HETATM   31  C   UNL     1     -42.289 -42.546  13.720  1.00  0.00     0.170 C 
HETATM   32  C   UNL     1     -42.808 -43.425  12.586  1.00  0.00     0.066 C 
BRANCH  27  33
HETATM   33  O   UNL     1     -43.423 -43.460  10.268  1.00  0.00    -0.388 OA
HETATM   34  H   UNL     1     -43.537 -44.420  10.386  1.00  0.00     0.210 HD
ENDBRANCH  27  33
ENDBRANCH  26  27
ENDBRANCH   2  26
TORSDOF 4
ENDMDL
MODEL 8
REMARK VINA RESULT:      -6.8      2.176      8.782
REMARK  4 active torsions:
REMARK  status: ('A' for Active; 'I' for Inactive)
REMARK    1  A    between atoms: N_2  and  C_17 
REMARK    2  A    between atoms: C_6  and  N_10 
REMARK    3  A    between atoms: C_17  and  C_22 
REMARK    4  A    between atoms: C_22  and  O_30 
ROOT
HETATM    1  C   UNL     1     -41.316 -50.960  12.709  1.00  0.00     0.117 A 
HETATM    2  N   UNL     1     -41.337 -49.314  11.281  1.00  0.00    -0.324 N 
HETATM    3  C   UNL     1     -42.145 -50.006  12.143  1.00  0.00     0.140 A 
HETATM    4  N   UNL     1     -40.039 -50.868  12.191  1.00  0.00    -0.346 N 
ATOM      5  HN  UNL     1     -39.243 -51.475  12.387  1.00  0.00     0.167 HD
HETATM    6  C   UNL     1     -41.865 -51.769  13.723  1.00  0.00     0.114 A 
HETATM    7  C   UNL     1     -40.076 -49.829  11.390  1.00  0.00     0.185 A 
HETATM    8  N   UNL     1     -43.438 -49.783  12.424  1.00  0.00    -0.336 N 
ATOM      9  HN  UNL     1     -44.018 -49.084  11.962  1.00  0.00     0.168 HD
HETATM   10  N   UNL     1     -43.167 -51.558  14.061  1.00  0.00    -0.341 N 
ATOM     11  HN  UNL     1     -43.607 -52.105  14.800  1.00  0.00     0.167 HD
HETATM   12  C   UNL     1     -43.866 -50.610  13.400  1.00  0.00     0.183 A 
ENDROOT
BRANCH   6  13
HETATM   13  N   UNL     1     -41.061 -52.648  14.449  1.00  0.00    -0.267 NA
HETATM   14  C   UNL     1     -41.379 -52.737  15.863  1.00  0.00     0.099 C 
HETATM   15  C   UNL     1     -40.168 -53.336  16.572  1.00  0.00     0.048 C 
HETATM   16  C   UNL     1     -39.693 -54.665  15.951  1.00  0.00     0.054 C 
HETATM   17  N   UNL     1     -40.457 -55.840  16.423  1.00  0.00    -0.327 N 
HETATM   18  C   UNL     1     -39.622 -54.594  14.408  1.00  0.00     0.048 C 
HETATM   19  C   UNL     1     -38.266 -54.988  16.491  1.00  0.00     0.155 C 
HETATM   20  C   UNL     1     -39.640 -56.792  17.021  1.00  0.00     0.318 C 
HETATM   21  C   UNL     1     -41.899 -55.922  16.517  1.00  0.00     0.155 C 
HETATM   22  O   UNL     1     -39.981 -57.823  17.573  1.00  0.00    -0.247 OA
HETATM   23  N   UNL     1     -38.339 -56.346  16.948  1.00  0.00    -0.341 N 
HETATM   24  H   UNL     1     -37.625 -56.827  17.477  1.00  0.00     0.164 HD
HETATM   25  C   UNL     1     -40.832 -53.921  13.771  1.00  0.00     0.099 C 
ENDBRANCH   6  13
BRANCH   2  26
HETATM   26  C   UNL     1     -41.699 -48.133  10.545  1.00  0.00     0.169 C 
BRANCH  26  27
HETATM   27  C   UNL     1     -41.863 -46.799  11.317  1.00  0.00     0.078 C 
HETATM   28  C   UNL     1     -41.532 -45.570  10.465  1.00  0.00     0.066 C 
HETATM   29  C   UNL     1     -40.052 -45.227  10.479  1.00  0.00     0.170 C 
HETATM   30  O   UNL     1     -39.635 -45.001  11.821  1.00  0.00    -0.391 OA
HETATM   31  C   UNL     1     -39.717 -46.171  12.624  1.00  0.00     0.170 C 
HETATM   32  C   UNL     1     -41.136 -46.731  12.674  1.00  0.00     0.066 C 
BRANCH  27  33
HETATM   33  O   UNL     1     -43.282 -46.709  11.605  1.00  0.00    -0.388 OA
HETATM   34  H   UNL     1     -43.415 -46.183  12.413  1.00  0.00     0.210 HD
ENDBRANCH  27  33
ENDBRANCH  26  27
ENDBRANCH   2  26
TORSDOF 4
ENDMDL
MODEL 9
REMARK VINA RESULT:      -6.7      3.038      4.198
REMARK  4 active torsions:
REMARK  status: ('A' for Active; 'I' for Inactive)
REMARK    1  A    between atoms: N_2  and  C_17 
REMARK    2  A    between atoms: C_6  and  N_10 
REMARK    3  A    between atoms: C_17  and  C_22 
REMARK    4  A    between atoms: C_22  and  O_30 
ROOT
HETATM    1  C   UNL     1     -42.274 -50.472  13.056  1.00  0.00     0.117 A 
HETATM    2  N   UNL     1     -43.153 -51.792  14.551  1.00  0.00    -0.324 N 
HETATM    3  C   UNL     1     -42.377 -51.803  13.422  1.00  0.00     0.140 A 
HETATM    4  N   UNL     1     -42.987 -49.669  13.924  1.00  0.00    -0.346 N 
ATOM      5  HN  UNL     1     -43.127 -48.660  13.865  1.00  0.00     0.167 HD
HETATM    6  C   UNL     1     -41.438 -50.169  11.963  1.00  0.00     0.114 A 
HETATM    7  C   UNL     1     -43.442 -50.488  14.842  1.00  0.00     0.185 A 
HETATM    8  N   UNL     1     -41.797 -52.857  12.829  1.00  0.00    -0.336 N 
ATOM      9  HN  UNL     1     -41.922 -53.826  13.120  1.00  0.00     0.168 HD
HETATM   10  N   UNL     1     -40.806 -51.206  11.347  1.00  0.00    -0.341 N 
ATOM     11  HN  UNL     1     -40.178 -51.038  10.562  1.00  0.00     0.167 HD
HETATM   12  C   UNL     1     -41.026 -52.461  11.795  1.00  0.00     0.183 A 
ENDROOT
BRANCH   6  13
HETATM   13  N   UNL     1     -41.160 -48.845  11.622  1.00  0.00    -0.267 NA
HETATM   14  C   UNL     1     -42.293 -48.099  11.104  1.00  0.00     0.099 C 
HETATM   15  C   UNL     1     -41.745 -46.883  10.363  1.00  0.00     0.048 C 
HETATM   16  C   UNL     1     -40.773 -46.039  11.210  1.00  0.00     0.054 C 
HETATM   17  N   UNL     1     -41.455 -45.088  12.114  1.00  0.00    -0.327 N 
HETATM   18  C   UNL     1     -39.738 -46.915  11.955  1.00  0.00     0.048 C 
HETATM   19  C   UNL     1     -39.999 -45.068  10.266  1.00  0.00     0.155 C 
HETATM   20  C   UNL     1     -41.071 -43.772  11.878  1.00  0.00     0.318 C 
HETATM   21  C   UNL     1     -42.580 -45.400  12.969  1.00  0.00     0.155 C 
HETATM   22  O   UNL     1     -41.513 -42.764  12.401  1.00  0.00    -0.247 OA
HETATM   23  N   UNL     1     -40.125 -43.775  10.878  1.00  0.00    -0.341 N 
HETATM   24  H   UNL     1     -39.852 -42.898  10.458  1.00  0.00     0.164 HD
HETATM   25  C   UNL     1     -40.344 -48.150  12.613  1.00  0.00     0.099 C 
ENDBRANCH   6  13
BRANCH   2  26
HETATM   26  C   UNL     1     -43.444 -52.922  15.390  1.00  0.00     0.169 C 
BRANCH  26  27
HETATM   27  C   UNL     1     -44.812 -53.632  15.231  1.00  0.00     0.078 C 
HETATM   28  C   UNL     1     -45.111 -54.038  13.785  1.00  0.00     0.066 C 
HETATM   29  C   UNL     1     -45.760 -52.923  12.984  1.00  0.00     0.170 C 
HETATM   30  O   UNL     1     -46.968 -52.526  13.624  1.00  0.00    -0.391 OA
HETATM   31  C   UNL     1     -46.743 -51.939  14.899  1.00  0.00     0.170 C 
HETATM   32  C   UNL     1     -46.014 -52.888  15.845  1.00  0.00     0.066 C 
BRANCH  27  33
HETATM   33  O   UNL     1     -44.675 -54.873  15.969  1.00  0.00    -0.388 OA
HETATM   34  H   UNL     1     -45.270 -55.544  15.589  1.00  0.00     0.210 HD
ENDBRANCH  27  33
ENDBRANCH  26  27
ENDBRANCH   2  26
TORSDOF 4
ENDMDL
