MODEL 1
REMARK VINA RESULT:      -6.7      0.000      0.000
REMARK  6 active torsions:
REMARK  status: ('A' for Active; 'I' for Inactive)
REMARK    1  A    between atoms: N_6  and  C_7 
REMARK    2  A    between atoms: C_7  and  C_8 
REMARK    3  A    between atoms: C_8  and  O_9 
REMARK    4  A    between atoms: C_8  and  C_10 
REMARK    5  A    between atoms: C_10  and  C_11 
REMARK    6  A    between atoms: C_14  and  C_17 
ROOT
HETATM    1  C   UNL     1     -39.761 -54.038  13.738  1.00  0.00     0.141 C 
ENDROOT
BRANCH   1   2
HETATM    2  C   UNL     1     -39.001 -52.888  14.429  1.00  0.00     0.165 C 
BRANCH   2   3
HETATM    3  N   UNL     1     -39.099 -51.629  13.687  1.00  0.00    -0.308 N 
HETATM    4  C   UNL     1     -40.102 -50.738  13.963  1.00  0.00     0.186 A 
HETATM    5  N   UNL     1     -40.270 -49.606  13.371  1.00  0.00    -0.355 N 
HETATM    6  C   UNL     1     -39.361 -49.257  12.404  1.00  0.00     0.017 A 
ATOM      7  HN  UNL     1     -41.049 -48.992  13.612  1.00  0.00     0.166 HD
HETATM    8  C   UNL     1     -39.643 -47.940  11.726  1.00  0.00     0.069 C 
HETATM    9  C   UNL     1     -38.296 -50.008  12.069  1.00  0.00     0.028 A 
HETATM   10  C   UNL     1     -38.112 -51.298  12.788  1.00  0.00     0.256 A 
HETATM   11  C   UNL     1     -37.290 -49.634  11.025  1.00  0.00     0.056 C 
HETATM   12  O   UNL     1     -37.136 -52.013  12.570  1.00  0.00    -0.267 OA
ENDBRANCH   2   3
ENDBRANCH   1   2
BRANCH   1  13
HETATM   13  O   UNL     1     -38.810 -55.060  13.399  1.00  0.00    -0.394 OA
HETATM   14  H   UNL     1     -37.917 -54.731  13.589  1.00  0.00     0.210 HD
ENDBRANCH   1  13
BRANCH   1  15
HETATM   15  C   UNL     1     -40.867 -54.603  14.657  1.00  0.00     0.072 C 
BRANCH  15  16
HETATM   16  C   UNL     1     -42.252 -54.176  14.219  1.00  0.00    -0.056 A 
HETATM   17  C   UNL     1     -42.427 -53.486  13.011  1.00  0.00     0.008 A 
HETATM   18  C   UNL     1     -43.672 -52.956  12.667  1.00  0.00     0.017 A 
HETATM   19  C   UNL     1     -44.772 -53.115  13.520  1.00  0.00     0.047 A 
HETATM   20  C   UNL     1     -44.613 -53.865  14.695  1.00  0.00     0.017 A 
HETATM   21  C   UNL     1     -43.364 -54.388  15.044  1.00  0.00     0.008 A 
BRANCH  19  22
HETATM   22  C   UNL     1     -46.095 -52.458  13.210  1.00  0.00     0.417 C 
HETATM   23  F   UNL     1     -46.131 -51.131  13.523  1.00  0.00    -0.166 F 
HETATM   24  F   UNL     1     -46.429 -52.539  11.893  1.00  0.00    -0.166 F 
HETATM   25  F   UNL     1     -47.129 -53.026  13.893  1.00  0.00    -0.166 F 
ENDBRANCH  19  22
ENDBRANCH  15  16
ENDBRANCH   1  15
TORSDOF 6
ENDMDL
MODEL 2
REMARK VINA RESULT:      -6.6      1.876      2.337
REMARK  6 active torsions:
REMARK  status: ('A' for Active; 'I' for Inactive)
REMARK    1  A    between atoms: N_6  and  C_7 
REMARK    2  A    between atoms: C_7  and  C_8 
REMARK    3  A    between atoms: C_8  and  O_9 
REMARK    4  A    between atoms: C_8  and  C_10 
REMARK    5  A    between atoms: C_10  and  C_11 
REMARK    6  A    between atoms: C_14  and  C_17 
ROOT
HETATM    1  C   UNL     1     -40.113 -53.792  13.406  1.00  0.00     0.141 C 
ENDROOT
BRANCH   1   2
HETATM    2  C   UNL     1     -39.828 -52.388  13.975  1.00  0.00     0.165 C 
BRANCH   2   3
HETATM    3  N   UNL     1     -40.414 -51.324  13.157  1.00  0.00    -0.308 N 
HETATM    4  C   UNL     1     -39.998 -51.135  11.865  1.00  0.00     0.186 A 
HETATM    5  N   UNL     1     -40.454 -50.232  11.066  1.00  0.00    -0.355 N 
HETATM    6  C   UNL     1     -41.446 -49.410  11.540  1.00  0.00     0.017 A 
ATOM      7  HN  UNL     1     -40.091 -50.132  10.118  1.00  0.00     0.166 HD
HETATM    8  C   UNL     1     -41.901 -48.353  10.566  1.00  0.00     0.069 C 
HETATM    9  C   UNL     1     -41.987 -49.518  12.768  1.00  0.00     0.028 A 
HETATM   10  C   UNL     1     -41.460 -50.587  13.659  1.00  0.00     0.256 A 
HETATM   11  C   UNL     1     -43.078 -48.637  13.293  1.00  0.00     0.056 C 
HETATM   12  O   UNL     1     -41.941 -50.777  14.775  1.00  0.00    -0.267 OA
ENDBRANCH   2   3
ENDBRANCH   1   2
BRANCH   1  13
HETATM   13  O   UNL     1     -38.859 -54.479  13.263  1.00  0.00    -0.394 OA
HETATM   14  H   UNL     1     -38.974 -55.399  13.547  1.00  0.00     0.210 HD
ENDBRANCH   1  13
BRANCH   1  15
HETATM   15  C   UNL     1     -41.067 -54.582  14.330  1.00  0.00     0.072 C 
BRANCH  15  16
HETATM   16  C   UNL     1     -42.512 -54.163  14.159  1.00  0.00    -0.056 A 
HETATM   17  C   UNL     1     -43.003 -53.835  12.888  1.00  0.00     0.008 A 
HETATM   18  C   UNL     1     -44.286 -53.304  12.736  1.00  0.00     0.017 A 
HETATM   19  C   UNL     1     -45.109 -53.101  13.851  1.00  0.00     0.047 A 
HETATM   20  C   UNL     1     -44.642 -53.494  15.115  1.00  0.00     0.017 A 
HETATM   21  C   UNL     1     -43.354 -54.017  15.269  1.00  0.00     0.008 A 
BRANCH  19  22
HETATM   22  C   UNL     1     -46.454 -52.433  13.712  1.00  0.00     0.417 C 
HETATM   23  F   UNL     1     -46.491 -51.169  14.224  1.00  0.00    -0.166 F 
HETATM   24  F   UNL     1     -46.856 -52.321  12.416  1.00  0.00    -0.166 F 
HETATM   25  F   UNL     1     -47.444 -53.117  14.352  1.00  0.00    -0.166 F 
ENDBRANCH  19  22
ENDBRANCH  15  16
ENDBRANCH   1  15
TORSDOF 6
ENDMDL
MODEL 3
REMARK VINA RESULT:      -6.6      3.929      6.260
REMARK  6 active torsions:
REMARK  status: ('A' for Active; 'I' for Inactive)
REMARK    1  A    between atoms: N_6  and  C_7 
REMARK    2  A    between atoms: C_7  and  C_8 
REMARK    3  A    between atoms: C_8  and  O_9 
REMARK    4  A    between atoms: C_8  and  C_10 
REMARK    5  A    between atoms: C_10  and  C_11 
REMARK    6  A    between atoms: C_14  and  C_17 
ROOT
HETATM    1  C   UNL     1     -40.654 -46.907  12.049  1.00  0.00     0.141 C 
ENDROOT
BRANCH   1   2
HETATM    2  C   UNL     1     -39.459 -47.844  11.780  1.00  0.00     0.165 C 
BRANCH   2   3
HETATM    3  N   UNL     1     -39.775 -49.246  12.060  1.00  0.00    -0.308 N 
HETATM    4  C   UNL     1     -40.513 -49.980  11.170  1.00  0.00     0.186 A 
HETATM    5  N   UNL     1     -40.839 -51.218  11.322  1.00  0.00    -0.355 N 
HETATM    6  C   UNL     1     -40.393 -51.855  12.454  1.00  0.00     0.017 A 
ATOM      7  HN  UNL     1     -41.405 -51.706  10.628  1.00  0.00     0.166 HD
HETATM    8  C   UNL     1     -40.847 -53.286  12.585  1.00  0.00     0.069 C 
HETATM    9  C   UNL     1     -39.615 -51.273  13.385  1.00  0.00     0.028 A 
HETATM   10  C   UNL     1     -39.233 -49.851  13.169  1.00  0.00     0.256 A 
HETATM   11  C   UNL     1     -39.112 -51.959  14.617  1.00  0.00     0.056 C 
HETATM   12  O   UNL     1     -38.483 -49.270  13.951  1.00  0.00    -0.267 OA
ENDBRANCH   2   3
ENDBRANCH   1   2
BRANCH   1  13
HETATM   13  O   UNL     1     -40.251 -45.943  13.036  1.00  0.00    -0.394 OA
HETATM   14  H   UNL     1     -39.295 -46.026  13.181  1.00  0.00     0.210 HD
ENDBRANCH   1  13
BRANCH   1  15
HETATM   15  C   UNL     1     -41.110 -46.203  10.752  1.00  0.00     0.072 C 
BRANCH  15  16
HETATM   16  C   UNL     1     -42.528 -46.569  10.367  1.00  0.00    -0.056 A 
HETATM   17  C   UNL     1     -43.222 -47.549  11.090  1.00  0.00     0.008 A 
HETATM   18  C   UNL     1     -44.470 -48.003  10.657  1.00  0.00     0.017 A 
HETATM   19  C   UNL     1     -45.054 -47.478   9.497  1.00  0.00     0.047 A 
HETATM   20  C   UNL     1     -44.390 -46.449   8.813  1.00  0.00     0.017 A 
HETATM   21  C   UNL     1     -43.137 -46.000   9.241  1.00  0.00     0.008 A 
BRANCH  19  22
HETATM   22  C   UNL     1     -46.351 -48.034   8.962  1.00  0.00     0.417 C 
HETATM   23  F   UNL     1     -46.271 -48.456   7.667  1.00  0.00    -0.166 F 
HETATM   24  F   UNL     1     -46.801 -49.103   9.674  1.00  0.00    -0.166 F 
HETATM   25  F   UNL     1     -47.359 -47.117   8.988  1.00  0.00    -0.166 F 
ENDBRANCH  19  22
ENDBRANCH  15  16
ENDBRANCH   1  15
TORSDOF 6
ENDMDL
MODEL 4
REMARK VINA RESULT:      -6.4      1.912      2.644
REMARK  6 active torsions:
REMARK  status: ('A' for Active; 'I' for Inactive)
REMARK    1  A    between atoms: N_6  and  C_7 
REMARK    2  A    between atoms: C_7  and  C_8 
REMARK    3  A    between atoms: C_8  and  O_9 
REMARK    4  A    between atoms: C_8  and  C_10 
REMARK    5  A    between atoms: C_10  and  C_11 
REMARK    6  A    between atoms: C_14  and  C_17 
ROOT
HETATM    1  C   UNL     1     -40.815 -52.503  12.494  1.00  0.00     0.141 C 
ENDROOT
BRANCH   1   2
HETATM    2  C   UNL     1     -39.577 -51.646  12.824  1.00  0.00     0.165 C 
BRANCH   2   3
HETATM    3  N   UNL     1     -39.742 -50.248  12.421  1.00  0.00    -0.308 N 
HETATM    4  C   UNL     1     -40.379 -49.935  11.250  1.00  0.00     0.186 A 
HETATM    5  N   UNL     1     -40.577 -48.739  10.812  1.00  0.00    -0.355 N 
HETATM    6  C   UNL     1     -40.134 -47.699  11.590  1.00  0.00     0.017 A 
ATOM      7  HN  UNL     1     -41.045 -48.571   9.921  1.00  0.00     0.166 HD
HETATM    8  C   UNL     1     -40.363 -46.332  10.997  1.00  0.00     0.069 C 
HETATM    9  C   UNL     1     -39.542 -47.857  12.789  1.00  0.00     0.028 A 
HETATM   10  C   UNL     1     -39.350 -49.248  13.281  1.00  0.00     0.256 A 
HETATM   11  C   UNL     1     -39.065 -46.732  13.653  1.00  0.00     0.056 C 
HETATM   12  O   UNL     1     -38.863 -49.468  14.388  1.00  0.00    -0.267 OA
ENDBRANCH   2   3
ENDBRANCH   1   2
BRANCH   1  13
HETATM   13  O   UNL     1     -40.464 -53.403  11.430  1.00  0.00    -0.394 OA
HETATM   14  H   UNL     1     -41.263 -53.612  10.922  1.00  0.00     0.210 HD
ENDBRANCH   1  13
BRANCH   1  15
HETATM   15  C   UNL     1     -41.295 -53.286  13.737  1.00  0.00     0.072 C 
BRANCH  15  16
HETATM   16  C   UNL     1     -42.667 -52.846  14.199  1.00  0.00    -0.056 A 
HETATM   17  C   UNL     1     -43.635 -53.801  14.538  1.00  0.00     0.008 A 
HETATM   18  C   UNL     1     -44.948 -53.416  14.821  1.00  0.00     0.017 A 
HETATM   19  C   UNL     1     -45.316 -52.066  14.783  1.00  0.00     0.047 A 
HETATM   20  C   UNL     1     -44.331 -51.105  14.512  1.00  0.00     0.017 A 
HETATM   21  C   UNL     1     -43.019 -51.490  14.219  1.00  0.00     0.008 A 
BRANCH  19  22
HETATM   22  C   UNL     1     -46.752 -51.647  14.984  1.00  0.00     0.417 C 
HETATM   23  F   UNL     1     -47.599 -52.693  15.205  1.00  0.00    -0.166 F 
HETATM   24  F   UNL     1     -46.914 -50.807  16.043  1.00  0.00    -0.166 F 
HETATM   25  F   UNL     1     -47.257 -50.987  13.903  1.00  0.00    -0.166 F 
ENDBRANCH  19  22
ENDBRANCH  15  16
ENDBRANCH   1  15
TORSDOF 6
ENDMDL
MODEL 5
REMARK VINA RESULT:      -6.3      2.779      4.097
REMARK  6 active torsions:
REMARK  status: ('A' for Active; 'I' for Inactive)
REMARK    1  A    between atoms: N_6  and  C_7 
REMARK    2  A    between atoms: C_7  and  C_8 
REMARK    3  A    between atoms: C_8  and  O_9 
REMARK    4  A    between atoms: C_8  and  C_10 
REMARK    5  A    between atoms: C_10  and  C_11 
REMARK    6  A    between atoms: C_14  and  C_17 
ROOT
HETATM    1  C   UNL     1     -40.023 -50.485  11.956  1.00  0.00     0.141 C 
ENDROOT
BRANCH   1   2
HETATM    2  C   UNL     1     -39.802 -48.970  12.141  1.00  0.00     0.165 C 
BRANCH   2   3
HETATM    3  N   UNL     1     -40.754 -48.169  11.369  1.00  0.00    -0.308 N 
HETATM    4  C   UNL     1     -41.514 -48.751  10.389  1.00  0.00     0.186 A 
HETATM    5  N   UNL     1     -42.380 -48.134   9.660  1.00  0.00    -0.355 N 
HETATM    6  C   UNL     1     -42.568 -46.795   9.898  1.00  0.00     0.017 A 
ATOM      7  HN  UNL     1     -42.905 -48.621   8.934  1.00  0.00     0.166 HD
HETATM    8  C   UNL     1     -43.563 -46.131   8.981  1.00  0.00     0.069 C 
HETATM    9  C   UNL     1     -41.931 -46.108  10.864  1.00  0.00     0.028 A 
HETATM   10  C   UNL     1     -40.957 -46.852  11.708  1.00  0.00     0.256 A 
HETATM   11  C   UNL     1     -42.136 -44.651  11.142  1.00  0.00     0.056 C 
HETATM   12  O   UNL     1     -40.376 -46.302  12.641  1.00  0.00    -0.267 OA
ENDBRANCH   2   3
ENDBRANCH   1   2
BRANCH   1  13
HETATM   13  O   UNL     1     -38.753 -51.088  11.660  1.00  0.00    -0.394 OA
HETATM   14  H   UNL     1     -38.595 -51.028  10.704  1.00  0.00     0.210 HD
ENDBRANCH   1  13
BRANCH   1  15
HETATM   15  C   UNL     1     -40.644 -51.114  13.224  1.00  0.00     0.072 C 
BRANCH  15  16
HETATM   16  C   UNL     1     -42.139 -51.308  13.097  1.00  0.00    -0.056 A 
HETATM   17  C   UNL     1     -43.018 -50.305  13.529  1.00  0.00     0.008 A 
HETATM   18  C   UNL     1     -44.397 -50.529  13.557  1.00  0.00     0.017 A 
HETATM   19  C   UNL     1     -44.926 -51.758  13.143  1.00  0.00     0.047 A 
HETATM   20  C   UNL     1     -44.051 -52.736  12.645  1.00  0.00     0.017 A 
HETATM   21  C   UNL     1     -42.670 -52.516  12.625  1.00  0.00     0.008 A 
BRANCH  19  22
HETATM   22  C   UNL     1     -46.401 -52.050  13.267  1.00  0.00     0.417 C 
HETATM   23  F   UNL     1     -47.045 -52.123  12.066  1.00  0.00    -0.166 F 
HETATM   24  F   UNL     1     -46.655 -53.229  13.897  1.00  0.00    -0.166 F 
HETATM   25  F   UNL     1     -47.061 -51.095  13.980  1.00  0.00    -0.166 F 
ENDBRANCH  19  22
ENDBRANCH  15  16
ENDBRANCH   1  15
TORSDOF 6
ENDMDL
MODEL 6
REMARK VINA RESULT:      -6.3      2.283      3.593
REMARK  6 active torsions:
REMARK  status: ('A' for Active; 'I' for Inactive)
REMARK    1  A    between atoms: N_6  and  C_7 
REMARK    2  A    between atoms: C_7  and  C_8 
REMARK    3  A    between atoms: C_8  and  O_9 
REMARK    4  A    between atoms: C_8  and  C_10 
REMARK    5  A    between atoms: C_10  and  C_11 
REMARK    6  A    between atoms: C_14  and  C_17 
ROOT
HETATM    1  C   UNL     1     -38.211 -51.062  12.671  1.00  0.00     0.141 C 
ENDROOT
BRANCH   1   2
HETATM    2  C   UNL     1     -38.177 -49.522  12.615  1.00  0.00     0.165 C 
BRANCH   2   3
HETATM    3  N   UNL     1     -39.334 -48.962  11.913  1.00  0.00    -0.308 N 
HETATM    4  C   UNL     1     -40.080 -49.746  11.073  1.00  0.00     0.186 A 
HETATM    5  N   UNL     1     -41.115 -49.350  10.416  1.00  0.00    -0.355 N 
HETATM    6  C   UNL     1     -41.513 -48.047  10.588  1.00  0.00     0.017 A 
ATOM      7  HN  UNL     1     -41.620 -49.979   9.792  1.00  0.00     0.166 HD
HETATM    8  C   UNL     1     -42.705 -47.643   9.758  1.00  0.00     0.069 C 
HETATM    9  C   UNL     1     -40.909 -47.182  11.423  1.00  0.00     0.028 A 
HETATM   10  C   UNL     1     -39.732 -47.675  12.189  1.00  0.00     0.256 A 
HETATM   11  C   UNL     1     -41.340 -45.763  11.630  1.00  0.00     0.056 C 
HETATM   12  O   UNL     1     -39.161 -46.957  13.007  1.00  0.00    -0.267 OA
ENDBRANCH   2   3
ENDBRANCH   1   2
BRANCH   1  13
HETATM   13  O   UNL     1     -36.872 -51.545  12.473  1.00  0.00    -0.394 OA
HETATM   14  H   UNL     1     -36.658 -52.170  13.184  1.00  0.00     0.210 HD
ENDBRANCH   1  13
BRANCH   1  15
HETATM   15  C   UNL     1     -38.776 -51.556  14.022  1.00  0.00     0.072 C 
BRANCH  15  16
HETATM   16  C   UNL     1     -40.110 -52.255  13.866  1.00  0.00    -0.056 A 
HETATM   17  C   UNL     1     -41.303 -51.546  14.064  1.00  0.00     0.008 A 
HETATM   18  C   UNL     1     -42.532 -52.208  14.071  1.00  0.00     0.017 A 
HETATM   19  C   UNL     1     -42.595 -53.593  13.870  1.00  0.00     0.047 A 
HETATM   20  C   UNL     1     -41.407 -54.291  13.604  1.00  0.00     0.017 A 
HETATM   21  C   UNL     1     -40.175 -53.629  13.605  1.00  0.00     0.008 A 
BRANCH  19  22
HETATM   22  C   UNL     1     -43.904 -54.335  13.980  1.00  0.00     0.417 C 
HETATM   23  F   UNL     1     -44.836 -53.686  14.735  1.00  0.00    -0.166 F 
HETATM   24  F   UNL     1     -44.491 -54.552  12.771  1.00  0.00    -0.166 F 
HETATM   25  F   UNL     1     -43.759 -55.564  14.551  1.00  0.00    -0.166 F 
ENDBRANCH  19  22
ENDBRANCH  15  16
ENDBRANCH   1  15
TORSDOF 6
ENDMDL
MODEL 7
REMARK VINA RESULT:      -6.2      2.511      3.408
REMARK  6 active torsions:
REMARK  status: ('A' for Active; 'I' for Inactive)
REMARK    1  A    between atoms: N_6  and  C_7 
REMARK    2  A    between atoms: C_7  and  C_8 
REMARK    3  A    between atoms: C_8  and  O_9 
REMARK    4  A    between atoms: C_8  and  C_10 
REMARK    5  A    between atoms: C_10  and  C_11 
REMARK    6  A    between atoms: C_14  and  C_17 
ROOT
HETATM    1  C   UNL     1     -40.404 -50.194  11.647  1.00  0.00     0.141 C 
ENDROOT
BRANCH   1   2
HETATM    2  C   UNL     1     -38.984 -49.858  12.144  1.00  0.00     0.165 C 
BRANCH   2   3
HETATM    3  N   UNL     1     -38.975 -48.756  13.109  1.00  0.00    -0.308 N 
HETATM    4  C   UNL     1     -39.900 -47.750  13.018  1.00  0.00     0.186 A 
HETATM    5  N   UNL     1     -39.978 -46.743  13.819  1.00  0.00    -0.355 N 
HETATM    6  C   UNL     1     -39.077 -46.686  14.853  1.00  0.00     0.017 A 
ATOM      7  HN  UNL     1     -40.682 -46.016  13.689  1.00  0.00     0.166 HD
HETATM    8  C   UNL     1     -39.201 -45.461  15.723  1.00  0.00     0.069 C 
HETATM    9  C   UNL     1     -38.151 -47.632  15.095  1.00  0.00     0.028 A 
HETATM   10  C   UNL     1     -38.102 -48.797  14.170  1.00  0.00     0.256 A 
HETATM   11  C   UNL     1     -37.172 -47.589  16.227  1.00  0.00     0.056 C 
HETATM   12  O   UNL     1     -37.317 -49.723  14.358  1.00  0.00    -0.267 OA
ENDBRANCH   2   3
ENDBRANCH   1   2
BRANCH   1  13
HETATM   13  O   UNL     1     -40.423 -50.043  10.218  1.00  0.00    -0.394 OA
HETATM   14  H   UNL     1     -41.345 -50.034   9.918  1.00  0.00     0.210 HD
ENDBRANCH   1  13
BRANCH   1  15
HETATM   15  C   UNL     1     -40.808 -51.630  12.050  1.00  0.00     0.072 C 
BRANCH  15  16
HETATM   16  C   UNL     1     -42.235 -51.707  12.548  1.00  0.00    -0.056 A 
HETATM   17  C   UNL     1     -42.981 -52.881  12.368  1.00  0.00     0.008 A 
HETATM   18  C   UNL     1     -44.340 -52.917  12.685  1.00  0.00     0.017 A 
HETATM   19  C   UNL     1     -44.981 -51.783  13.200  1.00  0.00     0.047 A 
HETATM   20  C   UNL     1     -44.219 -50.630  13.444  1.00  0.00     0.017 A 
HETATM   21  C   UNL     1     -42.860 -50.590  13.118  1.00  0.00     0.008 A 
BRANCH  19  22
HETATM   22  C   UNL     1     -46.469 -51.777  13.447  1.00  0.00     0.417 C 
HETATM   23  F   UNL     1     -47.200 -51.370  12.370  1.00  0.00    -0.166 F 
HETATM   24  F   UNL     1     -46.953 -53.005  13.782  1.00  0.00    -0.166 F 
HETATM   25  F   UNL     1     -46.823 -50.945  14.467  1.00  0.00    -0.166 F 
ENDBRANCH  19  22
ENDBRANCH  15  16
ENDBRANCH   1  15
TORSDOF 6
ENDMDL
MODEL 8
REMARK VINA RESULT:      -6.1      4.132      6.801
REMARK  6 active torsions:
REMARK  status: ('A' for Active; 'I' for Inactive)
REMARK    1  A    between atoms: N_6  and  C_7 
REMARK    2  A    between atoms: C_7  and  C_8 
REMARK    3  A    between atoms: C_8  and  O_9 
REMARK    4  A    between atoms: C_8  and  C_10 
REMARK    5  A    between atoms: C_10  and  C_11 
REMARK    6  A    between atoms: C_14  and  C_17 
ROOT
HETATM    1  C   UNL     1     -41.854 -54.335  14.647  1.00  0.00     0.141 C 
ENDROOT
BRANCH   1   2
HETATM    2  C   UNL     1     -43.249 -54.962  14.450  1.00  0.00     0.165 C 
BRANCH   2   3
HETATM    3  N   UNL     1     -44.331 -54.006  14.696  1.00  0.00    -0.308 N 
HETATM    4  C   UNL     1     -44.697 -53.690  15.977  1.00  0.00     0.186 A 
HETATM    5  N   UNL     1     -45.630 -52.860  16.296  1.00  0.00    -0.355 N 
HETATM    6  C   UNL     1     -46.294 -52.230  15.273  1.00  0.00     0.017 A 
ATOM      7  HN  UNL     1     -45.867 -52.678  17.272  1.00  0.00     0.166 HD
HETATM    8  C   UNL     1     -47.398 -51.306  15.719  1.00  0.00     0.069 C 
HETATM    9  C   UNL     1     -46.002 -52.403  13.971  1.00  0.00     0.028 A 
HETATM   10  C   UNL     1     -44.902 -53.346  13.633  1.00  0.00     0.256 A 
HETATM   11  C   UNL     1     -46.708 -51.713  12.846  1.00  0.00     0.056 C 
HETATM   12  O   UNL     1     -44.546 -53.516  12.468  1.00  0.00    -0.267 OA
ENDBRANCH   2   3
ENDBRANCH   1   2
BRANCH   1  13
HETATM   13  O   UNL     1     -41.129 -55.146  15.586  1.00  0.00    -0.394 OA
HETATM   14  H   UNL     1     -41.744 -55.456  16.269  1.00  0.00     0.210 HD
ENDBRANCH   1  13
BRANCH   1  15
HETATM   15  C   UNL     1     -41.094 -54.240  13.305  1.00  0.00     0.072 C 
BRANCH  15  16
HETATM   16  C   UNL     1     -40.409 -52.902  13.125  1.00  0.00    -0.056 A 
HETATM   17  C   UNL     1     -40.891 -51.988  12.178  1.00  0.00     0.008 A 
HETATM   18  C   UNL     1     -40.184 -50.817  11.895  1.00  0.00     0.017 A 
HETATM   19  C   UNL     1     -38.987 -50.530  12.562  1.00  0.00     0.047 A 
HETATM   20  C   UNL     1     -38.542 -51.412  13.559  1.00  0.00     0.017 A 
HETATM   21  C   UNL     1     -39.243 -52.589  13.836  1.00  0.00     0.008 A 
BRANCH  19  22
HETATM   22  C   UNL     1     -38.162 -49.323  12.192  1.00  0.00     0.417 C 
HETATM   23  F   UNL     1     -37.195 -49.586  11.265  1.00  0.00    -0.166 F 
HETATM   24  F   UNL     1     -38.910 -48.312  11.671  1.00  0.00    -0.166 F 
HETATM   25  F   UNL     1     -37.508 -48.791  13.263  1.00  0.00    -0.166 F 
ENDBRANCH  19  22
ENDBRANCH  15  16
ENDBRANCH   1  15
TORSDOF 6
ENDMDL
MODEL 9
REMARK VINA RESULT:      -6.1      4.043      6.001
REMARK  6 active torsions:
REMARK  status: ('A' for Active; 'I' for Inactive)
REMARK    1  A    between atoms: N_6  and  C_7 
REMARK    2  A    between atoms: C_7  and  C_8 
REMARK    3  A    between atoms: C_8  and  O_9 
REMARK    4  A    between atoms: C_8  and  C_10 
REMARK    5  A    between atoms: C_10  and  C_11 
REMARK    6  A    between atoms: C_14  and  C_17 
ROOT
HETATM    1  C   UNL     1     -45.714 -52.857  13.031  1.00  0.00     0.141 C 
ENDROOT
BRANCH   1   2
HETATM    2  C   UNL     1     -44.915 -54.175  12.991  1.00  0.00     0.165 C 
BRANCH   2   3
HETATM    3  N   UNL     1     -43.518 -53.993  13.392  1.00  0.00    -0.308 N 
HETATM    4  C   UNL     1     -42.722 -53.090  12.739  1.00  0.00     0.186 A 
HETATM    5  N   UNL     1     -41.486 -52.855  13.018  1.00  0.00    -0.355 N 
HETATM    6  C   UNL     1     -40.931 -53.549  14.065  1.00  0.00     0.017 A 
ATOM      7  HN  UNL     1     -40.940 -52.180  12.483  1.00  0.00     0.166 HD
HETATM    8  C   UNL     1     -39.473 -53.254  14.307  1.00  0.00     0.069 C 
HETATM    9  C   UNL     1     -41.610 -54.425  14.828  1.00  0.00     0.028 A 
HETATM   10  C   UNL     1     -43.043 -54.656  14.499  1.00  0.00     0.256 A 
HETATM   11  C   UNL     1     -41.021 -55.179  15.980  1.00  0.00     0.056 C 
HETATM   12  O   UNL     1     -43.738 -55.404  15.183  1.00  0.00    -0.267 OA
ENDBRANCH   2   3
ENDBRANCH   1   2
BRANCH   1  13
HETATM   13  O   UNL     1     -46.345 -52.680  11.753  1.00  0.00    -0.394 OA
HETATM   14  H   UNL     1     -46.216 -51.762  11.465  1.00  0.00     0.210 HD
ENDBRANCH   1  13
BRANCH   1  15
HETATM   15  C   UNL     1     -46.767 -52.880  14.162  1.00  0.00     0.072 C 
BRANCH  15  16
HETATM   16  C   UNL     1     -46.495 -51.835  15.222  1.00  0.00    -0.056 A 
HETATM   17  C   UNL     1     -45.235 -51.225  15.303  1.00  0.00     0.008 A 
HETATM   18  C   UNL     1     -44.923 -50.373  16.364  1.00  0.00     0.017 A 
HETATM   19  C   UNL     1     -45.869 -50.102  17.361  1.00  0.00     0.047 A 
HETATM   20  C   UNL     1     -47.152 -50.658  17.242  1.00  0.00     0.017 A 
HETATM   21  C   UNL     1     -47.463 -51.519  16.185  1.00  0.00     0.008 A 
BRANCH  19  22
HETATM   22  C   UNL     1     -45.511 -49.268  18.566  1.00  0.00     0.417 C 
HETATM   23  F   UNL     1     -46.391 -49.397  19.600  1.00  0.00    -0.166 F 
HETATM   24  F   UNL     1     -44.288 -49.577  19.078  1.00  0.00    -0.166 F 
HETATM   25  F   UNL     1     -45.470 -47.935  18.282  1.00  0.00    -0.166 F 
ENDBRANCH  19  22
ENDBRANCH  15  16
ENDBRANCH   1  15
TORSDOF 6
ENDMDL
