MODEL 1
REMARK VINA RESULT:      -6.1      0.000      0.000
REMARK  4 active torsions:
REMARK  status: ('A' for Active; 'I' for Inactive)
REMARK    1  A    between atoms: N_6  and  C_7 
REMARK    2  A    between atoms: C_7  and  C_8 
REMARK    3  A    between atoms: C_8  and  O_9 
REMARK    4  A    between atoms: C_8  and  C_10 
ROOT
HETATM    1  C   UNL     1     -44.546 -54.083  12.890  1.00  0.00     0.169 C 
ENDROOT
BRANCH   1   2
HETATM    2  N   UNL     1     -43.201 -54.101  13.459  1.00  0.00    -0.307 N 
HETATM    3  C   UNL     1     -42.164 -53.504  12.794  1.00  0.00     0.186 A 
HETATM    4  N   UNL     1     -40.932 -53.514  13.179  1.00  0.00    -0.355 N 
HETATM    5  C   UNL     1     -40.644 -54.174  14.347  1.00  0.00     0.017 A 
ATOM      6  HN  UNL     1     -40.202 -53.050  12.638  1.00  0.00     0.166 HD
HETATM    7  C   UNL     1     -39.179 -54.190  14.707  1.00  0.00     0.069 C 
HETATM    8  C   UNL     1     -41.571 -54.762  15.128  1.00  0.00     0.028 A 
HETATM    9  C   UNL     1     -42.988 -54.704  14.677  1.00  0.00     0.256 A 
HETATM   10  C   UNL     1     -41.267 -55.477  16.407  1.00  0.00     0.056 C 
HETATM   11  O   UNL     1     -43.894 -55.184  15.356  1.00  0.00    -0.267 OA
ENDBRANCH   1   2
BRANCH   1  12
HETATM   12  C   UNL     1     -45.133 -52.662  12.732  1.00  0.00     0.172 C 
BRANCH  12  13
HETATM   13  O   UNL     1     -46.233 -52.689  11.816  1.00  0.00    -0.389 OA
HETATM   14  H   UNL     1     -46.879 -52.018  12.102  1.00  0.00     0.210 HD
ENDBRANCH  12  13
BRANCH  12  15
HETATM   15  C   UNL     1     -45.594 -52.100  14.063  1.00  0.00     0.011 A 
HETATM   16  C   UNL     1     -46.854 -52.421  14.592  1.00  0.00     0.013 A 
HETATM   17  C   UNL     1     -47.283 -51.857  15.800  1.00  0.00     0.001 A 
HETATM   18  C   UNL     1     -46.462 -50.968  16.496  1.00  0.00     0.003 A 
HETATM   19  C   UNL     1     -45.203 -50.654  15.993  1.00  0.00     0.043 A 
HETATM   20  C   UNL     1     -44.781 -51.224  14.797  1.00  0.00     0.125 A 
HETATM   21  F   UNL     1     -43.553 -50.934  14.345  1.00  0.00    -0.205 F 
ENDBRANCH  12  15
ENDBRANCH   1  12
TORSDOF 4
ENDMDL
MODEL 2
REMARK VINA RESULT:      -6.0      4.427      5.834
REMARK  4 active torsions:
REMARK  status: ('A' for Active; 'I' for Inactive)
REMARK    1  A    between atoms: N_6  and  C_7 
REMARK    2  A    between atoms: C_7  and  C_8 
REMARK    3  A    between atoms: C_8  and  O_9 
REMARK    4  A    between atoms: C_8  and  C_10 
ROOT
HETATM    1  C   UNL     1     -40.211 -51.757  12.949  1.00  0.00     0.169 C 
ENDROOT
BRANCH   1   2
HETATM    2  N   UNL     1     -40.178 -50.352  12.551  1.00  0.00    -0.307 N 
HETATM    3  C   UNL     1     -40.673 -49.969  11.335  1.00  0.00     0.186 A 
HETATM    4  N   UNL     1     -40.638 -48.767  10.865  1.00  0.00    -0.355 N 
HETATM    5  C   UNL     1     -40.060 -47.802  11.649  1.00  0.00     0.017 A 
ATOM      6  HN  UNL     1     -41.025 -48.545   9.947  1.00  0.00     0.166 HD
HETATM    7  C   UNL     1     -40.006 -46.435  11.014  1.00  0.00     0.069 C 
HETATM    8  C   UNL     1     -39.577 -48.027  12.886  1.00  0.00     0.028 A 
HETATM    9  C   UNL     1     -39.663 -49.415  13.416  1.00  0.00     0.256 A 
HETATM   10  C   UNL     1     -38.951 -46.979  13.752  1.00  0.00     0.056 C 
HETATM   11  O   UNL     1     -39.278 -49.689  14.552  1.00  0.00    -0.267 OA
ENDBRANCH   1   2
BRANCH   1  12
HETATM   12  C   UNL     1     -41.266 -52.592  12.187  1.00  0.00     0.172 C 
BRANCH  12  13
HETATM   13  O   UNL     1     -40.618 -53.438  11.230  1.00  0.00    -0.389 OA
HETATM   14  H   UNL     1     -39.657 -53.375  11.376  1.00  0.00     0.210 HD
ENDBRANCH  12  13
BRANCH  12  15
HETATM   15  C   UNL     1     -42.096 -53.437  13.133  1.00  0.00     0.011 A 
HETATM   16  C   UNL     1     -41.530 -54.015  14.280  1.00  0.00     0.013 A 
HETATM   17  C   UNL     1     -42.299 -54.831  15.119  1.00  0.00     0.001 A 
HETATM   18  C   UNL     1     -43.641 -55.079  14.827  1.00  0.00     0.003 A 
HETATM   19  C   UNL     1     -44.221 -54.499  13.703  1.00  0.00     0.043 A 
HETATM   20  C   UNL     1     -43.452 -53.684  12.879  1.00  0.00     0.125 A 
HETATM   21  F   UNL     1     -44.038 -53.108  11.819  1.00  0.00    -0.205 F 
ENDBRANCH  12  15
ENDBRANCH   1  12
TORSDOF 4
ENDMDL
MODEL 3
REMARK VINA RESULT:      -5.9      4.039      5.699
REMARK  4 active torsions:
REMARK  status: ('A' for Active; 'I' for Inactive)
REMARK    1  A    between atoms: N_6  and  C_7 
REMARK    2  A    between atoms: C_7  and  C_8 
REMARK    3  A    between atoms: C_8  and  O_9 
REMARK    4  A    between atoms: C_8  and  C_10 
ROOT
HETATM    1  C   UNL     1     -40.907 -51.502  13.017  1.00  0.00     0.169 C 
ENDROOT
BRANCH   1   2
HETATM    2  N   UNL     1     -40.899 -50.172  12.413  1.00  0.00    -0.307 N 
HETATM    3  C   UNL     1     -39.789 -49.723  11.750  1.00  0.00     0.186 A 
HETATM    4  N   UNL     1     -39.657 -48.548  11.234  1.00  0.00    -0.355 N 
HETATM    5  C   UNL     1     -40.716 -47.684  11.361  1.00  0.00     0.017 A 
ATOM      6  HN  UNL     1     -38.802 -48.272  10.752  1.00  0.00     0.166 HD
HETATM    7  C   UNL     1     -40.471 -46.313  10.783  1.00  0.00     0.069 C 
HETATM    8  C   UNL     1     -41.886 -48.007  11.944  1.00  0.00     0.028 A 
HETATM    9  C   UNL     1     -42.022 -49.381  12.499  1.00  0.00     0.256 A 
HETATM   10  C   UNL     1     -43.048 -47.074  12.080  1.00  0.00     0.056 C 
HETATM   11  O   UNL     1     -43.074 -49.762  13.011  1.00  0.00    -0.267 OA
ENDBRANCH   1   2
BRANCH   1  12
HETATM   12  C   UNL     1     -41.525 -52.590  12.110  1.00  0.00     0.172 C 
BRANCH  12  13
HETATM   13  O   UNL     1     -40.492 -53.434  11.590  1.00  0.00    -0.389 OA
HETATM   14  H   UNL     1     -39.691 -52.892  11.475  1.00  0.00     0.210 HD
ENDBRANCH  12  13
BRANCH  12  15
HETATM   15  C   UNL     1     -42.539 -53.431  12.862  1.00  0.00     0.011 A 
HETATM   16  C   UNL     1     -43.895 -53.432  12.501  1.00  0.00     0.013 A 
HETATM   17  C   UNL     1     -44.826 -54.179  13.234  1.00  0.00     0.001 A 
HETATM   18  C   UNL     1     -44.417 -54.934  14.334  1.00  0.00     0.003 A 
HETATM   19  C   UNL     1     -43.073 -54.957  14.694  1.00  0.00     0.043 A 
HETATM   20  C   UNL     1     -42.153 -54.219  13.956  1.00  0.00     0.125 A 
HETATM   21  F   UNL     1     -40.859 -54.279  14.299  1.00  0.00    -0.205 F 
ENDBRANCH  12  15
ENDBRANCH   1  12
TORSDOF 4
ENDMDL
MODEL 4
REMARK VINA RESULT:      -5.9      2.740      3.403
REMARK  4 active torsions:
REMARK  status: ('A' for Active; 'I' for Inactive)
REMARK    1  A    between atoms: N_6  and  C_7 
REMARK    2  A    between atoms: C_7  and  C_8 
REMARK    3  A    between atoms: C_8  and  O_9 
REMARK    4  A    between atoms: C_8  and  C_10 
ROOT
HETATM    1  C   UNL     1     -42.301 -53.327  13.353  1.00  0.00     0.169 C 
ENDROOT
BRANCH   1   2
HETATM    2  N   UNL     1     -41.262 -52.364  12.996  1.00  0.00    -0.307 N 
HETATM    3  C   UNL     1     -41.301 -51.728  11.785  1.00  0.00     0.186 A 
HETATM    4  N   UNL     1     -40.405 -50.907  11.350  1.00  0.00    -0.355 N 
HETATM    5  C   UNL     1     -39.333 -50.655  12.168  1.00  0.00     0.017 A 
ATOM      6  HN  UNL     1     -40.490 -50.464  10.435  1.00  0.00     0.166 HD
HETATM    7  C   UNL     1     -38.301 -49.730  11.572  1.00  0.00     0.069 C 
HETATM    8  C   UNL     1     -39.191 -51.172  13.403  1.00  0.00     0.028 A 
HETATM    9  C   UNL     1     -40.257 -52.087  13.893  1.00  0.00     0.256 A 
HETATM   10  C   UNL     1     -38.029 -50.897  14.306  1.00  0.00     0.056 C 
HETATM   11  O   UNL     1     -40.216 -52.567  15.025  1.00  0.00    -0.267 OA
ENDBRANCH   1   2
BRANCH   1  12
HETATM   12  C   UNL     1     -43.656 -53.064  12.658  1.00  0.00     0.172 C 
BRANCH  12  13
HETATM   13  O   UNL     1     -44.202 -54.297  12.174  1.00  0.00    -0.389 OA
HETATM   14  H   UNL     1     -44.317 -54.893  12.936  1.00  0.00     0.210 HD
ENDBRANCH  12  13
BRANCH  12  15
HETATM   15  C   UNL     1     -44.645 -52.403  13.598  1.00  0.00     0.011 A 
HETATM   16  C   UNL     1     -44.316 -52.149  14.939  1.00  0.00     0.013 A 
HETATM   17  C   UNL     1     -45.257 -51.580  15.806  1.00  0.00     0.001 A 
HETATM   18  C   UNL     1     -46.535 -51.257  15.348  1.00  0.00     0.003 A 
HETATM   19  C   UNL     1     -46.869 -51.486  14.018  1.00  0.00     0.043 A 
HETATM   20  C   UNL     1     -45.927 -52.044  13.161  1.00  0.00     0.125 A 
HETATM   21  F   UNL     1     -46.258 -52.228  11.874  1.00  0.00    -0.205 F 
ENDBRANCH  12  15
ENDBRANCH   1  12
TORSDOF 4
ENDMDL
MODEL 5
REMARK VINA RESULT:      -5.9      3.234      5.978
REMARK  4 active torsions:
REMARK  status: ('A' for Active; 'I' for Inactive)
REMARK    1  A    between atoms: N_6  and  C_7 
REMARK    2  A    between atoms: C_7  and  C_8 
REMARK    3  A    between atoms: C_8  and  O_9 
REMARK    4  A    between atoms: C_8  and  C_10 
ROOT
HETATM    1  C   UNL     1     -42.213 -51.899  12.152  1.00  0.00     0.169 C 
ENDROOT
BRANCH   1   2
HETATM    2  N   UNL     1     -43.329 -52.471  12.902  1.00  0.00    -0.307 N 
HETATM    3  C   UNL     1     -43.372 -53.815  13.154  1.00  0.00     0.186 A 
HETATM    4  N   UNL     1     -44.337 -54.426  13.754  1.00  0.00    -0.355 N 
HETATM    5  C   UNL     1     -45.401 -53.666  14.170  1.00  0.00     0.017 A 
ATOM      6  HN  UNL     1     -44.311 -55.434  13.912  1.00  0.00     0.166 HD
HETATM    7  C   UNL     1     -46.514 -54.454  14.814  1.00  0.00     0.069 C 
HETATM    8  C   UNL     1     -45.469 -52.328  14.032  1.00  0.00     0.028 A 
HETATM    9  C   UNL     1     -44.325 -51.645  13.369  1.00  0.00     0.256 A 
HETATM   10  C   UNL     1     -46.621 -51.489  14.490  1.00  0.00     0.056 C 
HETATM   11  O   UNL     1     -44.299 -50.422  13.242  1.00  0.00    -0.267 OA
ENDBRANCH   1   2
BRANCH   1  12
HETATM   12  C   UNL     1     -40.839 -52.495  12.535  1.00  0.00     0.172 C 
BRANCH  12  13
HETATM   13  O   UNL     1     -40.437 -53.459  11.555  1.00  0.00    -0.389 OA
HETATM   14  H   UNL     1     -41.035 -53.378  10.791  1.00  0.00     0.210 HD
ENDBRANCH  12  13
BRANCH  12  15
HETATM   15  C   UNL     1     -39.779 -51.417  12.653  1.00  0.00     0.011 A 
HETATM   16  C   UNL     1     -39.856 -50.235  11.900  1.00  0.00     0.013 A 
HETATM   17  C   UNL     1     -38.845 -49.269  11.986  1.00  0.00     0.001 A 
HETATM   18  C   UNL     1     -37.747 -49.469  12.825  1.00  0.00     0.003 A 
HETATM   19  C   UNL     1     -37.667 -50.627  13.591  1.00  0.00     0.043 A 
HETATM   20  C   UNL     1     -38.678 -51.578  13.506  1.00  0.00     0.125 A 
HETATM   21  F   UNL     1     -38.598 -52.672  14.276  1.00  0.00    -0.205 F 
ENDBRANCH  12  15
ENDBRANCH   1  12
TORSDOF 4
ENDMDL
MODEL 6
REMARK VINA RESULT:      -5.6      5.097      6.077
REMARK  4 active torsions:
REMARK  status: ('A' for Active; 'I' for Inactive)
REMARK    1  A    between atoms: N_6  and  C_7 
REMARK    2  A    between atoms: C_7  and  C_8 
REMARK    3  A    between atoms: C_8  and  O_9 
REMARK    4  A    between atoms: C_8  and  C_10 
ROOT
HETATM    1  C   UNL     1     -40.571 -49.398  12.655  1.00  0.00     0.169 C 
ENDROOT
BRANCH   1   2
HETATM    2  N   UNL     1     -41.373 -50.619  12.675  1.00  0.00    -0.307 N 
HETATM    3  C   UNL     1     -42.739 -50.546  12.658  1.00  0.00     0.186 A 
HETATM    4  N   UNL     1     -43.537 -51.557  12.733  1.00  0.00    -0.355 N 
HETATM    5  C   UNL     1     -42.967 -52.801  12.835  1.00  0.00     0.017 A 
ATOM      6  HN  UNL     1     -44.550 -51.437  12.716  1.00  0.00     0.166 HD
HETATM    7  C   UNL     1     -43.959 -53.929  12.972  1.00  0.00     0.069 C 
HETATM    8  C   UNL     1     -41.639 -53.025  12.814  1.00  0.00     0.028 A 
HETATM    9  C   UNL     1     -40.744 -51.842  12.691  1.00  0.00     0.256 A 
HETATM   10  C   UNL     1     -41.008 -54.378  12.917  1.00  0.00     0.056 C 
HETATM   11  O   UNL     1     -39.522 -51.971  12.626  1.00  0.00    -0.267 OA
ENDBRANCH   1   2
BRANCH   1  12
HETATM   12  C   UNL     1     -40.259 -48.884  11.231  1.00  0.00     0.172 C 
BRANCH  12  13
HETATM   13  O   UNL     1     -40.377 -49.958  10.290  1.00  0.00    -0.389 OA
HETATM   14  H   UNL     1     -39.672 -49.854   9.626  1.00  0.00     0.210 HD
ENDBRANCH  12  13
BRANCH  12  15
HETATM   15  C   UNL     1     -41.187 -47.754  10.831  1.00  0.00     0.011 A 
HETATM   16  C   UNL     1     -42.352 -47.997  10.087  1.00  0.00     0.013 A 
HETATM   17  C   UNL     1     -43.175 -46.936   9.687  1.00  0.00     0.001 A 
HETATM   18  C   UNL     1     -42.847 -45.622  10.024  1.00  0.00     0.003 A 
HETATM   19  C   UNL     1     -41.705 -45.367  10.776  1.00  0.00     0.043 A 
HETATM   20  C   UNL     1     -40.897 -46.426  11.176  1.00  0.00     0.125 A 
HETATM   21  F   UNL     1     -39.818 -46.163  11.928  1.00  0.00    -0.205 F 
ENDBRANCH  12  15
ENDBRANCH   1  12
TORSDOF 4
ENDMDL
MODEL 7
REMARK VINA RESULT:      -5.4      3.462      4.234
REMARK  4 active torsions:
REMARK  status: ('A' for Active; 'I' for Inactive)
REMARK    1  A    between atoms: N_6  and  C_7 
REMARK    2  A    between atoms: C_7  and  C_8 
REMARK    3  A    between atoms: C_8  and  O_9 
REMARK    4  A    between atoms: C_8  and  C_10 
ROOT
HETATM    1  C   UNL     1     -41.953 -52.153  14.032  1.00  0.00     0.169 C 
ENDROOT
BRANCH   1   2
HETATM    2  N   UNL     1     -40.822 -51.229  14.000  1.00  0.00    -0.307 N 
HETATM    3  C   UNL     1     -40.807 -50.131  14.816  1.00  0.00     0.186 A 
HETATM    4  N   UNL     1     -39.888 -49.224  14.822  1.00  0.00    -0.355 N 
HETATM    5  C   UNL     1     -38.847 -49.379  13.943  1.00  0.00     0.017 A 
ATOM      6  HN  UNL     1     -39.934 -48.426  15.456  1.00  0.00     0.166 HD
HETATM    7  C   UNL     1     -37.840 -48.256  13.969  1.00  0.00     0.069 C 
HETATM    8  C   UNL     1     -38.708 -50.434  13.118  1.00  0.00     0.028 A 
HETATM    9  C   UNL     1     -39.765 -51.482  13.157  1.00  0.00     0.256 A 
HETATM   10  C   UNL     1     -37.572 -50.615  12.160  1.00  0.00     0.056 C 
HETATM   11  O   UNL     1     -39.686 -52.493  12.461  1.00  0.00    -0.267 OA
ENDBRANCH   1   2
BRANCH   1  12
HETATM   12  C   UNL     1     -43.037 -51.844  12.975  1.00  0.00     0.172 C 
BRANCH  12  13
HETATM   13  O   UNL     1     -42.764 -52.570  11.771  1.00  0.00    -0.389 OA
HETATM   14  H   UNL     1     -41.830 -52.843  11.791  1.00  0.00     0.210 HD
ENDBRANCH  12  13
BRANCH  12  15
HETATM   15  C   UNL     1     -44.423 -52.197  13.479  1.00  0.00     0.011 A 
HETATM   16  C   UNL     1     -45.376 -51.201  13.746  1.00  0.00     0.013 A 
HETATM   17  C   UNL     1     -46.636 -51.540  14.254  1.00  0.00     0.001 A 
HETATM   18  C   UNL     1     -46.962 -52.875  14.502  1.00  0.00     0.003 A 
HETATM   19  C   UNL     1     -46.034 -53.874  14.226  1.00  0.00     0.043 A 
HETATM   20  C   UNL     1     -44.788 -53.529  13.713  1.00  0.00     0.125 A 
HETATM   21  F   UNL     1     -43.920 -54.509  13.424  1.00  0.00    -0.205 F 
ENDBRANCH  12  15
ENDBRANCH   1  12
TORSDOF 4
ENDMDL
MODEL 8
REMARK VINA RESULT:      -5.3      3.311      5.680
REMARK  4 active torsions:
REMARK  status: ('A' for Active; 'I' for Inactive)
REMARK    1  A    between atoms: N_6  and  C_7 
REMARK    2  A    between atoms: C_7  and  C_8 
REMARK    3  A    between atoms: C_8  and  O_9 
REMARK    4  A    between atoms: C_8  and  C_10 
ROOT
HETATM    1  C   UNL     1     -42.468 -51.382  12.677  1.00  0.00     0.169 C 
ENDROOT
BRANCH   1   2
HETATM    2  N   UNL     1     -43.321 -52.073  13.640  1.00  0.00    -0.307 N 
HETATM    3  C   UNL     1     -43.363 -51.660  14.944  1.00  0.00     0.186 A 
HETATM    4  N   UNL     1     -44.034 -52.235  15.884  1.00  0.00    -0.355 N 
HETATM    5  C   UNL     1     -44.764 -53.347  15.545  1.00  0.00     0.017 A 
ATOM      6  HN  UNL     1     -44.024 -51.878  16.840  1.00  0.00     0.166 HD
HETATM    7  C   UNL     1     -45.479 -53.997  16.703  1.00  0.00     0.069 C 
HETATM    8  C   UNL     1     -44.854 -53.835  14.294  1.00  0.00     0.028 A 
HETATM    9  C   UNL     1     -44.097 -53.130  13.224  1.00  0.00     0.256 A 
HETATM   10  C   UNL     1     -45.653 -55.042  13.913  1.00  0.00     0.056 C 
HETATM   11  O   UNL     1     -44.162 -53.494  12.050  1.00  0.00    -0.267 OA
ENDBRANCH   1   2
BRANCH   1  12
HETATM   12  C   UNL     1     -41.165 -52.145  12.345  1.00  0.00     0.172 C 
BRANCH  12  13
HETATM   13  O   UNL     1     -41.230 -52.660  11.010  1.00  0.00    -0.389 OA
HETATM   14  H   UNL     1     -42.099 -52.423  10.639  1.00  0.00     0.210 HD
ENDBRANCH  12  13
BRANCH  12  15
HETATM   15  C   UNL     1     -39.947 -51.253  12.487  1.00  0.00     0.011 A 
HETATM   16  C   UNL     1     -38.964 -51.512  13.454  1.00  0.00     0.013 A 
HETATM   17  C   UNL     1     -37.868 -50.653  13.603  1.00  0.00     0.001 A 
HETATM   18  C   UNL     1     -37.738 -49.527  12.789  1.00  0.00     0.003 A 
HETATM   19  C   UNL     1     -38.695 -49.267  11.813  1.00  0.00     0.043 A 
HETATM   20  C   UNL     1     -39.776 -50.129  11.667  1.00  0.00     0.125 A 
HETATM   21  F   UNL     1     -40.671 -49.878  10.700  1.00  0.00    -0.205 F 
ENDBRANCH  12  15
ENDBRANCH   1  12
TORSDOF 4
ENDMDL
MODEL 9
REMARK VINA RESULT:      -5.3      2.161      2.987
REMARK  4 active torsions:
REMARK  status: ('A' for Active; 'I' for Inactive)
REMARK    1  A    between atoms: N_6  and  C_7 
REMARK    2  A    between atoms: C_7  and  C_8 
REMARK    3  A    between atoms: C_8  and  O_9 
REMARK    4  A    between atoms: C_8  and  C_10 
ROOT
HETATM    1  C   UNL     1     -43.104 -53.919  16.141  1.00  0.00     0.169 C 
ENDROOT
BRANCH   1   2
HETATM    2  N   UNL     1     -41.761 -54.459  16.332  1.00  0.00    -0.307 N 
HETATM    3  C   UNL     1     -40.664 -53.687  16.061  1.00  0.00     0.186 A 
HETATM    4  N   UNL     1     -39.439 -54.085  16.140  1.00  0.00    -0.355 N 
HETATM    5  C   UNL     1     -39.224 -55.384  16.526  1.00  0.00     0.017 A 
ATOM      6  HN  UNL     1     -38.662 -53.460  15.923  1.00  0.00     0.166 HD
HETATM    7  C   UNL     1     -37.772 -55.795  16.544  1.00  0.00     0.069 C 
HETATM    8  C   UNL     1     -40.205 -56.239  16.870  1.00  0.00     0.028 A 
HETATM    9  C   UNL     1     -41.606 -55.742  16.804  1.00  0.00     0.256 A 
HETATM   10  C   UNL     1     -39.980 -57.655  17.301  1.00  0.00     0.056 C 
HETATM   11  O   UNL     1     -42.552 -56.453  17.141  1.00  0.00    -0.267 OA
ENDBRANCH   1   2
BRANCH   1  12
HETATM   12  C   UNL     1     -43.698 -54.217  14.745  1.00  0.00     0.172 C 
BRANCH  12  13
HETATM   13  O   UNL     1     -44.265 -55.532  14.727  1.00  0.00    -0.389 OA
HETATM   14  H   UNL     1     -43.601 -56.140  14.357  1.00  0.00     0.210 HD
ENDBRANCH  12  13
BRANCH  12  15
HETATM   15  C   UNL     1     -44.758 -53.201  14.363  1.00  0.00     0.011 A 
HETATM   16  C   UNL     1     -45.428 -52.447  15.339  1.00  0.00     0.013 A 
HETATM   17  C   UNL     1     -46.436 -51.546  14.974  1.00  0.00     0.001 A 
HETATM   18  C   UNL     1     -46.788 -51.385  13.633  1.00  0.00     0.003 A 
HETATM   19  C   UNL     1     -46.120 -52.112  12.653  1.00  0.00     0.043 A 
HETATM   20  C   UNL     1     -45.114 -52.999  13.023  1.00  0.00     0.125 A 
HETATM   21  F   UNL     1     -44.461 -53.667  12.061  1.00  0.00    -0.205 F 
ENDBRANCH  12  15
ENDBRANCH   1  12
TORSDOF 4
ENDMDL
