MODEL 1
REMARK VINA RESULT:      -7.3      0.000      0.000
REMARK  7 active torsions:
REMARK  status: ('A' for Active; 'I' for Inactive)
REMARK    1  A    between atoms: N_2  and  C_3 
REMARK    2  A    between atoms: N_2  and  C_19 
REMARK    3  A    between atoms: C_3  and  C_4 
REMARK    4  A    between atoms: C_4  and  O_5 
REMARK    5  A    between atoms: C_4  and  C_6 
REMARK    6  A    between atoms: C_6  and  N_7 
REMARK    7  A    between atoms: C_19  and  C_20 
ROOT
HETATM    1  C   UNL     1     -41.922 -48.775  11.313  1.00  0.00     0.164 C 
ENDROOT
BRANCH   1   2
HETATM    2  C   UNL     1     -41.858 -47.240  11.559  1.00  0.00     0.305 C 
BRANCH   2   3
HETATM    3  N   UNL     1     -41.569 -46.392  10.374  1.00  0.00     0.092 N 
HETATM    4  C   UNL     1     -40.548 -45.375  10.665  1.00  0.00     0.310 C 
BRANCH   3   5
HETATM    5  C   UNL     1     -42.824 -45.744   9.910  1.00  0.00     0.330 C 
BRANCH   5   6
HETATM    6  C   UNL     1     -43.676 -46.687   9.113  1.00  0.00     0.063 A 
HETATM    7  C   UNL     1     -45.037 -47.028   9.310  1.00  0.00     0.063 A 
HETATM    8  C   UNL     1     -45.288 -47.987   8.359  1.00  0.00     0.074 A 
HETATM    9  C   UNL     1     -46.459 -48.805   8.005  1.00  0.00     0.079 C 
HETATM   10  O   UNL     1     -44.164 -48.191   7.623  1.00  0.00    -0.243 OA
HETATM   11  N   UNL     1     -43.150 -47.373   8.087  1.00  0.00    -0.264 N 
ATOM     12  HN  UNL     1     -42.198 -47.305   7.724  1.00  0.00     0.194 HD
ENDBRANCH   5   6
ENDBRANCH   3   5
ENDBRANCH   2   3
ENDBRANCH   1   2
BRANCH   1  13
HETATM   13  O   UNL     1     -41.232 -49.139  10.111  1.00  0.00    -0.392 OA
HETATM   14  H   UNL     1     -40.675 -48.394   9.827  1.00  0.00     0.210 HD
ENDBRANCH   1  13
BRANCH   1  15
HETATM   15  C   UNL     1     -41.266 -49.538  12.476  1.00  0.00     0.163 C 
BRANCH  15  16
HETATM   16  N   UNL     1     -41.590 -50.955  12.451  1.00  0.00    -0.339 N 
HETATM   17  C   UNL     1     -40.797 -51.936  11.920  1.00  0.00     0.184 A 
HETATM   18  N   UNL     1     -41.358 -53.119  12.018  1.00  0.00    -0.350 N 
HETATM   19  C   UNL     1     -42.574 -52.889  12.610  1.00  0.00     0.060 A 
ATOM     20  HN  UNL     1     -40.973 -54.014  11.719  1.00  0.00     0.166 HD
HETATM   21  C   UNL     1     -43.600 -53.792  12.922  1.00  0.00     0.039 A 
HETATM   22  C   UNL     1     -42.742 -51.541  12.907  1.00  0.00     0.062 A 
HETATM   23  C   UNL     1     -44.784 -53.324  13.530  1.00  0.00    -0.054 A 
HETATM   24  C   UNL     1     -45.863 -54.325  13.843  1.00  0.00     0.049 C 
HETATM   25  C   UNL     1     -44.931 -51.951  13.820  1.00  0.00    -0.054 A 
HETATM   26  C   UNL     1     -46.180 -51.375  14.433  1.00  0.00     0.049 C 
HETATM   27  C   UNL     1     -43.899 -51.041  13.512  1.00  0.00     0.039 A 
ENDBRANCH  15  16
ENDBRANCH   1  15
TORSDOF 7
ENDMDL
MODEL 2
REMARK VINA RESULT:      -6.9      2.061      3.390
REMARK  7 active torsions:
REMARK  status: ('A' for Active; 'I' for Inactive)
REMARK    1  A    between atoms: N_2  and  C_3 
REMARK    2  A    between atoms: N_2  and  C_19 
REMARK    3  A    between atoms: C_3  and  C_4 
REMARK    4  A    between atoms: C_4  and  O_5 
REMARK    5  A    between atoms: C_4  and  C_6 
REMARK    6  A    between atoms: C_6  and  N_7 
REMARK    7  A    between atoms: C_19  and  C_20 
ROOT
HETATM    1  C   UNL     1     -42.164 -51.913  12.151  1.00  0.00     0.164 C 
ENDROOT
BRANCH   1   2
HETATM    2  C   UNL     1     -41.479 -50.598  12.622  1.00  0.00     0.305 C 
BRANCH   2   3
HETATM    3  N   UNL     1     -40.738 -49.831  11.587  1.00  0.00     0.092 N 
HETATM    4  C   UNL     1     -39.283 -49.981  11.731  1.00  0.00     0.310 C 
BRANCH   3   5
HETATM    5  C   UNL     1     -41.119 -48.396  11.667  1.00  0.00     0.330 C 
BRANCH   5   6
HETATM    6  C   UNL     1     -42.213 -48.054  10.699  1.00  0.00     0.063 A 
HETATM    7  C   UNL     1     -43.542 -47.653  10.975  1.00  0.00     0.063 A 
HETATM    8  C   UNL     1     -44.131 -47.552   9.738  1.00  0.00     0.074 A 
HETATM    9  C   UNL     1     -45.485 -47.223   9.265  1.00  0.00     0.079 C 
HETATM   10  O   UNL     1     -43.212 -47.847   8.780  1.00  0.00    -0.243 OA
HETATM   11  N   UNL     1     -42.003 -48.157   9.377  1.00  0.00    -0.264 N 
ATOM     12  HN  UNL     1     -41.133 -48.411   8.909  1.00  0.00     0.194 HD
ENDBRANCH   5   6
ENDBRANCH   3   5
ENDBRANCH   2   3
ENDBRANCH   1   2
BRANCH   1  13
HETATM   13  O   UNL     1     -41.356 -52.606  11.192  1.00  0.00    -0.392 OA
HETATM   14  H   UNL     1     -41.446 -52.170  10.328  1.00  0.00     0.210 HD
ENDBRANCH   1  13
BRANCH   1  15
HETATM   15  C   UNL     1     -42.391 -52.861  13.341  1.00  0.00     0.163 C 
BRANCH  15  16
HETATM   16  N   UNL     1     -43.804 -53.097  13.587  1.00  0.00    -0.339 N 
HETATM   17  C   UNL     1     -44.582 -53.999  12.914  1.00  0.00     0.184 A 
HETATM   18  N   UNL     1     -45.825 -53.978  13.335  1.00  0.00    -0.350 N 
HETATM   19  C   UNL     1     -45.858 -53.003  14.299  1.00  0.00     0.060 A 
ATOM     20  HN  UNL     1     -46.599 -54.560  13.015  1.00  0.00     0.166 HD
HETATM   21  C   UNL     1     -46.939 -52.533  15.058  1.00  0.00     0.039 A 
HETATM   22  C   UNL     1     -44.600 -52.442  14.491  1.00  0.00     0.062 A 
HETATM   23  C   UNL     1     -46.739 -51.501  16.000  1.00  0.00    -0.054 A 
HETATM   24  C   UNL     1     -47.927 -51.022  16.788  1.00  0.00     0.049 C 
HETATM   25  C   UNL     1     -45.453 -50.948  16.173  1.00  0.00    -0.054 A 
HETATM   26  C   UNL     1     -45.173 -49.821  17.133  1.00  0.00     0.049 C 
HETATM   27  C   UNL     1     -44.363 -51.422  15.416  1.00  0.00     0.039 A 
ENDBRANCH  15  16
ENDBRANCH   1  15
TORSDOF 7
ENDMDL
MODEL 3
REMARK VINA RESULT:      -6.5      2.489      4.074
REMARK  7 active torsions:
REMARK  status: ('A' for Active; 'I' for Inactive)
REMARK    1  A    between atoms: N_2  and  C_3 
REMARK    2  A    between atoms: N_2  and  C_19 
REMARK    3  A    between atoms: C_3  and  C_4 
REMARK    4  A    between atoms: C_4  and  O_5 
REMARK    5  A    between atoms: C_4  and  C_6 
REMARK    6  A    between atoms: C_6  and  N_7 
REMARK    7  A    between atoms: C_19  and  C_20 
ROOT
HETATM    1  C   UNL     1     -41.977 -51.704  12.172  1.00  0.00     0.164 C 
ENDROOT
BRANCH   1   2
HETATM    2  C   UNL     1     -41.084 -50.503  12.596  1.00  0.00     0.305 C 
BRANCH   2   3
HETATM    3  N   UNL     1     -41.617 -49.147  12.307  1.00  0.00     0.092 N 
HETATM    4  C   UNL     1     -43.045 -49.038  12.639  1.00  0.00     0.310 C 
BRANCH   3   5
HETATM    5  C   UNL     1     -41.396 -48.824  10.872  1.00  0.00     0.330 C 
BRANCH   5   6
HETATM    6  C   UNL     1     -41.249 -47.348  10.650  1.00  0.00     0.063 A 
HETATM    7  C   UNL     1     -40.387 -46.437  11.307  1.00  0.00     0.063 A 
HETATM    8  C   UNL     1     -40.719 -45.213  10.781  1.00  0.00     0.074 A 
HETATM    9  C   UNL     1     -40.267 -43.832  11.017  1.00  0.00     0.079 C 
HETATM   10  O   UNL     1     -41.697 -45.377   9.851  1.00  0.00    -0.243 OA
HETATM   11  N   UNL     1     -42.030 -46.716   9.759  1.00  0.00    -0.264 N 
ATOM     12  HN  UNL     1     -42.725 -47.137   9.142  1.00  0.00     0.194 HD
ENDBRANCH   5   6
ENDBRANCH   3   5
ENDBRANCH   2   3
ENDBRANCH   1   2
BRANCH   1  13
HETATM   13  O   UNL     1     -41.335 -52.500  11.168  1.00  0.00    -0.392 OA
HETATM   14  H   UNL     1     -40.738 -53.134  11.600  1.00  0.00     0.210 HD
ENDBRANCH   1  13
BRANCH   1  15
HETATM   15  C   UNL     1     -42.266 -52.616  13.376  1.00  0.00     0.163 C 
BRANCH  15  16
HETATM   16  N   UNL     1     -43.688 -52.868  13.540  1.00  0.00    -0.339 N 
HETATM   17  C   UNL     1     -44.435 -53.711  12.764  1.00  0.00     0.184 A 
HETATM   18  N   UNL     1     -45.696 -53.720  13.131  1.00  0.00    -0.350 N 
HETATM   19  C   UNL     1     -45.771 -52.824  14.167  1.00  0.00     0.060 A 
ATOM     20  HN  UNL     1     -46.454 -54.272  12.731  1.00  0.00     0.166 HD
HETATM   21  C   UNL     1     -46.886 -52.413  14.911  1.00  0.00     0.039 A 
HETATM   22  C   UNL     1     -44.524 -52.283  14.457  1.00  0.00     0.062 A 
HETATM   23  C   UNL     1     -46.728 -51.460  15.940  1.00  0.00    -0.054 A 
HETATM   24  C   UNL     1     -47.951 -51.041  16.711  1.00  0.00     0.049 C 
HETATM   25  C   UNL     1     -45.451 -50.926  16.214  1.00  0.00    -0.054 A 
HETATM   26  C   UNL     1     -45.215 -49.879  17.271  1.00  0.00     0.049 C 
HETATM   27  C   UNL     1     -44.328 -51.341  15.470  1.00  0.00     0.039 A 
ENDBRANCH  15  16
ENDBRANCH   1  15
TORSDOF 7
ENDMDL
MODEL 4
REMARK VINA RESULT:      -6.4      2.259      7.314
REMARK  7 active torsions:
REMARK  status: ('A' for Active; 'I' for Inactive)
REMARK    1  A    between atoms: N_2  and  C_3 
REMARK    2  A    between atoms: N_2  and  C_19 
REMARK    3  A    between atoms: C_3  and  C_4 
REMARK    4  A    between atoms: C_4  and  O_5 
REMARK    5  A    between atoms: C_4  and  C_6 
REMARK    6  A    between atoms: C_6  and  N_7 
REMARK    7  A    between atoms: C_19  and  C_20 
ROOT
HETATM    1  C   UNL     1     -40.365 -49.653  11.626  1.00  0.00     0.164 C 
ENDROOT
BRANCH   1   2
HETATM    2  C   UNL     1     -39.745 -50.839  12.419  1.00  0.00     0.305 C 
BRANCH   2   3
HETATM    3  N   UNL     1     -40.679 -51.631  13.262  1.00  0.00     0.092 N 
HETATM    4  C   UNL     1     -40.146 -51.846  14.615  1.00  0.00     0.310 C 
BRANCH   3   5
HETATM    5  C   UNL     1     -40.955 -52.935  12.603  1.00  0.00     0.330 C 
BRANCH   5   6
HETATM    6  C   UNL     1     -42.391 -53.341  12.751  1.00  0.00     0.063 A 
HETATM    7  C   UNL     1     -42.977 -54.171  13.738  1.00  0.00     0.063 A 
HETATM    8  C   UNL     1     -44.291 -54.278  13.355  1.00  0.00     0.074 A 
HETATM    9  C   UNL     1     -45.461 -55.002  13.880  1.00  0.00     0.079 C 
HETATM   10  O   UNL     1     -44.492 -53.543  12.230  1.00  0.00    -0.243 OA
HETATM   11  N   UNL     1     -43.303 -52.947  11.848  1.00  0.00    -0.264 N 
ATOM     12  HN  UNL     1     -43.152 -52.334  11.047  1.00  0.00     0.194 HD
ENDBRANCH   5   6
ENDBRANCH   3   5
ENDBRANCH   2   3
ENDBRANCH   1   2
BRANCH   1  13
HETATM   13  O   UNL     1     -40.580 -50.002  10.253  1.00  0.00    -0.392 OA
HETATM   14  H   UNL     1     -40.966 -50.893  10.209  1.00  0.00     0.210 HD
ENDBRANCH   1  13
BRANCH   1  15
HETATM   15  C   UNL     1     -41.724 -49.252  12.223  1.00  0.00     0.163 C 
BRANCH  15  16
HETATM   16  N   UNL     1     -42.203 -47.988  11.688  1.00  0.00    -0.339 N 
HETATM   17  C   UNL     1     -43.306 -47.836  10.892  1.00  0.00     0.184 A 
HETATM   18  N   UNL     1     -43.482 -46.584  10.541  1.00  0.00    -0.350 N 
HETATM   19  C   UNL     1     -42.435 -45.904  11.109  1.00  0.00     0.060 A 
ATOM     20  HN  UNL     1     -44.234 -46.200   9.970  1.00  0.00     0.166 HD
HETATM   21  C   UNL     1     -42.107 -44.543  11.031  1.00  0.00     0.039 A 
HETATM   22  C   UNL     1     -41.623 -46.756  11.848  1.00  0.00     0.062 A 
HETATM   23  C   UNL     1     -40.963 -44.059  11.699  1.00  0.00    -0.054 A 
HETATM   24  C   UNL     1     -40.643 -42.593  11.585  1.00  0.00     0.049 C 
HETATM   25  C   UNL     1     -40.154 -44.946  12.441  1.00  0.00    -0.054 A 
HETATM   26  C   UNL     1     -38.898 -44.507  13.149  1.00  0.00     0.049 C 
HETATM   27  C   UNL     1     -40.484 -46.313  12.526  1.00  0.00     0.039 A 
ENDBRANCH  15  16
ENDBRANCH   1  15
TORSDOF 7
ENDMDL
MODEL 5
REMARK VINA RESULT:      -6.4      1.646      2.131
REMARK  7 active torsions:
REMARK  status: ('A' for Active; 'I' for Inactive)
REMARK    1  A    between atoms: N_2  and  C_3 
REMARK    2  A    between atoms: N_2  and  C_19 
REMARK    3  A    between atoms: C_3  and  C_4 
REMARK    4  A    between atoms: C_4  and  O_5 
REMARK    5  A    between atoms: C_4  and  C_6 
REMARK    6  A    between atoms: C_6  and  N_7 
REMARK    7  A    between atoms: C_19  and  C_20 
ROOT
HETATM    1  C   UNL     1     -39.675 -49.691  11.452  1.00  0.00     0.164 C 
ENDROOT
BRANCH   1   2
HETATM    2  C   UNL     1     -39.736 -48.182  11.825  1.00  0.00     0.305 C 
BRANCH   2   3
HETATM    3  N   UNL     1     -40.960 -47.447  11.411  1.00  0.00     0.092 N 
HETATM    4  C   UNL     1     -41.796 -47.083  12.564  1.00  0.00     0.310 C 
BRANCH   3   5
HETATM    5  C   UNL     1     -41.736 -48.279  10.453  1.00  0.00     0.330 C 
BRANCH   5   6
HETATM    6  C   UNL     1     -42.889 -47.522   9.865  1.00  0.00     0.063 A 
HETATM    7  C   UNL     1     -44.276 -47.753  10.037  1.00  0.00     0.063 A 
HETATM    8  C   UNL     1     -44.878 -46.832   9.215  1.00  0.00     0.074 A 
HETATM    9  C   UNL     1     -46.274 -46.520   8.865  1.00  0.00     0.079 C 
HETATM   10  O   UNL     1     -43.922 -46.080   8.609  1.00  0.00    -0.243 OA
HETATM   11  N   UNL     1     -42.670 -46.505   9.018  1.00  0.00    -0.264 N 
ATOM     12  HN  UNL     1     -41.768 -46.123   8.734  1.00  0.00     0.194 HD
ENDBRANCH   5   6
ENDBRANCH   3   5
ENDBRANCH   2   3
ENDBRANCH   1   2
BRANCH   1  13
HETATM   13  O   UNL     1     -38.393 -50.042  10.916  1.00  0.00    -0.392 OA
HETATM   14  H   UNL     1     -37.835 -50.391  11.632  1.00  0.00     0.210 HD
ENDBRANCH   1  13
BRANCH   1  15
HETATM   15  C   UNL     1     -39.918 -50.566  12.692  1.00  0.00     0.163 C 
BRANCH  15  16
HETATM   16  N   UNL     1     -41.186 -51.274  12.620  1.00  0.00    -0.339 N 
HETATM   17  C   UNL     1     -41.511 -52.218  11.685  1.00  0.00     0.184 A 
HETATM   18  N   UNL     1     -42.732 -52.668  11.852  1.00  0.00    -0.350 N 
HETATM   19  C   UNL     1     -43.226 -51.966  12.922  1.00  0.00     0.060 A 
ATOM     20  HN  UNL     1     -43.209 -53.384  11.306  1.00  0.00     0.166 HD
HETATM   21  C   UNL     1     -44.496 -52.017  13.513  1.00  0.00     0.039 A 
HETATM   22  C   UNL     1     -42.273 -51.093  13.435  1.00  0.00     0.062 A 
HETATM   23  C   UNL     1     -44.790 -51.186  14.615  1.00  0.00    -0.054 A 
HETATM   24  C   UNL     1     -46.167 -51.268  15.217  1.00  0.00     0.049 C 
HETATM   25  C   UNL     1     -43.806 -50.308  15.116  1.00  0.00    -0.054 A 
HETATM   26  C   UNL     1     -44.060 -49.366  16.264  1.00  0.00     0.049 C 
HETATM   27  C   UNL     1     -42.527 -50.258  14.526  1.00  0.00     0.039 A 
ENDBRANCH  15  16
ENDBRANCH   1  15
TORSDOF 7
ENDMDL
MODEL 6
REMARK VINA RESULT:      -6.4      2.457      3.339
REMARK  7 active torsions:
REMARK  status: ('A' for Active; 'I' for Inactive)
REMARK    1  A    between atoms: N_2  and  C_3 
REMARK    2  A    between atoms: N_2  and  C_19 
REMARK    3  A    between atoms: C_3  and  C_4 
REMARK    4  A    between atoms: C_4  and  O_5 
REMARK    5  A    between atoms: C_4  and  C_6 
REMARK    6  A    between atoms: C_6  and  N_7 
REMARK    7  A    between atoms: C_19  and  C_20 
ROOT
HETATM    1  C   UNL     1     -41.220 -49.461  11.449  1.00  0.00     0.164 C 
ENDROOT
BRANCH   1   2
HETATM    2  C   UNL     1     -41.789 -48.015  11.513  1.00  0.00     0.305 C 
BRANCH   2   3
HETATM    3  N   UNL     1     -41.300 -47.065  10.482  1.00  0.00     0.092 N 
HETATM    4  C   UNL     1     -40.183 -46.247  10.977  1.00  0.00     0.310 C 
BRANCH   3   5
HETATM    5  C   UNL     1     -42.421 -46.193  10.040  1.00  0.00     0.330 C 
BRANCH   5   6
HETATM    6  C   UNL     1     -43.424 -46.948   9.220  1.00  0.00     0.063 A 
HETATM    7  C   UNL     1     -44.776 -47.238   9.526  1.00  0.00     0.063 A 
HETATM    8  C   UNL     1     -45.202 -48.019   8.480  1.00  0.00     0.074 A 
HETATM    9  C   UNL     1     -46.463 -48.704   8.151  1.00  0.00     0.079 C 
HETATM   10  O   UNL     1     -44.185 -48.170   7.591  1.00  0.00    -0.243 OA
HETATM   11  N   UNL     1     -43.067 -47.494   8.047  1.00  0.00    -0.264 N 
ATOM     12  HN  UNL     1     -42.159 -47.425   7.586  1.00  0.00     0.194 HD
ENDBRANCH   5   6
ENDBRANCH   3   5
ENDBRANCH   2   3
ENDBRANCH   1   2
BRANCH   1  13
HETATM   13  O   UNL     1     -39.894 -49.475  10.907  1.00  0.00    -0.392 OA
HETATM   14  H   UNL     1     -39.594 -50.396  10.826  1.00  0.00     0.210 HD
ENDBRANCH   1  13
BRANCH   1  15
HETATM   15  C   UNL     1     -41.157 -50.082  12.854  1.00  0.00     0.163 C 
BRANCH  15  16
HETATM   16  N   UNL     1     -40.890 -51.511  12.808  1.00  0.00    -0.339 N 
HETATM   17  C   UNL     1     -41.321 -52.363  11.828  1.00  0.00     0.184 A 
HETATM   18  N   UNL     1     -40.950 -53.599  12.062  1.00  0.00    -0.350 N 
HETATM   19  C   UNL     1     -40.276 -53.549  13.255  1.00  0.00     0.060 A 
ATOM     20  HN  UNL     1     -41.125 -54.420  11.482  1.00  0.00     0.166 HD
HETATM   21  C   UNL     1     -39.693 -54.588  13.995  1.00  0.00     0.039 A 
HETATM   22  C   UNL     1     -40.209 -52.249  13.741  1.00  0.00     0.062 A 
HETATM   23  C   UNL     1     -39.049 -54.301  15.218  1.00  0.00    -0.054 A 
HETATM   24  C   UNL     1     -38.442 -55.444  15.984  1.00  0.00     0.049 C 
HETATM   25  C   UNL     1     -38.997 -52.972  15.690  1.00  0.00    -0.054 A 
HETATM   26  C   UNL     1     -38.360 -52.597  17.002  1.00  0.00     0.049 C 
HETATM   27  C   UNL     1     -39.577 -51.926  14.945  1.00  0.00     0.039 A 
ENDBRANCH  15  16
ENDBRANCH   1  15
TORSDOF 7
ENDMDL
MODEL 7
REMARK VINA RESULT:      -6.4      2.778      6.835
REMARK  7 active torsions:
REMARK  status: ('A' for Active; 'I' for Inactive)
REMARK    1  A    between atoms: N_2  and  C_3 
REMARK    2  A    between atoms: N_2  and  C_19 
REMARK    3  A    between atoms: C_3  and  C_4 
REMARK    4  A    between atoms: C_4  and  O_5 
REMARK    5  A    between atoms: C_4  and  C_6 
REMARK    6  A    between atoms: C_6  and  N_7 
REMARK    7  A    between atoms: C_19  and  C_20 
ROOT
HETATM    1  C   UNL     1     -40.617 -52.560  12.403  1.00  0.00     0.164 C 
ENDROOT
BRANCH   1   2
HETATM    2  C   UNL     1     -40.613 -53.899  13.196  1.00  0.00     0.305 C 
BRANCH   2   3
HETATM    3  N   UNL     1     -41.377 -53.916  14.470  1.00  0.00     0.092 N 
HETATM    4  C   UNL     1     -40.585 -54.472  15.577  1.00  0.00     0.310 C 
BRANCH   3   5
HETATM    5  C   UNL     1     -42.627 -54.700  14.286  1.00  0.00     0.330 C 
BRANCH   5   6
HETATM    6  C   UNL     1     -43.717 -53.875  13.670  1.00  0.00     0.063 A 
HETATM    7  C   UNL     1     -44.556 -52.916  14.288  1.00  0.00     0.063 A 
HETATM    8  C   UNL     1     -45.422 -52.530  13.295  1.00  0.00     0.074 A 
HETATM    9  C   UNL     1     -46.567 -51.607  13.227  1.00  0.00     0.079 C 
HETATM   10  O   UNL     1     -45.111 -53.191  12.149  1.00  0.00    -0.243 OA
HETATM   11  N   UNL     1     -44.037 -54.033  12.376  1.00  0.00    -0.264 N 
ATOM     12  HN  UNL     1     -43.583 -54.647  11.699  1.00  0.00     0.194 HD
ENDBRANCH   5   6
ENDBRANCH   3   5
ENDBRANCH   2   3
ENDBRANCH   1   2
BRANCH   1  13
HETATM   13  O   UNL     1     -41.400 -52.667  11.207  1.00  0.00    -0.392 OA
HETATM   14  H   UNL     1     -42.294 -52.330  11.383  1.00  0.00     0.210 HD
ENDBRANCH   1  13
BRANCH   1  15
HETATM   15  C   UNL     1     -41.218 -51.429  13.254  1.00  0.00     0.163 C 
BRANCH  15  16
HETATM   16  N   UNL     1     -40.443 -50.203  13.155  1.00  0.00    -0.339 N 
HETATM   17  C   UNL     1     -39.352 -49.895  13.921  1.00  0.00     0.184 A 
HETATM   18  N   UNL     1     -38.870 -48.710  13.626  1.00  0.00    -0.350 N 
HETATM   19  C   UNL     1     -39.701 -48.221  12.651  1.00  0.00     0.060 A 
ATOM     20  HN  UNL     1     -38.055 -48.253  14.034  1.00  0.00     0.166 HD
HETATM   21  C   UNL     1     -39.675 -46.981  11.996  1.00  0.00     0.039 A 
HETATM   22  C   UNL     1     -40.690 -49.141  12.323  1.00  0.00     0.062 A 
HETATM   23  C   UNL     1     -40.648 -46.685  11.018  1.00  0.00    -0.054 A 
HETATM   24  C   UNL     1     -40.588 -45.342  10.343  1.00  0.00     0.049 C 
HETATM   25  C   UNL     1     -41.642 -47.637  10.704  1.00  0.00    -0.054 A 
HETATM   26  C   UNL     1     -42.733 -47.376   9.699  1.00  0.00     0.049 C 
HETATM   27  C   UNL     1     -41.667 -48.885  11.358  1.00  0.00     0.039 A 
ENDBRANCH  15  16
ENDBRANCH   1  15
TORSDOF 7
ENDMDL
MODEL 8
REMARK VINA RESULT:      -6.3      1.747      2.257
REMARK  7 active torsions:
REMARK  status: ('A' for Active; 'I' for Inactive)
REMARK    1  A    between atoms: N_2  and  C_3 
REMARK    2  A    between atoms: N_2  and  C_19 
REMARK    3  A    between atoms: C_3  and  C_4 
REMARK    4  A    between atoms: C_4  and  O_5 
REMARK    5  A    between atoms: C_4  and  C_6 
REMARK    6  A    between atoms: C_6  and  N_7 
REMARK    7  A    between atoms: C_19  and  C_20 
ROOT
HETATM    1  C   UNL     1     -40.471 -49.433  11.427  1.00  0.00     0.164 C 
ENDROOT
BRANCH   1   2
HETATM    2  C   UNL     1     -40.279 -47.926  11.761  1.00  0.00     0.305 C 
BRANCH   2   3
HETATM    3  N   UNL     1     -40.800 -46.955  10.763  1.00  0.00     0.092 N 
HETATM    4  C   UNL     1     -39.980 -45.736  10.705  1.00  0.00     0.310 C 
BRANCH   3   5
HETATM    5  C   UNL     1     -42.209 -46.614  11.095  1.00  0.00     0.330 C 
BRANCH   5   6
HETATM    6  C   UNL     1     -43.160 -47.086  10.036  1.00  0.00     0.063 A 
HETATM    7  C   UNL     1     -44.555 -47.312  10.139  1.00  0.00     0.063 A 
HETATM    8  C   UNL     1     -44.910 -47.813   8.911  1.00  0.00     0.074 A 
HETATM    9  C   UNL     1     -46.168 -48.297   8.320  1.00  0.00     0.079 C 
HETATM   10  O   UNL     1     -43.811 -47.863   8.113  1.00  0.00    -0.243 OA
HETATM   11  N   UNL     1     -42.709 -47.402   8.812  1.00  0.00    -0.264 N 
ATOM     12  HN  UNL     1     -41.752 -47.318   8.467  1.00  0.00     0.194 HD
ENDBRANCH   5   6
ENDBRANCH   3   5
ENDBRANCH   2   3
ENDBRANCH   1   2
BRANCH   1  13
HETATM   13  O   UNL     1     -40.809 -49.621  10.047  1.00  0.00    -0.392 OA
HETATM   14  H   UNL     1     -41.697 -49.260   9.886  1.00  0.00     0.210 HD
ENDBRANCH   1  13
BRANCH   1  15
HETATM   15  C   UNL     1     -39.178 -50.218  11.702  1.00  0.00     0.163 C 
BRANCH  15  16
HETATM   16  N   UNL     1     -39.321 -51.126  12.829  1.00  0.00    -0.339 N 
HETATM   17  C   UNL     1     -38.373 -51.344  13.791  1.00  0.00     0.184 A 
HETATM   18  N   UNL     1     -38.769 -52.234  14.670  1.00  0.00    -0.350 N 
HETATM   19  C   UNL     1     -40.012 -52.627  14.243  1.00  0.00     0.060 A 
ATOM     20  HN  UNL     1     -38.263 -52.562  15.492  1.00  0.00     0.166 HD
HETATM   21  C   UNL     1     -40.881 -53.584  14.787  1.00  0.00     0.039 A 
HETATM   22  C   UNL     1     -40.392 -51.938  13.098  1.00  0.00     0.062 A 
HETATM   23  C   UNL     1     -42.124 -53.834  14.168  1.00  0.00    -0.054 A 
HETATM   24  C   UNL     1     -43.024 -54.872  14.779  1.00  0.00     0.049 C 
HETATM   25  C   UNL     1     -42.485 -53.121  13.004  1.00  0.00    -0.054 A 
HETATM   26  C   UNL     1     -43.778 -53.362  12.269  1.00  0.00     0.049 C 
HETATM   27  C   UNL     1     -41.615 -52.156  12.458  1.00  0.00     0.039 A 
ENDBRANCH  15  16
ENDBRANCH   1  15
TORSDOF 7
ENDMDL
MODEL 9
REMARK VINA RESULT:      -6.2      2.009      3.373
REMARK  7 active torsions:
REMARK  status: ('A' for Active; 'I' for Inactive)
REMARK    1  A    between atoms: N_2  and  C_3 
REMARK    2  A    between atoms: N_2  and  C_19 
REMARK    3  A    between atoms: C_3  and  C_4 
REMARK    4  A    between atoms: C_4  and  O_5 
REMARK    5  A    between atoms: C_4  and  C_6 
REMARK    6  A    between atoms: C_6  and  N_7 
REMARK    7  A    between atoms: C_19  and  C_20 
ROOT
HETATM    1  C   UNL     1     -41.293 -52.165  12.185  1.00  0.00     0.164 C 
ENDROOT
BRANCH   1   2
HETATM    2  C   UNL     1     -40.084 -51.270  12.584  1.00  0.00     0.305 C 
BRANCH   2   3
HETATM    3  N   UNL     1     -40.165 -49.838  12.196  1.00  0.00     0.092 N 
HETATM    4  C   UNL     1     -39.133 -49.031  12.863  1.00  0.00     0.310 C 
BRANCH   3   5
HETATM    5  C   UNL     1     -41.519 -49.314  12.519  1.00  0.00     0.330 C 
BRANCH   5   6
HETATM    6  C   UNL     1     -42.133 -48.600  11.352  1.00  0.00     0.063 A 
HETATM    7  C   UNL     1     -43.325 -47.836  11.312  1.00  0.00     0.063 A 
HETATM    8  C   UNL     1     -43.462 -47.487   9.991  1.00  0.00     0.074 A 
HETATM    9  C   UNL     1     -44.468 -46.738   9.222  1.00  0.00     0.079 C 
HETATM   10  O   UNL     1     -42.411 -47.984   9.286  1.00  0.00    -0.243 OA
HETATM   11  N   UNL     1     -41.570 -48.679  10.136  1.00  0.00    -0.264 N 
ATOM     12  HN  UNL     1     -40.700 -49.154   9.890  1.00  0.00     0.194 HD
ENDBRANCH   5   6
ENDBRANCH   3   5
ENDBRANCH   2   3
ENDBRANCH   1   2
BRANCH   1  13
HETATM   13  O   UNL     1     -41.144 -52.679  10.856  1.00  0.00    -0.392 OA
HETATM   14  H   UNL     1     -41.649 -53.506  10.778  1.00  0.00     0.210 HD
ENDBRANCH   1  13
BRANCH   1  15
HETATM   15  C   UNL     1     -41.416 -53.365  13.139  1.00  0.00     0.163 C 
BRANCH  15  16
HETATM   16  N   UNL     1     -42.156 -53.030  14.344  1.00  0.00    -0.339 N 
HETATM   17  C   UNL     1     -41.682 -53.156  15.622  1.00  0.00     0.184 A 
HETATM   18  N   UNL     1     -42.580 -52.801  16.510  1.00  0.00    -0.350 N 
HETATM   19  C   UNL     1     -43.689 -52.460  15.778  1.00  0.00     0.060 A 
ATOM     20  HN  UNL     1     -42.476 -52.782  17.524  1.00  0.00     0.166 HD
HETATM   21  C   UNL     1     -44.953 -52.040  16.217  1.00  0.00     0.039 A 
HETATM   22  C   UNL     1     -43.449 -52.579  14.414  1.00  0.00     0.062 A 
HETATM   23  C   UNL     1     -45.960 -51.746  15.273  1.00  0.00    -0.054 A 
HETATM   24  C   UNL     1     -47.304 -51.305  15.785  1.00  0.00     0.049 C 
HETATM   25  C   UNL     1     -45.691 -51.877  13.894  1.00  0.00    -0.054 A 
HETATM   26  C   UNL     1     -46.728 -51.618  12.832  1.00  0.00     0.049 C 
HETATM   27  C   UNL     1     -44.420 -52.295  13.450  1.00  0.00     0.039 A 
ENDBRANCH  15  16
ENDBRANCH   1  15
TORSDOF 7
ENDMDL
