MODEL 1
REMARK VINA RESULT:      -5.2      0.000      0.000
REMARK  4 active torsions:
REMARK  status: ('A' for Active; 'I' for Inactive)
REMARK    1  A    between atoms: C_2  and  C_3 
REMARK    2  A    between atoms: C_2  and  N_10 
REMARK    3  A    between atoms: C_3  and  N_4 
REMARK       I    between atoms: N_10  and  C_11 
REMARK    4  A    between atoms: C_11  and  C_13 
ROOT
HETATM    1  C   UNL     1     -42.866 -50.487  13.423  1.00  0.00     0.034 C 
HETATM    2  C   UNL     1     -41.806 -49.948  12.466  1.00  0.00     0.100 C 
ENDROOT
BRANCH   2   3
HETATM    3  C   UNL     1     -40.911 -51.047  11.868  1.00  0.00     0.172 C 
BRANCH   3   4
HETATM    4  N   UNL     1     -39.489 -50.781  11.989  1.00  0.00    -0.302 N 
HETATM    5  C   UNL     1     -38.677 -51.095  13.042  1.00  0.00     0.111 A 
HETATM    6  C   UNL     1     -37.431 -50.604  12.724  1.00  0.00     0.037 A 
HETATM    7  C   UNL     1     -37.595 -50.004  11.464  1.00  0.00     0.108 A 
HETATM    8  N   UNL     1     -38.849 -50.101  11.014  1.00  0.00    -0.310 N 
ATOM      9  HN  UNL     1     -39.234 -49.745  10.139  1.00  0.00     0.186 HD
ENDBRANCH   3   4
ENDBRANCH   2   3
BRANCH   2  10
HETATM   10  N   UNL     1     -42.479 -49.176  11.417  1.00  0.00    -0.353 N 
HETATM   11  C   UNL     1     -41.906 -48.094  10.792  1.00  0.00     0.247 C 
HETATM   12  O   UNL     1     -40.780 -47.684  11.060  1.00  0.00    -0.271 OA
HETATM   13  H   UNL     1     -43.366 -49.496  11.030  1.00  0.00     0.163 HD
BRANCH  11  14
HETATM   14  C   UNL     1     -42.804 -47.430   9.736  1.00  0.00     0.213 C 
HETATM   15  C   UNL     1     -44.261 -47.400  10.177  1.00  0.00     0.043 C 
HETATM   16  C   UNL     1     -45.059 -47.646   8.913  1.00  0.00     0.029 C 
HETATM   17  C   UNL     1     -44.021 -47.729   7.817  1.00  0.00     0.168 C 
HETATM   18  O   UNL     1     -42.797 -48.095   8.463  1.00  0.00    -0.376 OA
ENDBRANCH  11  14
ENDBRANCH   2  10
TORSDOF 4
ENDMDL
MODEL 2
REMARK VINA RESULT:      -4.9      3.519      5.571
REMARK  4 active torsions:
REMARK  status: ('A' for Active; 'I' for Inactive)
REMARK    1  A    between atoms: C_2  and  C_3 
REMARK    2  A    between atoms: C_2  and  N_10 
REMARK    3  A    between atoms: C_3  and  N_4 
REMARK       I    between atoms: N_10  and  C_11 
REMARK    4  A    between atoms: C_11  and  C_13 
ROOT
HETATM    1  C   UNL     1     -39.698 -47.711  11.847  1.00  0.00     0.034 C 
HETATM    2  C   UNL     1     -40.840 -47.194  10.975  1.00  0.00     0.100 C 
ENDROOT
BRANCH   2   3
HETATM    3  C   UNL     1     -42.084 -48.098  11.004  1.00  0.00     0.172 C 
BRANCH   3   4
HETATM    4  N   UNL     1     -43.045 -47.811   9.954  1.00  0.00    -0.302 N 
HETATM    5  C   UNL     1     -44.349 -47.432  10.109  1.00  0.00     0.111 A 
HETATM    6  C   UNL     1     -44.869 -47.323   8.839  1.00  0.00     0.037 A 
HETATM    7  C   UNL     1     -43.804 -47.664   7.988  1.00  0.00     0.108 A 
HETATM    8  N   UNL     1     -42.692 -47.971   8.661  1.00  0.00    -0.310 N 
ATOM      9  HN  UNL     1     -41.788 -48.258   8.286  1.00  0.00     0.186 HD
ENDBRANCH   3   4
ENDBRANCH   2   3
BRANCH   2  10
HETATM   10  N   UNL     1     -41.161 -45.826  11.396  1.00  0.00    -0.353 N 
HETATM   11  C   UNL     1     -40.691 -44.709  10.747  1.00  0.00     0.247 C 
HETATM   12  O   UNL     1     -39.964 -44.763   9.759  1.00  0.00    -0.271 OA
HETATM   13  H   UNL     1     -41.850 -45.661  12.128  1.00  0.00     0.163 HD
BRANCH  11  14
HETATM   14  C   UNL     1     -41.144 -43.382  11.376  1.00  0.00     0.213 C 
HETATM   15  C   UNL     1     -42.185 -43.602  12.464  1.00  0.00     0.043 C 
HETATM   16  C   UNL     1     -43.151 -42.444  12.325  1.00  0.00     0.029 C 
HETATM   17  C   UNL     1     -42.569 -41.593  11.218  1.00  0.00     0.168 C 
HETATM   18  O   UNL     1     -41.744 -42.470  10.442  1.00  0.00    -0.376 OA
ENDBRANCH  11  14
ENDBRANCH   2  10
TORSDOF 4
ENDMDL
MODEL 3
REMARK VINA RESULT:      -4.7      1.480      1.865
REMARK  4 active torsions:
REMARK  status: ('A' for Active; 'I' for Inactive)
REMARK    1  A    between atoms: C_2  and  C_3 
REMARK    2  A    between atoms: C_2  and  N_10 
REMARK    3  A    between atoms: C_3  and  N_4 
REMARK       I    between atoms: N_10  and  C_11 
REMARK    4  A    between atoms: C_11  and  C_13 
ROOT
HETATM    1  C   UNL     1     -42.829 -47.816  13.005  1.00  0.00     0.034 C 
HETATM    2  C   UNL     1     -42.202 -48.290  11.695  1.00  0.00     0.100 C 
ENDROOT
BRANCH   2   3
HETATM    3  C   UNL     1     -41.606 -49.705  11.782  1.00  0.00     0.172 C 
BRANCH   3   4
HETATM    4  N   UNL     1     -40.164 -49.729  11.941  1.00  0.00    -0.302 N 
HETATM    5  C   UNL     1     -39.342 -48.664  12.179  1.00  0.00     0.111 A 
HETATM    6  C   UNL     1     -38.061 -49.167  12.204  1.00  0.00     0.037 A 
HETATM    7  C   UNL     1     -38.214 -50.543  11.963  1.00  0.00     0.108 A 
HETATM    8  N   UNL     1     -39.492 -50.891  11.793  1.00  0.00    -0.310 N 
ATOM      9  HN  UNL     1     -39.873 -51.816  11.598  1.00  0.00     0.186 HD
ENDBRANCH   3   4
ENDBRANCH   2   3
BRANCH   2  10
HETATM   10  N   UNL     1     -43.215 -48.199  10.639  1.00  0.00    -0.353 N 
HETATM   11  C   UNL     1     -43.304 -47.138   9.770  1.00  0.00     0.247 C 
HETATM   12  O   UNL     1     -42.541 -46.176   9.805  1.00  0.00    -0.271 OA
HETATM   13  H   UNL     1     -43.824 -48.991  10.439  1.00  0.00     0.163 HD
BRANCH  11  14
HETATM   14  C   UNL     1     -44.454 -47.251   8.756  1.00  0.00     0.213 C 
HETATM   15  C   UNL     1     -45.771 -47.597   9.437  1.00  0.00     0.043 C 
HETATM   16  C   UNL     1     -46.475 -48.535   8.478  1.00  0.00     0.029 C 
HETATM   17  C   UNL     1     -45.557 -48.611   7.278  1.00  0.00     0.168 C 
HETATM   18  O   UNL     1     -44.254 -48.265   7.758  1.00  0.00    -0.376 OA
ENDBRANCH  11  14
ENDBRANCH   2  10
TORSDOF 4
ENDMDL
MODEL 4
REMARK VINA RESULT:      -4.7      1.754      2.283
REMARK  4 active torsions:
REMARK  status: ('A' for Active; 'I' for Inactive)
REMARK    1  A    between atoms: C_2  and  C_3 
REMARK    2  A    between atoms: C_2  and  N_10 
REMARK    3  A    between atoms: C_3  and  N_4 
REMARK       I    between atoms: N_10  and  C_11 
REMARK    4  A    between atoms: C_11  and  C_13 
ROOT
HETATM    1  C   UNL     1     -42.910 -50.840  12.992  1.00  0.00     0.034 C 
HETATM    2  C   UNL     1     -41.760 -50.030  12.398  1.00  0.00     0.100 C 
ENDROOT
BRANCH   2   3
HETATM    3  C   UNL     1     -40.567 -50.898  11.961  1.00  0.00     0.172 C 
BRANCH   3   4
HETATM    4  N   UNL     1     -40.524 -52.202  12.595  1.00  0.00    -0.302 N 
HETATM    5  C   UNL     1     -40.086 -52.494  13.857  1.00  0.00     0.111 A 
HETATM    6  C   UNL     1     -40.190 -53.860  13.991  1.00  0.00     0.037 A 
HETATM    7  C   UNL     1     -40.693 -54.303  12.756  1.00  0.00     0.108 A 
HETATM    8  N   UNL     1     -40.890 -53.299  11.898  1.00  0.00    -0.310 N 
ATOM      9  HN  UNL     1     -41.236 -53.348  10.940  1.00  0.00     0.186 HD
ENDBRANCH   3   4
ENDBRANCH   2   3
BRANCH   2  10
HETATM   10  N   UNL     1     -42.282 -49.237  11.280  1.00  0.00    -0.353 N 
HETATM   11  C   UNL     1     -42.868 -48.004  11.441  1.00  0.00     0.247 C 
HETATM   12  O   UNL     1     -43.002 -47.462  12.535  1.00  0.00    -0.271 OA
HETATM   13  H   UNL     1     -42.119 -49.531  10.319  1.00  0.00     0.163 HD
BRANCH  11  14
HETATM   14  C   UNL     1     -43.356 -47.365  10.131  1.00  0.00     0.213 C 
HETATM   15  C   UNL     1     -44.855 -47.545   9.943  1.00  0.00     0.043 C 
HETATM   16  C   UNL     1     -45.041 -47.777   8.458  1.00  0.00     0.029 C 
HETATM   17  C   UNL     1     -43.652 -47.644   7.876  1.00  0.00     0.168 C 
HETATM   18  O   UNL     1     -42.747 -47.915   8.952  1.00  0.00    -0.376 OA
ENDBRANCH  11  14
ENDBRANCH   2  10
TORSDOF 4
ENDMDL
MODEL 5
REMARK VINA RESULT:      -4.7      2.717      5.939
REMARK  4 active torsions:
REMARK  status: ('A' for Active; 'I' for Inactive)
REMARK    1  A    between atoms: C_2  and  C_3 
REMARK    2  A    between atoms: C_2  and  N_10 
REMARK    3  A    between atoms: C_3  and  N_4 
REMARK       I    between atoms: N_10  and  C_11 
REMARK    4  A    between atoms: C_11  and  C_13 
ROOT
HETATM    1  C   UNL     1     -40.682 -48.125  12.687  1.00  0.00     0.034 C 
HETATM    2  C   UNL     1     -41.795 -48.570  11.740  1.00  0.00     0.100 C 
ENDROOT
BRANCH   2   3
HETATM    3  C   UNL     1     -41.641 -48.009  10.315  1.00  0.00     0.172 C 
BRANCH   3   4
HETATM    4  N   UNL     1     -42.901 -47.808   9.623  1.00  0.00    -0.302 N 
HETATM    5  C   UNL     1     -44.098 -47.445  10.173  1.00  0.00     0.111 A 
HETATM    6  C   UNL     1     -45.005 -47.427   9.138  1.00  0.00     0.037 A 
HETATM    7  C   UNL     1     -44.261 -47.800   8.006  1.00  0.00     0.108 A 
HETATM    8  N   UNL     1     -42.980 -48.042   8.295  1.00  0.00    -0.310 N 
ATOM      9  HN  UNL     1     -42.236 -48.335   7.663  1.00  0.00     0.186 HD
ENDBRANCH   3   4
ENDBRANCH   2   3
BRANCH   2  10
HETATM   10  N   UNL     1     -41.842 -50.036  11.737  1.00  0.00    -0.353 N 
HETATM   11  C   UNL     1     -42.648 -50.765  12.577  1.00  0.00     0.247 C 
HETATM   12  O   UNL     1     -43.399 -50.249  13.401  1.00  0.00    -0.271 OA
HETATM   13  H   UNL     1     -41.352 -50.565  11.017  1.00  0.00     0.163 HD
BRANCH  11  14
HETATM   14  C   UNL     1     -42.519 -52.287  12.407  1.00  0.00     0.213 C 
HETATM   15  C   UNL     1     -43.854 -52.990  12.605  1.00  0.00     0.043 C 
HETATM   16  C   UNL     1     -43.517 -54.281  13.322  1.00  0.00     0.029 C 
HETATM   17  C   UNL     1     -42.008 -54.276  13.426  1.00  0.00     0.168 C 
HETATM   18  O   UNL     1     -41.614 -52.902  13.338  1.00  0.00    -0.376 OA
ENDBRANCH  11  14
ENDBRANCH   2  10
TORSDOF 4
ENDMDL
MODEL 6
REMARK VINA RESULT:      -4.6      3.360      5.613
REMARK  4 active torsions:
REMARK  status: ('A' for Active; 'I' for Inactive)
REMARK    1  A    between atoms: C_2  and  C_3 
REMARK    2  A    between atoms: C_2  and  N_10 
REMARK    3  A    between atoms: C_3  and  N_4 
REMARK       I    between atoms: N_10  and  C_11 
REMARK    4  A    between atoms: C_11  and  C_13 
ROOT
HETATM    1  C   UNL     1     -42.396 -54.238  14.564  1.00  0.00     0.034 C 
HETATM    2  C   UNL     1     -42.797 -53.839  13.145  1.00  0.00     0.100 C 
ENDROOT
BRANCH   2   3
HETATM    3  C   UNL     1     -44.264 -54.161  12.814  1.00  0.00     0.172 C 
BRANCH   3   4
HETATM    4  N   UNL     1     -45.179 -53.062  13.064  1.00  0.00    -0.302 N 
HETATM    5  C   UNL     1     -45.643 -52.632  14.275  1.00  0.00     0.111 A 
HETATM    6  C   UNL     1     -46.517 -51.603  14.006  1.00  0.00     0.037 A 
HETATM    7  C   UNL     1     -46.518 -51.493  12.605  1.00  0.00     0.108 A 
HETATM    8  N   UNL     1     -45.712 -52.385  12.024  1.00  0.00    -0.310 N 
ATOM      9  HN  UNL     1     -45.538 -52.522  11.028  1.00  0.00     0.186 HD
ENDBRANCH   3   4
ENDBRANCH   2   3
BRANCH   2  10
HETATM   10  N   UNL     1     -42.508 -52.412  12.967  1.00  0.00    -0.353 N 
HETATM   11  C   UNL     1     -41.315 -51.942  12.472  1.00  0.00     0.247 C 
HETATM   12  O   UNL     1     -40.391 -52.677  12.136  1.00  0.00    -0.271 OA
HETATM   13  H   UNL     1     -43.242 -51.718  13.099  1.00  0.00     0.163 HD
BRANCH  11  14
HETATM   14  C   UNL     1     -41.231 -50.409  12.388  1.00  0.00     0.213 C 
HETATM   15  C   UNL     1     -42.591 -49.760  12.600  1.00  0.00     0.043 C 
HETATM   16  C   UNL     1     -42.615 -48.579  11.652  1.00  0.00     0.029 C 
HETATM   17  C   UNL     1     -41.246 -48.578  11.010  1.00  0.00     0.168 C 
HETATM   18  O   UNL     1     -40.759 -49.920  11.123  1.00  0.00    -0.376 OA
ENDBRANCH  11  14
ENDBRANCH   2  10
TORSDOF 4
ENDMDL
MODEL 7
REMARK VINA RESULT:      -4.5      4.290      6.760
REMARK  4 active torsions:
REMARK  status: ('A' for Active; 'I' for Inactive)
REMARK    1  A    between atoms: C_2  and  C_3 
REMARK    2  A    between atoms: C_2  and  N_10 
REMARK    3  A    between atoms: C_3  and  N_4 
REMARK       I    between atoms: N_10  and  C_11 
REMARK    4  A    between atoms: C_11  and  C_13 
ROOT
HETATM    1  C   UNL     1     -43.108 -54.305  14.683  1.00  0.00     0.034 C 
HETATM    2  C   UNL     1     -42.769 -53.919  13.245  1.00  0.00     0.100 C 
ENDROOT
BRANCH   2   3
HETATM    3  C   UNL     1     -44.007 -53.569  12.401  1.00  0.00     0.172 C 
BRANCH   3   4
HETATM    4  N   UNL     1     -45.063 -52.911  13.149  1.00  0.00    -0.302 N 
HETATM    5  C   UNL     1     -45.106 -51.604  13.542  1.00  0.00     0.111 A 
HETATM    6  C   UNL     1     -46.271 -51.458  14.260  1.00  0.00     0.037 A 
HETATM    7  C   UNL     1     -46.858 -52.735  14.251  1.00  0.00     0.108 A 
HETATM    8  N   UNL     1     -46.122 -53.628  13.582  1.00  0.00    -0.310 N 
ATOM      9  HN  UNL     1     -46.315 -54.618  13.434  1.00  0.00     0.186 HD
ENDBRANCH   3   4
ENDBRANCH   2   3
BRANCH   2  10
HETATM   10  N   UNL     1     -41.812 -52.807  13.278  1.00  0.00    -0.353 N 
HETATM   11  C   UNL     1     -40.451 -52.984  13.206  1.00  0.00     0.247 C 
HETATM   12  O   UNL     1     -39.922 -54.087  13.105  1.00  0.00    -0.271 OA
HETATM   13  H   UNL     1     -42.140 -51.844  13.239  1.00  0.00     0.163 HD
BRANCH  11  14
HETATM   14  C   UNL     1     -39.644 -51.678  13.276  1.00  0.00     0.213 C 
HETATM   15  C   UNL     1     -40.074 -50.694  12.197  1.00  0.00     0.043 C 
HETATM   16  C   UNL     1     -38.795 -50.014  11.752  1.00  0.00     0.029 C 
HETATM   17  C   UNL     1     -37.724 -50.594  12.648  1.00  0.00     0.168 C 
HETATM   18  O   UNL     1     -38.230 -51.856  13.098  1.00  0.00    -0.376 OA
ENDBRANCH  11  14
ENDBRANCH   2  10
TORSDOF 4
ENDMDL
MODEL 8
REMARK VINA RESULT:      -4.5      2.614      3.802
REMARK  4 active torsions:
REMARK  status: ('A' for Active; 'I' for Inactive)
REMARK    1  A    between atoms: C_2  and  C_3 
REMARK    2  A    between atoms: C_2  and  N_10 
REMARK    3  A    between atoms: C_3  and  N_4 
REMARK       I    between atoms: N_10  and  C_11 
REMARK    4  A    between atoms: C_11  and  C_13 
ROOT
HETATM    1  C   UNL     1     -37.408 -49.807  11.288  1.00  0.00     0.034 C 
HETATM    2  C   UNL     1     -38.905 -49.840  11.590  1.00  0.00     0.100 C 
ENDROOT
BRANCH   2   3
HETATM    3  C   UNL     1     -39.229 -50.333  13.010  1.00  0.00     0.172 C 
BRANCH   3   4
HETATM    4  N   UNL     1     -39.833 -51.652  13.052  1.00  0.00    -0.302 N 
HETATM    5  C   UNL     1     -39.670 -52.605  14.017  1.00  0.00     0.111 A 
HETATM    6  C   UNL     1     -40.396 -53.699  13.602  1.00  0.00     0.037 A 
HETATM    7  C   UNL     1     -40.954 -53.310  12.373  1.00  0.00     0.108 A 
HETATM    8  N   UNL     1     -40.608 -52.067  12.027  1.00  0.00    -0.310 N 
ATOM      9  HN  UNL     1     -40.869 -51.552  11.187  1.00  0.00     0.186 HD
ENDBRANCH   3   4
ENDBRANCH   2   3
BRANCH   2  10
HETATM   10  N   UNL     1     -39.454 -48.501  11.350  1.00  0.00    -0.353 N 
HETATM   11  C   UNL     1     -40.792 -48.261  11.147  1.00  0.00     0.247 C 
HETATM   12  O   UNL     1     -41.641 -49.149  11.151  1.00  0.00    -0.271 OA
HETATM   13  H   UNL     1     -38.862 -47.677  11.443  1.00  0.00     0.163 HD
BRANCH  11  14
HETATM   14  C   UNL     1     -41.135 -46.783  10.899  1.00  0.00     0.213 C 
HETATM   15  C   UNL     1     -39.881 -45.930  10.769  1.00  0.00     0.043 C 
HETATM   16  C   UNL     1     -40.225 -44.619  11.445  1.00  0.00     0.029 C 
HETATM   17  C   UNL     1     -41.672 -44.771  11.856  1.00  0.00     0.168 C 
HETATM   18  O   UNL     1     -41.908 -46.180  11.949  1.00  0.00    -0.376 OA
ENDBRANCH  11  14
ENDBRANCH   2  10
TORSDOF 4
ENDMDL
MODEL 9
REMARK VINA RESULT:      -4.5     13.599     16.130
REMARK  4 active torsions:
REMARK  status: ('A' for Active; 'I' for Inactive)
REMARK    1  A    between atoms: C_2  and  C_3 
REMARK    2  A    between atoms: C_2  and  N_10 
REMARK    3  A    between atoms: C_3  and  N_4 
REMARK       I    between atoms: N_10  and  C_11 
REMARK    4  A    between atoms: C_11  and  C_13 
ROOT
HETATM    1  C   UNL     1     -53.070 -54.217  -0.625  1.00  0.00     0.034 C 
HETATM    2  C   UNL     1     -51.672 -53.786  -1.061  1.00  0.00     0.100 C 
ENDROOT
BRANCH   2   3
HETATM    3  C   UNL     1     -51.414 -53.989  -2.564  1.00  0.00     0.172 C 
BRANCH   3   4
HETATM    4  N   UNL     1     -50.603 -55.153  -2.872  1.00  0.00    -0.302 N 
HETATM    5  C   UNL     1     -49.349 -55.432  -2.408  1.00  0.00     0.111 A 
HETATM    6  C   UNL     1     -48.973 -56.612  -3.008  1.00  0.00     0.037 A 
HETATM    7  C   UNL     1     -50.064 -56.962  -3.822  1.00  0.00     0.108 A 
HETATM    8  N   UNL     1     -51.058 -56.072  -3.750  1.00  0.00    -0.310 N 
ATOM      9  HN  UNL     1     -51.951 -56.084  -4.243  1.00  0.00     0.186 HD
ENDBRANCH   3   4
ENDBRANCH   2   3
BRANCH   2  10
HETATM   10  N   UNL     1     -51.475 -52.387  -0.668  1.00  0.00    -0.353 N 
HETATM   11  C   UNL     1     -50.275 -51.894  -0.214  1.00  0.00     0.247 C 
HETATM   12  O   UNL     1     -49.266 -52.585  -0.101  1.00  0.00    -0.271 OA
HETATM   13  H   UNL     1     -52.207 -51.698  -0.833  1.00  0.00     0.163 HD
BRANCH  11  14
HETATM   14  C   UNL     1     -50.308 -50.403   0.156  1.00  0.00     0.213 C 
HETATM   15  C   UNL     1     -49.351 -49.590  -0.704  1.00  0.00     0.043 C 
HETATM   16  C   UNL     1     -48.777 -48.543   0.228  1.00  0.00     0.029 C 
HETATM   17  C   UNL     1     -49.492 -48.770   1.542  1.00  0.00     0.168 C 
HETATM   18  O   UNL     1     -49.935 -50.131   1.516  1.00  0.00    -0.376 OA
ENDBRANCH  11  14
ENDBRANCH   2  10
TORSDOF 4
ENDMDL
