MODEL 1
REMARK VINA RESULT:      -6.1      0.000      0.000
REMARK  4 active torsions:
REMARK  status: ('A' for Active; 'I' for Inactive)
REMARK    1  A    between atoms: N_6  and  C_7 
REMARK    2  A    between atoms: C_7  and  C_8 
REMARK    3  A    between atoms: C_8  and  O_9 
REMARK    4  A    between atoms: C_8  and  C_10 
ROOT
HETATM    1  C   UNL     1     -44.578 -54.034  12.712  1.00  0.00     0.169 C 
ENDROOT
BRANCH   1   2
HETATM    2  N   UNL     1     -43.291 -54.076  13.401  1.00  0.00    -0.307 N 
HETATM    3  C   UNL     1     -42.208 -53.421  12.885  1.00  0.00     0.186 A 
HETATM    4  N   UNL     1     -41.018 -53.460  13.380  1.00  0.00    -0.355 N 
HETATM    5  C   UNL     1     -40.830 -54.213  14.513  1.00  0.00     0.017 A 
ATOM      6  HN  UNL     1     -40.248 -52.952  12.947  1.00  0.00     0.166 HD
HETATM    7  C   UNL     1     -39.403 -54.268  14.992  1.00  0.00     0.069 C 
HETATM    8  C   UNL     1     -41.818 -54.862  15.158  1.00  0.00     0.028 A 
HETATM    9  C   UNL     1     -43.185 -54.768  14.586  1.00  0.00     0.256 A 
HETATM   10  C   UNL     1     -41.628 -55.681  16.396  1.00  0.00     0.056 C 
HETATM   11  O   UNL     1     -44.146 -55.301  15.137  1.00  0.00    -0.267 OA
ENDBRANCH   1   2
BRANCH   1  12
HETATM   12  C   UNL     1     -45.172 -52.613  12.584  1.00  0.00     0.169 C 
BRANCH  12  13
HETATM   13  O   UNL     1     -46.364 -52.708  11.787  1.00  0.00    -0.389 OA
HETATM   14  H   UNL     1     -47.039 -52.139  12.194  1.00  0.00     0.210 HD
ENDBRANCH  12  13
BRANCH  12  15
HETATM   15  C   UNL     1     -45.539 -51.946  13.906  1.00  0.00    -0.028 A 
HETATM   16  C   UNL     1     -44.645 -51.151  14.643  1.00  0.00     0.011 A 
HETATM   17  C   UNL     1     -45.015 -50.600  15.874  1.00  0.00     0.024 A 
HETATM   18  C   UNL     1     -46.287 -50.833  16.385  1.00  0.00     0.034 A 
HETATM   19 CL   UNL     1     -46.726 -50.178  17.913  1.00  0.00    -0.084 Cl
HETATM   20  C   UNL     1     -47.199 -51.598  15.665  1.00  0.00     0.024 A 
HETATM   21  C   UNL     1     -46.828 -52.147  14.433  1.00  0.00     0.011 A 
ENDBRANCH  12  15
ENDBRANCH   1  12
TORSDOF 4
ENDMDL
MODEL 2
REMARK VINA RESULT:      -5.9      2.730      3.369
REMARK  4 active torsions:
REMARK  status: ('A' for Active; 'I' for Inactive)
REMARK    1  A    between atoms: N_6  and  C_7 
REMARK    2  A    between atoms: C_7  and  C_8 
REMARK    3  A    between atoms: C_8  and  O_9 
REMARK    4  A    between atoms: C_8  and  C_10 
ROOT
HETATM    1  C   UNL     1     -42.279 -53.304  13.335  1.00  0.00     0.169 C 
ENDROOT
BRANCH   1   2
HETATM    2  N   UNL     1     -41.257 -52.323  12.981  1.00  0.00    -0.307 N 
HETATM    3  C   UNL     1     -41.321 -51.657  11.788  1.00  0.00     0.186 A 
HETATM    4  N   UNL     1     -40.430 -50.831  11.357  1.00  0.00    -0.355 N 
HETATM    5  C   UNL     1     -39.340 -50.600  12.160  1.00  0.00     0.017 A 
ATOM      6  HN  UNL     1     -40.531 -50.366  10.455  1.00  0.00     0.166 HD
HETATM    7  C   UNL     1     -38.309 -49.680  11.561  1.00  0.00     0.069 C 
HETATM    8  C   UNL     1     -39.177 -51.144  13.382  1.00  0.00     0.028 A 
HETATM    9  C   UNL     1     -40.238 -52.062  13.868  1.00  0.00     0.256 A 
HETATM   10  C   UNL     1     -37.998 -50.898  14.269  1.00  0.00     0.056 C 
HETATM   11  O   UNL     1     -40.181 -52.568  14.987  1.00  0.00    -0.267 OA
ENDBRANCH   1   2
BRANCH   1  12
HETATM   12  C   UNL     1     -43.677 -52.984  12.760  1.00  0.00     0.169 C 
BRANCH  12  13
HETATM   13  O   UNL     1     -44.188 -54.186  12.159  1.00  0.00    -0.389 OA
HETATM   14  H   UNL     1     -44.659 -54.686  12.848  1.00  0.00     0.210 HD
ENDBRANCH  12  13
BRANCH  12  15
HETATM   15  C   UNL     1     -44.698 -52.498  13.783  1.00  0.00    -0.028 A 
HETATM   16  C   UNL     1     -44.587 -52.746  15.162  1.00  0.00     0.011 A 
HETATM   17  C   UNL     1     -45.576 -52.319  16.054  1.00  0.00     0.024 A 
HETATM   18  C   UNL     1     -46.689 -51.633  15.582  1.00  0.00     0.034 A 
HETATM   19 CL   UNL     1     -47.916 -51.137  16.680  1.00  0.00    -0.084 Cl
HETATM   20  C   UNL     1     -46.813 -51.355  14.225  1.00  0.00     0.024 A 
HETATM   21  C   UNL     1     -45.822 -51.780  13.333  1.00  0.00     0.011 A 
ENDBRANCH  12  15
ENDBRANCH   1  12
TORSDOF 4
ENDMDL
MODEL 3
REMARK VINA RESULT:      -5.9      4.100      6.083
REMARK  4 active torsions:
REMARK  status: ('A' for Active; 'I' for Inactive)
REMARK    1  A    between atoms: N_6  and  C_7 
REMARK    2  A    between atoms: C_7  and  C_8 
REMARK    3  A    between atoms: C_8  and  O_9 
REMARK    4  A    between atoms: C_8  and  C_10 
ROOT
HETATM    1  C   UNL     1     -38.924 -52.843  14.668  1.00  0.00     0.169 C 
ENDROOT
BRANCH   1   2
HETATM    2  N   UNL     1     -38.986 -51.582  13.933  1.00  0.00    -0.307 N 
HETATM    3  C   UNL     1     -39.948 -50.656  14.228  1.00  0.00     0.186 A 
HETATM    4  N   UNL     1     -40.128 -49.551  13.588  1.00  0.00    -0.355 N 
HETATM    5  C   UNL     1     -39.285 -49.286  12.536  1.00  0.00     0.017 A 
ATOM      6  HN  UNL     1     -40.866 -48.900  13.852  1.00  0.00     0.166 HD
HETATM    7  C   UNL     1     -39.600 -48.014  11.793  1.00  0.00     0.069 C 
HETATM    8  C   UNL     1     -38.262 -50.082  12.173  1.00  0.00     0.028 A 
HETATM    9  C   UNL     1     -38.056 -51.329  12.952  1.00  0.00     0.256 A 
HETATM   10  C   UNL     1     -37.333 -49.803  11.032  1.00  0.00     0.056 C 
HETATM   11  O   UNL     1     -37.120 -52.088  12.706  1.00  0.00    -0.267 OA
ENDBRANCH   1   2
BRANCH   1  12
HETATM   12  C   UNL     1     -39.512 -54.045  13.896  1.00  0.00     0.169 C 
BRANCH  12  13
HETATM   13  O   UNL     1     -38.868 -55.234  14.381  1.00  0.00    -0.389 OA
HETATM   14  H   UNL     1     -39.036 -55.946  13.741  1.00  0.00     0.210 HD
ENDBRANCH  12  13
BRANCH  12  15
HETATM   15  C   UNL     1     -41.019 -54.231  14.044  1.00  0.00    -0.028 A 
HETATM   16  C   UNL     1     -41.612 -54.872  15.145  1.00  0.00     0.011 A 
HETATM   17  C   UNL     1     -42.996 -55.061  15.211  1.00  0.00     0.024 A 
HETATM   18  C   UNL     1     -43.810 -54.606  14.178  1.00  0.00     0.034 A 
HETATM   19 CL   UNL     1     -45.507 -54.867  14.251  1.00  0.00    -0.084 Cl
HETATM   20  C   UNL     1     -43.251 -53.949  13.088  1.00  0.00     0.024 A 
HETATM   21  C   UNL     1     -41.866 -53.759  13.023  1.00  0.00     0.011 A 
ENDBRANCH  12  15
ENDBRANCH   1  12
TORSDOF 4
ENDMDL
MODEL 4
REMARK VINA RESULT:      -5.9      4.574      5.861
REMARK  4 active torsions:
REMARK  status: ('A' for Active; 'I' for Inactive)
REMARK    1  A    between atoms: N_6  and  C_7 
REMARK    2  A    between atoms: C_7  and  C_8 
REMARK    3  A    between atoms: C_8  and  O_9 
REMARK    4  A    between atoms: C_8  and  C_10 
ROOT
HETATM    1  C   UNL     1     -40.295 -51.635  12.932  1.00  0.00     0.169 C 
ENDROOT
BRANCH   1   2
HETATM    2  N   UNL     1     -40.261 -50.230  12.535  1.00  0.00    -0.307 N 
HETATM    3  C   UNL     1     -40.714 -49.849  11.302  1.00  0.00     0.186 A 
HETATM    4  N   UNL     1     -40.656 -48.649  10.835  1.00  0.00    -0.355 N 
HETATM    5  C   UNL     1     -40.104 -47.683  11.640  1.00  0.00     0.017 A 
ATOM      6  HN  UNL     1     -41.007 -48.426   9.904  1.00  0.00     0.166 HD
HETATM    7  C   UNL     1     -40.007 -46.322  11.002  1.00  0.00     0.069 C 
HETATM    8  C   UNL     1     -39.672 -47.907  12.896  1.00  0.00     0.028 A 
HETATM    9  C   UNL     1     -39.786 -49.292  13.421  1.00  0.00     0.256 A 
HETATM   10  C   UNL     1     -39.073 -46.863  13.786  1.00  0.00     0.056 C 
HETATM   11  O   UNL     1     -39.447 -49.568  14.570  1.00  0.00    -0.267 OA
ENDBRANCH   1   2
BRANCH   1  12
HETATM   12  C   UNL     1     -41.212 -52.512  12.050  1.00  0.00     0.169 C 
BRANCH  12  13
HETATM   13  O   UNL     1     -40.432 -53.624  11.580  1.00  0.00    -0.389 OA
HETATM   14  H   UNL     1     -39.672 -53.267  11.089  1.00  0.00     0.210 HD
ENDBRANCH  12  13
BRANCH  12  15
HETATM   15  C   UNL     1     -42.446 -53.066  12.755  1.00  0.00    -0.028 A 
HETATM   16  C   UNL     1     -42.405 -54.157  13.640  1.00  0.00     0.011 A 
HETATM   17  C   UNL     1     -43.572 -54.657  14.224  1.00  0.00     0.024 A 
HETATM   18  C   UNL     1     -44.800 -54.071  13.936  1.00  0.00     0.034 A 
HETATM   19 CL   UNL     1     -46.235 -54.710  14.633  1.00  0.00    -0.084 Cl
HETATM   20  C   UNL     1     -44.867 -52.977  13.081  1.00  0.00     0.024 A 
HETATM   21  C   UNL     1     -43.697 -52.475  12.498  1.00  0.00     0.011 A 
ENDBRANCH  12  15
ENDBRANCH   1  12
TORSDOF 4
ENDMDL
MODEL 5
REMARK VINA RESULT:      -5.7      3.762      6.020
REMARK  4 active torsions:
REMARK  status: ('A' for Active; 'I' for Inactive)
REMARK    1  A    between atoms: N_6  and  C_7 
REMARK    2  A    between atoms: C_7  and  C_8 
REMARK    3  A    between atoms: C_8  and  O_9 
REMARK    4  A    between atoms: C_8  and  C_10 
ROOT
HETATM    1  C   UNL     1     -42.362 -52.134  12.141  1.00  0.00     0.169 C 
ENDROOT
BRANCH   1   2
HETATM    2  N   UNL     1     -43.475 -52.663  12.924  1.00  0.00    -0.307 N 
HETATM    3  C   UNL     1     -43.561 -54.002  13.187  1.00  0.00     0.186 A 
HETATM    4  N   UNL     1     -44.540 -54.570  13.804  1.00  0.00    -0.355 N 
HETATM    5  C   UNL     1     -45.569 -53.767  14.233  1.00  0.00     0.017 A 
ATOM      6  HN  UNL     1     -44.550 -55.576  13.968  1.00  0.00     0.166 HD
HETATM    7  C   UNL     1     -46.708 -54.508  14.883  1.00  0.00     0.069 C 
HETATM    8  C   UNL     1     -45.586 -52.428  14.092  1.00  0.00     0.028 A 
HETATM    9  C   UNL     1     -44.427 -51.797  13.411  1.00  0.00     0.256 A 
HETATM   10  C   UNL     1     -46.697 -51.540  14.559  1.00  0.00     0.056 C 
HETATM   11  O   UNL     1     -44.352 -50.577  13.277  1.00  0.00    -0.267 OA
ENDBRANCH   1   2
BRANCH   1  12
HETATM   12  C   UNL     1     -40.978 -52.644  12.599  1.00  0.00     0.169 C 
BRANCH  12  13
HETATM   13  O   UNL     1     -40.408 -53.395  11.515  1.00  0.00    -0.389 OA
HETATM   14  H   UNL     1     -40.755 -53.028  10.684  1.00  0.00     0.210 HD
ENDBRANCH  12  13
BRANCH  12  15
HETATM   15  C   UNL     1     -39.986 -51.553  12.989  1.00  0.00    -0.028 A 
HETATM   16  C   UNL     1     -38.916 -51.764  13.876  1.00  0.00     0.011 A 
HETATM   17  C   UNL     1     -38.062 -50.718  14.240  1.00  0.00     0.024 A 
HETATM   18  C   UNL     1     -38.261 -49.445  13.717  1.00  0.00     0.034 A 
HETATM   19 CL   UNL     1     -37.226 -48.157  14.191  1.00  0.00    -0.084 Cl
HETATM   20  C   UNL     1     -39.298 -49.214  12.820  1.00  0.00     0.024 A 
HETATM   21  C   UNL     1     -40.151 -50.261  12.455  1.00  0.00     0.011 A 
ENDBRANCH  12  15
ENDBRANCH   1  12
TORSDOF 4
ENDMDL
MODEL 6
REMARK VINA RESULT:      -5.7      4.632      6.990
REMARK  4 active torsions:
REMARK  status: ('A' for Active; 'I' for Inactive)
REMARK    1  A    between atoms: N_6  and  C_7 
REMARK    2  A    between atoms: C_7  and  C_8 
REMARK    3  A    between atoms: C_8  and  O_9 
REMARK    4  A    between atoms: C_8  and  C_10 
ROOT
HETATM    1  C   UNL     1     -40.020 -51.525  12.634  1.00  0.00     0.169 C 
ENDROOT
BRANCH   1   2
HETATM    2  N   UNL     1     -40.801 -50.337  12.301  1.00  0.00    -0.307 N 
HETATM    3  C   UNL     1     -42.167 -50.372  12.347  1.00  0.00     0.186 A 
HETATM    4  N   UNL     1     -42.941 -49.400  12.001  1.00  0.00    -0.355 N 
HETATM    5  C   UNL     1     -42.345 -48.244  11.559  1.00  0.00     0.017 A 
ATOM      6  HN  UNL     1     -43.955 -49.487  12.053  1.00  0.00     0.166 HD
HETATM    7  C   UNL     1     -43.310 -47.180  11.107  1.00  0.00     0.069 C 
HETATM    8  C   UNL     1     -41.012 -48.053  11.517  1.00  0.00     0.028 A 
HETATM    9  C   UNL     1     -40.147 -49.177  11.958  1.00  0.00     0.256 A 
HETATM   10  C   UNL     1     -40.350 -46.798  11.043  1.00  0.00     0.056 C 
HETATM   11  O   UNL     1     -38.922 -49.067  11.984  1.00  0.00    -0.267 OA
ENDBRANCH   1   2
BRANCH   1  12
HETATM   12  C   UNL     1     -40.843 -52.833  12.636  1.00  0.00     0.169 C 
BRANCH  12  13
HETATM   13  O   UNL     1     -40.539 -53.543  11.424  1.00  0.00    -0.389 OA
HETATM   14  H   UNL     1     -39.601 -53.392  11.218  1.00  0.00     0.210 HD
ENDBRANCH  12  13
BRANCH  12  15
HETATM   15  C   UNL     1     -40.568 -53.766  13.811  1.00  0.00    -0.028 A 
HETATM   16  C   UNL     1     -41.565 -54.203  14.699  1.00  0.00     0.011 A 
HETATM   17  C   UNL     1     -41.253 -55.020  15.790  1.00  0.00     0.024 A 
HETATM   18  C   UNL     1     -39.938 -55.417  16.008  1.00  0.00     0.034 A 
HETATM   19 CL   UNL     1     -39.556 -56.397  17.367  1.00  0.00    -0.084 Cl
HETATM   20  C   UNL     1     -38.935 -55.017  15.132  1.00  0.00     0.024 A 
HETATM   21  C   UNL     1     -39.249 -54.201  14.039  1.00  0.00     0.011 A 
ENDBRANCH  12  15
ENDBRANCH   1  12
TORSDOF 4
ENDMDL
MODEL 7
REMARK VINA RESULT:      -5.5      3.821      4.575
REMARK  4 active torsions:
REMARK  status: ('A' for Active; 'I' for Inactive)
REMARK    1  A    between atoms: N_6  and  C_7 
REMARK    2  A    between atoms: C_7  and  C_8 
REMARK    3  A    between atoms: C_8  and  O_9 
REMARK    4  A    between atoms: C_8  and  C_10 
ROOT
HETATM    1  C   UNL     1     -42.611 -49.594  12.920  1.00  0.00     0.169 C 
ENDROOT
BRANCH   1   2
HETATM    2  N   UNL     1     -41.208 -49.613  12.516  1.00  0.00    -0.307 N 
HETATM    3  C   UNL     1     -40.870 -49.671  11.192  1.00  0.00     0.186 A 
HETATM    4  N   UNL     1     -39.666 -49.767  10.743  1.00  0.00    -0.355 N 
HETATM    5  C   UNL     1     -38.648 -49.807  11.665  1.00  0.00     0.017 A 
ATOM      6  HN  UNL     1     -39.476 -49.810   9.742  1.00  0.00     0.166 HD
HETATM    7  C   UNL     1     -37.277 -49.989  11.070  1.00  0.00     0.069 C 
HETATM    8  C   UNL     1     -38.834 -49.701  12.994  1.00  0.00     0.028 A 
HETATM    9  C   UNL     1     -40.229 -49.555  13.480  1.00  0.00     0.256 A 
HETATM   10  C   UNL     1     -37.735 -49.738  14.010  1.00  0.00     0.056 C 
HETATM   11  O   UNL     1     -40.477 -49.415  14.677  1.00  0.00    -0.267 OA
ENDBRANCH   1   2
BRANCH   1  12
HETATM   12  C   UNL     1     -43.241 -50.999  13.055  1.00  0.00     0.169 C 
BRANCH  12  13
HETATM   13  O   UNL     1     -42.226 -51.887  13.550  1.00  0.00    -0.389 OA
HETATM   14  H   UNL     1     -41.847 -51.489  14.352  1.00  0.00     0.210 HD
ENDBRANCH  12  13
BRANCH  12  15
HETATM   15  C   UNL     1     -44.439 -51.080  13.996  1.00  0.00    -0.028 A 
HETATM   16  C   UNL     1     -45.724 -51.466  13.578  1.00  0.00     0.011 A 
HETATM   17  C   UNL     1     -46.800 -51.479  14.470  1.00  0.00     0.024 A 
HETATM   18  C   UNL     1     -46.608 -51.110  15.797  1.00  0.00     0.034 A 
HETATM   19 CL   UNL     1     -47.941 -51.099  16.882  1.00  0.00    -0.084 Cl
HETATM   20  C   UNL     1     -45.342 -50.746  16.242  1.00  0.00     0.024 A 
HETATM   21  C   UNL     1     -44.264 -50.735  15.349  1.00  0.00     0.011 A 
ENDBRANCH  12  15
ENDBRANCH   1  12
TORSDOF 4
ENDMDL
MODEL 8
REMARK VINA RESULT:      -5.2      3.878      6.095
REMARK  4 active torsions:
REMARK  status: ('A' for Active; 'I' for Inactive)
REMARK    1  A    between atoms: N_6  and  C_7 
REMARK    2  A    between atoms: C_7  and  C_8 
REMARK    3  A    between atoms: C_8  and  O_9 
REMARK    4  A    between atoms: C_8  and  C_10 
ROOT
HETATM    1  C   UNL     1     -40.784 -53.260  12.605  1.00  0.00     0.169 C 
ENDROOT
BRANCH   1   2
HETATM    2  N   UNL     1     -42.129 -52.860  13.012  1.00  0.00    -0.307 N 
HETATM    3  C   UNL     1     -42.662 -51.681  12.573  1.00  0.00     0.186 A 
HETATM    4  N   UNL     1     -43.807 -51.209  12.935  1.00  0.00    -0.355 N 
HETATM    5  C   UNL     1     -44.544 -51.953  13.824  1.00  0.00     0.017 A 
ATOM      6  HN  UNL     1     -44.151 -50.320  12.576  1.00  0.00     0.166 HD
HETATM    7  C   UNL     1     -45.834 -51.308  14.255  1.00  0.00     0.069 C 
HETATM    8  C   UNL     1     -44.165 -53.158  14.293  1.00  0.00     0.028 A 
HETATM    9  C   UNL     1     -42.859 -53.692  13.828  1.00  0.00     0.256 A 
HETATM   10  C   UNL     1     -44.960 -53.981  15.257  1.00  0.00     0.056 C 
HETATM   11  O   UNL     1     -42.462 -54.801  14.181  1.00  0.00    -0.267 OA
ENDBRANCH   1   2
BRANCH   1  12
HETATM   12  C   UNL     1     -39.732 -53.149  13.731  1.00  0.00     0.169 C 
BRANCH  12  13
HETATM   13  O   UNL     1     -38.685 -54.091  13.445  1.00  0.00    -0.389 OA
HETATM   14  H   UNL     1     -38.672 -54.748  14.161  1.00  0.00     0.210 HD
ENDBRANCH  12  13
BRANCH  12  15
HETATM   15  C   UNL     1     -39.098 -51.771  13.887  1.00  0.00    -0.028 A 
HETATM   16  C   UNL     1     -38.891 -50.891  12.811  1.00  0.00     0.011 A 
HETATM   17  C   UNL     1     -38.261 -49.657  12.999  1.00  0.00     0.024 A 
HETATM   18  C   UNL     1     -37.833 -49.280  14.267  1.00  0.00     0.034 A 
HETATM   19 CL   UNL     1     -37.033 -47.775  14.487  1.00  0.00    -0.084 Cl
HETATM   20  C   UNL     1     -38.046 -50.123  15.353  1.00  0.00     0.024 A 
HETATM   21  C   UNL     1     -38.678 -51.357  15.165  1.00  0.00     0.011 A 
ENDBRANCH  12  15
ENDBRANCH   1  12
TORSDOF 4
ENDMDL
MODEL 9
REMARK VINA RESULT:      -5.1      5.272      6.185
REMARK  4 active torsions:
REMARK  status: ('A' for Active; 'I' for Inactive)
REMARK    1  A    between atoms: N_6  and  C_7 
REMARK    2  A    between atoms: C_7  and  C_8 
REMARK    3  A    between atoms: C_8  and  O_9 
REMARK    4  A    between atoms: C_8  and  C_10 
ROOT
HETATM    1  C   UNL     1     -39.776 -49.952  11.618  1.00  0.00     0.169 C 
ENDROOT
BRANCH   1   2
HETATM    2  N   UNL     1     -39.739 -51.126  12.486  1.00  0.00    -0.307 N 
HETATM    3  C   UNL     1     -38.671 -51.343  13.312  1.00  0.00     0.186 A 
HETATM    4  N   UNL     1     -38.514 -52.384  14.056  1.00  0.00    -0.355 N 
HETATM    5  C   UNL     1     -39.498 -53.342  14.018  1.00  0.00     0.017 A 
ATOM      6  HN  UNL     1     -37.692 -52.492  14.649  1.00  0.00     0.166 HD
HETATM    7  C   UNL     1     -39.213 -54.559  14.857  1.00  0.00     0.069 C 
HETATM    8  C   UNL     1     -40.628 -53.231  13.294  1.00  0.00     0.028 A 
HETATM    9  C   UNL     1     -40.798 -52.003  12.476  1.00  0.00     0.256 A 
HETATM   10  C   UNL     1     -41.710 -54.264  13.247  1.00  0.00     0.056 C 
HETATM   11  O   UNL     1     -41.819 -51.812  11.818  1.00  0.00    -0.267 OA
ENDBRANCH   1   2
BRANCH   1  12
HETATM   12  C   UNL     1     -40.291 -48.674  12.319  1.00  0.00     0.169 C 
BRANCH  12  13
HETATM   13  O   UNL     1     -39.158 -47.830  12.577  1.00  0.00    -0.389 OA
HETATM   14  H   UNL     1     -38.435 -48.115  11.991  1.00  0.00     0.210 HD
ENDBRANCH  12  13
BRANCH  12  15
HETATM   15  C   UNL     1     -41.309 -47.867  11.520  1.00  0.00    -0.028 A 
HETATM   16  C   UNL     1     -42.616 -48.313  11.261  1.00  0.00     0.011 A 
HETATM   17  C   UNL     1     -43.497 -47.557  10.481  1.00  0.00     0.024 A 
HETATM   18  C   UNL     1     -43.085 -46.337   9.953  1.00  0.00     0.034 A 
HETATM   19 CL   UNL     1     -44.162 -45.425   8.972  1.00  0.00    -0.084 Cl
HETATM   20  C   UNL     1     -41.804 -45.862  10.213  1.00  0.00     0.024 A 
HETATM   21  C   UNL     1     -40.925 -46.619  10.995  1.00  0.00     0.011 A 
ENDBRANCH  12  15
ENDBRANCH   1  12
TORSDOF 4
ENDMDL
