MODEL 1
REMARK VINA RESULT:      -5.7      0.000      0.000
REMARK  6 active torsions:
REMARK  status: ('A' for Active; 'I' for Inactive)
REMARK    1  A    between atoms: C_5  and  C_6 
REMARK    2  A    between atoms: C_6  and  C_7 
REMARK       I    between atoms: C_7  and  N_9 
REMARK    3  A    between atoms: N_9  and  C_10 
REMARK    4  A    between atoms: C_10  and  C_12 
REMARK    5  A    between atoms: C_10  and  C_14 
REMARK    6  A    between atoms: C_12  and  O_13 
ROOT
HETATM    1  C   UNL     1     -43.559 -54.670  14.957  1.00  0.00     0.222 C 
HETATM    2  O   UNL     1     -44.244 -55.676  14.803  1.00  0.00    -0.273 OA
HETATM    3  N   UNL     1     -44.047 -53.476  15.447  1.00  0.00    -0.349 N 
HETATM    4  H   UNL     1     -43.362 -52.765  15.660  1.00  0.00     0.163 HD
ENDROOT
BRANCH   3   5
HETATM    5  C   UNL     1     -45.459 -53.212  15.808  1.00  0.00     0.054 C 
HETATM    6  C   UNL     1     -46.383 -54.156  14.993  1.00  0.00     0.041 C 
BRANCH   5   7
HETATM    7  C   UNL     1     -45.689 -53.550  17.315  1.00  0.00     0.195 C 
BRANCH   7   8
HETATM    8  O   UNL     1     -45.903 -54.940  17.537  1.00  0.00    -0.398 OA
HETATM    9  H   UNL     1     -45.025 -55.338  17.670  1.00  0.00     0.209 HD
ENDBRANCH   7   8
ENDBRANCH   5   7
BRANCH   5  10
HETATM   10  C   UNL     1     -45.893 -51.711  15.488  1.00  0.00     0.015 C 
HETATM   11  C   UNL     1     -46.398 -51.456  14.048  1.00  0.00     0.007 C 
HETATM   12  C   UNL     1     -45.285 -51.338  13.013  1.00  0.00     0.000 C 
HETATM   13  C   UNL     1     -44.234 -50.300  13.403  1.00  0.00     0.000 C 
HETATM   14  C   UNL     1     -43.762 -50.392  14.852  1.00  0.00     0.000 C 
HETATM   15  C   UNL     1     -44.910 -50.573  15.838  1.00  0.00     0.007 C 
ENDBRANCH   5  10
ENDBRANCH   3   5
BRANCH   1  16
HETATM   16  C   UNL     1     -42.074 -54.665  14.641  1.00  0.00     0.142 C 
BRANCH  16  17
HETATM   17  C   UNL     1     -41.623 -53.511  13.786  1.00  0.00    -0.034 A 
HETATM   18  C   UNL     1     -40.761 -52.543  14.310  1.00  0.00     0.011 A 
HETATM   19  C   UNL     1     -40.368 -51.460  13.527  1.00  0.00     0.025 A 
HETATM   20  C   UNL     1     -40.853 -51.360  12.229  1.00  0.00     0.005 A 
HETATM   21  C   UNL     1     -40.440 -50.234  11.332  1.00  0.00     0.068 C 
HETATM   22  N   UNL     1     -41.708 -52.269  11.706  1.00  0.00    -0.369 N 
HETATM   23  C   UNL     1     -42.089 -53.303  12.492  1.00  0.00     0.095 A 
ATOM     24  HN  UNL     1     -42.054 -52.179  10.752  1.00  0.00     0.165 HD
ENDBRANCH  16  17
ENDBRANCH   1  16
TORSDOF 6
ENDMDL
MODEL 2
REMARK VINA RESULT:      -5.6      2.214      4.325
REMARK  6 active torsions:
REMARK  status: ('A' for Active; 'I' for Inactive)
REMARK    1  A    between atoms: C_5  and  C_6 
REMARK    2  A    between atoms: C_6  and  C_7 
REMARK       I    between atoms: C_7  and  N_9 
REMARK    3  A    between atoms: N_9  and  C_10 
REMARK    4  A    between atoms: C_10  and  C_12 
REMARK    5  A    between atoms: C_10  and  C_14 
REMARK    6  A    between atoms: C_12  and  O_13 
ROOT
HETATM    1  C   UNL     1     -43.715 -50.781  13.308  1.00  0.00     0.222 C 
HETATM    2  O   UNL     1     -44.929 -50.827  13.138  1.00  0.00    -0.273 OA
HETATM    3  N   UNL     1     -42.932 -51.891  13.556  1.00  0.00    -0.349 N 
HETATM    4  H   UNL     1     -41.933 -51.747  13.539  1.00  0.00     0.163 HD
ENDROOT
BRANCH   3   5
HETATM    5  C   UNL     1     -43.433 -53.277  13.706  1.00  0.00     0.054 C 
HETATM    6  C   UNL     1     -44.372 -53.353  14.940  1.00  0.00     0.041 C 
BRANCH   5   7
HETATM    7  C   UNL     1     -44.295 -53.662  12.462  1.00  0.00     0.195 C 
BRANCH   7   8
HETATM    8  O   UNL     1     -45.682 -53.753  12.766  1.00  0.00    -0.398 OA
HETATM    9  H   UNL     1     -45.853 -54.679  13.009  1.00  0.00     0.209 HD
ENDBRANCH   7   8
ENDBRANCH   5   7
BRANCH   5  10
HETATM   10  C   UNL     1     -42.251 -54.324  13.929  1.00  0.00     0.015 C 
HETATM   11  C   UNL     1     -41.744 -54.457  15.384  1.00  0.00     0.007 C 
HETATM   12  C   UNL     1     -40.809 -53.335  15.819  1.00  0.00     0.000 C 
HETATM   13  C   UNL     1     -39.636 -53.148  14.859  1.00  0.00     0.000 C 
HETATM   14  C   UNL     1     -40.024 -53.130  13.382  1.00  0.00     0.000 C 
HETATM   15  C   UNL     1     -41.009 -54.234  13.015  1.00  0.00     0.007 C 
ENDBRANCH   5  10
ENDBRANCH   3   5
BRANCH   1  16
HETATM   16  C   UNL     1     -42.951 -49.472  13.226  1.00  0.00     0.142 C 
BRANCH  16  17
HETATM   17  C   UNL     1     -41.528 -49.610  12.755  1.00  0.00    -0.034 A 
HETATM   18  C   UNL     1     -40.471 -49.459  13.657  1.00  0.00     0.011 A 
HETATM   19  C   UNL     1     -39.154 -49.557  13.213  1.00  0.00     0.025 A 
HETATM   20  C   UNL     1     -38.918 -49.801  11.865  1.00  0.00     0.005 A 
HETATM   21  C   UNL     1     -37.523 -49.948  11.338  1.00  0.00     0.068 C 
HETATM   22  N   UNL     1     -39.922 -49.927  10.968  1.00  0.00    -0.369 N 
HETATM   23  C   UNL     1     -41.191 -49.809  11.420  1.00  0.00     0.095 A 
ATOM     24  HN  UNL     1     -39.728 -50.104   9.983  1.00  0.00     0.165 HD
ENDBRANCH  16  17
ENDBRANCH   1  16
TORSDOF 6
ENDMDL
MODEL 3
REMARK VINA RESULT:      -5.5      2.897      4.545
REMARK  6 active torsions:
REMARK  status: ('A' for Active; 'I' for Inactive)
REMARK    1  A    between atoms: C_5  and  C_6 
REMARK    2  A    between atoms: C_6  and  C_7 
REMARK       I    between atoms: C_7  and  N_9 
REMARK    3  A    between atoms: N_9  and  C_10 
REMARK    4  A    between atoms: C_10  and  C_12 
REMARK    5  A    between atoms: C_10  and  C_14 
REMARK    6  A    between atoms: C_12  and  O_13 
ROOT
HETATM    1  C   UNL     1     -41.788 -50.366  13.639  1.00  0.00     0.222 C 
HETATM    2  O   UNL     1     -40.817 -50.999  14.042  1.00  0.00    -0.273 OA
HETATM    3  N   UNL     1     -43.027 -50.927  13.401  1.00  0.00    -0.349 N 
HETATM    4  H   UNL     1     -43.780 -50.284  13.207  1.00  0.00     0.163 HD
ENDROOT
BRANCH   3   5
HETATM    5  C   UNL     1     -43.357 -52.364  13.543  1.00  0.00     0.054 C 
HETATM    6  C   UNL     1     -42.332 -53.208  12.738  1.00  0.00     0.041 C 
BRANCH   5   7
HETATM    7  C   UNL     1     -43.213 -52.792  15.037  1.00  0.00     0.195 C 
BRANCH   7   8
HETATM    8  O   UNL     1     -42.026 -53.538  15.281  1.00  0.00    -0.398 OA
HETATM    9  H   UNL     1     -42.303 -54.457  15.442  1.00  0.00     0.209 HD
ENDBRANCH   7   8
ENDBRANCH   5   7
BRANCH   5  10
HETATM   10  C   UNL     1     -44.812 -52.706  12.988  1.00  0.00     0.015 C 
HETATM   11  C   UNL     1     -45.843 -51.556  13.068  1.00  0.00     0.007 C 
HETATM   12  C   UNL     1     -46.438 -51.352  14.456  1.00  0.00     0.000 C 
HETATM   13  C   UNL     1     -47.027 -52.638  15.032  1.00  0.00     0.000 C 
HETATM   14  C   UNL     1     -46.129 -53.865  14.888  1.00  0.00     0.000 C 
HETATM   15  C   UNL     1     -45.510 -53.985  13.500  1.00  0.00     0.007 C 
ENDBRANCH   5  10
ENDBRANCH   3   5
BRANCH   1  16
HETATM   16  C   UNL     1     -41.713 -48.869  13.391  1.00  0.00     0.142 C 
BRANCH  16  17
HETATM   17  C   UNL     1     -42.162 -48.442  12.019  1.00  0.00    -0.034 A 
HETATM   18  C   UNL     1     -43.410 -47.837  11.844  1.00  0.00     0.011 A 
HETATM   19  C   UNL     1     -43.836 -47.469  10.570  1.00  0.00     0.025 A 
HETATM   20  C   UNL     1     -43.003 -47.721   9.486  1.00  0.00     0.005 A 
HETATM   21  C   UNL     1     -43.396 -47.319   8.098  1.00  0.00     0.068 C 
HETATM   22  N   UNL     1     -41.802 -48.327   9.625  1.00  0.00    -0.369 N 
HETATM   23  C   UNL     1     -41.419 -48.691  10.870  1.00  0.00     0.095 A 
ATOM     24  HN  UNL     1     -41.206 -48.505   8.817  1.00  0.00     0.165 HD
ENDBRANCH  16  17
ENDBRANCH   1  16
TORSDOF 6
ENDMDL
MODEL 4
REMARK VINA RESULT:      -5.4      2.169      5.443
REMARK  6 active torsions:
REMARK  status: ('A' for Active; 'I' for Inactive)
REMARK    1  A    between atoms: C_5  and  C_6 
REMARK    2  A    between atoms: C_6  and  C_7 
REMARK       I    between atoms: C_7  and  N_9 
REMARK    3  A    between atoms: N_9  and  C_10 
REMARK    4  A    between atoms: C_10  and  C_12 
REMARK    5  A    between atoms: C_10  and  C_14 
REMARK    6  A    between atoms: C_12  and  O_13 
ROOT
HETATM    1  C   UNL     1     -43.642 -53.494  13.133  1.00  0.00     0.222 C 
HETATM    2  O   UNL     1     -43.690 -53.159  11.954  1.00  0.00    -0.273 OA
HETATM    3  N   UNL     1     -42.574 -53.226  13.966  1.00  0.00    -0.349 N 
HETATM    4  H   UNL     1     -42.709 -53.427  14.946  1.00  0.00     0.163 HD
ENDROOT
BRANCH   3   5
HETATM    5  C   UNL     1     -41.320 -52.552  13.559  1.00  0.00     0.054 C 
HETATM    6  C   UNL     1     -40.108 -53.435  13.962  1.00  0.00     0.041 C 
BRANCH   5   7
HETATM    7  C   UNL     1     -41.276 -52.414  12.005  1.00  0.00     0.195 C 
BRANCH   7   8
HETATM    8  O   UNL     1     -40.552 -53.470  11.382  1.00  0.00    -0.398 OA
HETATM    9  H   UNL     1     -40.074 -53.074  10.633  1.00  0.00     0.209 HD
ENDBRANCH   7   8
ENDBRANCH   5   7
BRANCH   5  10
HETATM   10  C   UNL     1     -41.142 -51.133  14.264  1.00  0.00     0.015 C 
HETATM   11  C   UNL     1     -41.443 -51.098  15.781  1.00  0.00     0.007 C 
HETATM   12  C   UNL     1     -42.930 -51.061  16.117  1.00  0.00     0.000 C 
HETATM   13  C   UNL     1     -43.661 -49.927  15.401  1.00  0.00     0.000 C 
HETATM   14  C   UNL     1     -43.330 -49.800  13.915  1.00  0.00     0.000 C 
HETATM   15  C   UNL     1     -41.837 -49.907  13.630  1.00  0.00     0.007 C 
ENDBRANCH   5  10
ENDBRANCH   3   5
BRANCH   1  16
HETATM   16  C   UNL     1     -44.797 -54.222  13.799  1.00  0.00     0.142 C 
BRANCH  16  17
HETATM   17  C   UNL     1     -45.642 -53.359  14.698  1.00  0.00    -0.034 A 
HETATM   18  C   UNL     1     -46.289 -52.232  14.185  1.00  0.00     0.011 A 
HETATM   19  C   UNL     1     -47.047 -51.418  15.024  1.00  0.00     0.025 A 
HETATM   20  C   UNL     1     -47.138 -51.746  16.372  1.00  0.00     0.005 A 
HETATM   21  C   UNL     1     -47.964 -50.925  17.314  1.00  0.00     0.068 C 
HETATM   22  N   UNL     1     -46.501 -52.817  16.898  1.00  0.00    -0.369 N 
HETATM   23  C   UNL     1     -45.757 -53.582  16.066  1.00  0.00     0.095 A 
ATOM     24  HN  UNL     1     -46.579 -53.041  17.890  1.00  0.00     0.165 HD
ENDBRANCH  16  17
ENDBRANCH   1  16
TORSDOF 6
ENDMDL
MODEL 5
REMARK VINA RESULT:      -5.4      1.399      2.196
REMARK  6 active torsions:
REMARK  status: ('A' for Active; 'I' for Inactive)
REMARK    1  A    between atoms: C_5  and  C_6 
REMARK    2  A    between atoms: C_6  and  C_7 
REMARK       I    between atoms: C_7  and  N_9 
REMARK    3  A    between atoms: N_9  and  C_10 
REMARK    4  A    between atoms: C_10  and  C_12 
REMARK    5  A    between atoms: C_10  and  C_14 
REMARK    6  A    between atoms: C_12  and  O_13 
ROOT
HETATM    1  C   UNL     1     -43.238 -53.859  13.425  1.00  0.00     0.222 C 
HETATM    2  O   UNL     1     -44.055 -53.787  12.513  1.00  0.00    -0.273 OA
HETATM    3  N   UNL     1     -43.563 -53.728  14.760  1.00  0.00    -0.349 N 
HETATM    4  H   UNL     1     -42.832 -53.944  15.423  1.00  0.00     0.163 HD
ENDROOT
BRANCH   3   5
HETATM    5  C   UNL     1     -44.915 -53.434  15.288  1.00  0.00     0.054 C 
HETATM    6  C   UNL     1     -45.936 -54.425  14.666  1.00  0.00     0.041 C 
BRANCH   5   7
HETATM    7  C   UNL     1     -44.942 -53.674  16.830  1.00  0.00     0.195 C 
BRANCH   7   8
HETATM    8  O   UNL     1     -45.973 -54.572  17.226  1.00  0.00    -0.398 OA
HETATM    9  H   UNL     1     -46.490 -54.115  17.912  1.00  0.00     0.209 HD
ENDBRANCH   7   8
ENDBRANCH   5   7
BRANCH   5  10
HETATM   10  C   UNL     1     -45.393 -51.956  14.931  1.00  0.00     0.015 C 
HETATM   11  C   UNL     1     -44.677 -50.819  15.699  1.00  0.00     0.007 C 
HETATM   12  C   UNL     1     -45.182 -50.621  17.124  1.00  0.00     0.000 C 
HETATM   13  C   UNL     1     -46.696 -50.436  17.185  1.00  0.00     0.000 C 
HETATM   14  C   UNL     1     -47.491 -51.440  16.352  1.00  0.00     0.000 C 
HETATM   15  C   UNL     1     -46.906 -51.647  14.959  1.00  0.00     0.007 C 
ENDBRANCH   5  10
ENDBRANCH   3   5
BRANCH   1  16
HETATM   16  C   UNL     1     -41.769 -54.134  13.155  1.00  0.00     0.142 C 
BRANCH  16  17
HETATM   17  C   UNL     1     -40.961 -52.914  12.804  1.00  0.00    -0.034 A 
HETATM   18  C   UNL     1     -39.900 -52.514  13.622  1.00  0.00     0.011 A 
HETATM   19  C   UNL     1     -39.172 -51.367  13.312  1.00  0.00     0.025 A 
HETATM   20  C   UNL     1     -39.525 -50.634  12.186  1.00  0.00     0.005 A 
HETATM   21  C   UNL     1     -38.757 -49.411  11.786  1.00  0.00     0.068 C 
HETATM   22  N   UNL     1     -40.562 -50.986  11.391  1.00  0.00    -0.369 N 
HETATM   23  C   UNL     1     -41.265 -52.093  11.724  1.00  0.00     0.095 A 
ATOM     24  HN  UNL     1     -40.805 -50.434  10.569  1.00  0.00     0.165 HD
ENDBRANCH  16  17
ENDBRANCH   1  16
TORSDOF 6
ENDMDL
MODEL 6
REMARK VINA RESULT:      -5.3      2.537      5.372
REMARK  6 active torsions:
REMARK  status: ('A' for Active; 'I' for Inactive)
REMARK    1  A    between atoms: C_5  and  C_6 
REMARK    2  A    between atoms: C_6  and  C_7 
REMARK       I    between atoms: C_7  and  N_9 
REMARK    3  A    between atoms: N_9  and  C_10 
REMARK    4  A    between atoms: C_10  and  C_12 
REMARK    5  A    between atoms: C_10  and  C_14 
REMARK    6  A    between atoms: C_12  and  O_13 
ROOT
HETATM    1  C   UNL     1     -40.412 -52.856  13.122  1.00  0.00     0.222 C 
HETATM    2  O   UNL     1     -39.218 -52.866  13.405  1.00  0.00    -0.273 OA
HETATM    3  N   UNL     1     -41.144 -51.703  12.922  1.00  0.00    -0.349 N 
HETATM    4  H   UNL     1     -42.078 -51.823  12.558  1.00  0.00     0.163 HD
ENDROOT
BRANCH   3   5
HETATM    5  C   UNL     1     -40.626 -50.323  13.067  1.00  0.00     0.054 C 
HETATM    6  C   UNL     1     -39.507 -50.305  14.143  1.00  0.00     0.041 C 
BRANCH   5   7
HETATM    7  C   UNL     1     -39.967 -49.865  11.728  1.00  0.00     0.195 C 
BRANCH   7   8
HETATM    8  O   UNL     1     -40.593 -50.439  10.586  1.00  0.00    -0.398 OA
HETATM    9  H   UNL     1     -40.323 -49.900   9.822  1.00  0.00     0.209 HD
ENDBRANCH   7   8
ENDBRANCH   5   7
BRANCH   5  10
HETATM   10  C   UNL     1     -41.759 -49.299  13.525  1.00  0.00     0.015 C 
HETATM   11  C   UNL     1     -42.034 -49.245  15.047  1.00  0.00     0.007 C 
HETATM   12  C   UNL     1     -42.889 -50.397  15.562  1.00  0.00     0.000 C 
HETATM   13  C   UNL     1     -44.197 -50.543  14.788  1.00  0.00     0.000 C 
HETATM   14  C   UNL     1     -44.043 -50.482  13.269  1.00  0.00     0.000 C 
HETATM   15  C   UNL     1     -43.128 -49.352  12.813  1.00  0.00     0.007 C 
ENDBRANCH   5  10
ENDBRANCH   3   5
BRANCH   1  16
HETATM   16  C   UNL     1     -41.194 -54.144  12.933  1.00  0.00     0.142 C 
BRANCH  16  17
HETATM   17  C   UNL     1     -42.543 -54.157  13.601  1.00  0.00    -0.034 A 
HETATM   18  C   UNL     1     -43.709 -54.108  12.832  1.00  0.00     0.011 A 
HETATM   19  C   UNL     1     -44.956 -54.090  13.453  1.00  0.00     0.025 A 
HETATM   20  C   UNL     1     -45.013 -54.115  14.842  1.00  0.00     0.005 A 
HETATM   21  C   UNL     1     -46.326 -54.129  15.562  1.00  0.00     0.068 C 
HETATM   22  N   UNL     1     -43.900 -54.137  15.609  1.00  0.00    -0.369 N 
HETATM   23  C   UNL     1     -42.700 -54.136  14.983  1.00  0.00     0.095 A 
ATOM     24  HN  UNL     1     -43.962 -54.153  16.627  1.00  0.00     0.165 HD
ENDBRANCH  16  17
ENDBRANCH   1  16
TORSDOF 6
ENDMDL
MODEL 7
REMARK VINA RESULT:      -5.1      2.321      4.110
REMARK  6 active torsions:
REMARK  status: ('A' for Active; 'I' for Inactive)
REMARK    1  A    between atoms: C_5  and  C_6 
REMARK    2  A    between atoms: C_6  and  C_7 
REMARK       I    between atoms: C_7  and  N_9 
REMARK    3  A    between atoms: N_9  and  C_10 
REMARK    4  A    between atoms: C_10  and  C_12 
REMARK    5  A    between atoms: C_10  and  C_14 
REMARK    6  A    between atoms: C_12  and  O_13 
ROOT
HETATM    1  C   UNL     1     -43.430 -50.980  13.173  1.00  0.00     0.222 C 
HETATM    2  O   UNL     1     -43.979 -49.883  13.202  1.00  0.00    -0.273 OA
HETATM    3  N   UNL     1     -44.044 -52.156  13.553  1.00  0.00    -0.349 N 
HETATM    4  H   UNL     1     -43.541 -53.009  13.354  1.00  0.00     0.163 HD
ENDROOT
BRANCH   3   5
HETATM    5  C   UNL     1     -45.418 -52.269  14.094  1.00  0.00     0.054 C 
HETATM    6  C   UNL     1     -45.645 -51.161  15.157  1.00  0.00     0.041 C 
BRANCH   5   7
HETATM    7  C   UNL     1     -46.455 -52.016  12.954  1.00  0.00     0.195 C 
BRANCH   7   8
HETATM    8  O   UNL     1     -46.310 -52.927  11.870  1.00  0.00    -0.398 OA
HETATM    9  H   UNL     1     -46.222 -52.389  11.065  1.00  0.00     0.209 HD
ENDBRANCH   7   8
ENDBRANCH   5   7
BRANCH   5  10
HETATM   10  C   UNL     1     -45.676 -53.677  14.796  1.00  0.00     0.015 C 
HETATM   11  C   UNL     1     -45.447 -53.711  16.326  1.00  0.00     0.007 C 
HETATM   12  C   UNL     1     -43.980 -53.795  16.731  1.00  0.00     0.000 C 
HETATM   13  C   UNL     1     -43.255 -54.958  16.056  1.00  0.00     0.000 C 
HETATM   14  C   UNL     1     -43.520 -55.085  14.557  1.00  0.00     0.000 C 
HETATM   15  C   UNL     1     -44.994 -54.930  14.202  1.00  0.00     0.007 C 
ENDBRANCH   5  10
ENDBRANCH   3   5
BRANCH   1  16
HETATM   16  C   UNL     1     -42.004 -51.141  12.677  1.00  0.00     0.142 C 
BRANCH  16  17
HETATM   17  C   UNL     1     -41.204 -52.184  13.410  1.00  0.00    -0.034 A 
HETATM   18  C   UNL     1     -40.833 -53.367  12.765  1.00  0.00     0.011 A 
HETATM   19  C   UNL     1     -40.117 -54.344  13.454  1.00  0.00     0.025 A 
HETATM   20  C   UNL     1     -39.790 -54.120  14.786  1.00  0.00     0.005 A 
HETATM   21  C   UNL     1     -38.995 -55.122  15.567  1.00  0.00     0.068 C 
HETATM   22  N   UNL     1     -40.158 -52.995  15.440  1.00  0.00    -0.369 N 
HETATM   23  C   UNL     1     -40.868 -52.070  14.755  1.00  0.00     0.095 A 
ATOM     24  HN  UNL     1     -39.909 -52.850  16.418  1.00  0.00     0.165 HD
ENDBRANCH  16  17
ENDBRANCH   1  16
TORSDOF 6
ENDMDL
MODEL 8
REMARK VINA RESULT:      -5.1      4.347      7.050
REMARK  6 active torsions:
REMARK  status: ('A' for Active; 'I' for Inactive)
REMARK    1  A    between atoms: C_5  and  C_6 
REMARK    2  A    between atoms: C_6  and  C_7 
REMARK       I    between atoms: C_7  and  N_9 
REMARK    3  A    between atoms: N_9  and  C_10 
REMARK    4  A    between atoms: C_10  and  C_12 
REMARK    5  A    between atoms: C_10  and  C_14 
REMARK    6  A    between atoms: C_12  and  O_13 
ROOT
HETATM    1  C   UNL     1     -42.062 -48.889  11.539  1.00  0.00     0.222 C 
HETATM    2  O   UNL     1     -42.750 -48.589  12.510  1.00  0.00    -0.273 OA
HETATM    3  N   UNL     1     -41.341 -50.063  11.442  1.00  0.00    -0.349 N 
HETATM    4  H   UNL     1     -40.928 -50.261  10.542  1.00  0.00     0.163 HD
ENDROOT
BRANCH   3   5
HETATM    5  C   UNL     1     -41.245 -51.099  12.496  1.00  0.00     0.054 C 
HETATM    6  C   UNL     1     -42.286 -50.798  13.608  1.00  0.00     0.041 C 
BRANCH   5   7
HETATM    7  C   UNL     1     -41.617 -52.493  11.899  1.00  0.00     0.195 C 
BRANCH   7   8
HETATM    8  O   UNL     1     -40.489 -53.178  11.366  1.00  0.00    -0.398 OA
HETATM    9  H   UNL     1     -40.832 -53.803  10.704  1.00  0.00     0.209 HD
ENDBRANCH   7   8
ENDBRANCH   5   7
BRANCH   5  10
HETATM   10  C   UNL     1     -39.804 -51.135  13.176  1.00  0.00     0.015 C 
HETATM   11  C   UNL     1     -39.676 -50.365  14.512  1.00  0.00     0.007 C 
HETATM   12  C   UNL     1     -39.542 -48.855  14.346  1.00  0.00     0.000 C 
HETATM   13  C   UNL     1     -38.408 -48.472  13.398  1.00  0.00     0.000 C 
HETATM   14  C   UNL     1     -38.374 -49.271  12.096  1.00  0.00     0.000 C 
HETATM   15  C   UNL     1     -38.576 -50.766  12.314  1.00  0.00     0.007 C 
ENDBRANCH   5  10
ENDBRANCH   3   5
BRANCH   1  16
HETATM   16  C   UNL     1     -41.969 -47.986  10.322  1.00  0.00     0.142 C 
BRANCH  16  17
HETATM   17  C   UNL     1     -41.579 -46.565  10.629  1.00  0.00    -0.034 A 
HETATM   18  C   UNL     1     -40.244 -46.243  10.888  1.00  0.00     0.011 A 
HETATM   19  C   UNL     1     -39.889 -44.933  11.201  1.00  0.00     0.025 A 
HETATM   20  C   UNL     1     -40.884 -43.964  11.256  1.00  0.00     0.005 A 
HETATM   21  C   UNL     1     -40.556 -42.534  11.556  1.00  0.00     0.068 C 
HETATM   22  N   UNL     1     -42.186 -44.254  11.033  1.00  0.00    -0.369 N 
HETATM   23  C   UNL     1     -42.508 -45.537  10.749  1.00  0.00     0.095 A 
ATOM     24  HN  UNL     1     -42.902 -43.529  11.079  1.00  0.00     0.165 HD
ENDBRANCH  16  17
ENDBRANCH   1  16
TORSDOF 6
ENDMDL
MODEL 9
REMARK VINA RESULT:      -5.1      2.925      4.642
REMARK  6 active torsions:
REMARK  status: ('A' for Active; 'I' for Inactive)
REMARK    1  A    between atoms: C_5  and  C_6 
REMARK    2  A    between atoms: C_6  and  C_7 
REMARK       I    between atoms: C_7  and  N_9 
REMARK    3  A    between atoms: N_9  and  C_10 
REMARK    4  A    between atoms: C_10  and  C_12 
REMARK    5  A    between atoms: C_10  and  C_14 
REMARK    6  A    between atoms: C_12  and  O_13 
ROOT
HETATM    1  C   UNL     1     -43.069 -50.451  12.842  1.00  0.00     0.222 C 
HETATM    2  O   UNL     1     -43.574 -49.411  13.251  1.00  0.00    -0.273 OA
HETATM    3  N   UNL     1     -43.692 -51.681  12.898  1.00  0.00    -0.349 N 
HETATM    4  H   UNL     1     -43.237 -52.437  12.406  1.00  0.00     0.163 HD
ENDROOT
BRANCH   3   5
HETATM    5  C   UNL     1     -45.021 -51.942  13.497  1.00  0.00     0.054 C 
HETATM    6  C   UNL     1     -45.176 -51.097  14.790  1.00  0.00     0.041 C 
BRANCH   5   7
HETATM    7  C   UNL     1     -46.142 -51.470  12.517  1.00  0.00     0.195 C 
BRANCH   7   8
HETATM    8  O   UNL     1     -46.540 -52.492  11.610  1.00  0.00    -0.398 OA
HETATM    9  H   UNL     1     -47.511 -52.530  11.644  1.00  0.00     0.209 HD
ENDBRANCH   7   8
ENDBRANCH   5   7
BRANCH   5  10
HETATM   10  C   UNL     1     -45.215 -53.475  13.891  1.00  0.00     0.015 C 
HETATM   11  C   UNL     1     -45.382 -53.759  15.403  1.00  0.00     0.007 C 
HETATM   12  C   UNL     1     -44.073 -53.741  16.184  1.00  0.00     0.000 C 
HETATM   13  C   UNL     1     -43.020 -54.667  15.579  1.00  0.00     0.000 C 
HETATM   14  C   UNL     1     -42.870 -54.548  14.064  1.00  0.00     0.000 C 
HETATM   15  C   UNL     1     -44.209 -54.508  13.338  1.00  0.00     0.007 C 
ENDBRANCH   5  10
ENDBRANCH   3   5
BRANCH   1  16
HETATM   16  C   UNL     1     -41.695 -50.466  12.197  1.00  0.00     0.142 C 
BRANCH  16  17
HETATM   17  C   UNL     1     -41.191 -49.112  11.772  1.00  0.00    -0.034 A 
HETATM   18  C   UNL     1     -40.285 -48.415  12.578  1.00  0.00     0.011 A 
HETATM   19  C   UNL     1     -39.843 -47.150  12.198  1.00  0.00     0.025 A 
HETATM   20  C   UNL     1     -40.322 -46.599  11.016  1.00  0.00     0.005 A 
HETATM   21  C   UNL     1     -39.857 -45.256  10.543  1.00  0.00     0.068 C 
HETATM   22  N   UNL     1     -41.217 -47.242  10.231  1.00  0.00    -0.369 N 
HETATM   23  C   UNL     1     -41.645 -48.462  10.630  1.00  0.00     0.095 A 
ATOM     24  HN  UNL     1     -41.558 -46.821   9.367  1.00  0.00     0.165 HD
ENDBRANCH  16  17
ENDBRANCH   1  16
TORSDOF 6
ENDMDL
