MODEL 1
REMARK VINA RESULT:      -6.7      0.000      0.000
REMARK  5 active torsions:
REMARK  status: ('A' for Active; 'I' for Inactive)
REMARK    1  A    between atoms: C_5  and  C_6 
REMARK    2  A    between atoms: C_6  and  C_7 
REMARK    3  A    between atoms: C_7  and  N_8 
REMARK       I    between atoms: N_8  and  C_9 
REMARK       I    between atoms: C_9  and  N_11 
REMARK    4  A    between atoms: N_11  and  C_12 
REMARK    5  A    between atoms: C_12  and  C_13 
REMARK       I    between atoms: C_13  and  N_15 
ROOT
HETATM    1  N   UNL     1     -41.567 -50.197  11.331  1.00  0.00    -0.343 N 
HETATM    2  C   UNL     1     -41.785 -51.091  12.341  1.00  0.00     0.316 C 
HETATM    3  O   UNL     1     -41.481 -50.880  13.511  1.00  0.00    -0.247 OA
HETATM    4  N   UNL     1     -42.369 -52.248  11.924  1.00  0.00    -0.334 N 
HETATM    5  H   UNL     1     -41.693 -50.504  10.378  1.00  0.00     0.164 HD
HETATM    6  H   UNL     1     -42.760 -52.332  10.993  1.00  0.00     0.164 HD
ENDROOT
BRANCH   1   7
HETATM    7  C   UNL     1     -40.865 -48.959  11.608  1.00  0.00     0.129 C 
BRANCH   7   8
HETATM    8  C   UNL     1     -41.119 -47.849  10.587  1.00  0.00     0.060 C 
BRANCH   8   9
HETATM    9  C   UNL     1     -42.545 -47.622  10.146  1.00  0.00    -0.041 A 
HETATM   10  C   UNL     1     -42.884 -47.776   8.798  1.00  0.00     0.010 A 
HETATM   11  C   UNL     1     -44.211 -47.663   8.390  1.00  0.00     0.025 A 
HETATM   12  C   UNL     1     -45.186 -47.402   9.345  1.00  0.00     0.005 A 
HETATM   13  C   UNL     1     -46.635 -47.329   8.970  1.00  0.00     0.068 C 
HETATM   14  N   UNL     1     -44.888 -47.247  10.656  1.00  0.00    -0.369 N 
HETATM   15  C   UNL     1     -43.591 -47.365  11.026  1.00  0.00     0.095 A 
ATOM     16  HN  UNL     1     -45.616 -47.048  11.343  1.00  0.00     0.165 HD
ENDBRANCH   8   9
ENDBRANCH   7   8
ENDBRANCH   1   7
BRANCH   4  17
HETATM   17  C   UNL     1     -42.713 -53.281  12.883  1.00  0.00     0.227 C 
BRANCH  17  18
HETATM   18  C   UNL     1     -44.229 -53.400  13.059  1.00  0.00     0.237 C 
HETATM   19  O   UNL     1     -44.910 -53.973  12.202  1.00  0.00    -0.272 OA
HETATM   20  N   UNL     1     -44.791 -52.798  14.182  1.00  0.00    -0.351 N 
HETATM   21  C   UNL     1     -46.241 -52.838  14.356  1.00  0.00     0.126 C 
HETATM   22  C   UNL     1     -44.035 -52.328  15.345  1.00  0.00     0.126 C 
HETATM   23  C   UNL     1     -46.772 -51.472  14.783  1.00  0.00     0.020 C 
HETATM   24  C   UNL     1     -46.052 -50.963  16.030  1.00  0.00     0.003 C 
HETATM   25  C   UNL     1     -44.538 -50.968  15.825  1.00  0.00     0.020 C 
ENDBRANCH  17  18
ENDBRANCH   4  17
TORSDOF 5
ENDMDL
MODEL 2
REMARK VINA RESULT:      -6.5      1.916      6.170
REMARK  5 active torsions:
REMARK  status: ('A' for Active; 'I' for Inactive)
REMARK    1  A    between atoms: C_5  and  C_6 
REMARK    2  A    between atoms: C_6  and  C_7 
REMARK    3  A    between atoms: C_7  and  N_8 
REMARK       I    between atoms: N_8  and  C_9 
REMARK       I    between atoms: C_9  and  N_11 
REMARK    4  A    between atoms: N_11  and  C_12 
REMARK    5  A    between atoms: C_12  and  C_13 
REMARK       I    between atoms: C_13  and  N_15 
ROOT
HETATM    1  N   UNL     1     -40.652 -50.913  11.200  1.00  0.00    -0.343 N 
HETATM    2  C   UNL     1     -40.984 -49.607  11.423  1.00  0.00     0.316 C 
HETATM    3  O   UNL     1     -41.005 -49.093  12.537  1.00  0.00    -0.247 OA
HETATM    4  N   UNL     1     -41.299 -48.926  10.287  1.00  0.00    -0.334 N 
HETATM    5  H   UNL     1     -40.814 -51.304  10.283  1.00  0.00     0.164 HD
HETATM    6  H   UNL     1     -41.114 -49.321   9.372  1.00  0.00     0.164 HD
ENDROOT
BRANCH   1   7
HETATM    7  C   UNL     1     -40.385 -51.788  12.325  1.00  0.00     0.129 C 
BRANCH   7   8
HETATM    8  C   UNL     1     -41.426 -52.890  12.527  1.00  0.00     0.060 C 
BRANCH   8   9
HETATM    9  C   UNL     1     -42.829 -52.465  12.890  1.00  0.00    -0.041 A 
HETATM   10  C   UNL     1     -43.920 -53.158  12.357  1.00  0.00     0.010 A 
HETATM   11  C   UNL     1     -45.217 -52.839  12.755  1.00  0.00     0.025 A 
HETATM   12  C   UNL     1     -45.401 -51.828  13.690  1.00  0.00     0.005 A 
HETATM   13  C   UNL     1     -46.769 -51.485  14.197  1.00  0.00     0.068 C 
HETATM   14  N   UNL     1     -44.365 -51.140  14.222  1.00  0.00    -0.369 N 
HETATM   15  C   UNL     1     -43.115 -51.472  13.820  1.00  0.00     0.095 A 
ATOM     16  HN  UNL     1     -44.519 -50.395  14.902  1.00  0.00     0.165 HD
ENDBRANCH   8   9
ENDBRANCH   7   8
ENDBRANCH   1   7
BRANCH   4  17
HETATM   17  C   UNL     1     -41.626 -47.514  10.347  1.00  0.00     0.227 C 
BRANCH  17  18
HETATM   18  C   UNL     1     -43.122 -47.294  10.587  1.00  0.00     0.237 C 
HETATM   19  O   UNL     1     -43.538 -47.050  11.724  1.00  0.00    -0.272 OA
HETATM   20  N   UNL     1     -43.971 -47.432   9.492  1.00  0.00    -0.351 N 
HETATM   21  C   UNL     1     -45.412 -47.290   9.690  1.00  0.00     0.126 C 
HETATM   22  C   UNL     1     -43.535 -47.472   8.094  1.00  0.00     0.126 C 
HETATM   23  C   UNL     1     -46.171 -48.392   8.957  1.00  0.00     0.020 C 
HETATM   24  C   UNL     1     -45.791 -48.436   7.479  1.00  0.00     0.003 C 
HETATM   25  C   UNL     1     -44.277 -48.551   7.308  1.00  0.00     0.020 C 
ENDBRANCH  17  18
ENDBRANCH   4  17
TORSDOF 5
ENDMDL
MODEL 3
REMARK VINA RESULT:      -6.3      3.489      6.935
REMARK  5 active torsions:
REMARK  status: ('A' for Active; 'I' for Inactive)
REMARK    1  A    between atoms: C_5  and  C_6 
REMARK    2  A    between atoms: C_6  and  C_7 
REMARK    3  A    between atoms: C_7  and  N_8 
REMARK       I    between atoms: N_8  and  C_9 
REMARK       I    between atoms: C_9  and  N_11 
REMARK    4  A    between atoms: N_11  and  C_12 
REMARK    5  A    between atoms: C_12  and  C_13 
REMARK       I    between atoms: C_13  and  N_15 
ROOT
HETATM    1  N   UNL     1     -42.317 -52.299  11.831  1.00  0.00    -0.343 N 
HETATM    2  C   UNL     1     -41.009 -51.925  11.957  1.00  0.00     0.316 C 
HETATM    3  O   UNL     1     -40.175 -52.577  12.578  1.00  0.00    -0.247 OA
HETATM    4  N   UNL     1     -40.717 -50.752  11.331  1.00  0.00    -0.334 N 
HETATM    5  H   UNL     1     -42.975 -51.636  11.447  1.00  0.00     0.164 HD
HETATM    6  H   UNL     1     -41.375 -50.322  10.691  1.00  0.00     0.164 HD
ENDROOT
BRANCH   1   7
HETATM    7  C   UNL     1     -42.798 -53.478  12.525  1.00  0.00     0.129 C 
BRANCH   7   8
HETATM    8  C   UNL     1     -44.315 -53.660  12.481  1.00  0.00     0.060 C 
BRANCH   8   9
HETATM    9  C   UNL     1     -45.127 -53.004  13.572  1.00  0.00    -0.041 A 
HETATM   10  C   UNL     1     -45.948 -51.916  13.262  1.00  0.00     0.010 A 
HETATM   11  C   UNL     1     -46.774 -51.358  14.236  1.00  0.00     0.025 A 
HETATM   12  C   UNL     1     -46.768 -51.907  15.513  1.00  0.00     0.005 A 
HETATM   13  C   UNL     1     -47.679 -51.385  16.582  1.00  0.00     0.068 C 
HETATM   14  N   UNL     1     -45.983 -52.959  15.842  1.00  0.00    -0.369 N 
HETATM   15  C   UNL     1     -45.193 -53.483  14.876  1.00  0.00     0.095 A 
ATOM     16  HN  UNL     1     -45.986 -53.344  16.787  1.00  0.00     0.165 HD
ENDBRANCH   8   9
ENDBRANCH   7   8
ENDBRANCH   1   7
BRANCH   4  17
HETATM   17  C   UNL     1     -39.360 -50.242  11.328  1.00  0.00     0.227 C 
BRANCH  17  18
HETATM   18  C   UNL     1     -39.262 -48.902  12.063  1.00  0.00     0.237 C 
HETATM   19  O   UNL     1     -39.648 -47.865  11.515  1.00  0.00    -0.272 OA
HETATM   20  N   UNL     1     -38.682 -48.909  13.329  1.00  0.00    -0.351 N 
HETATM   21  C   UNL     1     -38.515 -47.642  14.039  1.00  0.00     0.126 C 
HETATM   22  C   UNL     1     -38.435 -50.110  14.130  1.00  0.00     0.126 C 
HETATM   23  C   UNL     1     -37.127 -47.553  14.666  1.00  0.00     0.020 C 
HETATM   24  C   UNL     1     -36.845 -48.759  15.559  1.00  0.00     0.003 C 
HETATM   25  C   UNL     1     -37.062 -50.064  14.796  1.00  0.00     0.020 C 
ENDBRANCH  17  18
ENDBRANCH   4  17
TORSDOF 5
ENDMDL
MODEL 4
REMARK VINA RESULT:      -6.3      1.852      2.689
REMARK  5 active torsions:
REMARK  status: ('A' for Active; 'I' for Inactive)
REMARK    1  A    between atoms: C_5  and  C_6 
REMARK    2  A    between atoms: C_6  and  C_7 
REMARK    3  A    between atoms: C_7  and  N_8 
REMARK       I    between atoms: N_8  and  C_9 
REMARK       I    between atoms: C_9  and  N_11 
REMARK    4  A    between atoms: N_11  and  C_12 
REMARK    5  A    between atoms: C_12  and  C_13 
REMARK       I    between atoms: C_13  and  N_15 
ROOT
HETATM    1  N   UNL     1     -41.038 -50.939  11.230  1.00  0.00    -0.343 N 
HETATM    2  C   UNL     1     -41.527 -51.555  12.347  1.00  0.00     0.316 C 
HETATM    3  O   UNL     1     -41.692 -50.983  13.420  1.00  0.00    -0.247 OA
HETATM    4  N   UNL     1     -41.808 -52.873  12.159  1.00  0.00    -0.334 N 
HETATM    5  H   UNL     1     -40.777 -51.508  10.438  1.00  0.00     0.164 HD
HETATM    6  H   UNL     1     -41.822 -53.279  11.231  1.00  0.00     0.164 HD
ENDROOT
BRANCH   1   7
HETATM    7  C   UNL     1     -40.603 -49.557  11.305  1.00  0.00     0.129 C 
BRANCH   7   8
HETATM    8  C   UNL     1     -41.507 -48.571  10.565  1.00  0.00     0.060 C 
BRANCH   8   9
HETATM    9  C   UNL     1     -41.326 -47.102  10.862  1.00  0.00    -0.041 A 
HETATM   10  C   UNL     1     -40.036 -46.571  10.960  1.00  0.00     0.010 A 
HETATM   11  C   UNL     1     -39.852 -45.202  11.141  1.00  0.00     0.025 A 
HETATM   12  C   UNL     1     -40.969 -44.380  11.216  1.00  0.00     0.005 A 
HETATM   13  C   UNL     1     -40.827 -42.894  11.350  1.00  0.00     0.068 C 
HETATM   14  N   UNL     1     -42.229 -44.865  11.126  1.00  0.00    -0.369 N 
HETATM   15  C   UNL     1     -42.380 -46.199  10.948  1.00  0.00     0.095 A 
ATOM     16  HN  UNL     1     -43.039 -44.247  11.191  1.00  0.00     0.165 HD
ENDBRANCH   8   9
ENDBRANCH   7   8
ENDBRANCH   1   7
BRANCH   4  17
HETATM   17  C   UNL     1     -42.382 -53.660  13.235  1.00  0.00     0.227 C 
BRANCH  17  18
HETATM   18  C   UNL     1     -43.910 -53.698  13.148  1.00  0.00     0.237 C 
HETATM   19  O   UNL     1     -44.464 -54.257  12.196  1.00  0.00    -0.272 OA
HETATM   20  N   UNL     1     -44.623 -53.040  14.147  1.00  0.00    -0.351 N 
HETATM   21  C   UNL     1     -46.082 -53.002  14.069  1.00  0.00     0.126 C 
HETATM   22  C   UNL     1     -44.054 -52.580  15.416  1.00  0.00     0.126 C 
HETATM   23  C   UNL     1     -46.603 -51.601  14.375  1.00  0.00     0.020 C 
HETATM   24  C   UNL     1     -46.082 -51.098  15.719  1.00  0.00     0.003 C 
HETATM   25  C   UNL     1     -44.558 -51.184  15.779  1.00  0.00     0.020 C 
ENDBRANCH  17  18
ENDBRANCH   4  17
TORSDOF 5
ENDMDL
MODEL 5
REMARK VINA RESULT:      -6.2      2.435      3.114
REMARK  5 active torsions:
REMARK  status: ('A' for Active; 'I' for Inactive)
REMARK    1  A    between atoms: C_5  and  C_6 
REMARK    2  A    between atoms: C_6  and  C_7 
REMARK    3  A    between atoms: C_7  and  N_8 
REMARK       I    between atoms: N_8  and  C_9 
REMARK       I    between atoms: C_9  and  N_11 
REMARK    4  A    between atoms: N_11  and  C_12 
REMARK    5  A    between atoms: C_12  and  C_13 
REMARK       I    between atoms: C_13  and  N_15 
ROOT
HETATM    1  N   UNL     1     -40.310 -48.909  11.220  1.00  0.00    -0.343 N 
HETATM    2  C   UNL     1     -40.925 -49.992  11.782  1.00  0.00     0.316 C 
HETATM    3  O   UNL     1     -41.828 -49.905  12.608  1.00  0.00    -0.247 OA
HETATM    4  N   UNL     1     -40.433 -51.182  11.343  1.00  0.00    -0.334 N 
HETATM    5  H   UNL     1     -39.472 -49.056  10.677  1.00  0.00     0.164 HD
HETATM    6  H   UNL     1     -39.809 -51.230  10.546  1.00  0.00     0.164 HD
ENDROOT
BRANCH   1   7
HETATM    7  C   UNL     1     -40.663 -47.573  11.663  1.00  0.00     0.129 C 
BRANCH   7   8
HETATM    8  C   UNL     1     -41.204 -46.666  10.557  1.00  0.00     0.060 C 
BRANCH   8   9
HETATM    9  C   UNL     1     -42.666 -46.796  10.203  1.00  0.00    -0.041 A 
HETATM   10  C   UNL     1     -43.213 -45.974   9.214  1.00  0.00     0.010 A 
HETATM   11  C   UNL     1     -44.535 -46.145   8.809  1.00  0.00     0.025 A 
HETATM   12  C   UNL     1     -45.292 -47.148   9.402  1.00  0.00     0.005 A 
HETATM   13  C   UNL     1     -46.700 -47.415   8.964  1.00  0.00     0.068 C 
HETATM   14  N   UNL     1     -44.790 -47.958  10.363  1.00  0.00    -0.369 N 
HETATM   15  C   UNL     1     -43.502 -47.772  10.735  1.00  0.00     0.095 A 
ATOM     16  HN  UNL     1     -45.364 -48.685  10.793  1.00  0.00     0.165 HD
ENDBRANCH   8   9
ENDBRANCH   7   8
ENDBRANCH   1   7
BRANCH   4  17
HETATM   17  C   UNL     1     -41.012 -52.429  11.806  1.00  0.00     0.227 C 
BRANCH  17  18
HETATM   18  C   UNL     1     -40.419 -52.858  13.151  1.00  0.00     0.237 C 
HETATM   19  O   UNL     1     -39.200 -52.795  13.339  1.00  0.00    -0.272 OA
HETATM   20  N   UNL     1     -41.299 -53.359  14.106  1.00  0.00    -0.351 N 
HETATM   21  C   UNL     1     -40.766 -53.836  15.381  1.00  0.00     0.126 C 
HETATM   22  C   UNL     1     -42.757 -53.232  14.049  1.00  0.00     0.126 C 
HETATM   23  C   UNL     1     -41.403 -55.167  15.770  1.00  0.00     0.020 C 
HETATM   24  C   UNL     1     -42.927 -55.069  15.779  1.00  0.00     0.003 C 
HETATM   25  C   UNL     1     -43.447 -54.536  14.446  1.00  0.00     0.020 C 
ENDBRANCH  17  18
ENDBRANCH   4  17
TORSDOF 5
ENDMDL
MODEL 6
REMARK VINA RESULT:      -6.1      1.408      1.919
REMARK  5 active torsions:
REMARK  status: ('A' for Active; 'I' for Inactive)
REMARK    1  A    between atoms: C_5  and  C_6 
REMARK    2  A    between atoms: C_6  and  C_7 
REMARK    3  A    between atoms: C_7  and  N_8 
REMARK       I    between atoms: N_8  and  C_9 
REMARK       I    between atoms: C_9  and  N_11 
REMARK    4  A    between atoms: N_11  and  C_12 
REMARK    5  A    between atoms: C_12  and  C_13 
REMARK       I    between atoms: C_13  and  N_15 
ROOT
HETATM    1  N   UNL     1     -41.683 -51.560  11.674  1.00  0.00    -0.343 N 
HETATM    2  C   UNL     1     -42.370 -52.371  12.533  1.00  0.00     0.316 C 
HETATM    3  O   UNL     1     -42.146 -52.425  13.738  1.00  0.00    -0.247 OA
HETATM    4  N   UNL     1     -43.325 -53.123  11.922  1.00  0.00    -0.334 N 
HETATM    5  H   UNL     1     -41.811 -51.689  10.680  1.00  0.00     0.164 HD
HETATM    6  H   UNL     1     -43.602 -52.941  10.964  1.00  0.00     0.164 HD
ENDROOT
BRANCH   1   7
HETATM    7  C   UNL     1     -40.570 -50.771  12.165  1.00  0.00     0.129 C 
BRANCH   7   8
HETATM    8  C   UNL     1     -40.913 -49.309  12.453  1.00  0.00     0.060 C 
BRANCH   8   9
HETATM    9  C   UNL     1     -41.857 -48.615  11.501  1.00  0.00    -0.041 A 
HETATM   10  C   UNL     1     -43.000 -47.983  11.999  1.00  0.00     0.010 A 
HETATM   11  C   UNL     1     -43.831 -47.258  11.147  1.00  0.00     0.025 A 
HETATM   12  C   UNL     1     -43.499 -47.174   9.801  1.00  0.00     0.005 A 
HETATM   13  C   UNL     1     -44.324 -46.359   8.851  1.00  0.00     0.068 C 
HETATM   14  N   UNL     1     -42.400 -47.776   9.289  1.00  0.00    -0.369 N 
HETATM   15  C   UNL     1     -41.609 -48.471  10.140  1.00  0.00     0.095 A 
ATOM     16  HN  UNL     1     -42.176 -47.709   8.296  1.00  0.00     0.165 HD
ENDBRANCH   8   9
ENDBRANCH   7   8
ENDBRANCH   1   7
BRANCH   4  17
HETATM   17  C   UNL     1     -44.176 -54.000  12.703  1.00  0.00     0.227 C 
BRANCH  17  18
HETATM   18  C   UNL     1     -45.493 -53.315  13.080  1.00  0.00     0.237 C 
HETATM   19  O   UNL     1     -46.291 -52.978  12.199  1.00  0.00    -0.272 OA
HETATM   20  N   UNL     1     -45.712 -53.052  14.429  1.00  0.00    -0.351 N 
HETATM   21  C   UNL     1     -46.929 -52.346  14.825  1.00  0.00     0.126 C 
HETATM   22  C   UNL     1     -44.942 -53.635  15.531  1.00  0.00     0.126 C 
HETATM   23  C   UNL     1     -46.614 -51.260  15.850  1.00  0.00     0.020 C 
HETATM   24  C   UNL     1     -45.859 -51.830  17.048  1.00  0.00     0.003 C 
HETATM   25  C   UNL     1     -44.614 -52.590  16.596  1.00  0.00     0.020 C 
ENDBRANCH  17  18
ENDBRANCH   4  17
TORSDOF 5
ENDMDL
MODEL 7
REMARK VINA RESULT:      -6.1      3.080      5.139
REMARK  5 active torsions:
REMARK  status: ('A' for Active; 'I' for Inactive)
REMARK    1  A    between atoms: C_5  and  C_6 
REMARK    2  A    between atoms: C_6  and  C_7 
REMARK    3  A    between atoms: C_7  and  N_8 
REMARK       I    between atoms: N_8  and  C_9 
REMARK       I    between atoms: C_9  and  N_11 
REMARK    4  A    between atoms: N_11  and  C_12 
REMARK    5  A    between atoms: C_12  and  C_13 
REMARK       I    between atoms: C_13  and  N_15 
ROOT
HETATM    1  N   UNL     1     -40.827 -51.344  11.376  1.00  0.00    -0.343 N 
HETATM    2  C   UNL     1     -41.420 -51.883  12.483  1.00  0.00     0.316 C 
HETATM    3  O   UNL     1     -41.588 -51.265  13.530  1.00  0.00    -0.247 OA
HETATM    4  N   UNL     1     -41.803 -53.178  12.316  1.00  0.00    -0.334 N 
HETATM    5  H   UNL     1     -40.578 -51.958  10.614  1.00  0.00     0.164 HD
HETATM    6  H   UNL     1     -41.806 -53.610  11.399  1.00  0.00     0.164 HD
ENDROOT
BRANCH   1   7
HETATM    7  C   UNL     1     -40.280 -50.002  11.436  1.00  0.00     0.129 C 
BRANCH   7   8
HETATM    8  C   UNL     1     -38.758 -49.947  11.571  1.00  0.00     0.060 C 
BRANCH   8   9
HETATM    9  C   UNL     1     -38.190 -49.703  12.948  1.00  0.00    -0.041 A 
HETATM   10  C   UNL     1     -38.075 -48.394  13.426  1.00  0.00     0.010 A 
HETATM   11  C   UNL     1     -37.641 -48.156  14.729  1.00  0.00     0.025 A 
HETATM   12  C   UNL     1     -37.334 -49.242  15.540  1.00  0.00     0.005 A 
HETATM   13  C   UNL     1     -36.920 -49.046  16.967  1.00  0.00     0.068 C 
HETATM   14  N   UNL     1     -37.435 -50.519  15.105  1.00  0.00    -0.369 N 
HETATM   15  C   UNL     1     -37.861 -50.721  13.836  1.00  0.00     0.095 A 
ATOM     16  HN  UNL     1     -37.197 -51.304  15.713  1.00  0.00     0.165 HD
ENDBRANCH   8   9
ENDBRANCH   7   8
ENDBRANCH   1   7
BRANCH   4  17
HETATM   17  C   UNL     1     -42.493 -53.880  13.381  1.00  0.00     0.227 C 
BRANCH  17  18
HETATM   18  C   UNL     1     -44.013 -53.802  13.212  1.00  0.00     0.237 C 
HETATM   19  O   UNL     1     -44.553 -54.299  12.219  1.00  0.00    -0.272 OA
HETATM   20  N   UNL     1     -44.729 -53.113  14.187  1.00  0.00    -0.351 N 
HETATM   21  C   UNL     1     -46.175 -52.964  14.032  1.00  0.00     0.126 C 
HETATM   22  C   UNL     1     -44.199 -52.721  15.495  1.00  0.00     0.126 C 
HETATM   23  C   UNL     1     -46.607 -51.534  14.344  1.00  0.00     0.020 C 
HETATM   24  C   UNL     1     -46.125 -51.098  15.725  1.00  0.00     0.003 C 
HETATM   25  C   UNL     1     -44.617 -51.300  15.864  1.00  0.00     0.020 C 
ENDBRANCH  17  18
ENDBRANCH   4  17
TORSDOF 5
ENDMDL
MODEL 8
REMARK VINA RESULT:      -6.1      2.922      6.736
REMARK  5 active torsions:
REMARK  status: ('A' for Active; 'I' for Inactive)
REMARK    1  A    between atoms: C_5  and  C_6 
REMARK    2  A    between atoms: C_6  and  C_7 
REMARK    3  A    between atoms: C_7  and  N_8 
REMARK       I    between atoms: N_8  and  C_9 
REMARK       I    between atoms: C_9  and  N_11 
REMARK    4  A    between atoms: N_11  and  C_12 
REMARK    5  A    between atoms: C_12  and  C_13 
REMARK       I    between atoms: C_13  and  N_15 
ROOT
HETATM    1  N   UNL     1     -42.158 -52.490  11.643  1.00  0.00    -0.343 N 
HETATM    2  C   UNL     1     -41.342 -51.491  12.093  1.00  0.00     0.316 C 
HETATM    3  O   UNL     1     -41.135 -51.270  13.282  1.00  0.00    -0.247 OA
HETATM    4  N   UNL     1     -40.785 -50.754  11.094  1.00  0.00    -0.334 N 
HETATM    5  H   UNL     1     -42.407 -52.507  10.665  1.00  0.00     0.164 HD
HETATM    6  H   UNL     1     -40.838 -51.057  10.128  1.00  0.00     0.164 HD
ENDROOT
BRANCH   1   7
HETATM    7  C   UNL     1     -42.898 -53.297  12.594  1.00  0.00     0.129 C 
BRANCH   7   8
HETATM    8  C   UNL     1     -44.416 -53.236  12.426  1.00  0.00     0.060 C 
BRANCH   8   9
HETATM    9  C   UNL     1     -45.226 -52.737  13.598  1.00  0.00    -0.041 A 
HETATM   10  C   UNL     1     -44.913 -51.505  14.180  1.00  0.00     0.010 A 
HETATM   11  C   UNL     1     -45.708 -50.986  15.201  1.00  0.00     0.025 A 
HETATM   12  C   UNL     1     -46.815 -51.713  15.620  1.00  0.00     0.005 A 
HETATM   13  C   UNL     1     -47.738 -51.175  16.672  1.00  0.00     0.068 C 
HETATM   14  N   UNL     1     -47.143 -52.908  15.077  1.00  0.00    -0.369 N 
HETATM   15  C   UNL     1     -46.355 -53.387  14.086  1.00  0.00     0.095 A 
ATOM     16  HN  UNL     1     -47.956 -53.431  15.404  1.00  0.00     0.165 HD
ENDBRANCH   8   9
ENDBRANCH   7   8
ENDBRANCH   1   7
BRANCH   4  17
HETATM   17  C   UNL     1     -39.854 -49.686  11.404  1.00  0.00     0.227 C 
BRANCH  17  18
HETATM   18  C   UNL     1     -40.554 -48.324  11.436  1.00  0.00     0.237 C 
HETATM   19  O   UNL     1     -41.327 -48.002  10.528  1.00  0.00    -0.272 OA
HETATM   20  N   UNL     1     -40.239 -47.470  12.489  1.00  0.00    -0.351 N 
HETATM   21  C   UNL     1     -40.839 -46.137  12.525  1.00  0.00     0.126 C 
HETATM   22  C   UNL     1     -39.538 -47.871  13.711  1.00  0.00     0.126 C 
HETATM   23  C   UNL     1     -39.793 -45.082  12.875  1.00  0.00     0.020 C 
HETATM   24  C   UNL     1     -39.072 -45.428  14.176  1.00  0.00     0.003 C 
HETATM   25  C   UNL     1     -38.488 -46.838  14.116  1.00  0.00     0.020 C 
ENDBRANCH  17  18
ENDBRANCH   4  17
TORSDOF 5
ENDMDL
MODEL 9
REMARK VINA RESULT:      -6.0      2.065      3.237
REMARK  5 active torsions:
REMARK  status: ('A' for Active; 'I' for Inactive)
REMARK    1  A    between atoms: C_5  and  C_6 
REMARK    2  A    between atoms: C_6  and  C_7 
REMARK    3  A    between atoms: C_7  and  N_8 
REMARK       I    between atoms: N_8  and  C_9 
REMARK       I    between atoms: C_9  and  N_11 
REMARK    4  A    between atoms: N_11  and  C_12 
REMARK    5  A    between atoms: C_12  and  C_13 
REMARK       I    between atoms: C_13  and  N_15 
ROOT
HETATM    1  N   UNL     1     -39.181 -50.826  14.133  1.00  0.00    -0.343 N 
HETATM    2  C   UNL     1     -39.879 -51.994  14.015  1.00  0.00     0.316 C 
HETATM    3  O   UNL     1     -39.427 -53.003  13.484  1.00  0.00    -0.247 OA
HETATM    4  N   UNL     1     -41.134 -51.930  14.537  1.00  0.00    -0.334 N 
HETATM    5  H   UNL     1     -39.673 -49.996  14.432  1.00  0.00     0.164 HD
HETATM    6  H   UNL     1     -41.423 -51.148  15.113  1.00  0.00     0.164 HD
ENDROOT
BRANCH   1   7
HETATM    7  C   UNL     1     -37.864 -50.713  13.537  1.00  0.00     0.129 C 
BRANCH   7   8
HETATM    8  C   UNL     1     -37.802 -49.797  12.313  1.00  0.00     0.060 C 
BRANCH   8   9
HETATM    9  C   UNL     1     -39.100 -49.201  11.824  1.00  0.00    -0.041 A 
HETATM   10  C   UNL     1     -39.409 -47.873  12.132  1.00  0.00     0.010 A 
HETATM   11  C   UNL     1     -40.556 -47.279  11.610  1.00  0.00     0.025 A 
HETATM   12  C   UNL     1     -41.379 -48.028  10.778  1.00  0.00     0.005 A 
HETATM   13  C   UNL     1     -42.593 -47.422  10.143  1.00  0.00     0.068 C 
HETATM   14  N   UNL     1     -41.106 -49.316  10.464  1.00  0.00    -0.369 N 
HETATM   15  C   UNL     1     -39.984 -49.867  10.982  1.00  0.00     0.095 A 
ATOM     16  HN  UNL     1     -41.726 -49.853   9.858  1.00  0.00     0.165 HD
ENDBRANCH   8   9
ENDBRANCH   7   8
ENDBRANCH   1   7
BRANCH   4  17
HETATM   17  C   UNL     1     -41.988 -53.103  14.536  1.00  0.00     0.227 C 
BRANCH  17  18
HETATM   18  C   UNL     1     -43.079 -53.002  13.466  1.00  0.00     0.237 C 
HETATM   19  O   UNL     1     -42.783 -53.085  12.269  1.00  0.00    -0.272 OA
HETATM   20  N   UNL     1     -44.380 -52.766  13.901  1.00  0.00    -0.351 N 
HETATM   21  C   UNL     1     -45.441 -52.604  12.909  1.00  0.00     0.126 C 
HETATM   22  C   UNL     1     -44.837 -52.905  15.286  1.00  0.00     0.126 C 
HETATM   23  C   UNL     1     -46.337 -51.420  13.265  1.00  0.00     0.020 C 
HETATM   24  C   UNL     1     -46.885 -51.548  14.684  1.00  0.00     0.003 C 
HETATM   25  C   UNL     1     -45.753 -51.751  15.689  1.00  0.00     0.020 C 
ENDBRANCH  17  18
ENDBRANCH   4  17
TORSDOF 5
ENDMDL
