MODEL 1
REMARK VINA RESULT:      -6.5      0.000      0.000
REMARK  3 active torsions:
REMARK  status: ('A' for Active; 'I' for Inactive)
REMARK    1  A    between atoms: C_9  and  N_10 
REMARK    2  A    between atoms: N_10  and  C_11 
REMARK    3  A    between atoms: C_11  and  C_12 
ROOT
HETATM    1  N   UNL     1     -47.149 -52.131  11.243  1.00  0.00    -0.191 NA
HETATM    2  C   UNL     1     -46.618 -51.892  12.250  1.00  0.00     0.102 C 
HETATM    3  C   UNL     1     -46.007 -51.545  13.495  1.00  0.00     0.082 A 
HETATM    4  C   UNL     1     -46.812 -51.468  14.638  1.00  0.00     0.027 A 
HETATM    5  C   UNL     1     -46.251 -51.105  15.855  1.00  0.00     0.019 A 
HETATM    6  C   UNL     1     -44.904 -50.808  15.870  1.00  0.00     0.089 A 
HETATM    7  N   UNL     1     -44.114 -50.871  14.777  1.00  0.00    -0.356 N 
ATOM      8  HN  UNL     1     -43.125 -50.632  14.846  1.00  0.00     0.166 HD
HETATM    9  C   UNL     1     -44.639 -51.250  13.594  1.00  0.00     0.101 A 
ENDROOT
BRANCH   9  10
HETATM   10  N   UNL     1     -43.771 -51.453  12.505  1.00  0.00    -0.275 NA
HETATM   11  H   UNL     1     -43.313 -50.573  12.273  1.00  0.00     0.129 HD
BRANCH  10  12
HETATM   12  C   UNL     1     -42.744 -52.506  12.627  1.00  0.00     0.127 C 
BRANCH  12  13
HETATM   13  C   UNL     1     -41.387 -52.289  11.924  1.00  0.00     0.163 C 
HETATM   14  C   UNL     1     -40.843 -50.832  11.835  1.00  0.00     0.306 C 
HETATM   15  N   UNL     1     -39.998 -50.342  12.955  1.00  0.00     0.097 N 
HETATM   16  C   UNL     1     -39.210 -49.166  12.528  1.00  0.00     0.273 C 
HETATM   17  C   UNL     1     -39.078 -51.408  13.410  1.00  0.00     0.246 C 
HETATM   18  C   UNL     1     -38.333 -48.620  13.662  1.00  0.00     0.030 C 
HETATM   19  C   UNL     1     -37.461 -49.703  14.288  1.00  0.00     0.004 C 
HETATM   20  C   UNL     1     -38.296 -50.930  14.639  1.00  0.00     0.038 C 
HETATM   21  C   UNL     1     -39.858 -52.688  13.717  1.00  0.00     0.204 C 
HETATM   22  O   UNL     1     -40.417 -53.199  12.505  1.00  0.00    -0.381 OA
ENDBRANCH  12  13
ENDBRANCH  10  12
ENDBRANCH   9  10
TORSDOF 3
ENDMDL
MODEL 2
REMARK VINA RESULT:      -6.4      2.615      4.120
REMARK  3 active torsions:
REMARK  status: ('A' for Active; 'I' for Inactive)
REMARK    1  A    between atoms: C_9  and  N_10 
REMARK    2  A    between atoms: N_10  and  C_11 
REMARK    3  A    between atoms: C_11  and  C_12 
ROOT
HETATM    1  N   UNL     1     -39.086 -54.592  14.020  1.00  0.00    -0.191 NA
HETATM    2  C   UNL     1     -40.139 -54.231  13.683  1.00  0.00     0.102 C 
HETATM    3  C   UNL     1     -41.450 -53.852  13.255  1.00  0.00     0.082 A 
HETATM    4  C   UNL     1     -42.555 -54.428  13.893  1.00  0.00     0.027 A 
HETATM    5  C   UNL     1     -43.840 -54.100  13.480  1.00  0.00     0.019 A 
HETATM    6  C   UNL     1     -43.962 -53.224  12.421  1.00  0.00     0.089 A 
HETATM    7  N   UNL     1     -42.907 -52.665  11.790  1.00  0.00    -0.356 N 
ATOM      8  HN  UNL     1     -43.058 -52.029  11.007  1.00  0.00     0.166 HD
HETATM    9  C   UNL     1     -41.655 -52.951  12.199  1.00  0.00     0.101 A 
ENDROOT
BRANCH   9  10
HETATM   10  N   UNL     1     -40.580 -52.244  11.628  1.00  0.00    -0.275 NA
HETATM   11  H   UNL     1     -40.626 -52.328  10.614  1.00  0.00     0.129 HD
BRANCH  10  12
HETATM   12  C   UNL     1     -40.425 -50.819  11.981  1.00  0.00     0.127 C 
BRANCH  12  13
HETATM   13  C   UNL     1     -39.021 -50.187  11.873  1.00  0.00     0.163 C 
HETATM   14  C   UNL     1     -38.781 -48.829  12.598  1.00  0.00     0.306 C 
HETATM   15  N   UNL     1     -38.320 -48.874  14.011  1.00  0.00     0.097 N 
HETATM   16  C   UNL     1     -37.716 -47.582  14.395  1.00  0.00     0.273 C 
HETATM   17  C   UNL     1     -37.324 -49.953  14.192  1.00  0.00     0.246 C 
HETATM   18  C   UNL     1     -37.239 -47.582  15.853  1.00  0.00     0.030 C 
HETATM   19  C   UNL     1     -36.322 -48.762  16.159  1.00  0.00     0.004 C 
HETATM   20  C   UNL     1     -36.945 -50.066  15.674  1.00  0.00     0.038 C 
HETATM   21  C   UNL     1     -37.874 -51.280  13.662  1.00  0.00     0.204 C 
HETATM   22  O   UNL     1     -38.037 -51.186  12.245  1.00  0.00    -0.381 OA
ENDBRANCH  12  13
ENDBRANCH  10  12
ENDBRANCH   9  10
TORSDOF 3
ENDMDL
MODEL 3
REMARK VINA RESULT:      -6.3      2.843      4.668
REMARK  3 active torsions:
REMARK  status: ('A' for Active; 'I' for Inactive)
REMARK    1  A    between atoms: C_9  and  N_10 
REMARK    2  A    between atoms: N_10  and  C_11 
REMARK    3  A    between atoms: C_11  and  C_12 
ROOT
HETATM    1  N   UNL     1     -39.191 -54.191  13.680  1.00  0.00    -0.191 NA
HETATM    2  C   UNL     1     -40.326 -54.010  13.501  1.00  0.00     0.102 C 
HETATM    3  C   UNL     1     -41.728 -53.856  13.270  1.00  0.00     0.082 A 
HETATM    4  C   UNL     1     -42.623 -54.560  14.086  1.00  0.00     0.027 A 
HETATM    5  C   UNL     1     -43.990 -54.451  13.866  1.00  0.00     0.019 A 
HETATM    6  C   UNL     1     -44.403 -53.658  12.816  1.00  0.00     0.089 A 
HETATM    7  N   UNL     1     -43.555 -52.978  12.016  1.00  0.00    -0.356 N 
ATOM      8  HN  UNL     1     -43.918 -52.412  11.248  1.00  0.00     0.166 HD
HETATM    9  C   UNL     1     -42.227 -53.050  12.235  1.00  0.00     0.101 A 
ENDROOT
BRANCH   9  10
HETATM   10  N   UNL     1     -41.373 -52.219  11.486  1.00  0.00    -0.275 NA
HETATM   11  H   UNL     1     -41.712 -52.166  10.527  1.00  0.00     0.129 HD
BRANCH  10  12
HETATM   12  C   UNL     1     -41.134 -50.849  11.982  1.00  0.00     0.127 C 
BRANCH  12  13
HETATM   13  C   UNL     1     -40.531 -49.814  11.009  1.00  0.00     0.163 C 
HETATM   14  C   UNL     1     -41.366 -48.534  10.704  1.00  0.00     0.306 C 
HETATM   15  N   UNL     1     -41.176 -47.359  11.594  1.00  0.00     0.097 N 
HETATM   16  C   UNL     1     -41.661 -46.130  10.933  1.00  0.00     0.273 C 
HETATM   17  C   UNL     1     -39.744 -47.199  11.935  1.00  0.00     0.246 C 
HETATM   18  C   UNL     1     -41.495 -44.893  11.825  1.00  0.00     0.030 C 
HETATM   19  C   UNL     1     -40.068 -44.745  12.344  1.00  0.00     0.004 C 
HETATM   20  C   UNL     1     -39.575 -46.057  12.945  1.00  0.00     0.038 C 
HETATM   21  C   UNL     1     -39.179 -48.510  12.486  1.00  0.00     0.204 C 
HETATM   22  O   UNL     1     -39.186 -49.495  11.451  1.00  0.00    -0.381 OA
ENDBRANCH  12  13
ENDBRANCH  10  12
ENDBRANCH   9  10
TORSDOF 3
ENDMDL
MODEL 4
REMARK VINA RESULT:      -6.2      1.699      6.679
REMARK  3 active torsions:
REMARK  status: ('A' for Active; 'I' for Inactive)
REMARK    1  A    between atoms: C_9  and  N_10 
REMARK    2  A    between atoms: N_10  and  C_11 
REMARK    3  A    between atoms: C_11  and  C_12 
ROOT
HETATM    1  N   UNL     1     -39.108 -52.997  15.573  1.00  0.00    -0.191 NA
HETATM    2  C   UNL     1     -38.986 -52.245  14.694  1.00  0.00     0.102 C 
HETATM    3  C   UNL     1     -38.857 -51.270  13.656  1.00  0.00     0.082 A 
HETATM    4  C   UNL     1     -38.014 -50.172  13.868  1.00  0.00     0.027 A 
HETATM    5  C   UNL     1     -37.891 -49.196  12.889  1.00  0.00     0.019 A 
HETATM    6  C   UNL     1     -38.644 -49.348  11.743  1.00  0.00     0.089 A 
HETATM    7  N   UNL     1     -39.467 -50.395  11.525  1.00  0.00    -0.356 N 
ATOM      8  HN  UNL     1     -40.006 -50.451  10.661  1.00  0.00     0.166 HD
HETATM    9  C   UNL     1     -39.574 -51.366  12.454  1.00  0.00     0.101 A 
ENDROOT
BRANCH   9  10
HETATM   10  N   UNL     1     -40.320 -52.519  12.143  1.00  0.00    -0.275 NA
HETATM   11  H   UNL     1     -40.028 -53.281  12.753  1.00  0.00     0.129 HD
BRANCH  10  12
HETATM   12  C   UNL     1     -41.792 -52.419  12.177  1.00  0.00     0.127 C 
BRANCH  12  13
HETATM   13  C   UNL     1     -42.557 -53.249  13.230  1.00  0.00     0.163 C 
HETATM   14  C   UNL     1     -42.891 -52.564  14.589  1.00  0.00     0.306 C 
HETATM   15  N   UNL     1     -44.172 -51.817  14.688  1.00  0.00     0.097 N 
HETATM   16  C   UNL     1     -44.549 -51.629  16.105  1.00  0.00     0.273 C 
HETATM   17  C   UNL     1     -45.250 -52.552  13.989  1.00  0.00     0.246 C 
HETATM   18  C   UNL     1     -45.862 -50.850  16.251  1.00  0.00     0.030 C 
HETATM   19  C   UNL     1     -46.991 -51.464  15.430  1.00  0.00     0.004 C 
HETATM   20  C   UNL     1     -46.537 -51.717  13.997  1.00  0.00     0.038 C 
HETATM   21  C   UNL     1     -44.822 -52.889  12.559  1.00  0.00     0.204 C 
HETATM   22  O   UNL     1     -43.735 -53.816  12.601  1.00  0.00    -0.381 OA
ENDBRANCH  12  13
ENDBRANCH  10  12
ENDBRANCH   9  10
TORSDOF 3
ENDMDL
MODEL 5
REMARK VINA RESULT:      -6.1      1.949      2.978
REMARK  3 active torsions:
REMARK  status: ('A' for Active; 'I' for Inactive)
REMARK    1  A    between atoms: C_9  and  N_10 
REMARK    2  A    between atoms: N_10  and  C_11 
REMARK    3  A    between atoms: C_11  and  C_12 
ROOT
HETATM    1  N   UNL     1     -45.017 -54.556  16.911  1.00  0.00    -0.191 NA
HETATM    2  C   UNL     1     -45.219 -53.908  15.967  1.00  0.00     0.102 C 
HETATM    3  C   UNL     1     -45.535 -53.130  14.810  1.00  0.00     0.082 A 
HETATM    4  C   UNL     1     -46.503 -52.124  14.922  1.00  0.00     0.027 A 
HETATM    5  C   UNL     1     -46.850 -51.372  13.808  1.00  0.00     0.019 A 
HETATM    6  C   UNL     1     -46.227 -51.678  12.616  1.00  0.00     0.089 A 
HETATM    7  N   UNL     1     -45.298 -52.648  12.488  1.00  0.00    -0.356 N 
ATOM      8  HN  UNL     1     -44.876 -52.836  11.578  1.00  0.00     0.166 HD
HETATM    9  C   UNL     1     -44.929 -53.368  13.567  1.00  0.00     0.101 A 
ENDROOT
BRANCH   9  10
HETATM   10  N   UNL     1     -43.854 -54.268  13.443  1.00  0.00    -0.275 NA
HETATM   11  H   UNL     1     -44.112 -55.010  12.793  1.00  0.00     0.129 HD
BRANCH  10  12
HETATM   12  C   UNL     1     -42.540 -53.725  13.048  1.00  0.00     0.127 C 
BRANCH  12  13
HETATM   13  C   UNL     1     -41.946 -52.569  13.881  1.00  0.00     0.163 C 
HETATM   14  C   UNL     1     -40.397 -52.515  14.043  1.00  0.00     0.306 C 
HETATM   15  N   UNL     1     -39.623 -51.770  13.016  1.00  0.00     0.097 N 
HETATM   16  C   UNL     1     -38.281 -51.427  13.533  1.00  0.00     0.273 C 
HETATM   17  C   UNL     1     -40.333 -50.528  12.638  1.00  0.00     0.246 C 
HETATM   18  C   UNL     1     -37.444 -50.668  12.497  1.00  0.00     0.030 C 
HETATM   19  C   UNL     1     -38.177 -49.450  11.943  1.00  0.00     0.004 C 
HETATM   20  C   UNL     1     -39.585 -49.829  11.496  1.00  0.00     0.038 C 
HETATM   21  C   UNL     1     -41.777 -50.841  12.239  1.00  0.00     0.204 C 
HETATM   22  O   UNL     1     -42.487 -51.318  13.384  1.00  0.00    -0.381 OA
ENDBRANCH  12  13
ENDBRANCH  10  12
ENDBRANCH   9  10
TORSDOF 3
ENDMDL
MODEL 6
REMARK VINA RESULT:      -6.0      1.770      2.515
REMARK  3 active torsions:
REMARK  status: ('A' for Active; 'I' for Inactive)
REMARK    1  A    between atoms: C_9  and  N_10 
REMARK    2  A    between atoms: N_10  and  C_11 
REMARK    3  A    between atoms: C_11  and  C_12 
ROOT
HETATM    1  N   UNL     1     -45.353 -54.559  16.970  1.00  0.00    -0.191 NA
HETATM    2  C   UNL     1     -45.414 -53.900  16.014  1.00  0.00     0.102 C 
HETATM    3  C   UNL     1     -45.555 -53.112  14.829  1.00  0.00     0.082 A 
HETATM    4  C   UNL     1     -46.599 -52.181  14.763  1.00  0.00     0.027 A 
HETATM    5  C   UNL     1     -46.777 -51.423  13.614  1.00  0.00     0.019 A 
HETATM    6  C   UNL     1     -45.912 -51.650  12.563  1.00  0.00     0.089 A 
HETATM    7  N   UNL     1     -44.905 -52.548  12.607  1.00  0.00    -0.356 N 
ATOM      8  HN  UNL     1     -44.300 -52.679  11.796  1.00  0.00     0.166 HD
HETATM    9  C   UNL     1     -44.702 -53.270  13.727  1.00  0.00     0.101 A 
ENDROOT
BRANCH   9  10
HETATM   10  N   UNL     1     -43.559 -54.089  13.804  1.00  0.00    -0.275 NA
HETATM   11  H   UNL     1     -43.500 -54.661  12.963  1.00  0.00     0.129 HD
BRANCH  10  12
HETATM   12  C   UNL     1     -42.255 -53.434  14.028  1.00  0.00     0.127 C 
BRANCH  12  13
HETATM   13  C   UNL     1     -41.285 -53.309  12.834  1.00  0.00     0.163 C 
HETATM   14  C   UNL     1     -41.286 -51.970  12.038  1.00  0.00     0.306 C 
HETATM   15  N   UNL     1     -40.374 -50.892  12.502  1.00  0.00     0.097 N 
HETATM   16  C   UNL     1     -40.154 -49.905  11.424  1.00  0.00     0.273 C 
HETATM   17  C   UNL     1     -39.072 -51.463  12.915  1.00  0.00     0.246 C 
HETATM   18  C   UNL     1     -39.227 -48.767  11.868  1.00  0.00     0.030 C 
HETATM   19  C   UNL     1     -37.917 -49.285  12.451  1.00  0.00     0.004 C 
HETATM   20  C   UNL     1     -38.184 -50.359  13.501  1.00  0.00     0.038 C 
HETATM   21  C   UNL     1     -39.284 -52.593  13.925  1.00  0.00     0.204 C 
HETATM   22  O   UNL     1     -39.955 -53.678  13.281  1.00  0.00    -0.381 OA
ENDBRANCH  12  13
ENDBRANCH  10  12
ENDBRANCH   9  10
TORSDOF 3
ENDMDL
MODEL 7
REMARK VINA RESULT:      -6.0      3.248      6.270
REMARK  3 active torsions:
REMARK  status: ('A' for Active; 'I' for Inactive)
REMARK    1  A    between atoms: C_9  and  N_10 
REMARK    2  A    between atoms: N_10  and  C_11 
REMARK    3  A    between atoms: C_11  and  C_12 
ROOT
HETATM    1  N   UNL     1     -40.584 -45.070  12.739  1.00  0.00    -0.191 NA
HETATM    2  C   UNL     1     -41.115 -45.630  11.869  1.00  0.00     0.102 C 
HETATM    3  C   UNL     1     -41.828 -46.310  10.833  1.00  0.00     0.082 A 
HETATM    4  C   UNL     1     -42.857 -45.630  10.170  1.00  0.00     0.027 A 
HETATM    5  C   UNL     1     -43.585 -46.274   9.179  1.00  0.00     0.019 A 
HETATM    6  C   UNL     1     -43.266 -47.589   8.910  1.00  0.00     0.089 A 
HETATM    7  N   UNL     1     -42.282 -48.262   9.543  1.00  0.00    -0.356 N 
ATOM      8  HN  UNL     1     -42.095 -49.237   9.308  1.00  0.00     0.166 HD
HETATM    9  C   UNL     1     -41.547 -47.641  10.487  1.00  0.00     0.101 A 
ENDROOT
BRANCH   9  10
HETATM   10  N   UNL     1     -40.433 -48.311  11.026  1.00  0.00    -0.275 NA
HETATM   11  H   UNL     1     -40.206 -47.908  11.933  1.00  0.00     0.129 HD
BRANCH  10  12
HETATM   12  C   UNL     1     -40.512 -49.779  11.165  1.00  0.00     0.127 C 
BRANCH  12  13
HETATM   13  C   UNL     1     -40.840 -50.366  12.554  1.00  0.00     0.163 C 
HETATM   14  C   UNL     1     -42.233 -50.037  13.168  1.00  0.00     0.306 C 
HETATM   15  N   UNL     1     -43.360 -50.954  12.851  1.00  0.00     0.097 N 
HETATM   16  C   UNL     1     -44.452 -50.786  13.833  1.00  0.00     0.273 C 
HETATM   17  C   UNL     1     -42.899 -52.360  12.868  1.00  0.00     0.246 C 
HETATM   18  C   UNL     1     -45.641 -51.706  13.532  1.00  0.00     0.030 C 
HETATM   19  C   UNL     1     -45.219 -53.163  13.383  1.00  0.00     0.004 C 
HETATM   20  C   UNL     1     -44.039 -53.285  12.425  1.00  0.00     0.038 C 
HETATM   21  C   UNL     1     -41.672 -52.528  11.969  1.00  0.00     0.204 C 
HETATM   22  O   UNL     1     -40.580 -51.793  12.525  1.00  0.00    -0.381 OA
ENDBRANCH  12  13
ENDBRANCH  10  12
ENDBRANCH   9  10
TORSDOF 3
ENDMDL
MODEL 8
REMARK VINA RESULT:      -6.0      1.795      6.481
REMARK  3 active torsions:
REMARK  status: ('A' for Active; 'I' for Inactive)
REMARK    1  A    between atoms: C_9  and  N_10 
REMARK    2  A    between atoms: N_10  and  C_11 
REMARK    3  A    between atoms: C_11  and  C_12 
ROOT
HETATM    1  N   UNL     1     -37.613 -49.870  14.258  1.00  0.00    -0.191 NA
HETATM    2  C   UNL     1     -38.379 -49.583  13.431  1.00  0.00     0.102 C 
HETATM    3  C   UNL     1     -39.357 -49.194  12.463  1.00  0.00     0.082 A 
HETATM    4  C   UNL     1     -39.585 -47.829  12.253  1.00  0.00     0.027 A 
HETATM    5  C   UNL     1     -40.548 -47.422  11.339  1.00  0.00     0.019 A 
HETATM    6  C   UNL     1     -41.265 -48.407  10.691  1.00  0.00     0.089 A 
HETATM    7  N   UNL     1     -41.062 -49.727  10.887  1.00  0.00    -0.356 N 
ATOM      8  HN  UNL     1     -41.628 -50.411  10.384  1.00  0.00     0.166 HD
HETATM    9  C   UNL     1     -40.110 -50.137  11.748  1.00  0.00     0.101 A 
ENDROOT
BRANCH   9  10
HETATM   10  N   UNL     1     -39.816 -51.512  11.825  1.00  0.00    -0.275 NA
HETATM   11  H   UNL     1     -39.033 -51.651  12.462  1.00  0.00     0.129 HD
BRANCH  10  12
HETATM   12  C   UNL     1     -40.907 -52.432  12.202  1.00  0.00     0.127 C 
BRANCH  12  13
HETATM   13  C   UNL     1     -41.533 -52.287  13.605  1.00  0.00     0.163 C 
HETATM   14  C   UNL     1     -42.778 -51.362  13.751  1.00  0.00     0.306 C 
HETATM   15  N   UNL     1     -44.118 -51.973  13.548  1.00  0.00     0.097 N 
HETATM   16  C   UNL     1     -45.167 -51.123  14.149  1.00  0.00     0.273 C 
HETATM   17  C   UNL     1     -44.167 -53.318  14.162  1.00  0.00     0.246 C 
HETATM   18  C   UNL     1     -46.568 -51.712  13.949  1.00  0.00     0.030 C 
HETATM   19  C   UNL     1     -46.657 -53.159  14.422  1.00  0.00     0.004 C 
HETATM   20  C   UNL     1     -45.512 -53.984  13.845  1.00  0.00     0.038 C 
HETATM   21  C   UNL     1     -42.999 -54.173  13.664  1.00  0.00     0.204 C 
HETATM   22  O   UNL     1     -41.774 -53.614  14.141  1.00  0.00    -0.381 OA
ENDBRANCH  12  13
ENDBRANCH  10  12
ENDBRANCH   9  10
TORSDOF 3
ENDMDL
MODEL 9
REMARK VINA RESULT:      -6.0      1.463      1.995
REMARK  3 active torsions:
REMARK  status: ('A' for Active; 'I' for Inactive)
REMARK    1  A    between atoms: C_9  and  N_10 
REMARK    2  A    between atoms: N_10  and  C_11 
REMARK    3  A    between atoms: C_11  and  C_12 
ROOT
HETATM    1  N   UNL     1     -43.507 -49.803  12.973  1.00  0.00    -0.191 NA
HETATM    2  C   UNL     1     -44.175 -50.709  13.266  1.00  0.00     0.102 C 
HETATM    3  C   UNL     1     -44.990 -51.803  13.692  1.00  0.00     0.082 A 
HETATM    4  C   UNL     1     -46.158 -51.527  14.415  1.00  0.00     0.027 A 
HETATM    5  C   UNL     1     -46.954 -52.571  14.866  1.00  0.00     0.019 A 
HETATM    6  C   UNL     1     -46.530 -53.855  14.595  1.00  0.00     0.089 A 
HETATM    7  N   UNL     1     -45.405 -54.140  13.906  1.00  0.00    -0.356 N 
ATOM      8  HN  UNL     1     -45.137 -55.110  13.742  1.00  0.00     0.166 HD
HETATM    9  C   UNL     1     -44.637 -53.136  13.436  1.00  0.00     0.101 A 
ENDROOT
BRANCH   9  10
HETATM   10  N   UNL     1     -43.554 -53.452  12.596  1.00  0.00    -0.275 NA
HETATM   11  H   UNL     1     -43.434 -52.709  11.910  1.00  0.00     0.129 HD
BRANCH  10  12
HETATM   12  C   UNL     1     -42.249 -53.732  13.228  1.00  0.00     0.127 C 
BRANCH  12  13
HETATM   13  C   UNL     1     -40.967 -53.414  12.429  1.00  0.00     0.163 C 
HETATM   14  C   UNL     1     -40.793 -51.965  11.885  1.00  0.00     0.306 C 
HETATM   15  N   UNL     1     -40.125 -50.973  12.768  1.00  0.00     0.097 N 
HETATM   16  C   UNL     1     -39.637 -49.825  11.975  1.00  0.00     0.273 C 
HETATM   17  C   UNL     1     -38.986 -51.599  13.475  1.00  0.00     0.246 C 
HETATM   18  C   UNL     1     -38.953 -48.770  12.853  1.00  0.00     0.030 C 
HETATM   19  C   UNL     1     -37.860 -49.372  13.730  1.00  0.00     0.004 C 
HETATM   20  C   UNL     1     -38.379 -50.601  14.469  1.00  0.00     0.038 C 
HETATM   21  C   UNL     1     -39.438 -52.877  14.185  1.00  0.00     0.204 C 
HETATM   22  O   UNL     1     -39.820 -53.846  13.207  1.00  0.00    -0.381 OA
ENDBRANCH  12  13
ENDBRANCH  10  12
ENDBRANCH   9  10
TORSDOF 3
ENDMDL
