MODEL 1
REMARK VINA RESULT:      -7.1      0.000      0.000
REMARK  4 active torsions:
REMARK  status: ('A' for Active; 'I' for Inactive)
REMARK    1  A    between atoms: C_4  and  N_5 
REMARK       I    between atoms: N_5  and  C_6 
REMARK       I    between atoms: C_6  and  N_8 
REMARK    2  A    between atoms: N_8  and  C_9 
REMARK    3  A    between atoms: C_9  and  C_10 
REMARK    4  A    between atoms: C_10  and  N_11 
ROOT
HETATM    1  N   UNL     1     -41.456 -47.813  10.209  1.00  0.00    -0.293 N 
HETATM    2  C   UNL     1     -41.026 -48.739  11.112  1.00  0.00     0.321 C 
HETATM    3  O   UNL     1     -39.916 -48.617  11.624  1.00  0.00    -0.247 OA
HETATM    4  N   UNL     1     -41.865 -49.779  11.373  1.00  0.00    -0.341 N 
HETATM    5  H   UNL     1     -40.783 -47.091  10.007  1.00  0.00     0.172 HD
HETATM    6  H   UNL     1     -42.829 -49.650  11.081  1.00  0.00     0.164 HD
ENDROOT
BRANCH   1   7
HETATM    7  C   UNL     1     -42.686 -47.755   9.588  1.00  0.00     0.132 A 
HETATM    8  C   UNL     1     -43.886 -47.359  10.219  1.00  0.00     0.084 A 
HETATM    9  C   UNL     1     -44.839 -47.453   9.230  1.00  0.00     0.076 A 
HETATM   10  C   UNL     1     -46.282 -47.196   9.155  1.00  0.00     0.079 C 
HETATM   11  O   UNL     1     -44.252 -47.882   8.086  1.00  0.00    -0.241 OA
HETATM   12  N   UNL     1     -42.909 -48.076   8.307  1.00  0.00    -0.245 N 
ATOM     13  HN  UNL     1     -42.219 -48.399   7.628  1.00  0.00     0.196 HD
ENDBRANCH   1   7
BRANCH   4  14
HETATM   14  C   UNL     1     -41.596 -50.729  12.419  1.00  0.00     0.154 C 
BRANCH  14  15
HETATM   15  C   UNL     1     -42.380 -52.036  12.225  1.00  0.00     0.292 C 
BRANCH  15  16
HETATM   16  N   UNL     1     -43.510 -52.238  13.156  1.00  0.00     0.090 N 
HETATM   17  C   UNL     1     -44.534 -53.104  12.556  1.00  0.00     0.272 C 
HETATM   18  C   UNL     1     -45.396 -53.781  13.614  1.00  0.00     0.030 C 
HETATM   19  C   UNL     1     -46.611 -52.980  14.070  1.00  0.00     0.002 C 
HETATM   20  C   UNL     1     -46.441 -51.470  14.182  1.00  0.00     0.002 C 
HETATM   21  C   UNL     1     -45.088 -51.017  14.717  1.00  0.00     0.030 C 
HETATM   22  C   UNL     1     -44.017 -50.944  13.630  1.00  0.00     0.272 C 
ENDBRANCH  15  16
ENDBRANCH  14  15
ENDBRANCH   4  14
TORSDOF 4
ENDMDL
MODEL 2
REMARK VINA RESULT:      -7.0      0.600      1.423
REMARK  4 active torsions:
REMARK  status: ('A' for Active; 'I' for Inactive)
REMARK    1  A    between atoms: C_4  and  N_5 
REMARK       I    between atoms: N_5  and  C_6 
REMARK       I    between atoms: C_6  and  N_8 
REMARK    2  A    between atoms: N_8  and  C_9 
REMARK    3  A    between atoms: C_9  and  C_10 
REMARK    4  A    between atoms: C_10  and  N_11 
ROOT
HETATM    1  N   UNL     1     -41.530 -47.932  10.159  1.00  0.00    -0.293 N 
HETATM    2  C   UNL     1     -41.184 -48.797  11.153  1.00  0.00     0.321 C 
HETATM    3  O   UNL     1     -40.060 -48.736  11.647  1.00  0.00    -0.247 OA
HETATM    4  N   UNL     1     -42.120 -49.714  11.524  1.00  0.00    -0.341 N 
HETATM    5  H   UNL     1     -40.790 -47.307   9.880  1.00  0.00     0.172 HD
HETATM    6  H   UNL     1     -43.070 -49.518  11.222  1.00  0.00     0.164 HD
ENDROOT
BRANCH   1   7
HETATM    7  C   UNL     1     -42.755 -47.814   9.538  1.00  0.00     0.132 A 
HETATM    8  C   UNL     1     -43.924 -47.316  10.156  1.00  0.00     0.084 A 
HETATM    9  C   UNL     1     -44.885 -47.382   9.173  1.00  0.00     0.076 A 
HETATM   10  C   UNL     1     -46.308 -47.032   9.090  1.00  0.00     0.079 C 
HETATM   11  O   UNL     1     -44.332 -47.890   8.044  1.00  0.00    -0.241 OA
HETATM   12  N   UNL     1     -43.004 -48.164   8.269  1.00  0.00    -0.245 N 
ATOM     13  HN  UNL     1     -42.340 -48.557   7.602  1.00  0.00     0.196 HD
ENDBRANCH   1   7
BRANCH   4  14
HETATM   14  C   UNL     1     -41.935 -50.571  12.664  1.00  0.00     0.154 C 
BRANCH  14  15
HETATM   15  C   UNL     1     -42.269 -52.037  12.342  1.00  0.00     0.292 C 
BRANCH  15  16
HETATM   16  N   UNL     1     -43.657 -52.447  12.642  1.00  0.00     0.090 N 
HETATM   17  C   UNL     1     -44.310 -51.473  13.527  1.00  0.00     0.272 C 
HETATM   18  C   UNL     1     -45.828 -51.529  13.412  1.00  0.00     0.030 C 
HETATM   19  C   UNL     1     -46.510 -52.537  14.331  1.00  0.00     0.002 C 
HETATM   20  C   UNL     1     -45.786 -53.857  14.568  1.00  0.00     0.002 C 
HETATM   21  C   UNL     1     -45.075 -54.424  13.345  1.00  0.00     0.030 C 
HETATM   22  C   UNL     1     -43.683 -53.827  13.141  1.00  0.00     0.272 C 
ENDBRANCH  15  16
ENDBRANCH  14  15
ENDBRANCH   4  14
TORSDOF 4
ENDMDL
MODEL 3
REMARK VINA RESULT:      -6.7      1.961      2.702
REMARK  4 active torsions:
REMARK  status: ('A' for Active; 'I' for Inactive)
REMARK    1  A    between atoms: C_4  and  N_5 
REMARK       I    between atoms: N_5  and  C_6 
REMARK       I    between atoms: C_6  and  N_8 
REMARK    2  A    between atoms: N_8  and  C_9 
REMARK    3  A    between atoms: C_9  and  C_10 
REMARK    4  A    between atoms: C_10  and  N_11 
ROOT
HETATM    1  N   UNL     1     -41.561 -47.703  10.158  1.00  0.00    -0.293 N 
HETATM    2  C   UNL     1     -41.111 -48.600  11.079  1.00  0.00     0.321 C 
HETATM    3  O   UNL     1     -40.010 -48.432  11.601  1.00  0.00    -0.247 OA
HETATM    4  N   UNL     1     -41.916 -49.664  11.347  1.00  0.00    -0.341 N 
HETATM    5  H   UNL     1     -40.911 -46.962   9.951  1.00  0.00     0.172 HD
HETATM    6  H   UNL     1     -42.881 -49.572  11.044  1.00  0.00     0.164 HD
ENDROOT
BRANCH   1   7
HETATM    7  C   UNL     1     -42.786 -47.696   9.523  1.00  0.00     0.132 A 
HETATM    8  C   UNL     1     -44.005 -47.324  10.133  1.00  0.00     0.084 A 
HETATM    9  C   UNL     1     -44.943 -47.469   9.137  1.00  0.00     0.076 A 
HETATM   10  C   UNL     1     -46.393 -47.258   9.041  1.00  0.00     0.079 C 
HETATM   11  O   UNL     1     -44.330 -47.904   8.008  1.00  0.00    -0.241 OA
HETATM   12  N   UNL     1     -42.985 -48.051   8.247  1.00  0.00    -0.245 N 
ATOM     13  HN  UNL     1     -42.278 -48.368   7.583  1.00  0.00     0.196 HD
ENDBRANCH   1   7
BRANCH   4  14
HETATM   14  C   UNL     1     -41.627 -50.588  12.412  1.00  0.00     0.154 C 
BRANCH  14  15
HETATM   15  C   UNL     1     -40.992 -51.886  11.890  1.00  0.00     0.292 C 
BRANCH  15  16
HETATM   16  N   UNL     1     -41.192 -53.074  12.746  1.00  0.00     0.090 N 
HETATM   17  C   UNL     1     -42.509 -53.033  13.396  1.00  0.00     0.272 C 
HETATM   18  C   UNL     1     -42.983 -54.422  13.807  1.00  0.00     0.030 C 
HETATM   19  C   UNL     1     -42.526 -54.880  15.187  1.00  0.00     0.002 C 
HETATM   20  C   UNL     1     -41.124 -54.473  15.622  1.00  0.00     0.002 C 
HETATM   21  C   UNL     1     -40.078 -54.505  14.515  1.00  0.00     0.030 C 
HETATM   22  C   UNL     1     -40.066 -53.227  13.676  1.00  0.00     0.272 C 
ENDBRANCH  15  16
ENDBRANCH  14  15
ENDBRANCH   4  14
TORSDOF 4
ENDMDL
MODEL 4
REMARK VINA RESULT:      -6.6      2.350      3.302
REMARK  4 active torsions:
REMARK  status: ('A' for Active; 'I' for Inactive)
REMARK    1  A    between atoms: C_4  and  N_5 
REMARK       I    between atoms: N_5  and  C_6 
REMARK       I    between atoms: C_6  and  N_8 
REMARK    2  A    between atoms: N_8  and  C_9 
REMARK    3  A    between atoms: C_9  and  C_10 
REMARK    4  A    between atoms: C_10  and  N_11 
ROOT
HETATM    1  N   UNL     1     -41.985 -46.776   9.931  1.00  0.00    -0.293 N 
HETATM    2  C   UNL     1     -41.048 -47.504  10.600  1.00  0.00     0.321 C 
HETATM    3  O   UNL     1     -40.117 -46.928  11.160  1.00  0.00    -0.247 OA
HETATM    4  N   UNL     1     -41.192 -48.858  10.581  1.00  0.00    -0.341 N 
HETATM    5  H   UNL     1     -41.809 -45.784   9.926  1.00  0.00     0.172 HD
HETATM    6  H   UNL     1     -42.106 -49.199  10.299  1.00  0.00     0.164 HD
ENDROOT
BRANCH   1   7
HETATM    7  C   UNL     1     -43.121 -47.244   9.305  1.00  0.00     0.132 A 
HETATM    8  C   UNL     1     -44.393 -47.335   9.912  1.00  0.00     0.084 A 
HETATM    9  C   UNL     1     -45.206 -47.847   8.927  1.00  0.00     0.076 A 
HETATM   10  C   UNL     1     -46.630 -48.194   8.836  1.00  0.00     0.079 C 
HETATM   11  O   UNL     1     -44.471 -48.055   7.807  1.00  0.00    -0.241 OA
HETATM   12  N   UNL     1     -43.169 -47.684   8.040  1.00  0.00    -0.245 N 
ATOM     13  HN  UNL     1     -42.392 -47.734   7.381  1.00  0.00     0.196 HD
ENDBRANCH   1   7
BRANCH   4  14
HETATM   14  C   UNL     1     -40.365 -49.722  11.379  1.00  0.00     0.154 C 
BRANCH  14  15
HETATM   15  C   UNL     1     -40.883 -49.844  12.821  1.00  0.00     0.292 C 
BRANCH  15  16
HETATM   16  N   UNL     1     -40.894 -51.215  13.373  1.00  0.00     0.090 N 
HETATM   17  C   UNL     1     -39.539 -51.783  13.388  1.00  0.00     0.272 C 
HETATM   18  C   UNL     1     -39.402 -52.899  14.417  1.00  0.00     0.030 C 
HETATM   19  C   UNL     1     -39.776 -54.290  13.916  1.00  0.00     0.002 C 
HETATM   20  C   UNL     1     -40.948 -54.384  12.947  1.00  0.00     0.002 C 
HETATM   21  C   UNL     1     -42.103 -53.437  13.247  1.00  0.00     0.030 C 
HETATM   22  C   UNL     1     -41.885 -52.039  12.670  1.00  0.00     0.272 C 
ENDBRANCH  15  16
ENDBRANCH  14  15
ENDBRANCH   4  14
TORSDOF 4
ENDMDL
MODEL 5
REMARK VINA RESULT:      -6.1      2.292      3.347
REMARK  4 active torsions:
REMARK  status: ('A' for Active; 'I' for Inactive)
REMARK    1  A    between atoms: C_4  and  N_5 
REMARK       I    between atoms: N_5  and  C_6 
REMARK       I    between atoms: C_6  and  N_8 
REMARK    2  A    between atoms: N_8  and  C_9 
REMARK    3  A    between atoms: C_9  and  C_10 
REMARK    4  A    between atoms: C_10  and  N_11 
ROOT
HETATM    1  N   UNL     1     -40.391 -51.199  11.830  1.00  0.00    -0.293 N 
HETATM    2  C   UNL     1     -41.073 -52.358  12.048  1.00  0.00     0.321 C 
HETATM    3  O   UNL     1     -40.457 -53.374  12.363  1.00  0.00    -0.247 OA
HETATM    4  N   UNL     1     -42.422 -52.320  11.870  1.00  0.00    -0.341 N 
HETATM    5  H   UNL     1     -39.391 -51.285  11.921  1.00  0.00     0.172 HD
HETATM    6  H   UNL     1     -42.836 -51.394  11.846  1.00  0.00     0.164 HD
ENDROOT
BRANCH   1   7
HETATM    7  C   UNL     1     -40.917 -49.958  11.535  1.00  0.00     0.132 A 
HETATM    8  C   UNL     1     -41.496 -49.086  12.483  1.00  0.00     0.084 A 
HETATM    9  C   UNL     1     -41.876 -47.986  11.747  1.00  0.00     0.076 A 
HETATM   10  C   UNL     1     -42.522 -46.705  12.058  1.00  0.00     0.079 C 
HETATM   11  O   UNL     1     -41.554 -48.189  10.446  1.00  0.00    -0.241 OA
HETATM   12  N   UNL     1     -40.959 -49.420  10.309  1.00  0.00    -0.245 N 
ATOM     13  HN  UNL     1     -40.616 -49.840   9.445  1.00  0.00     0.196 HD
ENDBRANCH   1   7
BRANCH   4  14
HETATM   14  C   UNL     1     -43.267 -53.430  12.223  1.00  0.00     0.154 C 
BRANCH  14  15
HETATM   15  C   UNL     1     -43.523 -53.499  13.737  1.00  0.00     0.292 C 
BRANCH  15  16
HETATM   16  N   UNL     1     -44.384 -52.427  14.280  1.00  0.00     0.090 N 
HETATM   17  C   UNL     1     -44.270 -52.357  15.743  1.00  0.00     0.272 C 
HETATM   18  C   UNL     1     -44.658 -50.983  16.277  1.00  0.00     0.030 C 
HETATM   19  C   UNL     1     -46.143 -50.800  16.572  1.00  0.00     0.002 C 
HETATM   20  C   UNL     1     -47.126 -51.474  15.623  1.00  0.00     0.002 C 
HETATM   21  C   UNL     1     -46.716 -51.447  14.156  1.00  0.00     0.030 C 
HETATM   22  C   UNL     1     -45.759 -52.581  13.789  1.00  0.00     0.272 C 
ENDBRANCH  15  16
ENDBRANCH  14  15
ENDBRANCH   4  14
TORSDOF 4
ENDMDL
MODEL 6
REMARK VINA RESULT:      -5.9      2.684      6.507
REMARK  4 active torsions:
REMARK  status: ('A' for Active; 'I' for Inactive)
REMARK    1  A    between atoms: C_4  and  N_5 
REMARK       I    between atoms: N_5  and  C_6 
REMARK       I    between atoms: C_6  and  N_8 
REMARK    2  A    between atoms: N_8  and  C_9 
REMARK    3  A    between atoms: C_9  and  C_10 
REMARK    4  A    between atoms: C_10  and  N_11 
ROOT
HETATM    1  N   UNL     1     -41.755 -52.681  12.867  1.00  0.00    -0.293 N 
HETATM    2  C   UNL     1     -40.850 -51.809  12.340  1.00  0.00     0.321 C 
HETATM    3  O   UNL     1     -39.648 -52.045  12.448  1.00  0.00    -0.247 OA
HETATM    4  N   UNL     1     -41.347 -50.694  11.738  1.00  0.00    -0.341 N 
HETATM    5  H   UNL     1     -41.343 -53.463  13.349  1.00  0.00     0.172 HD
HETATM    6  H   UNL     1     -42.334 -50.725  11.502  1.00  0.00     0.164 HD
ENDROOT
BRANCH   1   7
HETATM    7  C   UNL     1     -43.130 -52.612  12.786  1.00  0.00     0.132 A 
HETATM    8  C   UNL     1     -43.945 -51.812  13.617  1.00  0.00     0.084 A 
HETATM    9  C   UNL     1     -45.227 -52.060  13.181  1.00  0.00     0.076 A 
HETATM   10  C   UNL     1     -46.561 -51.584  13.563  1.00  0.00     0.079 C 
HETATM   11  O   UNL     1     -45.184 -52.953  12.162  1.00  0.00    -0.241 OA
HETATM   12  N   UNL     1     -43.878 -53.303  11.915  1.00  0.00    -0.245 N 
ATOM     13  HN  UNL     1     -43.545 -53.959  11.209  1.00  0.00     0.196 HD
ENDBRANCH   1   7
BRANCH   4  14
HETATM   14  C   UNL     1     -40.506 -49.785  11.007  1.00  0.00     0.154 C 
BRANCH  14  15
HETATM   15  C   UNL     1     -40.107 -48.564  11.852  1.00  0.00     0.292 C 
BRANCH  15  16
HETATM   16  N   UNL     1     -40.411 -47.252  11.244  1.00  0.00     0.090 N 
HETATM   17  C   UNL     1     -39.934 -46.156  12.099  1.00  0.00     0.272 C 
HETATM   18  C   UNL     1     -39.708 -44.874  11.308  1.00  0.00     0.030 C 
HETATM   19  C   UNL     1     -40.933 -43.978  11.166  1.00  0.00     0.002 C 
HETATM   20  C   UNL     1     -42.280 -44.669  10.992  1.00  0.00     0.002 C 
HETATM   21  C   UNL     1     -42.249 -45.918  10.121  1.00  0.00     0.030 C 
HETATM   22  C   UNL     1     -41.835 -47.169  10.897  1.00  0.00     0.272 C 
ENDBRANCH  15  16
ENDBRANCH  14  15
ENDBRANCH   4  14
TORSDOF 4
ENDMDL
MODEL 7
REMARK VINA RESULT:      -5.5      4.726      7.514
REMARK  4 active torsions:
REMARK  status: ('A' for Active; 'I' for Inactive)
REMARK    1  A    between atoms: C_4  and  N_5 
REMARK       I    between atoms: N_5  and  C_6 
REMARK       I    between atoms: C_6  and  N_8 
REMARK    2  A    between atoms: N_8  and  C_9 
REMARK    3  A    between atoms: C_9  and  C_10 
REMARK    4  A    between atoms: C_10  and  N_11 
ROOT
HETATM    1  N   UNL     1     -42.165 -46.205   9.378  1.00  0.00    -0.293 N 
HETATM    2  C   UNL     1     -41.496 -45.944  10.536  1.00  0.00     0.321 C 
HETATM    3  O   UNL     1     -40.281 -45.762  10.508  1.00  0.00    -0.247 OA
HETATM    4  N   UNL     1     -42.232 -45.931  11.682  1.00  0.00    -0.341 N 
HETATM    5  H   UNL     1     -41.574 -46.258   8.564  1.00  0.00     0.172 HD
HETATM    6  H   UNL     1     -43.237 -45.858  11.557  1.00  0.00     0.164 HD
ENDROOT
BRANCH   1   7
HETATM    7  C   UNL     1     -43.524 -46.371   9.213  1.00  0.00     0.132 A 
HETATM    8  C   UNL     1     -44.187 -47.618   9.218  1.00  0.00     0.084 A 
HETATM    9  C   UNL     1     -45.512 -47.301   9.022  1.00  0.00     0.076 A 
HETATM   10  C   UNL     1     -46.758 -48.071   8.925  1.00  0.00     0.079 C 
HETATM   11  O   UNL     1     -45.634 -45.956   8.901  1.00  0.00    -0.241 OA
HETATM   12  N   UNL     1     -44.395 -45.373   9.016  1.00  0.00    -0.245 N 
ATOM     13  HN  UNL     1     -44.182 -44.376   8.961  1.00  0.00     0.196 HD
ENDBRANCH   1   7
BRANCH   4  14
HETATM   14  C   UNL     1     -41.674 -45.512  12.940  1.00  0.00     0.154 C 
BRANCH  14  15
HETATM   15  C   UNL     1     -42.554 -44.464  13.639  1.00  0.00     0.292 C 
BRANCH  15  16
HETATM   16  N   UNL     1     -42.012 -43.088  13.641  1.00  0.00     0.090 N 
HETATM   17  C   UNL     1     -42.969 -42.149  13.041  1.00  0.00     0.272 C 
HETATM   18  C   UNL     1     -42.732 -40.719  13.511  1.00  0.00     0.030 C 
HETATM   19  C   UNL     1     -41.724 -39.925  12.687  1.00  0.00     0.002 C 
HETATM   20  C   UNL     1     -40.516 -40.685  12.152  1.00  0.00     0.002 C 
HETATM   21  C   UNL     1     -39.944 -41.727  13.106  1.00  0.00     0.030 C 
HETATM   22  C   UNL     1     -40.678 -43.065  13.028  1.00  0.00     0.272 C 
ENDBRANCH  15  16
ENDBRANCH  14  15
ENDBRANCH   4  14
TORSDOF 4
ENDMDL
MODEL 8
REMARK VINA RESULT:      -5.5      4.087      7.344
REMARK  4 active torsions:
REMARK  status: ('A' for Active; 'I' for Inactive)
REMARK    1  A    between atoms: C_4  and  N_5 
REMARK       I    between atoms: N_5  and  C_6 
REMARK       I    between atoms: C_6  and  N_8 
REMARK    2  A    between atoms: N_8  and  C_9 
REMARK    3  A    between atoms: C_9  and  C_10 
REMARK    4  A    between atoms: C_10  and  N_11 
ROOT
HETATM    1  N   UNL     1     -45.903 -53.594  13.957  1.00  0.00    -0.293 N 
HETATM    2  C   UNL     1     -44.809 -53.241  13.226  1.00  0.00     0.321 C 
HETATM    3  O   UNL     1     -44.589 -53.801  12.154  1.00  0.00    -0.247 OA
HETATM    4  N   UNL     1     -43.995 -52.288  13.758  1.00  0.00    -0.341 N 
HETATM    5  H   UNL     1     -46.447 -54.340  13.552  1.00  0.00     0.172 HD
HETATM    6  H   UNL     1     -44.396 -51.740  14.513  1.00  0.00     0.164 HD
ENDROOT
BRANCH   1   7
HETATM    7  C   UNL     1     -46.338 -53.034  15.140  1.00  0.00     0.132 A 
HETATM    8  C   UNL     1     -47.130 -51.868  15.233  1.00  0.00     0.084 A 
HETATM    9  C   UNL     1     -47.316 -51.689  16.585  1.00  0.00     0.076 A 
HETATM   10  C   UNL     1     -48.029 -50.707  17.411  1.00  0.00     0.079 C 
HETATM   11  O   UNL     1     -46.674 -52.676  17.257  1.00  0.00    -0.241 OA
HETATM   12  N   UNL     1     -46.059 -53.515  16.359  1.00  0.00    -0.245 N 
ATOM     13  HN  UNL     1     -45.501 -54.340  16.578  1.00  0.00     0.196 HD
ENDBRANCH   1   7
BRANCH   4  14
HETATM   14  C   UNL     1     -42.904 -51.718  13.013  1.00  0.00     0.154 C 
BRANCH  14  15
HETATM   15  C   UNL     1     -41.542 -52.244  13.495  1.00  0.00     0.292 C 
BRANCH  15  16
HETATM   16  N   UNL     1     -40.404 -51.323  13.292  1.00  0.00     0.090 N 
HETATM   17  C   UNL     1     -40.367 -50.835  11.906  1.00  0.00     0.272 C 
HETATM   18  C   UNL     1     -39.614 -49.515  11.789  1.00  0.00     0.030 C 
HETATM   19  C   UNL     1     -38.109 -49.645  11.584  1.00  0.00     0.002 C 
HETATM   20  C   UNL     1     -37.406 -50.778  12.322  1.00  0.00     0.002 C 
HETATM   21  C   UNL     1     -37.925 -51.042  13.729  1.00  0.00     0.030 C 
HETATM   22  C   UNL     1     -39.156 -51.949  13.744  1.00  0.00     0.272 C 
ENDBRANCH  15  16
ENDBRANCH  14  15
ENDBRANCH   4  14
TORSDOF 4
ENDMDL
MODEL 9
REMARK VINA RESULT:      -5.4      3.382      6.629
REMARK  4 active torsions:
REMARK  status: ('A' for Active; 'I' for Inactive)
REMARK    1  A    between atoms: C_4  and  N_5 
REMARK       I    between atoms: N_5  and  C_6 
REMARK       I    between atoms: C_6  and  N_8 
REMARK    2  A    between atoms: N_8  and  C_9 
REMARK    3  A    between atoms: C_9  and  C_10 
REMARK    4  A    between atoms: C_10  and  N_11 
ROOT
HETATM    1  N   UNL     1     -42.128 -54.203  12.916  1.00  0.00    -0.293 N 
HETATM    2  C   UNL     1     -41.041 -53.389  13.037  1.00  0.00     0.321 C 
HETATM    3  O   UNL     1     -39.914 -53.859  12.897  1.00  0.00    -0.247 OA
HETATM    4  N   UNL     1     -41.280 -52.084  13.338  1.00  0.00    -0.341 N 
HETATM    5  H   UNL     1     -41.902 -55.170  12.746  1.00  0.00     0.172 HD
HETATM    6  H   UNL     1     -42.234 -51.767  13.196  1.00  0.00     0.164 HD
ENDROOT
BRANCH   1   7
HETATM    7  C   UNL     1     -43.457 -53.841  12.977  1.00  0.00     0.132 A 
HETATM    8  C   UNL     1     -44.254 -53.905  14.142  1.00  0.00     0.084 A 
HETATM    9  C   UNL     1     -45.489 -53.453  13.735  1.00  0.00     0.076 A 
HETATM   10  C   UNL     1     -46.783 -53.241  14.396  1.00  0.00     0.079 C 
HETATM   11  O   UNL     1     -45.438 -53.145  12.416  1.00  0.00    -0.241 OA
HETATM   12  N   UNL     1     -44.173 -53.390  11.939  1.00  0.00    -0.245 N 
ATOM     13  HN  UNL     1     -43.844 -53.255  10.982  1.00  0.00     0.196 HD
ENDBRANCH   1   7
BRANCH   4  14
HETATM   14  C   UNL     1     -40.233 -51.098  13.333  1.00  0.00     0.154 C 
BRANCH  14  15
HETATM   15  C   UNL     1     -40.083 -50.425  11.959  1.00  0.00     0.292 C 
BRANCH  15  16
HETATM   16  N   UNL     1     -39.836 -48.968  11.995  1.00  0.00     0.090 N 
HETATM   17  C   UNL     1     -39.738 -48.489  13.381  1.00  0.00     0.272 C 
HETATM   18  C   UNL     1     -38.955 -47.185  13.477  1.00  0.00     0.030 C 
HETATM   19  C   UNL     1     -39.783 -45.918  13.296  1.00  0.00     0.002 C 
HETATM   20  C   UNL     1     -40.915 -45.970  12.277  1.00  0.00     0.002 C 
HETATM   21  C   UNL     1     -40.600 -46.761  11.013  1.00  0.00     0.030 C 
HETATM   22  C   UNL     1     -40.834 -48.262  11.182  1.00  0.00     0.272 C 
ENDBRANCH  15  16
ENDBRANCH  14  15
ENDBRANCH   4  14
TORSDOF 4
ENDMDL
