MODEL 1
REMARK VINA RESULT:      -6.4      0.000      0.000
REMARK  3 active torsions:
REMARK  status: ('A' for Active; 'I' for Inactive)
REMARK       I    between atoms: C_2  and  N_3 
REMARK       I    between atoms: C_2  and  N_12 
REMARK    1  A    between atoms: N_3  and  C_4 
REMARK    2  A    between atoms: C_4  and  C_5 
REMARK    3  A    between atoms: N_12  and  C_13 
ROOT
HETATM    1  O   UNL     1     -39.485 -49.846  11.705  1.00  0.00    -0.247 OA
HETATM    2  C   UNL     1     -40.642 -49.666  11.333  1.00  0.00     0.321 C 
HETATM    3  N   UNL     1     -41.635 -50.580  11.511  1.00  0.00    -0.342 N 
HETATM    4  N   UNL     1     -40.974 -48.515  10.684  1.00  0.00    -0.295 N 
HETATM    5  H   UNL     1     -42.555 -50.286  11.190  1.00  0.00     0.164 HD
HETATM    6  H   UNL     1     -40.191 -47.886  10.580  1.00  0.00     0.172 HD
ENDROOT
BRANCH   3   7
HETATM    7  C   UNL     1     -41.453 -51.879  12.103  1.00  0.00     0.130 C 
BRANCH   7   8
HETATM    8  C   UNL     1     -42.798 -52.517  12.449  1.00  0.00     0.018 C 
HETATM    9  C   UNL     1     -43.602 -51.652  13.437  1.00  0.00     0.022 C 
HETATM   10  C   UNL     1     -44.575 -52.527  14.228  1.00  0.00     0.141 C 
HETATM   11  S   UNL     1     -44.227 -54.221  13.809  1.00  0.00     0.144 S 
HETATM   12  O   UNL     1     -44.055 -54.991  15.021  1.00  0.00    -0.228 OA
HETATM   13  O   UNL     1     -45.140 -54.625  12.758  1.00  0.00    -0.228 OA
HETATM   14  C   UNL     1     -42.640 -53.896  13.086  1.00  0.00     0.146 C 
ENDBRANCH   7   8
ENDBRANCH   3   7
BRANCH   4  15
HETATM   15  C   UNL     1     -42.206 -48.135  10.140  1.00  0.00     0.108 A 
HETATM   16  C   UNL     1     -43.229 -47.807  11.024  1.00  0.00     0.049 A 
HETATM   17  C   UNL     1     -44.466 -47.422  10.508  1.00  0.00     0.005 A 
HETATM   18  C   UNL     1     -44.645 -47.374   9.133  1.00  0.00     0.017 A 
HETATM   19  C   UNL     1     -43.576 -47.713   8.325  1.00  0.00     0.089 A 
HETATM   20  N   UNL     1     -42.368 -48.092   8.798  1.00  0.00    -0.352 N 
ATOM     21  HN  UNL     1     -41.606 -48.337   8.166  1.00  0.00     0.166 HD
ENDBRANCH   4  15
TORSDOF 3
ENDMDL
MODEL 2
REMARK VINA RESULT:      -6.2      3.346      6.414
REMARK  3 active torsions:
REMARK  status: ('A' for Active; 'I' for Inactive)
REMARK       I    between atoms: C_2  and  N_3 
REMARK       I    between atoms: C_2  and  N_12 
REMARK    1  A    between atoms: N_3  and  C_4 
REMARK    2  A    between atoms: C_4  and  C_5 
REMARK    3  A    between atoms: N_12  and  C_13 
ROOT
HETATM    1  O   UNL     1     -40.442 -52.340  12.048  1.00  0.00    -0.247 OA
HETATM    2  C   UNL     1     -41.571 -51.869  12.176  1.00  0.00     0.321 C 
HETATM    3  N   UNL     1     -41.897 -50.600  11.810  1.00  0.00    -0.342 N 
HETATM    4  N   UNL     1     -42.559 -52.625  12.733  1.00  0.00    -0.295 N 
HETATM    5  H   UNL     1     -42.877 -50.354  11.935  1.00  0.00     0.164 HD
HETATM    6  H   UNL     1     -42.247 -53.550  12.987  1.00  0.00     0.172 HD
ENDROOT
BRANCH   3   7
HETATM    7  C   UNL     1     -40.969 -49.638  11.280  1.00  0.00     0.130 C 
BRANCH   7   8
HETATM    8  C   UNL     1     -41.556 -48.228  11.322  1.00  0.00     0.018 C 
HETATM    9  C   UNL     1     -42.528 -47.980  10.154  1.00  0.00     0.022 C 
HETATM   10  C   UNL     1     -42.604 -46.485   9.843  1.00  0.00     0.141 C 
HETATM   11  S   UNL     1     -41.377 -45.671  10.843  1.00  0.00     0.144 S 
HETATM   12  O   UNL     1     -40.559 -44.824  10.005  1.00  0.00    -0.228 OA
HETATM   13  O   UNL     1     -42.024 -45.181  12.044  1.00  0.00    -0.228 OA
HETATM   14  C   UNL     1     -40.479 -47.148  11.247  1.00  0.00     0.146 C 
ENDBRANCH   7   8
ENDBRANCH   3   7
BRANCH   4  15
HETATM   15  C   UNL     1     -43.884 -52.272  13.013  1.00  0.00     0.108 A 
HETATM   16  C   UNL     1     -44.128 -51.548  14.175  1.00  0.00     0.049 A 
HETATM   17  C   UNL     1     -45.439 -51.181  14.477  1.00  0.00     0.005 A 
HETATM   18  C   UNL     1     -46.464 -51.544  13.613  1.00  0.00     0.017 A 
HETATM   19  C   UNL     1     -46.134 -52.262  12.479  1.00  0.00     0.089 A 
HETATM   20  N   UNL     1     -44.873 -52.633  12.164  1.00  0.00    -0.352 N 
ATOM     21  HN  UNL     1     -44.674 -53.165  11.317  1.00  0.00     0.166 HD
ENDBRANCH   4  15
TORSDOF 3
ENDMDL
MODEL 3
REMARK VINA RESULT:      -6.0      1.669      2.359
REMARK  3 active torsions:
REMARK  status: ('A' for Active; 'I' for Inactive)
REMARK       I    between atoms: C_2  and  N_3 
REMARK       I    between atoms: C_2  and  N_12 
REMARK    1  A    between atoms: N_3  and  C_4 
REMARK    2  A    between atoms: C_4  and  C_5 
REMARK    3  A    between atoms: N_12  and  C_13 
ROOT
HETATM    1  O   UNL     1     -40.423 -52.636  12.138  1.00  0.00    -0.247 OA
HETATM    2  C   UNL     1     -40.778 -51.461  12.199  1.00  0.00     0.321 C 
HETATM    3  N   UNL     1     -41.554 -50.966  13.201  1.00  0.00    -0.342 N 
HETATM    4  N   UNL     1     -40.413 -50.592  11.215  1.00  0.00    -0.295 N 
HETATM    5  H   UNL     1     -41.741 -49.967  13.148  1.00  0.00     0.164 HD
HETATM    6  H   UNL     1     -39.846 -51.025  10.501  1.00  0.00     0.172 HD
ENDROOT
BRANCH   3   7
HETATM    7  C   UNL     1     -42.097 -51.750  14.278  1.00  0.00     0.130 C 
BRANCH   7   8
HETATM    8  C   UNL     1     -43.377 -52.464  13.846  1.00  0.00     0.018 C 
HETATM    9  C   UNL     1     -44.608 -51.548  13.966  1.00  0.00     0.022 C 
HETATM   10  C   UNL     1     -45.872 -52.389  14.148  1.00  0.00     0.141 C 
HETATM   11  S   UNL     1     -45.360 -54.082  14.343  1.00  0.00     0.144 S 
HETATM   12  O   UNL     1     -45.979 -54.639  15.526  1.00  0.00    -0.228 OA
HETATM   13  O   UNL     1     -45.438 -54.731  13.049  1.00  0.00    -0.228 OA
HETATM   14  C   UNL     1     -43.660 -53.708  14.686  1.00  0.00     0.146 C 
ENDBRANCH   7   8
ENDBRANCH   3   7
BRANCH   4  15
HETATM   15  C   UNL     1     -40.746 -49.241  11.066  1.00  0.00     0.108 A 
HETATM   16  C   UNL     1     -39.864 -48.297  11.583  1.00  0.00     0.049 A 
HETATM   17  C   UNL     1     -40.170 -46.944  11.445  1.00  0.00     0.005 A 
HETATM   18  C   UNL     1     -41.341 -46.573  10.798  1.00  0.00     0.017 A 
HETATM   19  C   UNL     1     -42.161 -47.574  10.311  1.00  0.00     0.089 A 
HETATM   20  N   UNL     1     -41.889 -48.892  10.433  1.00  0.00    -0.352 N 
ATOM     21  HN  UNL     1     -42.524 -49.599  10.062  1.00  0.00     0.166 HD
ENDBRANCH   4  15
TORSDOF 3
ENDMDL
MODEL 4
REMARK VINA RESULT:      -5.9      3.697      4.651
REMARK  3 active torsions:
REMARK  status: ('A' for Active; 'I' for Inactive)
REMARK       I    between atoms: C_2  and  N_3 
REMARK       I    between atoms: C_2  and  N_12 
REMARK    1  A    between atoms: N_3  and  C_4 
REMARK    2  A    between atoms: C_4  and  C_5 
REMARK    3  A    between atoms: N_12  and  C_13 
ROOT
HETATM    1  O   UNL     1     -41.149 -50.132  11.860  1.00  0.00    -0.247 OA
HETATM    2  C   UNL     1     -42.067 -50.774  12.367  1.00  0.00     0.321 C 
HETATM    3  N   UNL     1     -42.027 -52.122  12.542  1.00  0.00    -0.342 N 
HETATM    4  N   UNL     1     -43.203 -50.134  12.760  1.00  0.00    -0.295 N 
HETATM    5  H   UNL     1     -42.838 -52.521  13.010  1.00  0.00     0.164 HD
HETATM    6  H   UNL     1     -43.169 -49.139  12.596  1.00  0.00     0.172 HD
ENDROOT
BRANCH   3   7
HETATM    7  C   UNL     1     -40.945 -52.971  12.117  1.00  0.00     0.130 C 
BRANCH   7   8
HETATM    8  C   UNL     1     -40.536 -53.935  13.229  1.00  0.00     0.018 C 
HETATM    9  C   UNL     1     -41.694 -54.203  14.207  1.00  0.00     0.022 C 
HETATM   10  C   UNL     1     -41.143 -54.612  15.573  1.00  0.00     0.141 C 
HETATM   11  S   UNL     1     -39.375 -54.414  15.514  1.00  0.00     0.144 S 
HETATM   12  O   UNL     1     -38.941 -53.628  16.647  1.00  0.00    -0.228 OA
HETATM   13  O   UNL     1     -38.787 -55.699  15.191  1.00  0.00    -0.228 OA
HETATM   14  C   UNL     1     -39.365 -53.406  14.054  1.00  0.00     0.146 C 
ENDBRANCH   7   8
ENDBRANCH   3   7
BRANCH   4  15
HETATM   15  C   UNL     1     -44.373 -50.674  13.308  1.00  0.00     0.108 A 
HETATM   16  C   UNL     1     -44.482 -50.708  14.694  1.00  0.00     0.049 A 
HETATM   17  C   UNL     1     -45.638 -51.238  15.266  1.00  0.00     0.005 A 
HETATM   18  C   UNL     1     -46.648 -51.715  14.442  1.00  0.00     0.017 A 
HETATM   19  C   UNL     1     -46.460 -51.642  13.074  1.00  0.00     0.089 A 
HETATM   20  N   UNL     1     -45.349 -51.136  12.494  1.00  0.00    -0.352 N 
ATOM     21  HN  UNL     1     -45.250 -51.104  11.479  1.00  0.00     0.166 HD
ENDBRANCH   4  15
TORSDOF 3
ENDMDL
MODEL 5
REMARK VINA RESULT:      -5.8      2.379      3.434
REMARK  3 active torsions:
REMARK  status: ('A' for Active; 'I' for Inactive)
REMARK       I    between atoms: C_2  and  N_3 
REMARK       I    between atoms: C_2  and  N_12 
REMARK    1  A    between atoms: N_3  and  C_4 
REMARK    2  A    between atoms: C_4  and  C_5 
REMARK    3  A    between atoms: N_12  and  C_13 
ROOT
HETATM    1  O   UNL     1     -40.914 -53.906  12.381  1.00  0.00    -0.247 OA
HETATM    2  C   UNL     1     -41.012 -52.695  12.569  1.00  0.00     0.321 C 
HETATM    3  N   UNL     1     -41.505 -52.155  13.716  1.00  0.00    -0.342 N 
HETATM    4  N   UNL     1     -40.638 -51.826  11.589  1.00  0.00    -0.295 N 
HETATM    5  H   UNL     1     -41.492 -51.138  13.754  1.00  0.00     0.164 HD
HETATM    6  H   UNL     1     -40.289 -52.293  10.765  1.00  0.00     0.172 HD
ENDROOT
BRANCH   3   7
HETATM    7  C   UNL     1     -42.018 -52.916  14.824  1.00  0.00     0.130 C 
BRANCH   7   8
HETATM    8  C   UNL     1     -43.524 -53.136  14.687  1.00  0.00     0.018 C 
HETATM    9  C   UNL     1     -43.854 -54.587  14.292  1.00  0.00     0.022 C 
HETATM   10  C   UNL     1     -45.202 -54.641  13.571  1.00  0.00     0.141 C 
HETATM   11  S   UNL     1     -45.735 -52.962  13.317  1.00  0.00     0.144 S 
HETATM   12  O   UNL     1     -46.087 -52.774  11.927  1.00  0.00    -0.228 OA
HETATM   13  O   UNL     1     -46.631 -52.602  14.399  1.00  0.00    -0.228 OA
HETATM   14  C   UNL     1     -44.150 -52.229  13.630  1.00  0.00     0.146 C 
ENDBRANCH   7   8
ENDBRANCH   3   7
BRANCH   4  15
HETATM   15  C   UNL     1     -40.711 -50.429  11.577  1.00  0.00     0.108 A 
HETATM   16  C   UNL     1     -39.539 -49.718  11.817  1.00  0.00     0.049 A 
HETATM   17  C   UNL     1     -39.583 -48.325  11.808  1.00  0.00     0.005 A 
HETATM   18  C   UNL     1     -40.789 -47.683  11.560  1.00  0.00     0.017 A 
HETATM   19  C   UNL     1     -41.906 -48.464  11.330  1.00  0.00     0.089 A 
HETATM   20  N   UNL     1     -41.892 -49.815  11.336  1.00  0.00    -0.352 N 
ATOM     21  HN  UNL     1     -42.741 -50.353  11.163  1.00  0.00     0.166 HD
ENDBRANCH   4  15
TORSDOF 3
ENDMDL
MODEL 6
REMARK VINA RESULT:      -5.6      3.612      5.355
REMARK  3 active torsions:
REMARK  status: ('A' for Active; 'I' for Inactive)
REMARK       I    between atoms: C_2  and  N_3 
REMARK       I    between atoms: C_2  and  N_12 
REMARK    1  A    between atoms: N_3  and  C_4 
REMARK    2  A    between atoms: C_4  and  C_5 
REMARK    3  A    between atoms: N_12  and  C_13 
ROOT
HETATM    1  O   UNL     1     -40.597 -51.605  11.979  1.00  0.00    -0.247 OA
HETATM    2  C   UNL     1     -40.684 -50.444  11.583  1.00  0.00     0.321 C 
HETATM    3  N   UNL     1     -39.606 -49.692  11.231  1.00  0.00    -0.342 N 
HETATM    4  N   UNL     1     -41.906 -49.847  11.504  1.00  0.00    -0.295 N 
HETATM    5  H   UNL     1     -39.825 -48.761  10.883  1.00  0.00     0.164 HD
HETATM    6  H   UNL     1     -42.658 -50.457  11.785  1.00  0.00     0.172 HD
ENDROOT
BRANCH   3   7
HETATM    7  C   UNL     1     -38.238 -50.129  11.324  1.00  0.00     0.130 C 
BRANCH   7   8
HETATM    8  C   UNL     1     -37.577 -49.596  12.595  1.00  0.00     0.018 C 
HETATM    9  C   UNL     1     -37.450 -50.689  13.672  1.00  0.00     0.022 C 
HETATM   10  C   UNL     1     -37.396 -50.052  15.061  1.00  0.00     0.141 C 
HETATM   11  S   UNL     1     -37.703 -48.311  14.859  1.00  0.00     0.144 S 
HETATM   12  O   UNL     1     -38.751 -47.899  15.766  1.00  0.00    -0.228 OA
HETATM   13  O   UNL     1     -36.425 -47.630  14.792  1.00  0.00    -0.228 OA
HETATM   14  C   UNL     1     -38.360 -48.442  13.217  1.00  0.00     0.146 C 
ENDBRANCH   7   8
ENDBRANCH   3   7
BRANCH   4  15
HETATM   15  C   UNL     1     -42.221 -48.535  11.131  1.00  0.00     0.108 A 
HETATM   16  C   UNL     1     -42.207 -47.560  12.123  1.00  0.00     0.049 A 
HETATM   17  C   UNL     1     -42.515 -46.245  11.778  1.00  0.00     0.005 A 
HETATM   18  C   UNL     1     -42.825 -45.941  10.459  1.00  0.00     0.017 A 
HETATM   19  C   UNL     1     -42.814 -46.970   9.535  1.00  0.00     0.089 A 
HETATM   20  N   UNL     1     -42.522 -48.253   9.843  1.00  0.00    -0.352 N 
ATOM     21  HN  UNL     1     -42.528 -48.982   9.130  1.00  0.00     0.166 HD
ENDBRANCH   4  15
TORSDOF 3
ENDMDL
MODEL 7
REMARK VINA RESULT:      -5.6      4.349      5.439
REMARK  3 active torsions:
REMARK  status: ('A' for Active; 'I' for Inactive)
REMARK       I    between atoms: C_2  and  N_3 
REMARK       I    between atoms: C_2  and  N_12 
REMARK    1  A    between atoms: N_3  and  C_4 
REMARK    2  A    between atoms: C_4  and  C_5 
REMARK    3  A    between atoms: N_12  and  C_13 
ROOT
HETATM    1  O   UNL     1     -40.516 -53.062  11.989  1.00  0.00    -0.247 OA
HETATM    2  C   UNL     1     -41.536 -52.969  12.669  1.00  0.00     0.321 C 
HETATM    3  N   UNL     1     -41.544 -53.088  14.024  1.00  0.00    -0.342 N 
HETATM    4  N   UNL     1     -42.737 -52.760  12.061  1.00  0.00    -0.295 N 
HETATM    5  H   UNL     1     -42.451 -52.949  14.464  1.00  0.00     0.164 HD
HETATM    6  H   UNL     1     -42.660 -52.689  11.057  1.00  0.00     0.172 HD
ENDROOT
BRANCH   3   7
HETATM    7  C   UNL     1     -40.387 -53.385  14.826  1.00  0.00     0.130 C 
BRANCH   7   8
HETATM    8  C   UNL     1     -40.484 -54.785  15.431  1.00  0.00     0.018 C 
HETATM    9  C   UNL     1     -41.944 -55.185  15.708  1.00  0.00     0.022 C 
HETATM   10  C   UNL     1     -41.999 -56.227  16.827  1.00  0.00     0.141 C 
HETATM   11  S   UNL     1     -40.351 -56.394  17.478  1.00  0.00     0.144 S 
HETATM   12  O   UNL     1     -40.386 -56.254  18.916  1.00  0.00    -0.228 OA
HETATM   13  O   UNL     1     -39.718 -57.522  16.824  1.00  0.00    -0.228 OA
HETATM   14  C   UNL     1     -39.728 -54.899  16.753  1.00  0.00     0.146 C 
ENDBRANCH   7   8
ENDBRANCH   3   7
BRANCH   4  15
HETATM   15  C   UNL     1     -44.011 -52.673  12.634  1.00  0.00     0.108 A 
HETATM   16  C   UNL     1     -44.629 -53.859  13.018  1.00  0.00     0.049 A 
HETATM   17  C   UNL     1     -45.897 -53.801  13.596  1.00  0.00     0.005 A 
HETATM   18  C   UNL     1     -46.508 -52.567  13.774  1.00  0.00     0.017 A 
HETATM   19  C   UNL     1     -45.823 -51.437  13.366  1.00  0.00     0.089 A 
HETATM   20  N   UNL     1     -44.596 -51.466  12.802  1.00  0.00    -0.352 N 
ATOM     21  HN  UNL     1     -44.127 -50.607  12.513  1.00  0.00     0.166 HD
ENDBRANCH   4  15
TORSDOF 3
ENDMDL
MODEL 8
REMARK VINA RESULT:      -5.6      4.547      6.347
REMARK  3 active torsions:
REMARK  status: ('A' for Active; 'I' for Inactive)
REMARK       I    between atoms: C_2  and  N_3 
REMARK       I    between atoms: C_2  and  N_12 
REMARK    1  A    between atoms: N_3  and  C_4 
REMARK    2  A    between atoms: C_4  and  C_5 
REMARK    3  A    between atoms: N_12  and  C_13 
ROOT
HETATM    1  O   UNL     1     -42.926 -55.659  15.996  1.00  0.00    -0.247 OA
HETATM    2  C   UNL     1     -43.318 -54.782  15.230  1.00  0.00     0.321 C 
HETATM    3  N   UNL     1     -42.488 -54.075  14.415  1.00  0.00    -0.342 N 
HETATM    4  N   UNL     1     -44.642 -54.461  15.189  1.00  0.00    -0.295 N 
HETATM    5  H   UNL     1     -42.951 -53.407  13.803  1.00  0.00     0.164 HD
HETATM    6  H   UNL     1     -45.198 -55.017  15.822  1.00  0.00     0.172 HD
ENDROOT
BRANCH   3   7
HETATM    7  C   UNL     1     -41.057 -54.222  14.379  1.00  0.00     0.130 C 
BRANCH   7   8
HETATM    8  C   UNL     1     -40.371 -52.868  14.210  1.00  0.00     0.018 C 
HETATM    9  C   UNL     1     -40.834 -52.150  12.929  1.00  0.00     0.022 C 
HETATM   10  C   UNL     1     -39.754 -51.177  12.454  1.00  0.00     0.141 C 
HETATM   11  S   UNL     1     -38.323 -51.429  13.481  1.00  0.00     0.144 S 
HETATM   12  O   UNL     1     -37.159 -51.621  12.645  1.00  0.00    -0.228 OA
HETATM   13  O   UNL     1     -38.355 -50.451  14.551  1.00  0.00    -0.228 OA
HETATM   14  C   UNL     1     -38.851 -52.993  14.130  1.00  0.00     0.146 C 
ENDBRANCH   7   8
ENDBRANCH   3   7
BRANCH   4  15
HETATM   15  C   UNL     1     -45.285 -53.474  14.435  1.00  0.00     0.108 A 
HETATM   16  C   UNL     1     -45.882 -52.422  15.122  1.00  0.00     0.049 A 
HETATM   17  C   UNL     1     -46.528 -51.423  14.395  1.00  0.00     0.005 A 
HETATM   18  C   UNL     1     -46.559 -51.501  13.009  1.00  0.00     0.017 A 
HETATM   19  C   UNL     1     -45.939 -52.579  12.405  1.00  0.00     0.089 A 
HETATM   20  N   UNL     1     -45.309 -53.562  13.086  1.00  0.00    -0.352 N 
ATOM     21  HN  UNL     1     -44.866 -54.342  12.600  1.00  0.00     0.166 HD
ENDBRANCH   4  15
TORSDOF 3
ENDMDL
MODEL 9
REMARK VINA RESULT:      -5.4      3.895      6.592
REMARK  3 active torsions:
REMARK  status: ('A' for Active; 'I' for Inactive)
REMARK       I    between atoms: C_2  and  N_3 
REMARK       I    between atoms: C_2  and  N_12 
REMARK    1  A    between atoms: N_3  and  C_4 
REMARK    2  A    between atoms: C_4  and  C_5 
REMARK    3  A    between atoms: N_12  and  C_13 
ROOT
HETATM    1  O   UNL     1     -38.806 -52.340  13.260  1.00  0.00    -0.247 OA
HETATM    2  C   UNL     1     -40.031 -52.389  13.348  1.00  0.00     0.321 C 
HETATM    3  N   UNL     1     -40.805 -51.300  13.605  1.00  0.00    -0.342 N 
HETATM    4  N   UNL     1     -40.673 -53.583  13.211  1.00  0.00    -0.295 N 
HETATM    5  H   UNL     1     -41.808 -51.475  13.612  1.00  0.00     0.164 HD
HETATM    6  H   UNL     1     -40.040 -54.348  13.030  1.00  0.00     0.172 HD
ENDROOT
BRANCH   3   7
HETATM    7  C   UNL     1     -40.298 -49.976  13.854  1.00  0.00     0.130 C 
BRANCH   7   8
HETATM    8  C   UNL     1     -41.045 -48.937  13.021  1.00  0.00     0.018 C 
HETATM    9  C   UNL     1     -41.436 -49.489  11.637  1.00  0.00     0.022 C 
HETATM   10  C   UNL     1     -41.587 -48.341  10.638  1.00  0.00     0.141 C 
HETATM   11  S   UNL     1     -41.051 -46.853  11.453  1.00  0.00     0.144 S 
HETATM   12  O   UNL     1     -40.084 -46.171  10.623  1.00  0.00    -0.228 OA
HETATM   13  O   UNL     1     -42.221 -46.184  11.989  1.00  0.00    -0.228 OA
HETATM   14  C   UNL     1     -40.214 -47.677  12.782  1.00  0.00     0.146 C 
ENDBRANCH   7   8
ENDBRANCH   3   7
BRANCH   4  15
HETATM   15  C   UNL     1     -42.039 -53.866  13.323  1.00  0.00     0.108 A 
HETATM   16  C   UNL     1     -42.464 -54.566  14.447  1.00  0.00     0.049 A 
HETATM   17  C   UNL     1     -43.820 -54.858  14.585  1.00  0.00     0.005 A 
HETATM   18  C   UNL     1     -44.709 -54.445  13.602  1.00  0.00     0.017 A 
HETATM   19  C   UNL     1     -44.203 -53.753  12.517  1.00  0.00     0.089 A 
HETATM   20  N   UNL     1     -42.894 -53.459  12.358  1.00  0.00    -0.352 N 
ATOM     21  HN  UNL     1     -42.563 -52.948  11.540  1.00  0.00     0.166 HD
ENDBRANCH   4  15
TORSDOF 3
ENDMDL
