MODEL 1
REMARK VINA RESULT:      -7.0      0.000      0.000
REMARK  7 active torsions:
REMARK  status: ('A' for Active; 'I' for Inactive)
REMARK    1  A    between atoms: N_2  and  C_10 
REMARK    2  A    between atoms: C_4  and  N_5 
REMARK    3  A    between atoms: C_15  and  C_27 
REMARK    4  A    between atoms: C_15  and  C_28 
REMARK    5  A    between atoms: N_16  and  C_29 
REMARK    6  A    between atoms: C_27  and  O_30 
REMARK    7  A    between atoms: C_28  and  O_31 
ROOT
HETATM    1  C   UNL     1     -41.577 -50.636  12.780  1.00  0.00     0.122 A 
HETATM    2  N   UNL     1     -41.103 -48.718  11.817  1.00  0.00    -0.322 N 
HETATM    3  C   UNL     1     -40.514 -49.848  12.328  1.00  0.00     0.140 A 
HETATM    4  C   UNL     1     -41.267 -51.876  13.401  1.00  0.00     0.136 A 
HETATM    5  N   UNL     1     -42.783 -50.010  12.512  1.00  0.00    -0.346 N 
ATOM      6  HN  UNL     1     -43.719 -50.357  12.718  1.00  0.00     0.167 HD
HETATM    7  C   UNL     1     -42.460 -48.874  11.935  1.00  0.00     0.185 A 
HETATM    8  N   UNL     1     -39.203 -50.132  12.397  1.00  0.00    -0.336 N 
ATOM      9  HN  UNL     1     -38.459 -49.525  12.053  1.00  0.00     0.168 HD
HETATM   10  N   UNL     1     -39.931 -52.177  13.469  1.00  0.00    -0.337 N 
ATOM     11  HN  UNL     1     -39.633 -53.054  13.894  1.00  0.00     0.168 HD
HETATM   12  C   UNL     1     -39.006 -51.323  12.981  1.00  0.00     0.183 A 
ENDROOT
BRANCH   4  13
HETATM   13  N   UNL     1     -42.165 -52.765  13.999  1.00  0.00    -0.354 N 
HETATM   14  C   UNL     1     -43.638 -52.552  14.040  1.00  0.00     0.143 C 
HETATM   15  C   UNL     1     -44.352 -53.051  12.747  1.00  0.00     0.300 C 
HETATM   16  C   UNL     1     -44.205 -53.319  15.272  1.00  0.00     0.147 C 
HETATM   17  N   UNL     1     -45.836 -53.134  12.798  1.00  0.00     0.090 N 
HETATM   18  C   UNL     1     -46.265 -53.885  13.987  1.00  0.00     0.275 C 
HETATM   19  C   UNL     1     -45.731 -53.283  15.288  1.00  0.00     0.064 C 
HETATM   20  O   UNL     1     -43.856 -54.718  15.241  1.00  0.00    -0.382 OA
HETATM   21  C   UNL     1     -42.449 -54.929  15.202  1.00  0.00     0.188 C 
HETATM   22  C   UNL     1     -41.729 -54.169  14.082  1.00  0.00     0.151 C 
BRANCH  17  23
HETATM   23  C   UNL     1     -46.469 -51.816  12.660  1.00  0.00     0.268 C 
HETATM   24  C   UNL     1     -47.218 -51.636  11.340  1.00  0.00     0.037 C 
ENDBRANCH  17  23
ENDBRANCH   4  13
BRANCH   2  25
HETATM   25  C   UNL     1     -40.546 -47.509  11.261  1.00  0.00     0.094 C 
HETATM   26  C   UNL     1     -40.494 -46.286  12.227  1.00  0.00     0.039 C 
HETATM   27  C   UNL     1     -40.672 -45.376  10.956  1.00  0.00     0.006 C 
HETATM   28  C   UNL     1     -41.469 -46.611  10.386  1.00  0.00     0.039 C 
BRANCH  27  29
HETATM   29  C   UNL     1     -41.485 -44.106  11.219  1.00  0.00     0.175 C 
BRANCH  29  30
HETATM   30  O   UNL     1     -40.846 -42.978  10.629  1.00  0.00    -0.400 OA
HETATM   31  H   UNL     1     -40.489 -42.434  11.362  1.00  0.00     0.209 HD
ENDBRANCH  29  30
ENDBRANCH  27  29
BRANCH  27  32
HETATM   32  C   UNL     1     -39.340 -45.030  10.263  1.00  0.00     0.175 C 
BRANCH  32  33
HETATM   33  O   UNL     1     -39.573 -44.743   8.886  1.00  0.00    -0.400 OA
HETATM   34  H   UNL     1     -40.293 -45.327   8.583  1.00  0.00     0.209 HD
ENDBRANCH  32  33
ENDBRANCH  27  32
ENDBRANCH   2  25
TORSDOF 7
ENDMDL
MODEL 2
REMARK VINA RESULT:      -6.9      1.599      2.183
REMARK  7 active torsions:
REMARK  status: ('A' for Active; 'I' for Inactive)
REMARK    1  A    between atoms: N_2  and  C_10 
REMARK    2  A    between atoms: C_4  and  N_5 
REMARK    3  A    between atoms: C_15  and  C_27 
REMARK    4  A    between atoms: C_15  and  C_28 
REMARK    5  A    between atoms: N_16  and  C_29 
REMARK    6  A    between atoms: C_27  and  O_30 
REMARK    7  A    between atoms: C_28  and  O_31 
ROOT
HETATM    1  C   UNL     1     -42.452 -50.467  12.492  1.00  0.00     0.122 A 
HETATM    2  N   UNL     1     -41.690 -48.584  11.651  1.00  0.00    -0.322 N 
HETATM    3  C   UNL     1     -41.283 -49.829  12.066  1.00  0.00     0.140 A 
HETATM    4  C   UNL     1     -42.335 -51.783  13.017  1.00  0.00     0.136 A 
HETATM    5  N   UNL     1     -43.545 -49.640  12.302  1.00  0.00    -0.346 N 
ATOM      6  HN  UNL     1     -44.522 -49.846  12.509  1.00  0.00     0.167 HD
HETATM    7  C   UNL     1     -43.053 -48.531  11.796  1.00  0.00     0.185 A 
HETATM    8  N   UNL     1     -40.034 -50.322  12.079  1.00  0.00    -0.336 N 
ATOM      9  HN  UNL     1     -39.208 -49.818  11.757  1.00  0.00     0.168 HD
HETATM   10  N   UNL     1     -41.065 -52.297  13.027  1.00  0.00    -0.337 N 
ATOM     11  HN  UNL     1     -40.904 -53.239  13.381  1.00  0.00     0.168 HD
HETATM   12  C   UNL     1     -40.022 -51.568  12.573  1.00  0.00     0.183 A 
ENDROOT
BRANCH   4  13
HETATM   13  N   UNL     1     -43.355 -52.559  13.577  1.00  0.00    -0.354 N 
HETATM   14  C   UNL     1     -43.994 -52.263  14.889  1.00  0.00     0.143 C 
HETATM   15  C   UNL     1     -45.152 -51.226  14.773  1.00  0.00     0.300 C 
HETATM   16  C   UNL     1     -44.552 -53.597  15.467  1.00  0.00     0.147 C 
HETATM   17  N   UNL     1     -46.025 -51.069  15.966  1.00  0.00     0.090 N 
HETATM   18  C   UNL     1     -46.507 -52.380  16.423  1.00  0.00     0.275 C 
HETATM   19  C   UNL     1     -45.367 -53.351  16.735  1.00  0.00     0.064 C 
HETATM   20  O   UNL     1     -45.460 -54.243  14.551  1.00  0.00    -0.382 OA
HETATM   21  C   UNL     1     -44.856 -54.528  13.294  1.00  0.00     0.188 C 
HETATM   22  C   UNL     1     -44.185 -53.319  12.629  1.00  0.00     0.151 C 
BRANCH  17  23
HETATM   23  C   UNL     1     -45.387 -50.265  17.016  1.00  0.00     0.268 C 
HETATM   24  C   UNL     1     -46.367 -49.763  18.077  1.00  0.00     0.037 C 
ENDBRANCH  17  23
ENDBRANCH   4  13
BRANCH   2  25
HETATM   25  C   UNL     1     -40.956 -47.443  11.164  1.00  0.00     0.094 C 
HETATM   26  C   UNL     1     -40.799 -46.264  12.173  1.00  0.00     0.039 C 
HETATM   27  C   UNL     1     -40.792 -45.304  10.927  1.00  0.00     0.006 C 
HETATM   28  C   UNL     1     -41.709 -46.409  10.276  1.00  0.00     0.039 C 
BRANCH  27  29
HETATM   29  C   UNL     1     -41.449 -43.947  11.193  1.00  0.00     0.175 C 
BRANCH  29  30
HETATM   30  O   UNL     1     -40.668 -42.899  10.627  1.00  0.00    -0.400 OA
HETATM   31  H   UNL     1     -39.769 -43.260  10.478  1.00  0.00     0.209 HD
ENDBRANCH  29  30
ENDBRANCH  27  29
BRANCH  27  32
HETATM   32  C   UNL     1     -39.393 -45.114  10.312  1.00  0.00     0.175 C 
BRANCH  32  33
HETATM   33  O   UNL     1     -39.514 -44.684   8.958  1.00  0.00    -0.400 OA
HETATM   34  H   UNL     1     -40.387 -44.977   8.635  1.00  0.00     0.209 HD
ENDBRANCH  32  33
ENDBRANCH  27  32
ENDBRANCH   2  25
TORSDOF 7
ENDMDL
MODEL 3
REMARK VINA RESULT:      -6.9      1.811      2.396
REMARK  7 active torsions:
REMARK  status: ('A' for Active; 'I' for Inactive)
REMARK    1  A    between atoms: N_2  and  C_10 
REMARK    2  A    between atoms: C_4  and  N_5 
REMARK    3  A    between atoms: C_15  and  C_27 
REMARK    4  A    between atoms: C_15  and  C_28 
REMARK    5  A    between atoms: N_16  and  C_29 
REMARK    6  A    between atoms: C_27  and  O_30 
REMARK    7  A    between atoms: C_28  and  O_31 
ROOT
HETATM    1  C   UNL     1     -42.462 -51.250  13.580  1.00  0.00     0.122 A 
HETATM    2  N   UNL     1     -42.227 -49.303  12.587  1.00  0.00    -0.322 N 
HETATM    3  C   UNL     1     -41.849 -50.620  12.492  1.00  0.00     0.140 A 
HETATM    4  C   UNL     1     -42.221 -52.639  13.765  1.00  0.00     0.136 A 
HETATM    5  N   UNL     1     -43.223 -50.340  14.293  1.00  0.00    -0.346 N 
ATOM      6  HN  UNL     1     -43.788 -50.519  15.123  1.00  0.00     0.167 HD
HETATM    7  C   UNL     1     -43.062 -49.194  13.669  1.00  0.00     0.185 A 
HETATM    8  N   UNL     1     -41.052 -51.182  11.568  1.00  0.00    -0.336 N 
ATOM      9  HN  UNL     1     -40.626 -50.681  10.789  1.00  0.00     0.168 HD
HETATM   10  N   UNL     1     -41.414 -53.221  12.822  1.00  0.00    -0.337 N 
ATOM     11  HN  UNL     1     -41.203 -54.216  12.884  1.00  0.00     0.168 HD
HETATM   12  C   UNL     1     -40.894 -52.491  11.812  1.00  0.00     0.183 A 
ENDROOT
BRANCH   4  13
HETATM   13  N   UNL     1     -42.657 -53.434  14.829  1.00  0.00    -0.354 N 
HETATM   14  C   UNL     1     -43.815 -53.090  15.699  1.00  0.00     0.143 C 
HETATM   15  C   UNL     1     -45.177 -53.545  15.093  1.00  0.00     0.300 C 
HETATM   16  C   UNL     1     -43.607 -53.782  17.079  1.00  0.00     0.147 C 
HETATM   17  N   UNL     1     -46.356 -53.495  15.997  1.00  0.00     0.090 N 
HETATM   18  C   UNL     1     -46.060 -54.185  17.262  1.00  0.00     0.275 C 
HETATM   19  C   UNL     1     -44.833 -53.611  17.972  1.00  0.00     0.064 C 
HETATM   20  O   UNL     1     -43.429 -55.207  16.944  1.00  0.00    -0.382 OA
HETATM   21  C   UNL     1     -42.323 -55.543  16.113  1.00  0.00     0.188 C 
HETATM   22  C   UNL     1     -42.343 -54.869  14.736  1.00  0.00     0.151 C 
BRANCH  17  23
HETATM   23  C   UNL     1     -46.867 -52.129  16.165  1.00  0.00     0.268 C 
HETATM   24  C   UNL     1     -46.916 -51.333  14.860  1.00  0.00     0.037 C 
ENDBRANCH  17  23
ENDBRANCH   4  13
BRANCH   2  25
HETATM   25  C   UNL     1     -41.879 -48.142  11.805  1.00  0.00     0.094 C 
HETATM   26  C   UNL     1     -42.998 -47.065  11.664  1.00  0.00     0.039 C 
HETATM   27  C   UNL     1     -42.385 -46.727  10.256  1.00  0.00     0.006 C 
HETATM   28  C   UNL     1     -41.969 -48.248  10.254  1.00  0.00     0.039 C 
BRANCH  27  29
HETATM   29  C   UNL     1     -43.428 -46.307   9.216  1.00  0.00     0.175 C 
BRANCH  29  30
HETATM   30  O   UNL     1     -42.792 -45.956   7.991  1.00  0.00    -0.400 OA
HETATM   31  H   UNL     1     -42.746 -46.771   7.448  1.00  0.00     0.209 HD
ENDBRANCH  29  30
ENDBRANCH  27  29
BRANCH  27  32
HETATM   32  C   UNL     1     -41.242 -45.696  10.320  1.00  0.00     0.175 C 
BRANCH  32  33
HETATM   33  O   UNL     1     -41.776 -44.377  10.243  1.00  0.00    -0.400 OA
HETATM   34  H   UNL     1     -41.564 -43.925  11.081  1.00  0.00     0.209 HD
ENDBRANCH  32  33
ENDBRANCH  27  32
ENDBRANCH   2  25
TORSDOF 7
ENDMDL
MODEL 4
REMARK VINA RESULT:      -6.8      1.566      2.144
REMARK  7 active torsions:
REMARK  status: ('A' for Active; 'I' for Inactive)
REMARK    1  A    between atoms: N_2  and  C_10 
REMARK    2  A    between atoms: C_4  and  N_5 
REMARK    3  A    between atoms: C_15  and  C_27 
REMARK    4  A    between atoms: C_15  and  C_28 
REMARK    5  A    between atoms: N_16  and  C_29 
REMARK    6  A    between atoms: C_27  and  O_30 
REMARK    7  A    between atoms: C_28  and  O_31 
ROOT
HETATM    1  C   UNL     1     -41.498 -49.622  13.293  1.00  0.00     0.122 A 
HETATM    2  N   UNL     1     -41.253 -47.447  13.497  1.00  0.00    -0.322 N 
HETATM    3  C   UNL     1     -41.048 -48.483  12.618  1.00  0.00     0.140 A 
HETATM    4  C   UNL     1     -41.377 -50.875  12.632  1.00  0.00     0.136 A 
HETATM    5  N   UNL     1     -41.998 -49.275  14.536  1.00  0.00    -0.346 N 
ATOM      6  HN  UNL     1     -42.402 -49.896  15.237  1.00  0.00     0.167 HD
HETATM    7  C   UNL     1     -41.839 -47.973  14.619  1.00  0.00     0.185 A 
HETATM    8  N   UNL     1     -40.516 -48.422  11.387  1.00  0.00    -0.336 N 
ATOM      9  HN  UNL     1     -40.201 -47.565  10.933  1.00  0.00     0.168 HD
HETATM   10  N   UNL     1     -40.842 -50.821  11.372  1.00  0.00    -0.337 N 
ATOM     11  HN  UNL     1     -40.732 -51.679  10.833  1.00  0.00     0.168 HD
HETATM   12  C   UNL     1     -40.457 -49.643  10.836  1.00  0.00     0.183 A 
ENDROOT
BRANCH   4  13
HETATM   13  N   UNL     1     -41.678 -52.136  13.159  1.00  0.00    -0.354 N 
HETATM   14  C   UNL     1     -43.021 -52.520  13.672  1.00  0.00     0.143 C 
HETATM   15  C   UNL     1     -43.977 -53.010  12.543  1.00  0.00     0.300 C 
HETATM   16  C   UNL     1     -42.832 -53.657  14.719  1.00  0.00     0.147 C 
HETATM   17  N   UNL     1     -45.237 -53.668  12.978  1.00  0.00     0.090 N 
HETATM   18  C   UNL     1     -44.948 -54.731  13.953  1.00  0.00     0.275 C 
HETATM   19  C   UNL     1     -44.178 -54.219  15.171  1.00  0.00     0.064 C 
HETATM   20  O   UNL     1     -42.116 -54.781  14.169  1.00  0.00    -0.382 OA
HETATM   21  C   UNL     1     -40.830 -54.421  13.676  1.00  0.00     0.188 C 
HETATM   22  C   UNL     1     -40.841 -53.250  12.685  1.00  0.00     0.151 C 
BRANCH  17  23
HETATM   23  C   UNL     1     -46.241 -52.697  13.430  1.00  0.00     0.268 C 
HETATM   24  C   UNL     1     -46.615 -51.668  12.363  1.00  0.00     0.037 C 
ENDBRANCH  17  23
ENDBRANCH   4  13
BRANCH   2  25
HETATM   25  C   UNL     1     -40.943 -46.041  13.418  1.00  0.00     0.094 C 
HETATM   26  C   UNL     1     -41.692 -45.248  12.303  1.00  0.00     0.039 C 
HETATM   27  C   UNL     1     -40.426 -44.317  12.225  1.00  0.00     0.006 C 
HETATM   28  C   UNL     1     -39.648 -45.616  12.666  1.00  0.00     0.039 C 
BRANCH  27  29
HETATM   29  C   UNL     1     -40.133 -43.796  10.816  1.00  0.00     0.175 C 
BRANCH  29  30
HETATM   30  O   UNL     1     -40.765 -42.535  10.614  1.00  0.00    -0.400 OA
HETATM   31  H   UNL     1     -40.795 -42.381   9.647  1.00  0.00     0.209 HD
ENDBRANCH  29  30
ENDBRANCH  27  29
BRANCH  27  32
HETATM   32  C   UNL     1     -40.461 -43.155  13.235  1.00  0.00     0.175 C 
BRANCH  32  33
HETATM   33  O   UNL     1     -39.274 -42.376  13.116  1.00  0.00    -0.400 OA
HETATM   34  H   UNL     1     -38.997 -42.405  12.181  1.00  0.00     0.209 HD
ENDBRANCH  32  33
ENDBRANCH  27  32
ENDBRANCH   2  25
TORSDOF 7
ENDMDL
MODEL 5
REMARK VINA RESULT:      -6.7      2.729      4.677
REMARK  7 active torsions:
REMARK  status: ('A' for Active; 'I' for Inactive)
REMARK    1  A    between atoms: N_2  and  C_10 
REMARK    2  A    between atoms: C_4  and  N_5 
REMARK    3  A    between atoms: C_15  and  C_27 
REMARK    4  A    between atoms: C_15  and  C_28 
REMARK    5  A    between atoms: N_16  and  C_29 
REMARK    6  A    between atoms: C_27  and  O_30 
REMARK    7  A    between atoms: C_28  and  O_31 
ROOT
HETATM    1  C   UNL     1     -40.486 -47.524  12.122  1.00  0.00     0.122 A 
HETATM    2  N   UNL     1     -41.060 -45.405  12.011  1.00  0.00    -0.322 N 
HETATM    3  C   UNL     1     -41.242 -46.611  11.379  1.00  0.00     0.140 A 
HETATM    4  C   UNL     1     -40.454 -48.874  11.678  1.00  0.00     0.136 A 
HETATM    5  N   UNL     1     -39.893 -46.889  13.199  1.00  0.00    -0.346 N 
ATOM      6  HN  UNL     1     -39.298 -47.307  13.914  1.00  0.00     0.167 HD
HETATM    7  C   UNL     1     -40.261 -45.630  13.101  1.00  0.00     0.185 A 
HETATM    8  N   UNL     1     -41.971 -46.860  10.279  1.00  0.00    -0.336 N 
ATOM      9  HN  UNL     1     -42.509 -46.160   9.769  1.00  0.00     0.168 HD
HETATM   10  N   UNL     1     -41.201 -49.138  10.560  1.00  0.00    -0.337 N 
ATOM     11  HN  UNL     1     -41.233 -50.087  10.188  1.00  0.00     0.168 HD
HETATM   12  C   UNL     1     -41.895 -48.157   9.945  1.00  0.00     0.183 A 
ENDROOT
BRANCH   4  13
HETATM   13  N   UNL     1     -39.695 -49.918  12.216  1.00  0.00    -0.354 N 
HETATM   14  C   UNL     1     -40.274 -51.051  12.987  1.00  0.00     0.143 C 
HETATM   15  C   UNL     1     -40.792 -52.199  12.069  1.00  0.00     0.300 C 
HETATM   16  C   UNL     1     -39.171 -51.607  13.935  1.00  0.00     0.147 C 
HETATM   17  N   UNL     1     -41.137 -53.481  12.738  1.00  0.00     0.090 N 
HETATM   18  C   UNL     1     -40.028 -53.923  13.597  1.00  0.00     0.275 C 
HETATM   19  C   UNL     1     -39.640 -52.877  14.642  1.00  0.00     0.064 C 
HETATM   20  O   UNL     1     -37.983 -51.989  13.212  1.00  0.00    -0.382 OA
HETATM   21  C   UNL     1     -37.423 -50.910  12.472  1.00  0.00     0.188 C 
HETATM   22  C   UNL     1     -38.416 -50.202  11.543  1.00  0.00     0.151 C 
BRANCH  17  23
HETATM   23  C   UNL     1     -42.435 -53.418  13.420  1.00  0.00     0.268 C 
HETATM   24  C   UNL     1     -43.606 -53.147  12.475  1.00  0.00     0.037 C 
ENDBRANCH  17  23
ENDBRANCH   4  13
BRANCH   2  25
HETATM   25  C   UNL     1     -41.522 -44.075  11.698  1.00  0.00     0.094 C 
HETATM   26  C   UNL     1     -40.438 -43.097  11.150  1.00  0.00     0.039 C 
HETATM   27  C   UNL     1     -41.253 -41.937  11.830  1.00  0.00     0.006 C 
HETATM   28  C   UNL     1     -41.663 -43.053  12.865  1.00  0.00     0.039 C 
BRANCH  27  29
HETATM   29  C   UNL     1     -40.377 -40.803  12.367  1.00  0.00     0.175 C 
BRANCH  29  30
HETATM   30  O   UNL     1     -40.414 -39.687  11.482  1.00  0.00    -0.400 OA
HETATM   31  H   UNL     1     -40.964 -39.948  10.714  1.00  0.00     0.209 HD
ENDBRANCH  29  30
ENDBRANCH  27  29
BRANCH  27  32
HETATM   32  C   UNL     1     -42.375 -41.376  10.936  1.00  0.00     0.175 C 
BRANCH  32  33
HETATM   33  O   UNL     1     -43.097 -40.370  11.642  1.00  0.00    -0.400 OA
HETATM   34  H   UNL     1     -42.529 -40.058  12.371  1.00  0.00     0.209 HD
ENDBRANCH  32  33
ENDBRANCH  27  32
ENDBRANCH   2  25
TORSDOF 7
ENDMDL
MODEL 6
REMARK VINA RESULT:      -6.5      1.987      8.752
REMARK  7 active torsions:
REMARK  status: ('A' for Active; 'I' for Inactive)
REMARK    1  A    between atoms: N_2  and  C_10 
REMARK    2  A    between atoms: C_4  and  N_5 
REMARK    3  A    between atoms: C_15  and  C_27 
REMARK    4  A    between atoms: C_15  and  C_28 
REMARK    5  A    between atoms: N_16  and  C_29 
REMARK    6  A    between atoms: C_27  and  O_30 
REMARK    7  A    between atoms: C_28  and  O_31 
ROOT
HETATM    1  C   UNL     1     -42.344 -49.088  12.254  1.00  0.00     0.122 A 
HETATM    2  N   UNL     1     -42.638 -50.981  13.332  1.00  0.00    -0.322 N 
HETATM    3  C   UNL     1     -41.808 -50.369  12.426  1.00  0.00     0.140 A 
HETATM    4  C   UNL     1     -41.702 -48.220  11.330  1.00  0.00     0.136 A 
HETATM    5  N   UNL     1     -43.451 -48.920  13.068  1.00  0.00    -0.346 N 
ATOM      6  HN  UNL     1     -44.031 -48.087  13.160  1.00  0.00     0.167 HD
HETATM    7  C   UNL     1     -43.592 -50.066  13.697  1.00  0.00     0.185 A 
HETATM    8  N   UNL     1     -40.727 -50.888  11.821  1.00  0.00    -0.336 N 
ATOM      9  HN  UNL     1     -40.371 -51.830  11.978  1.00  0.00     0.168 HD
HETATM   10  N   UNL     1     -40.594 -48.739  10.714  1.00  0.00    -0.337 N 
ATOM     11  HN  UNL     1     -40.076 -48.171  10.044  1.00  0.00     0.168 HD
HETATM   12  C   UNL     1     -40.180 -49.996  10.983  1.00  0.00     0.183 A 
ENDROOT
BRANCH   4  13
HETATM   13  N   UNL     1     -42.124 -46.943  10.943  1.00  0.00    -0.354 N 
HETATM   14  C   UNL     1     -41.715 -45.691  11.637  1.00  0.00     0.143 C 
HETATM   15  C   UNL     1     -40.344 -45.147  11.133  1.00  0.00     0.300 C 
HETATM   16  C   UNL     1     -42.818 -44.619  11.391  1.00  0.00     0.147 C 
HETATM   17  N   UNL     1     -39.978 -43.771  11.560  1.00  0.00     0.090 N 
HETATM   18  C   UNL     1     -41.078 -42.837  11.274  1.00  0.00     0.275 C 
HETATM   19  C   UNL     1     -42.392 -43.257  11.934  1.00  0.00     0.064 C 
HETATM   20  O   UNL     1     -43.061 -44.410   9.985  1.00  0.00    -0.382 OA
HETATM   21  C   UNL     1     -43.453 -45.604   9.316  1.00  0.00     0.188 C 
HETATM   22  C   UNL     1     -42.500 -46.787   9.529  1.00  0.00     0.151 C 
BRANCH  17  23
HETATM   23  C   UNL     1     -39.503 -43.730  12.949  1.00  0.00     0.268 C 
HETATM   24  C   UNL     1     -38.746 -44.990  13.370  1.00  0.00     0.037 C 
ENDBRANCH  17  23
ENDBRANCH   4  13
BRANCH   2  25
HETATM   25  C   UNL     1     -42.658 -52.319  13.870  1.00  0.00     0.094 C 
HETATM   26  C   UNL     1     -43.653 -53.305  13.186  1.00  0.00     0.039 C 
HETATM   27  C   UNL     1     -43.782 -54.019  14.582  1.00  0.00     0.006 C 
HETATM   28  C   UNL     1     -43.492 -52.580  15.159  1.00  0.00     0.039 C 
BRANCH  27  29
HETATM   29  C   UNL     1     -45.177 -54.589  14.853  1.00  0.00     0.175 C 
BRANCH  29  30
HETATM   30  O   UNL     1     -45.431 -55.701  14.000  1.00  0.00    -0.400 OA
HETATM   31  H   UNL     1     -44.721 -56.356  14.164  1.00  0.00     0.209 HD
ENDBRANCH  29  30
ENDBRANCH  27  29
BRANCH  27  32
HETATM   32  C   UNL     1     -42.704 -55.092  14.820  1.00  0.00     0.175 C 
BRANCH  32  33
HETATM   33  O   UNL     1     -43.171 -56.042  15.774  1.00  0.00    -0.400 OA
HETATM   34  H   UNL     1     -44.120 -56.189  15.602  1.00  0.00     0.209 HD
ENDBRANCH  32  33
ENDBRANCH  27  32
ENDBRANCH   2  25
TORSDOF 7
ENDMDL
MODEL 7
REMARK VINA RESULT:      -6.4      2.340      4.259
REMARK  7 active torsions:
REMARK  status: ('A' for Active; 'I' for Inactive)
REMARK    1  A    between atoms: N_2  and  C_10 
REMARK    2  A    between atoms: C_4  and  N_5 
REMARK    3  A    between atoms: C_15  and  C_27 
REMARK    4  A    between atoms: C_15  and  C_28 
REMARK    5  A    between atoms: N_16  and  C_29 
REMARK    6  A    between atoms: C_27  and  O_30 
REMARK    7  A    between atoms: C_28  and  O_31 
ROOT
HETATM    1  C   UNL     1     -41.608 -51.327  13.164  1.00  0.00     0.122 A 
HETATM    2  N   UNL     1     -42.050 -49.558  11.937  1.00  0.00    -0.322 N 
HETATM    3  C   UNL     1     -42.658 -50.545  12.675  1.00  0.00     0.140 A 
HETATM    4  C   UNL     1     -41.939 -52.465  13.950  1.00  0.00     0.136 A 
HETATM    5  N   UNL     1     -40.392 -50.802  12.762  1.00  0.00    -0.346 N 
ATOM      6  HN  UNL     1     -39.461 -51.156  12.980  1.00  0.00     0.167 HD
HETATM    7  C   UNL     1     -40.696 -49.748  12.037  1.00  0.00     0.185 A 
HETATM    8  N   UNL     1     -43.973 -50.731  12.871  1.00  0.00    -0.336 N 
ATOM      9  HN  UNL     1     -44.707 -50.131  12.493  1.00  0.00     0.168 HD
HETATM   10  N   UNL     1     -43.279 -52.658  14.161  1.00  0.00    -0.337 N 
ATOM     11  HN  UNL     1     -43.592 -53.449  14.722  1.00  0.00     0.168 HD
HETATM   12  C   UNL     1     -44.189 -51.813  13.633  1.00  0.00     0.183 A 
ENDROOT
BRANCH   4  13
HETATM   13  N   UNL     1     -41.055 -53.424  14.455  1.00  0.00    -0.354 N 
HETATM   14  C   UNL     1     -41.187 -54.043  15.803  1.00  0.00     0.143 C 
HETATM   15  C   UNL     1     -42.160 -55.260  15.811  1.00  0.00     0.300 C 
HETATM   16  C   UNL     1     -39.773 -54.508  16.262  1.00  0.00     0.147 C 
HETATM   17  N   UNL     1     -42.152 -56.108  17.032  1.00  0.00     0.090 N 
HETATM   18  C   UNL     1     -40.777 -56.502  17.372  1.00  0.00     0.275 C 
HETATM   19  C   UNL     1     -39.851 -55.301  17.565  1.00  0.00     0.064 C 
HETATM   20  O   UNL     1     -39.165 -55.402  15.308  1.00  0.00    -0.382 OA
HETATM   21  C   UNL     1     -39.036 -54.817  14.016  1.00  0.00     0.188 C 
HETATM   22  C   UNL     1     -40.339 -54.235  13.456  1.00  0.00     0.151 C 
BRANCH  17  23
HETATM   23  C   UNL     1     -42.889 -55.489  18.141  1.00  0.00     0.268 C 
HETATM   24  C   UNL     1     -43.152 -56.444  19.305  1.00  0.00     0.037 C 
ENDBRANCH  17  23
ENDBRANCH   4  13
BRANCH   2  25
HETATM   25  C   UNL     1     -42.587 -48.485  11.136  1.00  0.00     0.094 C 
HETATM   26  C   UNL     1     -41.537 -47.484  10.563  1.00  0.00     0.039 C 
HETATM   27  C   UNL     1     -42.656 -46.382  10.655  1.00  0.00     0.006 C 
HETATM   28  C   UNL     1     -43.176 -47.244  11.869  1.00  0.00     0.039 C 
BRANCH  27  29
HETATM   29  C   UNL     1     -42.120 -44.989  10.993  1.00  0.00     0.175 C 
BRANCH  29  30
HETATM   30  O   UNL     1     -43.026 -43.987  10.540  1.00  0.00    -0.400 OA
HETATM   31  H   UNL     1     -43.157 -44.133   9.580  1.00  0.00     0.209 HD
ENDBRANCH  29  30
ENDBRANCH  27  29
BRANCH  27  32
HETATM   32  C   UNL     1     -43.560 -46.326   9.409  1.00  0.00     0.175 C 
BRANCH  32  33
HETATM   33  O   UNL     1     -42.828 -45.798   8.306  1.00  0.00    -0.400 OA
HETATM   34  H   UNL     1     -42.630 -46.539   7.704  1.00  0.00     0.209 HD
ENDBRANCH  32  33
ENDBRANCH  27  32
ENDBRANCH   2  25
TORSDOF 7
ENDMDL
MODEL 8
REMARK VINA RESULT:      -6.2      1.651      2.978
REMARK  7 active torsions:
REMARK  status: ('A' for Active; 'I' for Inactive)
REMARK    1  A    between atoms: N_2  and  C_10 
REMARK    2  A    between atoms: C_4  and  N_5 
REMARK    3  A    between atoms: C_15  and  C_27 
REMARK    4  A    between atoms: C_15  and  C_28 
REMARK    5  A    between atoms: N_16  and  C_29 
REMARK    6  A    between atoms: C_27  and  O_30 
REMARK    7  A    between atoms: C_28  and  O_31 
ROOT
HETATM    1  C   UNL     1     -42.084 -50.303  12.358  1.00  0.00     0.122 A 
HETATM    2  N   UNL     1     -41.809 -48.226  11.692  1.00  0.00    -0.322 N 
HETATM    3  C   UNL     1     -41.118 -49.392  11.918  1.00  0.00     0.140 A 
HETATM    4  C   UNL     1     -41.651 -51.611  12.707  1.00  0.00     0.136 A 
HETATM    5  N   UNL     1     -43.335 -49.710  12.361  1.00  0.00    -0.346 N 
ATOM      6  HN  UNL     1     -44.223 -50.137  12.622  1.00  0.00     0.167 HD
HETATM    7  C   UNL     1     -43.131 -48.476  11.955  1.00  0.00     0.185 A 
HETATM    8  N   UNL     1     -39.802 -49.609  11.766  1.00  0.00    -0.336 N 
ATOM      9  HN  UNL     1     -39.133 -48.912  11.441  1.00  0.00     0.168 HD
HETATM   10  N   UNL     1     -40.310 -51.843  12.548  1.00  0.00    -0.337 N 
ATOM     11  HN  UNL     1     -39.927 -52.761  12.770  1.00  0.00     0.168 HD
HETATM   12  C   UNL     1     -39.489 -50.869  12.102  1.00  0.00     0.183 A 
ENDROOT
BRANCH   4  13
HETATM   13  N   UNL     1     -42.430 -52.637  13.251  1.00  0.00    -0.354 N 
HETATM   14  C   UNL     1     -42.289 -53.132  14.648  1.00  0.00     0.143 C 
HETATM   15  C   UNL     1     -43.099 -52.278  15.670  1.00  0.00     0.300 C 
HETATM   16  C   UNL     1     -42.791 -54.605  14.693  1.00  0.00     0.147 C 
HETATM   17  N   UNL     1     -43.245 -52.843  17.038  1.00  0.00     0.090 N 
HETATM   18  C   UNL     1     -43.734 -54.228  16.970  1.00  0.00     0.275 C 
HETATM   19  C   UNL     1     -42.832 -55.130  16.127  1.00  0.00     0.064 C 
HETATM   20  O   UNL     1     -44.142 -54.729  14.204  1.00  0.00    -0.382 OA
HETATM   21  C   UNL     1     -44.284 -54.258  12.868  1.00  0.00     0.188 C 
HETATM   22  C   UNL     1     -43.755 -52.836  12.642  1.00  0.00     0.151 C 
BRANCH  17  23
HETATM   23  C   UNL     1     -42.026 -52.676  17.839  1.00  0.00     0.268 C 
HETATM   24  C   UNL     1     -42.191 -53.107  19.296  1.00  0.00     0.037 C 
ENDBRANCH  17  23
ENDBRANCH   4  13
BRANCH   2  25
HETATM   25  C   UNL     1     -41.374 -46.911  11.289  1.00  0.00     0.094 C 
HETATM   26  C   UNL     1     -41.593 -45.779  12.339  1.00  0.00     0.039 C 
HETATM   27  C   UNL     1     -41.765 -44.795  11.124  1.00  0.00     0.006 C 
HETATM   28  C   UNL     1     -42.319 -46.071  10.382  1.00  0.00     0.039 C 
BRANCH  27  29
HETATM   29  C   UNL     1     -42.772 -43.670  11.383  1.00  0.00     0.175 C 
BRANCH  29  30
HETATM   30  O   UNL     1     -43.500 -43.375  10.195  1.00  0.00    -0.400 OA
HETATM   31  H   UNL     1     -43.363 -44.127   9.580  1.00  0.00     0.209 HD
ENDBRANCH  29  30
ENDBRANCH  27  29
BRANCH  27  32
HETATM   32  C   UNL     1     -40.432 -44.219  10.612  1.00  0.00     0.175 C 
BRANCH  32  33
HETATM   33  O   UNL     1     -40.586 -42.833  10.318  1.00  0.00    -0.400 OA
HETATM   34  H   UNL     1     -39.725 -42.402  10.476  1.00  0.00     0.209 HD
ENDBRANCH  32  33
ENDBRANCH  27  32
ENDBRANCH   2  25
TORSDOF 7
ENDMDL
MODEL 9
REMARK VINA RESULT:      -6.1      2.890      4.469
REMARK  7 active torsions:
REMARK  status: ('A' for Active; 'I' for Inactive)
REMARK    1  A    between atoms: N_2  and  C_10 
REMARK    2  A    between atoms: C_4  and  N_5 
REMARK    3  A    between atoms: C_15  and  C_27 
REMARK    4  A    between atoms: C_15  and  C_28 
REMARK    5  A    between atoms: N_16  and  C_29 
REMARK    6  A    between atoms: C_27  and  O_30 
REMARK    7  A    between atoms: C_28  and  O_31 
ROOT
HETATM    1  C   UNL     1     -40.148 -49.777  12.500  1.00  0.00     0.122 A 
HETATM    2  N   UNL     1     -40.449 -47.650  12.031  1.00  0.00    -0.322 N 
HETATM    3  C   UNL     1     -39.561 -48.683  11.855  1.00  0.00     0.140 A 
HETATM    4  C   UNL     1     -39.428 -51.003  12.513  1.00  0.00     0.136 A 
HETATM    5  N   UNL     1     -41.381 -49.421  13.019  1.00  0.00    -0.346 N 
ATOM      6  HN  UNL     1     -42.034 -50.016  13.527  1.00  0.00     0.167 HD
HETATM    7  C   UNL     1     -41.527 -48.150  12.717  1.00  0.00     0.185 A 
HETATM    8  N   UNL     1     -38.379 -48.650  11.220  1.00  0.00    -0.336 N 
ATOM      9  HN  UNL     1     -37.989 -47.826  10.762  1.00  0.00     0.168 HD
HETATM   10  N   UNL     1     -38.224 -50.979  11.861  1.00  0.00    -0.337 N 
ATOM     11  HN  UNL     1     -37.655 -51.825  11.821  1.00  0.00     0.168 HD
HETATM   12  C   UNL     1     -37.781 -49.849  11.270  1.00  0.00     0.183 A 
ENDROOT
BRANCH   4  13
HETATM   13  N   UNL     1     -39.788 -52.182  13.174  1.00  0.00    -0.354 N 
HETATM   14  C   UNL     1     -39.128 -52.671  14.415  1.00  0.00     0.143 C 
HETATM   15  C   UNL     1     -39.725 -52.030  15.704  1.00  0.00     0.300 C 
HETATM   16  C   UNL     1     -39.301 -54.217  14.479  1.00  0.00     0.147 C 
HETATM   17  N   UNL     1     -39.328 -52.646  16.998  1.00  0.00     0.090 N 
HETATM   18  C   UNL     1     -39.540 -54.100  16.958  1.00  0.00     0.275 C 
HETATM   19  C   UNL     1     -38.792 -54.774  15.807  1.00  0.00     0.064 C 
HETATM   20  O   UNL     1     -40.687 -54.607  14.409  1.00  0.00    -0.382 OA
HETATM   21  C   UNL     1     -41.325 -54.143  13.224  1.00  0.00     0.188 C 
HETATM   22  C   UNL     1     -41.175 -52.637  12.976  1.00  0.00     0.151 C 
BRANCH  17  23
HETATM   23  C   UNL     1     -37.975 -52.249  17.407  1.00  0.00     0.268 C 
HETATM   24  C   UNL     1     -37.557 -52.819  18.763  1.00  0.00     0.037 C 
ENDBRANCH  17  23
ENDBRANCH   4  13
BRANCH   2  25
HETATM   25  C   UNL     1     -40.394 -46.258  11.658  1.00  0.00     0.094 C 
HETATM   26  C   UNL     1     -41.086 -45.269  12.646  1.00  0.00     0.039 C 
HETATM   27  C   UNL     1     -41.397 -44.365  11.398  1.00  0.00     0.006 C 
HETATM   28  C   UNL     1     -41.428 -45.735  10.619  1.00  0.00     0.039 C 
BRANCH  27  29
HETATM   29  C   UNL     1     -42.726 -43.612  11.500  1.00  0.00     0.175 C 
BRANCH  29  30
HETATM   30  O   UNL     1     -43.120 -43.128  10.220  1.00  0.00    -0.400 OA
HETATM   31  H   UNL     1     -43.841 -43.711   9.902  1.00  0.00     0.209 HD
ENDBRANCH  29  30
ENDBRANCH  27  29
BRANCH  27  32
HETATM   32  C   UNL     1     -40.253 -43.395  11.048  1.00  0.00     0.175 C 
BRANCH  32  33
HETATM   33  O   UNL     1     -40.712 -42.050  11.149  1.00  0.00    -0.400 OA
HETATM   34  H   UNL     1     -39.927 -41.471  11.148  1.00  0.00     0.209 HD
ENDBRANCH  32  33
ENDBRANCH  27  32
ENDBRANCH   2  25
TORSDOF 7
ENDMDL
