MODEL 1
REMARK VINA RESULT:      -6.5      0.000      0.000
REMARK  6 active torsions:
REMARK  status: ('A' for Active; 'I' for Inactive)
REMARK    1  A    between atoms: C_2  and  C_4 
REMARK    2  A    between atoms: C_4  and  N_5 
REMARK    3  A    between atoms: C_4  and  C_9 
REMARK       I    between atoms: N_5  and  C_6 
REMARK       I    between atoms: C_9  and  N_11 
REMARK    4  A    between atoms: N_11  and  C_12 
REMARK    5  A    between atoms: C_12  and  C_13 
REMARK    6  A    between atoms: C_18  and  N_20 
ROOT
HETATM    1  C   UNL     1     -40.758 -49.297  11.684  1.00  0.00     0.161 C 
ENDROOT
BRANCH   1   2
HETATM    2  N   UNL     1     -41.713 -50.380  11.643  1.00  0.00    -0.355 N 
HETATM    3  C   UNL     1     -42.073 -51.064  12.789  1.00  0.00     0.241 C 
HETATM    4  O   UNL     1     -41.586 -50.811  13.889  1.00  0.00    -0.271 OA
HETATM    5  H   UNL     1     -42.150 -50.606  10.760  1.00  0.00     0.162 HD
BRANCH   3   6
HETATM    6  C   UNL     1     -43.171 -52.138  12.599  1.00  0.00     0.179 C 
BRANCH   6   7
HETATM    7  C   UNL     1     -42.657 -53.549  12.986  1.00  0.00     0.009 C 
HETATM    8  C   UNL     1     -41.160 -53.727  12.706  1.00  0.00     0.012 C 
HETATM    9  C   UNL     1     -42.919 -53.849  14.466  1.00  0.00     0.012 C 
ENDBRANCH   6   7
BRANCH   6  10
HETATM   10  N   UNL     1     -44.329 -51.736  13.404  1.00  0.00    -0.348 N 
HETATM   11  C   UNL     1     -45.617 -52.045  13.023  1.00  0.00     0.214 C 
HETATM   12  O   UNL     1     -45.895 -52.721  12.037  1.00  0.00    -0.274 OA
HETATM   13  C   UNL     1     -46.670 -51.540  13.970  1.00  0.00     0.117 C 
HETATM   14  H   UNL     1     -44.192 -51.077  14.158  1.00  0.00     0.163 HD
ENDBRANCH   6  10
ENDBRANCH   3   6
ENDBRANCH   1   2
BRANCH   1  15
HETATM   15  C   UNL     1     -41.282 -48.075  10.981  1.00  0.00    -0.036 A 
HETATM   16  C   UNL     1     -40.643 -46.844  11.075  1.00  0.00     0.026 A 
HETATM   17  C   UNL     1     -41.187 -45.777  10.384  1.00  0.00     0.090 A 
HETATM   18  N   UNL     1     -42.304 -45.855   9.623  1.00  0.00    -0.352 N 
HETATM   19  C   UNL     1     -42.955 -47.035   9.545  1.00  0.00     0.103 A 
ATOM     20  HN  UNL     1     -42.646 -45.038   9.118  1.00  0.00     0.166 HD
HETATM   21  C   UNL     1     -42.440 -48.159  10.195  1.00  0.00     0.057 A 
BRANCH  19  22
HETATM   22  N   UNL     1     -44.133 -47.087   8.843  1.00  0.00    -0.363 N 
HETATM   23  C   UNL     1     -45.184 -46.088   9.062  1.00  0.00     0.150 C 
HETATM   24  C   UNL     1     -46.557 -46.765   9.213  1.00  0.00     0.187 C 
HETATM   25  O   UNL     1     -46.829 -47.680   8.137  1.00  0.00    -0.388 OA
HETATM   26  C   UNL     1     -45.825 -48.706   8.104  1.00  0.00     0.187 C 
HETATM   27  C   UNL     1     -44.430 -48.115   7.845  1.00  0.00     0.150 C 
ENDBRANCH  19  22
ENDBRANCH   1  15
TORSDOF 6
ENDMDL
MODEL 2
REMARK VINA RESULT:      -6.5      1.873      6.925
REMARK  6 active torsions:
REMARK  status: ('A' for Active; 'I' for Inactive)
REMARK    1  A    between atoms: C_2  and  C_4 
REMARK    2  A    between atoms: C_4  and  N_5 
REMARK    3  A    between atoms: C_4  and  C_9 
REMARK       I    between atoms: N_5  and  C_6 
REMARK       I    between atoms: C_9  and  N_11 
REMARK    4  A    between atoms: N_11  and  C_12 
REMARK    5  A    between atoms: C_12  and  C_13 
REMARK    6  A    between atoms: C_18  and  N_20 
ROOT
HETATM    1  C   UNL     1     -40.540 -51.434  11.734  1.00  0.00     0.161 C 
ENDROOT
BRANCH   1   2
HETATM    2  N   UNL     1     -41.382 -50.278  11.526  1.00  0.00    -0.355 N 
HETATM    3  C   UNL     1     -40.848 -49.006  11.451  1.00  0.00     0.241 C 
HETATM    4  O   UNL     1     -39.647 -48.784  11.583  1.00  0.00    -0.271 OA
HETATM    5  H   UNL     1     -42.374 -50.420  11.394  1.00  0.00     0.162 HD
BRANCH   3   6
HETATM    6  C   UNL     1     -41.864 -47.881  11.138  1.00  0.00     0.179 C 
BRANCH   6   7
HETATM    7  C   UNL     1     -41.334 -46.495  11.588  1.00  0.00     0.009 C 
HETATM    8  C   UNL     1     -40.786 -45.668  10.419  1.00  0.00     0.012 C 
HETATM    9  C   UNL     1     -42.429 -45.684  12.292  1.00  0.00     0.012 C 
ENDBRANCH   6   7
BRANCH   6  10
HETATM   10  N   UNL     1     -42.142 -47.921   9.698  1.00  0.00    -0.348 N 
HETATM   11  C   UNL     1     -43.411 -47.719   9.201  1.00  0.00     0.214 C 
HETATM   12  O   UNL     1     -44.380 -47.432   9.895  1.00  0.00    -0.274 OA
HETATM   13  C   UNL     1     -43.499 -47.809   7.702  1.00  0.00     0.117 C 
HETATM   14  H   UNL     1     -41.427 -48.270   9.075  1.00  0.00     0.163 HD
ENDBRANCH   6  10
ENDBRANCH   3   6
ENDBRANCH   1   2
BRANCH   1  15
HETATM   15  C   UNL     1     -41.238 -52.481  12.558  1.00  0.00    -0.036 A 
HETATM   16  C   UNL     1     -40.538 -53.495  13.200  1.00  0.00     0.026 A 
HETATM   17  C   UNL     1     -41.259 -54.407  13.948  1.00  0.00     0.090 A 
HETATM   18  N   UNL     1     -42.605 -54.376  14.092  1.00  0.00    -0.352 N 
HETATM   19  C   UNL     1     -43.304 -53.417  13.451  1.00  0.00     0.103 A 
ATOM     20  HN  UNL     1     -43.080 -55.064  14.675  1.00  0.00     0.166 HD
HETATM   21  C   UNL     1     -42.632 -52.446  12.703  1.00  0.00     0.057 A 
BRANCH  19  22
HETATM   22  N   UNL     1     -44.674 -53.441  13.531  1.00  0.00    -0.363 N 
HETATM   23  C   UNL     1     -45.457 -52.206  13.417  1.00  0.00     0.150 C 
HETATM   24  C   UNL     1     -46.523 -52.131  14.523  1.00  0.00     0.187 C 
HETATM   25  O   UNL     1     -47.317 -53.329  14.587  1.00  0.00    -0.388 OA
HETATM   26  C   UNL     1     -46.474 -54.460  14.852  1.00  0.00     0.187 C 
HETATM   27  C   UNL     1     -45.446 -54.668  13.729  1.00  0.00     0.150 C 
ENDBRANCH  19  22
ENDBRANCH   1  15
TORSDOF 6
ENDMDL
MODEL 3
REMARK VINA RESULT:      -6.5      2.034      3.396
REMARK  6 active torsions:
REMARK  status: ('A' for Active; 'I' for Inactive)
REMARK    1  A    between atoms: C_2  and  C_4 
REMARK    2  A    between atoms: C_4  and  N_5 
REMARK    3  A    between atoms: C_4  and  C_9 
REMARK       I    between atoms: N_5  and  C_6 
REMARK       I    between atoms: C_9  and  N_11 
REMARK    4  A    between atoms: N_11  and  C_12 
REMARK    5  A    between atoms: C_12  and  C_13 
REMARK    6  A    between atoms: C_18  and  N_20 
ROOT
HETATM    1  C   UNL     1     -42.784 -49.383  14.400  1.00  0.00     0.161 C 
ENDROOT
BRANCH   1   2
HETATM    2  N   UNL     1     -43.990 -50.180  14.402  1.00  0.00    -0.355 N 
HETATM    3  C   UNL     1     -43.974 -51.505  14.794  1.00  0.00     0.241 C 
HETATM    4  O   UNL     1     -42.943 -52.082  15.132  1.00  0.00    -0.271 OA
HETATM    5  H   UNL     1     -44.862 -49.737  14.148  1.00  0.00     0.162 HD
BRANCH   3   6
HETATM    6  C   UNL     1     -45.356 -52.201  14.826  1.00  0.00     0.179 C 
BRANCH   6   7
HETATM    7  C   UNL     1     -46.060 -52.003  16.193  1.00  0.00     0.009 C 
HETATM    8  C   UNL     1     -47.505 -51.513  16.044  1.00  0.00     0.012 C 
HETATM    9  C   UNL     1     -46.063 -53.302  17.008  1.00  0.00     0.012 C 
ENDBRANCH   6   7
BRANCH   6  10
HETATM   10  N   UNL     1     -46.150 -51.662  13.717  1.00  0.00    -0.348 N 
HETATM   11  C   UNL     1     -46.235 -52.312  12.505  1.00  0.00     0.214 C 
HETATM   12  O   UNL     1     -45.718 -53.401  12.275  1.00  0.00    -0.274 OA
HETATM   13  C   UNL     1     -47.086 -51.600  11.490  1.00  0.00     0.117 C 
HETATM   14  H   UNL     1     -46.501 -50.716  13.785  1.00  0.00     0.163 HD
ENDBRANCH   6  10
ENDBRANCH   3   6
ENDBRANCH   1   2
BRANCH   1  15
HETATM   15  C   UNL     1     -42.191 -49.287  13.022  1.00  0.00    -0.036 A 
HETATM   16  C   UNL     1     -41.216 -50.173  12.580  1.00  0.00     0.026 A 
HETATM   17  C   UNL     1     -40.737 -50.018  11.291  1.00  0.00     0.090 A 
HETATM   18  N   UNL     1     -41.156 -49.058  10.435  1.00  0.00    -0.352 N 
HETATM   19  C   UNL     1     -42.080 -48.169  10.858  1.00  0.00     0.103 A 
ATOM     20  HN  UNL     1     -40.780 -49.007   9.488  1.00  0.00     0.166 HD
HETATM   21  C   UNL     1     -42.626 -48.289  12.138  1.00  0.00     0.057 A 
BRANCH  19  22
HETATM   22  N   UNL     1     -42.437 -47.146  10.016  1.00  0.00    -0.363 N 
HETATM   23  C   UNL     1     -41.912 -45.791  10.213  1.00  0.00     0.150 C 
HETATM   24  C   UNL     1     -43.040 -44.750  10.121  1.00  0.00     0.187 C 
HETATM   25  O   UNL     1     -43.825 -44.910   8.926  1.00  0.00    -0.388 OA
HETATM   26  C   UNL     1     -44.418 -46.217   8.903  1.00  0.00     0.187 C 
HETATM   27  C   UNL     1     -43.347 -47.318   8.882  1.00  0.00     0.150 C 
ENDBRANCH  19  22
ENDBRANCH   1  15
TORSDOF 6
ENDMDL
MODEL 4
REMARK VINA RESULT:      -6.5      1.984      7.057
REMARK  6 active torsions:
REMARK  status: ('A' for Active; 'I' for Inactive)
REMARK    1  A    between atoms: C_2  and  C_4 
REMARK    2  A    between atoms: C_4  and  N_5 
REMARK    3  A    between atoms: C_4  and  C_9 
REMARK       I    between atoms: N_5  and  C_6 
REMARK       I    between atoms: C_9  and  N_11 
REMARK    4  A    between atoms: N_11  and  C_12 
REMARK    5  A    between atoms: C_12  and  C_13 
REMARK    6  A    between atoms: C_18  and  N_20 
ROOT
HETATM    1  C   UNL     1     -41.225 -52.099  11.840  1.00  0.00     0.161 C 
ENDROOT
BRANCH   1   2
HETATM    2  N   UNL     1     -41.809 -50.780  11.747  1.00  0.00    -0.355 N 
HETATM    3  C   UNL     1     -41.047 -49.682  11.393  1.00  0.00     0.241 C 
HETATM    4  O   UNL     1     -39.841 -49.759  11.169  1.00  0.00    -0.271 OA
HETATM    5  H   UNL     1     -42.802 -50.678  11.905  1.00  0.00     0.162 HD
BRANCH   3   6
HETATM    6  C   UNL     1     -41.830 -48.355  11.250  1.00  0.00     0.179 C 
BRANCH   6   7
HETATM    7  C   UNL     1     -41.052 -47.167  11.873  1.00  0.00     0.009 C 
HETATM    8  C   UNL     1     -40.330 -46.320  10.818  1.00  0.00     0.012 C 
HETATM    9  C   UNL     1     -41.984 -46.255  12.680  1.00  0.00     0.012 C 
ENDBRANCH   6   7
BRANCH   6  10
HETATM   10  N   UNL     1     -42.096 -48.148   9.823  1.00  0.00    -0.348 N 
HETATM   11  C   UNL     1     -43.332 -47.742   9.369  1.00  0.00     0.214 C 
HETATM   12  O   UNL     1     -44.273 -47.463  10.105  1.00  0.00    -0.274 OA
HETATM   13  C   UNL     1     -43.415 -47.595   7.875  1.00  0.00     0.117 C 
HETATM   14  H   UNL     1     -41.416 -48.473   9.149  1.00  0.00     0.163 HD
ENDBRANCH   6  10
ENDBRANCH   3   6
ENDBRANCH   1   2
BRANCH   1  15
HETATM   15  C   UNL     1     -41.870 -52.909  12.931  1.00  0.00    -0.036 A 
HETATM   16  C   UNL     1     -41.196 -53.939  13.575  1.00  0.00     0.026 A 
HETATM   17  C   UNL     1     -41.862 -54.622  14.577  1.00  0.00     0.090 A 
HETATM   18  N   UNL     1     -43.129 -54.353  14.967  1.00  0.00    -0.352 N 
HETATM   19  C   UNL     1     -43.810 -53.376  14.331  1.00  0.00     0.103 A 
ATOM     20  HN  UNL     1     -43.561 -54.877  15.727  1.00  0.00     0.166 HD
HETATM   21  C   UNL     1     -43.184 -52.628  13.331  1.00  0.00     0.057 A 
BRANCH  19  22
HETATM   22  N   UNL     1     -45.123 -53.165  14.672  1.00  0.00    -0.363 N 
HETATM   23  C   UNL     1     -46.021 -52.420  13.783  1.00  0.00     0.150 C 
HETATM   24  C   UNL     1     -46.825 -51.374  14.573  1.00  0.00     0.187 C 
HETATM   25  O   UNL     1     -47.476 -51.948  15.720  1.00  0.00    -0.388 OA
HETATM   26  C   UNL     1     -46.496 -52.519  16.601  1.00  0.00     0.187 C 
HETATM   27  C   UNL     1     -45.720 -53.654  15.916  1.00  0.00     0.150 C 
ENDBRANCH  19  22
ENDBRANCH   1  15
TORSDOF 6
ENDMDL
MODEL 5
REMARK VINA RESULT:      -6.4      2.351      7.116
REMARK  6 active torsions:
REMARK  status: ('A' for Active; 'I' for Inactive)
REMARK    1  A    between atoms: C_2  and  C_4 
REMARK    2  A    between atoms: C_4  and  N_5 
REMARK    3  A    between atoms: C_4  and  C_9 
REMARK       I    between atoms: N_5  and  C_6 
REMARK       I    between atoms: C_9  and  N_11 
REMARK    4  A    between atoms: N_11  and  C_12 
REMARK    5  A    between atoms: C_12  and  C_13 
REMARK    6  A    between atoms: C_18  and  N_20 
ROOT
HETATM    1  C   UNL     1     -41.940 -51.781  12.185  1.00  0.00     0.161 C 
ENDROOT
BRANCH   1   2
HETATM    2  N   UNL     1     -42.101 -50.373  11.903  1.00  0.00    -0.355 N 
HETATM    3  C   UNL     1     -41.056 -49.616  11.409  1.00  0.00     0.241 C 
HETATM    4  O   UNL     1     -39.937 -50.084  11.210  1.00  0.00    -0.271 OA
HETATM    5  H   UNL     1     -43.012 -49.954  12.035  1.00  0.00     0.162 HD
BRANCH   3   6
HETATM    6  C   UNL     1     -41.406 -48.146  11.074  1.00  0.00     0.179 C 
BRANCH   6   7
HETATM    7  C   UNL     1     -40.193 -47.207  11.303  1.00  0.00     0.009 C 
HETATM    8  C   UNL     1     -40.388 -45.828  10.662  1.00  0.00     0.012 C 
HETATM    9  C   UNL     1     -39.912 -47.018  12.799  1.00  0.00     0.012 C 
ENDBRANCH   6   7
BRANCH   6  10
HETATM   10  N   UNL     1     -41.875 -48.106   9.685  1.00  0.00    -0.348 N 
HETATM   11  C   UNL     1     -43.153 -47.701   9.365  1.00  0.00     0.214 C 
HETATM   12  O   UNL     1     -43.966 -47.290  10.187  1.00  0.00    -0.274 OA
HETATM   13  C   UNL     1     -43.453 -47.738   7.892  1.00  0.00     0.117 C 
HETATM   14  H   UNL     1     -41.312 -48.543   8.969  1.00  0.00     0.163 HD
ENDBRANCH   6  10
ENDBRANCH   3   6
ENDBRANCH   1   2
BRANCH   1  15
HETATM   15  C   UNL     1     -43.157 -52.348  12.862  1.00  0.00    -0.036 A 
HETATM   16  C   UNL     1     -43.640 -53.616  12.561  1.00  0.00     0.026 A 
HETATM   17  C   UNL     1     -44.757 -54.063  13.242  1.00  0.00     0.090 A 
HETATM   18  N   UNL     1     -45.412 -53.343  14.183  1.00  0.00    -0.352 N 
HETATM   19  C   UNL     1     -44.976 -52.097  14.466  1.00  0.00     0.103 A 
ATOM     20  HN  UNL     1     -46.218 -53.734  14.668  1.00  0.00     0.166 HD
HETATM   21  C   UNL     1     -43.834 -51.598  13.834  1.00  0.00     0.057 A 
BRANCH  19  22
HETATM   22  N   UNL     1     -45.694 -51.339  15.356  1.00  0.00    -0.363 N 
HETATM   23  C   UNL     1     -45.016 -50.457  16.312  1.00  0.00     0.150 C 
HETATM   24  C   UNL     1     -45.601 -50.629  17.724  1.00  0.00     0.187 C 
HETATM   25  O   UNL     1     -47.035 -50.515  17.731  1.00  0.00    -0.388 OA
HETATM   26  C   UNL     1     -47.609 -51.520  16.882  1.00  0.00     0.187 C 
HETATM   27  C   UNL     1     -47.156 -51.347  15.424  1.00  0.00     0.150 C 
ENDBRANCH  19  22
ENDBRANCH   1  15
TORSDOF 6
ENDMDL
MODEL 6
REMARK VINA RESULT:      -6.3      2.021      3.455
REMARK  6 active torsions:
REMARK  status: ('A' for Active; 'I' for Inactive)
REMARK    1  A    between atoms: C_2  and  C_4 
REMARK    2  A    between atoms: C_4  and  N_5 
REMARK    3  A    between atoms: C_4  and  C_9 
REMARK       I    between atoms: N_5  and  C_6 
REMARK       I    between atoms: C_9  and  N_11 
REMARK    4  A    between atoms: N_11  and  C_12 
REMARK    5  A    between atoms: C_12  and  C_13 
REMARK    6  A    between atoms: C_18  and  N_20 
ROOT
HETATM    1  C   UNL     1     -42.823 -50.451  13.934  1.00  0.00     0.161 C 
ENDROOT
BRANCH   1   2
HETATM    2  N   UNL     1     -44.126 -50.877  13.476  1.00  0.00    -0.355 N 
HETATM    3  C   UNL     1     -44.433 -52.216  13.330  1.00  0.00     0.241 C 
HETATM    4  O   UNL     1     -43.618 -53.109  13.551  1.00  0.00    -0.271 OA
HETATM    5  H   UNL     1     -44.831 -50.173  13.301  1.00  0.00     0.162 HD
BRANCH   3   6
HETATM    6  C   UNL     1     -45.893 -52.517  12.915  1.00  0.00     0.179 C 
BRANCH   6   7
HETATM    7  C   UNL     1     -46.800 -52.743  14.153  1.00  0.00     0.009 C 
HETATM    8  C   UNL     1     -46.328 -53.916  15.020  1.00  0.00     0.012 C 
HETATM    9  C   UNL     1     -46.871 -51.485  15.026  1.00  0.00     0.012 C 
ENDBRANCH   6   7
BRANCH   6  10
HETATM   10  N   UNL     1     -46.361 -51.398  12.090  1.00  0.00    -0.348 N 
HETATM   11  C   UNL     1     -47.238 -51.588  11.045  1.00  0.00     0.214 C 
HETATM   12  O   UNL     1     -47.740 -52.671  10.761  1.00  0.00    -0.274 OA
HETATM   13  C   UNL     1     -47.592 -50.325  10.310  1.00  0.00     0.117 C 
HETATM   14  H   UNL     1     -45.902 -50.503  12.181  1.00  0.00     0.163 HD
ENDBRANCH   6  10
ENDBRANCH   3   6
ENDBRANCH   1   2
BRANCH   1  15
HETATM   15  C   UNL     1     -41.976 -49.951  12.796  1.00  0.00    -0.036 A 
HETATM   16  C   UNL     1     -40.715 -50.473  12.537  1.00  0.00     0.026 A 
HETATM   17  C   UNL     1     -40.011 -49.964  11.461  1.00  0.00     0.090 A 
HETATM   18  N   UNL     1     -40.473 -48.988  10.645  1.00  0.00    -0.352 N 
HETATM   19  C   UNL     1     -41.684 -48.448  10.900  1.00  0.00     0.103 A 
ATOM     20  HN  UNL     1     -39.917 -48.667   9.853  1.00  0.00     0.166 HD
HETATM   21  C   UNL     1     -42.458 -48.938  11.954  1.00  0.00     0.057 A 
BRANCH  19  22
HETATM   22  N   UNL     1     -42.110 -47.400  10.123  1.00  0.00    -0.363 N 
HETATM   23  C   UNL     1     -41.595 -46.044  10.339  1.00  0.00     0.150 C 
HETATM   24  C   UNL     1     -42.742 -45.020  10.358  1.00  0.00     0.187 C 
HETATM   25  O   UNL     1     -43.598 -45.149   9.209  1.00  0.00    -0.388 OA
HETATM   26  C   UNL     1     -44.171 -46.465   9.172  1.00  0.00     0.187 C 
HETATM   27  C   UNL     1     -43.086 -47.545   9.042  1.00  0.00     0.150 C 
ENDBRANCH  19  22
ENDBRANCH   1  15
TORSDOF 6
ENDMDL
MODEL 7
REMARK VINA RESULT:      -6.3      2.411      7.045
REMARK  6 active torsions:
REMARK  status: ('A' for Active; 'I' for Inactive)
REMARK    1  A    between atoms: C_2  and  C_4 
REMARK    2  A    between atoms: C_4  and  N_5 
REMARK    3  A    between atoms: C_4  and  C_9 
REMARK       I    between atoms: N_5  and  C_6 
REMARK       I    between atoms: C_9  and  N_11 
REMARK    4  A    between atoms: N_11  and  C_12 
REMARK    5  A    between atoms: C_12  and  C_13 
REMARK    6  A    between atoms: C_18  and  N_20 
ROOT
HETATM    1  C   UNL     1     -41.972 -48.792  12.968  1.00  0.00     0.161 C 
ENDROOT
BRANCH   1   2
HETATM    2  N   UNL     1     -42.564 -47.972  11.935  1.00  0.00    -0.355 N 
HETATM    3  C   UNL     1     -41.785 -47.355  10.975  1.00  0.00     0.241 C 
HETATM    4  O   UNL     1     -40.560 -47.443  10.961  1.00  0.00    -0.271 OA
HETATM    5  H   UNL     1     -43.571 -47.890  11.901  1.00  0.00     0.162 HD
BRANCH   3   6
HETATM    6  C   UNL     1     -42.569 -46.584   9.886  1.00  0.00     0.179 C 
BRANCH   6   7
HETATM    7  C   UNL     1     -43.695 -47.456   9.271  1.00  0.00     0.009 C 
HETATM    8  C   UNL     1     -45.065 -46.770   9.325  1.00  0.00     0.012 C 
HETATM    9  C   UNL     1     -43.383 -47.817   7.814  1.00  0.00     0.012 C 
ENDBRANCH   6   7
BRANCH   6  10
HETATM   10  N   UNL     1     -43.097 -45.361  10.500  1.00  0.00    -0.348 N 
HETATM   11  C   UNL     1     -42.298 -44.259  10.719  1.00  0.00     0.214 C 
HETATM   12  O   UNL     1     -41.124 -44.185  10.370  1.00  0.00    -0.274 OA
HETATM   13  C   UNL     1     -43.014 -43.107  11.368  1.00  0.00     0.117 C 
HETATM   14  H   UNL     1     -44.013 -45.386  10.924  1.00  0.00     0.163 HD
ENDBRANCH   6  10
ENDBRANCH   3   6
ENDBRANCH   1   2
BRANCH   1  15
HETATM   15  C   UNL     1     -42.172 -50.256  12.690  1.00  0.00    -0.036 A 
HETATM   16  C   UNL     1     -41.203 -51.020  12.050  1.00  0.00     0.026 A 
HETATM   17  C   UNL     1     -41.466 -52.362  11.847  1.00  0.00     0.090 A 
HETATM   18  N   UNL     1     -42.608 -52.979  12.230  1.00  0.00    -0.352 N 
HETATM   19  C   UNL     1     -43.573 -52.246  12.825  1.00  0.00     0.103 A 
ATOM     20  HN  UNL     1     -42.737 -53.978  12.072  1.00  0.00     0.166 HD
HETATM   21  C   UNL     1     -43.358 -50.891  13.086  1.00  0.00     0.057 A 
BRANCH  19  22
HETATM   22  N   UNL     1     -44.763 -52.857  13.132  1.00  0.00    -0.363 N 
HETATM   23  C   UNL     1     -45.996 -52.076  13.275  1.00  0.00     0.150 C 
HETATM   24  C   UNL     1     -46.757 -52.484  14.547  1.00  0.00     0.187 C 
HETATM   25  O   UNL     1     -46.949 -53.907  14.627  1.00  0.00    -0.388 OA
HETATM   26  C   UNL     1     -45.677 -54.572  14.633  1.00  0.00     0.187 C 
HETATM   27  C   UNL     1     -44.897 -54.300  13.337  1.00  0.00     0.150 C 
ENDBRANCH  19  22
ENDBRANCH   1  15
TORSDOF 6
ENDMDL
MODEL 8
REMARK VINA RESULT:      -6.2      2.201      3.303
REMARK  6 active torsions:
REMARK  status: ('A' for Active; 'I' for Inactive)
REMARK    1  A    between atoms: C_2  and  C_4 
REMARK    2  A    between atoms: C_4  and  N_5 
REMARK    3  A    between atoms: C_4  and  C_9 
REMARK       I    between atoms: N_5  and  C_6 
REMARK       I    between atoms: C_9  and  N_11 
REMARK    4  A    between atoms: N_11  and  C_12 
REMARK    5  A    between atoms: C_12  and  C_13 
REMARK    6  A    between atoms: C_18  and  N_20 
ROOT
HETATM    1  C   UNL     1     -43.455 -49.829  14.033  1.00  0.00     0.161 C 
ENDROOT
BRANCH   1   2
HETATM    2  N   UNL     1     -43.239 -51.167  14.536  1.00  0.00    -0.355 N 
HETATM    3  C   UNL     1     -44.092 -52.203  14.206  1.00  0.00     0.241 C 
HETATM    4  O   UNL     1     -45.084 -52.043  13.499  1.00  0.00    -0.271 OA
HETATM    5  H   UNL     1     -42.423 -51.343  15.105  1.00  0.00     0.162 HD
BRANCH   3   6
HETATM    6  C   UNL     1     -43.681 -53.593  14.748  1.00  0.00     0.179 C 
BRANCH   6   7
HETATM    7  C   UNL     1     -42.149 -53.812  14.649  1.00  0.00     0.009 C 
HETATM    8  C   UNL     1     -41.652 -54.920  15.585  1.00  0.00     0.012 C 
HETATM    9  C   UNL     1     -41.729 -54.155  13.215  1.00  0.00     0.012 C 
ENDBRANCH   6   7
BRANCH   6  10
HETATM   10  N   UNL     1     -44.160 -53.690  16.131  1.00  0.00    -0.348 N 
HETATM   11  C   UNL     1     -45.422 -54.158  16.428  1.00  0.00     0.214 C 
HETATM   12  O   UNL     1     -46.209 -54.583  15.588  1.00  0.00    -0.274 OA
HETATM   13  C   UNL     1     -45.736 -54.172  17.899  1.00  0.00     0.117 C 
HETATM   14  H   UNL     1     -43.623 -53.247  16.864  1.00  0.00     0.163 HD
ENDBRANCH   6  10
ENDBRANCH   3   6
ENDBRANCH   1   2
BRANCH   1  15
HETATM   15  C   UNL     1     -42.620 -49.560  12.811  1.00  0.00    -0.036 A 
HETATM   16  C   UNL     1     -41.506 -50.331  12.501  1.00  0.00     0.026 A 
HETATM   17  C   UNL     1     -40.804 -50.021  11.350  1.00  0.00     0.090 A 
HETATM   18  N   UNL     1     -41.133 -49.014  10.508  1.00  0.00    -0.352 N 
HETATM   19  C   UNL     1     -42.194 -48.236  10.809  1.00  0.00     0.103 A 
ATOM     20  HN  UNL     1     -40.589 -48.847   9.662  1.00  0.00     0.166 HD
HETATM   21  C   UNL     1     -42.963 -48.514  11.942  1.00  0.00     0.057 A 
BRANCH  19  22
HETATM   22  N   UNL     1     -42.471 -47.164   9.998  1.00  0.00    -0.363 N 
HETATM   23  C   UNL     1     -41.878 -45.848  10.261  1.00  0.00     0.150 C 
HETATM   24  C   UNL     1     -42.944 -44.743  10.180  1.00  0.00     0.187 C 
HETATM   25  O   UNL     1     -43.702 -44.815   8.959  1.00  0.00    -0.388 OA
HETATM   26  C   UNL     1     -44.365 -46.085   8.870  1.00  0.00     0.187 C 
HETATM   27  C   UNL     1     -43.356 -47.242   8.835  1.00  0.00     0.150 C 
ENDBRANCH  19  22
ENDBRANCH   1  15
TORSDOF 6
ENDMDL
MODEL 9
REMARK VINA RESULT:      -6.1      2.443      4.043
REMARK  6 active torsions:
REMARK  status: ('A' for Active; 'I' for Inactive)
REMARK    1  A    between atoms: C_2  and  C_4 
REMARK    2  A    between atoms: C_4  and  N_5 
REMARK    3  A    between atoms: C_4  and  C_9 
REMARK       I    between atoms: N_5  and  C_6 
REMARK       I    between atoms: C_9  and  N_11 
REMARK    4  A    between atoms: N_11  and  C_12 
REMARK    5  A    between atoms: C_12  and  C_13 
REMARK    6  A    between atoms: C_18  and  N_20 
ROOT
HETATM    1  C   UNL     1     -41.662 -50.000  14.804  1.00  0.00     0.161 C 
ENDROOT
BRANCH   1   2
HETATM    2  N   UNL     1     -42.737 -50.948  14.995  1.00  0.00    -0.355 N 
HETATM    3  C   UNL     1     -43.862 -50.618  15.727  1.00  0.00     0.241 C 
HETATM    4  O   UNL     1     -43.998 -49.526  16.274  1.00  0.00    -0.271 OA
HETATM    5  H   UNL     1     -42.671 -51.850  14.545  1.00  0.00     0.162 HD
BRANCH   3   6
HETATM    6  C   UNL     1     -44.963 -51.704  15.768  1.00  0.00     0.179 C 
BRANCH   6   7
HETATM    7  C   UNL     1     -46.316 -51.162  15.239  1.00  0.00     0.009 C 
HETATM    8  C   UNL     1     -46.582 -51.566  13.784  1.00  0.00     0.012 C 
HETATM    9  C   UNL     1     -47.485 -51.646  16.105  1.00  0.00     0.012 C 
ENDBRANCH   6   7
BRANCH   6  10
HETATM   10  N   UNL     1     -44.488 -52.850  14.986  1.00  0.00    -0.348 N 
HETATM   11  C   UNL     1     -44.581 -54.140  15.461  1.00  0.00     0.214 C 
HETATM   12  O   UNL     1     -45.114 -54.439  16.525  1.00  0.00    -0.274 OA
HETATM   13  C   UNL     1     -44.030 -55.177  14.522  1.00  0.00     0.117 C 
HETATM   14  H   UNL     1     -43.928 -52.677  14.162  1.00  0.00     0.163 HD
ENDBRANCH   6  10
ENDBRANCH   3   6
ENDBRANCH   1   2
BRANCH   1  15
HETATM   15  C   UNL     1     -41.248 -49.922  13.361  1.00  0.00    -0.036 A 
HETATM   16  C   UNL     1     -40.434 -50.887  12.778  1.00  0.00     0.026 A 
HETATM   17  C   UNL     1     -40.115 -50.743  11.441  1.00  0.00     0.090 A 
HETATM   18  N   UNL     1     -40.542 -49.721  10.663  1.00  0.00    -0.352 N 
HETATM   19  C   UNL     1     -41.308 -48.759  11.219  1.00  0.00     0.103 A 
ATOM     20  HN  UNL     1     -40.291 -49.680   9.676  1.00  0.00     0.166 HD
HETATM   21  C   UNL     1     -41.691 -48.861  12.559  1.00  0.00     0.057 A 
BRANCH  19  22
HETATM   22  N   UNL     1     -41.667 -47.681  10.449  1.00  0.00    -0.363 N 
HETATM   23  C   UNL     1     -41.012 -46.380  10.623  1.00  0.00     0.150 C 
HETATM   24  C   UNL     1     -42.053 -45.249  10.683  1.00  0.00     0.187 C 
HETATM   25  O   UNL     1     -42.972 -45.303   9.577  1.00  0.00    -0.388 OA
HETATM   26  C   UNL     1     -43.672 -46.557   9.585  1.00  0.00     0.187 C 
HETATM   27  C   UNL     1     -42.704 -47.739   9.418  1.00  0.00     0.150 C 
ENDBRANCH  19  22
ENDBRANCH   1  15
TORSDOF 6
ENDMDL
