MODEL 1
REMARK VINA RESULT:      -6.1      0.000      0.000
REMARK  4 active torsions:
REMARK  status: ('A' for Active; 'I' for Inactive)
REMARK    1  A    between atoms: C_5  and  C_9 
REMARK       I    between atoms: C_9  and  N_11 
REMARK    2  A    between atoms: N_11  and  C_12 
REMARK    3  A    between atoms: N_15  and  C_16 
REMARK    4  A    between atoms: C_16  and  C_17 
REMARK       I    between atoms: C_17  and  N_19 
ROOT
HETATM    1  C   UNL     1     -41.353 -50.710  12.028  1.00  0.00     0.123 A 
HETATM    2  C   UNL     1     -41.656 -49.366  11.703  1.00  0.00     0.068 A 
HETATM    3  C   UNL     1     -40.457 -48.691  11.780  1.00  0.00     0.114 A 
HETATM    4  N   UNL     1     -39.532 -49.626  12.134  1.00  0.00    -0.293 N 
HETATM    5  N   UNL     1     -40.058 -50.844  12.306  1.00  0.00    -0.283 N 
ATOM      6  HN  UNL     1     -39.570 -51.694  12.589  1.00  0.00     0.189 HD
ENDROOT
BRANCH   1   7
HETATM    7  N   UNL     1     -42.262 -51.748  12.050  1.00  0.00    -0.312 N 
HETATM    8  C   UNL     1     -42.325 -52.679  13.068  1.00  0.00     0.228 C 
HETATM    9  O   UNL     1     -41.651 -52.677  14.097  1.00  0.00    -0.273 OA
HETATM   10  H   UNL     1     -42.899 -51.797  11.270  1.00  0.00     0.170 HD
BRANCH   8  11
HETATM   11  C   UNL     1     -43.406 -53.746  12.871  1.00  0.00     0.088 C 
HETATM   12  C   UNL     1     -44.752 -53.113  12.508  1.00  0.00     0.034 C 
HETATM   13  C   UNL     1     -45.375 -52.438  13.722  1.00  0.00     0.126 C 
HETATM   14  N   UNL     1     -45.510 -53.369  14.830  1.00  0.00    -0.356 N 
HETATM   15  C   UNL     1     -46.465 -53.036  15.870  1.00  0.00     0.152 C 
HETATM   16  C   UNL     1     -44.415 -54.139  15.203  1.00  0.00     0.220 C 
HETATM   17  C   UNL     1     -43.568 -54.677  14.066  1.00  0.00     0.117 C 
HETATM   18  O   UNL     1     -44.211 -54.513  16.357  1.00  0.00    -0.273 OA
ENDBRANCH   8  11
ENDBRANCH   1   7
BRANCH   4  19
HETATM   19  C   UNL     1     -38.101 -49.465  12.285  1.00  0.00     0.250 C 
BRANCH  19  20
HETATM   20  C   UNL     1     -37.350 -50.513  11.515  1.00  0.00     0.235 C 
HETATM   21  O   UNL     1     -36.921 -51.546  12.027  1.00  0.00    -0.272 OA
HETATM   22  N   UNL     1     -37.145 -50.263  10.185  1.00  0.00    -0.369 N 
HETATM   23  H   UNL     1     -37.710 -49.580   9.693  1.00  0.00     0.159 HD
HETATM   24  H   UNL     1     -36.718 -51.001   9.641  1.00  0.00     0.159 HD
ENDBRANCH  19  20
ENDBRANCH   4  19
TORSDOF 4
ENDMDL
MODEL 2
REMARK VINA RESULT:      -6.0      4.449      6.580
REMARK  4 active torsions:
REMARK  status: ('A' for Active; 'I' for Inactive)
REMARK    1  A    between atoms: C_5  and  C_9 
REMARK       I    between atoms: C_9  and  N_11 
REMARK    2  A    between atoms: N_11  and  C_12 
REMARK    3  A    between atoms: N_15  and  C_16 
REMARK    4  A    between atoms: C_16  and  C_17 
REMARK       I    between atoms: C_17  and  N_19 
ROOT
HETATM    1  C   UNL     1     -41.236 -47.823  10.683  1.00  0.00     0.123 A 
HETATM    2  C   UNL     1     -41.287 -46.411  10.783  1.00  0.00     0.068 A 
HETATM    3  C   UNL     1     -42.518 -46.053  10.275  1.00  0.00     0.114 A 
HETATM    4  N   UNL     1     -43.118 -47.220   9.911  1.00  0.00    -0.293 N 
HETATM    5  N   UNL     1     -42.353 -48.294  10.132  1.00  0.00    -0.283 N 
ATOM      6  HN  UNL     1     -42.576 -49.268   9.924  1.00  0.00     0.189 HD
ENDROOT
BRANCH   1   7
HETATM    7  N   UNL     1     -40.185 -48.612  11.103  1.00  0.00    -0.312 N 
HETATM    8  C   UNL     1     -40.354 -49.844  11.703  1.00  0.00     0.228 C 
HETATM    9  O   UNL     1     -41.424 -50.424  11.879  1.00  0.00    -0.273 OA
HETATM   10  H   UNL     1     -39.261 -48.240  10.947  1.00  0.00     0.170 HD
BRANCH   8  11
HETATM   11  C   UNL     1     -39.044 -50.532  12.095  1.00  0.00     0.088 C 
HETATM   12  C   UNL     1     -39.254 -51.504  13.261  1.00  0.00     0.034 C 
HETATM   13  C   UNL     1     -39.464 -50.745  14.563  1.00  0.00     0.126 C 
HETATM   14  N   UNL     1     -38.361 -49.834  14.826  1.00  0.00    -0.356 N 
HETATM   15  C   UNL     1     -38.177 -49.387  16.193  1.00  0.00     0.152 C 
HETATM   16  C   UNL     1     -37.941 -48.976  13.818  1.00  0.00     0.220 C 
HETATM   17  C   UNL     1     -37.917 -49.559  12.419  1.00  0.00     0.117 C 
HETATM   18  O   UNL     1     -37.459 -47.864  14.033  1.00  0.00    -0.273 OA
ENDBRANCH   8  11
ENDBRANCH   1   7
BRANCH   4  19
HETATM   19  C   UNL     1     -44.452 -47.421   9.384  1.00  0.00     0.250 C 
BRANCH  19  20
HETATM   20  C   UNL     1     -44.409 -47.989   7.995  1.00  0.00     0.235 C 
HETATM   21  O   UNL     1     -43.378 -48.055   7.327  1.00  0.00    -0.272 OA
HETATM   22  N   UNL     1     -45.597 -48.433   7.480  1.00  0.00    -0.369 N 
HETATM   23  H   UNL     1     -46.379 -48.643   8.089  1.00  0.00     0.159 HD
HETATM   24  H   UNL     1     -45.561 -48.896   6.581  1.00  0.00     0.159 HD
ENDBRANCH  19  20
ENDBRANCH   4  19
TORSDOF 4
ENDMDL
MODEL 3
REMARK VINA RESULT:      -5.9      3.201      4.556
REMARK  4 active torsions:
REMARK  status: ('A' for Active; 'I' for Inactive)
REMARK    1  A    between atoms: C_5  and  C_9 
REMARK       I    between atoms: C_9  and  N_11 
REMARK    2  A    between atoms: N_11  and  C_12 
REMARK    3  A    between atoms: N_15  and  C_16 
REMARK    4  A    between atoms: C_16  and  C_17 
REMARK       I    between atoms: C_17  and  N_19 
ROOT
HETATM    1  C   UNL     1     -41.158 -49.620  11.431  1.00  0.00     0.123 A 
HETATM    2  C   UNL     1     -40.053 -48.812  11.794  1.00  0.00     0.068 A 
HETATM    3  C   UNL     1     -40.343 -47.556  11.308  1.00  0.00     0.114 A 
HETATM    4  N   UNL     1     -41.558 -47.668  10.701  1.00  0.00    -0.293 N 
HETATM    5  N   UNL     1     -42.054 -48.910  10.750  1.00  0.00    -0.283 N 
ATOM      6  HN  UNL     1     -42.933 -49.241  10.350  1.00  0.00     0.189 HD
ENDROOT
BRANCH   1   7
HETATM    7  N   UNL     1     -41.301 -50.957  11.741  1.00  0.00    -0.312 N 
HETATM    8  C   UNL     1     -42.317 -51.445  12.540  1.00  0.00     0.228 C 
HETATM    9  O   UNL     1     -43.245 -50.792  13.014  1.00  0.00    -0.273 OA
HETATM   10  H   UNL     1     -40.614 -51.581  11.347  1.00  0.00     0.170 HD
BRANCH   8  11
HETATM   11  C   UNL     1     -42.267 -52.960  12.756  1.00  0.00     0.088 C 
HETATM   12  C   UNL     1     -42.843 -53.346  14.122  1.00  0.00     0.034 C 
HETATM   13  C   UNL     1     -41.880 -52.965  15.238  1.00  0.00     0.126 C 
HETATM   14  N   UNL     1     -40.570 -53.560  15.029  1.00  0.00    -0.356 N 
HETATM   15  C   UNL     1     -39.699 -53.677  16.182  1.00  0.00     0.152 C 
HETATM   16  C   UNL     1     -39.960 -53.429  13.788  1.00  0.00     0.220 C 
HETATM   17  C   UNL     1     -40.875 -53.555  12.585  1.00  0.00     0.117 C 
HETATM   18  O   UNL     1     -38.740 -53.379  13.635  1.00  0.00    -0.273 OA
ENDBRANCH   8  11
ENDBRANCH   1   7
BRANCH   4  19
HETATM   19  C   UNL     1     -42.357 -46.630  10.085  1.00  0.00     0.250 C 
BRANCH  19  20
HETATM   20  C   UNL     1     -43.421 -47.214   9.201  1.00  0.00     0.235 C 
HETATM   21  O   UNL     1     -44.504 -47.613   9.627  1.00  0.00    -0.272 OA
HETATM   22  N   UNL     1     -43.128 -47.299   7.867  1.00  0.00    -0.369 N 
HETATM   23  H   UNL     1     -42.385 -46.740   7.463  1.00  0.00     0.159 HD
HETATM   24  H   UNL     1     -43.871 -47.609   7.254  1.00  0.00     0.159 HD
ENDBRANCH  19  20
ENDBRANCH   4  19
TORSDOF 4
ENDMDL
MODEL 4
REMARK VINA RESULT:      -5.8      1.818      2.287
REMARK  4 active torsions:
REMARK  status: ('A' for Active; 'I' for Inactive)
REMARK    1  A    between atoms: C_5  and  C_9 
REMARK       I    between atoms: C_9  and  N_11 
REMARK    2  A    between atoms: N_11  and  C_12 
REMARK    3  A    between atoms: N_15  and  C_16 
REMARK    4  A    between atoms: C_16  and  C_17 
REMARK       I    between atoms: C_17  and  N_19 
ROOT
HETATM    1  C   UNL     1     -41.021 -53.151  13.451  1.00  0.00     0.123 A 
HETATM    2  C   UNL     1     -40.085 -53.896  14.208  1.00  0.00     0.068 A 
HETATM    3  C   UNL     1     -38.949 -53.118  14.254  1.00  0.00     0.114 A 
HETATM    4  N   UNL     1     -39.247 -51.991  13.549  1.00  0.00    -0.293 N 
HETATM    5  N   UNL     1     -40.485 -52.003  13.042  1.00  0.00    -0.283 N 
ATOM      6  HN  UNL     1     -40.925 -51.285  12.466  1.00  0.00     0.189 HD
ENDROOT
BRANCH   1   7
HETATM    7  N   UNL     1     -42.314 -53.545  13.174  1.00  0.00    -0.312 N 
HETATM    8  C   UNL     1     -43.313 -52.665  12.806  1.00  0.00     0.228 C 
HETATM    9  O   UNL     1     -43.181 -51.458  12.612  1.00  0.00    -0.273 OA
HETATM   10  H   UNL     1     -42.504 -54.532  13.251  1.00  0.00     0.170 HD
BRANCH   8  11
HETATM   11  C   UNL     1     -44.671 -53.328  12.561  1.00  0.00     0.088 C 
HETATM   12  C   UNL     1     -45.788 -52.286  12.456  1.00  0.00     0.034 C 
HETATM   13  C   UNL     1     -46.110 -51.702  13.824  1.00  0.00     0.126 C 
HETATM   14  N   UNL     1     -46.449 -52.747  14.777  1.00  0.00    -0.356 N 
HETATM   15  C   UNL     1     -47.198 -52.358  15.955  1.00  0.00     0.152 C 
HETATM   16  C   UNL     1     -45.611 -53.848  14.896  1.00  0.00     0.220 C 
HETATM   17  C   UNL     1     -45.031 -54.382  13.601  1.00  0.00     0.117 C 
HETATM   18  O   UNL     1     -45.459 -54.473  15.946  1.00  0.00    -0.273 OA
ENDBRANCH   8  11
ENDBRANCH   1   7
BRANCH   4  19
HETATM   19  C   UNL     1     -38.429 -50.815  13.343  1.00  0.00     0.250 C 
BRANCH  19  20
HETATM   20  C   UNL     1     -37.621 -50.928  12.082  1.00  0.00     0.235 C 
HETATM   21  O   UNL     1     -36.700 -51.732  11.944  1.00  0.00    -0.272 OA
HETATM   22  N   UNL     1     -37.948 -50.069  11.068  1.00  0.00    -0.369 N 
HETATM   23  H   UNL     1     -38.850 -49.607  11.051  1.00  0.00     0.159 HD
HETATM   24  H   UNL     1     -37.468 -50.198  10.187  1.00  0.00     0.159 HD
ENDBRANCH  19  20
ENDBRANCH   4  19
TORSDOF 4
ENDMDL
MODEL 5
REMARK VINA RESULT:      -5.8      2.350      3.044
REMARK  4 active torsions:
REMARK  status: ('A' for Active; 'I' for Inactive)
REMARK    1  A    between atoms: C_5  and  C_9 
REMARK       I    between atoms: C_9  and  N_11 
REMARK    2  A    between atoms: N_11  and  C_12 
REMARK    3  A    between atoms: N_15  and  C_16 
REMARK    4  A    between atoms: C_16  and  C_17 
REMARK       I    between atoms: C_17  and  N_19 
ROOT
HETATM    1  C   UNL     1     -42.438 -52.028  12.589  1.00  0.00     0.123 A 
HETATM    2  C   UNL     1     -41.264 -52.697  13.012  1.00  0.00     0.068 A 
HETATM    3  C   UNL     1     -40.219 -51.945  12.521  1.00  0.00     0.114 A 
HETATM    4  N   UNL     1     -40.795 -50.906  11.855  1.00  0.00    -0.293 N 
HETATM    5  N   UNL     1     -42.132 -50.951  11.870  1.00  0.00    -0.283 N 
ATOM      6  HN  UNL     1     -42.778 -50.299  11.426  1.00  0.00     0.189 HD
ENDROOT
BRANCH   1   7
HETATM    7  N   UNL     1     -43.728 -52.424  12.881  1.00  0.00    -0.312 N 
HETATM    8  C   UNL     1     -44.704 -51.556  13.329  1.00  0.00     0.228 C 
HETATM    9  O   UNL     1     -44.589 -50.339  13.460  1.00  0.00    -0.273 OA
HETATM   10  H   UNL     1     -43.933 -53.403  12.749  1.00  0.00     0.170 HD
BRANCH   8  11
HETATM   11  C   UNL     1     -46.055 -52.223  13.601  1.00  0.00     0.088 C 
HETATM   12  C   UNL     1     -46.898 -51.396  14.576  1.00  0.00     0.034 C 
HETATM   13  C   UNL     1     -46.347 -51.506  15.991  1.00  0.00     0.126 C 
HETATM   14  N   UNL     1     -46.258 -52.894  16.414  1.00  0.00    -0.356 N 
HETATM   15  C   UNL     1     -46.192 -53.154  17.839  1.00  0.00     0.152 C 
HETATM   16  C   UNL     1     -45.648 -53.818  15.575  1.00  0.00     0.220 C 
HETATM   17  C   UNL     1     -45.938 -53.659  14.095  1.00  0.00     0.117 C 
HETATM   18  O   UNL     1     -45.042 -54.807  15.984  1.00  0.00    -0.273 OA
ENDBRANCH   8  11
ENDBRANCH   1   7
BRANCH   4  19
HETATM   19  C   UNL     1     -40.150 -49.782  11.209  1.00  0.00     0.250 C 
BRANCH  19  20
HETATM   20  C   UNL     1     -41.085 -48.613  11.089  1.00  0.00     0.235 C 
HETATM   21  O   UNL     1     -41.407 -47.909  12.045  1.00  0.00    -0.272 OA
HETATM   22  N   UNL     1     -41.589 -48.359   9.842  1.00  0.00    -0.369 N 
HETATM   23  H   UNL     1     -41.139 -48.735   9.015  1.00  0.00     0.159 HD
HETATM   24  H   UNL     1     -42.149 -47.524   9.736  1.00  0.00     0.159 HD
ENDBRANCH  19  20
ENDBRANCH   4  19
TORSDOF 4
ENDMDL
MODEL 6
REMARK VINA RESULT:      -5.7      3.363      4.612
REMARK  4 active torsions:
REMARK  status: ('A' for Active; 'I' for Inactive)
REMARK    1  A    between atoms: C_5  and  C_9 
REMARK       I    between atoms: C_9  and  N_11 
REMARK    2  A    between atoms: N_11  and  C_12 
REMARK    3  A    between atoms: N_15  and  C_16 
REMARK    4  A    between atoms: C_16  and  C_17 
REMARK       I    between atoms: C_17  and  N_19 
ROOT
HETATM    1  C   UNL     1     -41.266 -48.626  10.906  1.00  0.00     0.123 A 
HETATM    2  C   UNL     1     -40.651 -47.385  11.198  1.00  0.00     0.068 A 
HETATM    3  C   UNL     1     -41.404 -46.439  10.537  1.00  0.00     0.114 A 
HETATM    4  N   UNL     1     -42.393 -47.131   9.906  1.00  0.00    -0.293 N 
HETATM    5  N   UNL     1     -42.313 -48.452  10.102  1.00  0.00    -0.283 N 
ATOM      6  HN  UNL     1     -42.925 -49.173   9.719  1.00  0.00     0.189 HD
ENDROOT
BRANCH   1   7
HETATM    7  N   UNL     1     -40.853 -49.851  11.387  1.00  0.00    -0.312 N 
HETATM    8  C   UNL     1     -41.046 -50.257  12.693  1.00  0.00     0.228 C 
HETATM    9  O   UNL     1     -41.653 -49.637  13.564  1.00  0.00    -0.273 OA
HETATM   10  H   UNL     1     -40.392 -50.456  10.725  1.00  0.00     0.170 HD
BRANCH   8  11
HETATM   11  C   UNL     1     -40.492 -51.651  13.002  1.00  0.00     0.088 C 
HETATM   12  C   UNL     1     -41.088 -52.706  12.065  1.00  0.00     0.034 C 
HETATM   13  C   UNL     1     -42.536 -52.995  12.433  1.00  0.00     0.126 C 
HETATM   14  N   UNL     1     -42.656 -53.396  13.826  1.00  0.00    -0.356 N 
HETATM   15  C   UNL     1     -43.850 -54.123  14.210  1.00  0.00     0.152 C 
HETATM   16  C   UNL     1     -42.045 -52.623  14.805  1.00  0.00     0.220 C 
HETATM   17  C   UNL     1     -40.676 -52.072  14.454  1.00  0.00     0.117 C 
HETATM   18  O   UNL     1     -42.483 -52.509  15.949  1.00  0.00    -0.273 OA
ENDBRANCH   8  11
ENDBRANCH   1   7
BRANCH   4  19
HETATM   19  C   UNL     1     -43.498 -46.616   9.127  1.00  0.00     0.250 C 
BRANCH  19  20
HETATM   20  C   UNL     1     -44.016 -47.647   8.166  1.00  0.00     0.235 C 
HETATM   21  O   UNL     1     -43.324 -48.151   7.283  1.00  0.00    -0.272 OA
HETATM   22  N   UNL     1     -45.328 -48.009   8.308  1.00  0.00    -0.369 N 
HETATM   23  H   UNL     1     -45.826 -47.826   9.172  1.00  0.00     0.159 HD
HETATM   24  H   UNL     1     -45.660 -48.765   7.724  1.00  0.00     0.159 HD
ENDBRANCH  19  20
ENDBRANCH   4  19
TORSDOF 4
ENDMDL
MODEL 7
REMARK VINA RESULT:      -5.6      2.101      7.017
REMARK  4 active torsions:
REMARK  status: ('A' for Active; 'I' for Inactive)
REMARK    1  A    between atoms: C_5  and  C_9 
REMARK       I    between atoms: C_9  and  N_11 
REMARK    2  A    between atoms: N_11  and  C_12 
REMARK    3  A    between atoms: N_15  and  C_16 
REMARK    4  A    between atoms: C_16  and  C_17 
REMARK       I    between atoms: C_17  and  N_19 
ROOT
HETATM    1  C   UNL     1     -42.375 -51.392  12.536  1.00  0.00     0.123 A 
HETATM    2  C   UNL     1     -43.320 -50.863  13.448  1.00  0.00     0.068 A 
HETATM    3  C   UNL     1     -44.293 -51.832  13.570  1.00  0.00     0.114 A 
HETATM    4  N   UNL     1     -43.898 -52.852  12.758  1.00  0.00    -0.293 N 
HETATM    5  N   UNL     1     -42.755 -52.595  12.113  1.00  0.00    -0.283 N 
ATOM      6  HN  UNL     1     -42.275 -53.194  11.441  1.00  0.00     0.189 HD
ENDROOT
BRANCH   1   7
HETATM    7  N   UNL     1     -41.214 -50.761  12.140  1.00  0.00    -0.312 N 
HETATM    8  C   UNL     1     -39.954 -51.289  12.348  1.00  0.00     0.228 C 
HETATM    9  O   UNL     1     -39.701 -52.389  12.836  1.00  0.00    -0.273 OA
HETATM   10  H   UNL     1     -41.326 -49.873  11.676  1.00  0.00     0.170 HD
BRANCH   8  11
HETATM   11  C   UNL     1     -38.814 -50.406  11.835  1.00  0.00     0.088 C 
HETATM   12  C   UNL     1     -37.498 -50.726  12.550  1.00  0.00     0.034 C 
HETATM   13  C   UNL     1     -37.517 -50.197  13.976  1.00  0.00     0.126 C 
HETATM   14  N   UNL     1     -37.801 -48.771  14.005  1.00  0.00    -0.356 N 
HETATM   15  C   UNL     1     -37.420 -48.038  15.196  1.00  0.00     0.152 C 
HETATM   16  C   UNL     1     -38.885 -48.284  13.284  1.00  0.00     0.220 C 
HETATM   17  C   UNL     1     -39.111 -48.914  11.924  1.00  0.00     0.117 C 
HETATM   18  O   UNL     1     -39.537 -47.298  13.626  1.00  0.00    -0.273 OA
ENDBRANCH   8  11
ENDBRANCH   1   7
BRANCH   4  19
HETATM   19  C   UNL     1     -44.524 -54.143  12.565  1.00  0.00     0.250 C 
BRANCH  19  20
HETATM   20  C   UNL     1     -44.952 -54.742  13.874  1.00  0.00     0.235 C 
HETATM   21  O   UNL     1     -44.162 -55.224  14.683  1.00  0.00    -0.272 OA
HETATM   22  N   UNL     1     -46.296 -54.742  14.134  1.00  0.00    -0.369 N 
HETATM   23  H   UNL     1     -46.921 -54.122  13.632  1.00  0.00     0.159 HD
HETATM   24  H   UNL     1     -46.584 -55.064  15.049  1.00  0.00     0.159 HD
ENDBRANCH  19  20
ENDBRANCH   4  19
TORSDOF 4
ENDMDL
MODEL 8
REMARK VINA RESULT:      -5.5      3.572      5.849
REMARK  4 active torsions:
REMARK  status: ('A' for Active; 'I' for Inactive)
REMARK    1  A    between atoms: C_5  and  C_9 
REMARK       I    between atoms: C_9  and  N_11 
REMARK    2  A    between atoms: N_11  and  C_12 
REMARK    3  A    between atoms: N_15  and  C_16 
REMARK    4  A    between atoms: C_16  and  C_17 
REMARK       I    between atoms: C_17  and  N_19 
ROOT
HETATM    1  C   UNL     1     -41.747 -48.492  10.892  1.00  0.00     0.123 A 
HETATM    2  C   UNL     1     -40.999 -47.296  11.018  1.00  0.00     0.068 A 
HETATM    3  C   UNL     1     -41.658 -46.369  10.239  1.00  0.00     0.114 A 
HETATM    4  N   UNL     1     -42.724 -47.029   9.705  1.00  0.00    -0.293 N 
HETATM    5  N   UNL     1     -42.781 -48.314  10.074  1.00  0.00    -0.283 N 
ATOM      6  HN  UNL     1     -43.471 -49.009   9.789  1.00  0.00     0.189 HD
ENDROOT
BRANCH   1   7
HETATM    7  N   UNL     1     -41.457 -49.681  11.529  1.00  0.00    -0.312 N 
HETATM    8  C   UNL     1     -42.272 -50.242  12.494  1.00  0.00     0.228 C 
HETATM    9  O   UNL     1     -43.365 -49.814  12.859  1.00  0.00    -0.273 OA
HETATM   10  H   UNL     1     -40.602 -50.138  11.252  1.00  0.00     0.170 HD
BRANCH   8  11
HETATM   11  C   UNL     1     -41.741 -51.557  13.071  1.00  0.00     0.088 C 
HETATM   12  C   UNL     1     -41.630 -51.490  14.597  1.00  0.00     0.034 C 
HETATM   13  C   UNL     1     -40.456 -50.616  15.013  1.00  0.00     0.126 C 
HETATM   14  N   UNL     1     -39.215 -51.079  14.412  1.00  0.00    -0.356 N 
HETATM   15  C   UNL     1     -37.975 -50.663  15.037  1.00  0.00     0.152 C 
HETATM   16  C   UNL     1     -39.181 -51.333  13.047  1.00  0.00     0.220 C 
HETATM   17  C   UNL     1     -40.414 -51.997  12.466  1.00  0.00     0.117 C 
HETATM   18  O   UNL     1     -38.171 -51.192  12.358  1.00  0.00    -0.273 OA
ENDBRANCH   8  11
ENDBRANCH   1   7
BRANCH   4  19
HETATM   19  C   UNL     1     -43.780 -46.505   8.866  1.00  0.00     0.250 C 
BRANCH  19  20
HETATM   20  C   UNL     1     -44.906 -47.489   8.729  1.00  0.00     0.235 C 
HETATM   21  O   UNL     1     -45.720 -47.708   9.624  1.00  0.00    -0.272 OA
HETATM   22  N   UNL     1     -44.988 -48.161   7.539  1.00  0.00    -0.369 N 
HETATM   23  H   UNL     1     -44.519 -47.809   6.712  1.00  0.00     0.159 HD
HETATM   24  H   UNL     1     -45.793 -48.759   7.406  1.00  0.00     0.159 HD
ENDBRANCH  19  20
ENDBRANCH   4  19
TORSDOF 4
ENDMDL
MODEL 9
REMARK VINA RESULT:      -5.4      3.072      3.779
REMARK  4 active torsions:
REMARK  status: ('A' for Active; 'I' for Inactive)
REMARK    1  A    between atoms: C_5  and  C_9 
REMARK       I    between atoms: C_9  and  N_11 
REMARK    2  A    between atoms: N_11  and  C_12 
REMARK    3  A    between atoms: N_15  and  C_16 
REMARK    4  A    between atoms: C_16  and  C_17 
REMARK       I    between atoms: C_17  and  N_19 
ROOT
HETATM    1  C   UNL     1     -42.281 -50.633  12.381  1.00  0.00     0.123 A 
HETATM    2  C   UNL     1     -43.211 -49.786  13.032  1.00  0.00     0.068 A 
HETATM    3  C   UNL     1     -43.084 -48.560  12.414  1.00  0.00     0.114 A 
HETATM    4  N   UNL     1     -42.124 -48.727  11.462  1.00  0.00    -0.293 N 
HETATM    5  N   UNL     1     -41.616 -49.964  11.441  1.00  0.00    -0.283 N 
ATOM      6  HN  UNL     1     -40.877 -50.320  10.835  1.00  0.00     0.189 HD
ENDROOT
BRANCH   1   7
HETATM    7  N   UNL     1     -42.088 -51.969  12.666  1.00  0.00    -0.312 N 
HETATM    8  C   UNL     1     -40.839 -52.553  12.750  1.00  0.00     0.228 C 
HETATM    9  O   UNL     1     -39.759 -51.974  12.655  1.00  0.00    -0.273 OA
HETATM   10  H   UNL     1     -42.922 -52.516  12.816  1.00  0.00     0.170 HD
BRANCH   8  11
HETATM   11  C   UNL     1     -40.872 -54.051  13.065  1.00  0.00     0.088 C 
HETATM   12  C   UNL     1     -42.149 -54.433  13.820  1.00  0.00     0.034 C 
HETATM   13  C   UNL     1     -42.090 -53.941  15.259  1.00  0.00     0.126 C 
HETATM   14  N   UNL     1     -40.905 -54.439  15.938  1.00  0.00    -0.356 N 
HETATM   15  C   UNL     1     -40.921 -54.448  17.388  1.00  0.00     0.152 C 
HETATM   16  C   UNL     1     -39.667 -54.304  15.322  1.00  0.00     0.220 C 
HETATM   17  C   UNL     1     -39.645 -54.542  13.824  1.00  0.00     0.117 C 
HETATM   18  O   UNL     1     -38.613 -54.165  15.941  1.00  0.00    -0.273 OA
ENDBRANCH   8  11
ENDBRANCH   1   7
BRANCH   4  19
HETATM   19  C   UNL     1     -41.651 -47.772  10.482  1.00  0.00     0.250 C 
BRANCH  19  20
HETATM   20  C   UNL     1     -40.406 -47.078  10.953  1.00  0.00     0.235 C 
HETATM   21  O   UNL     1     -39.760 -47.448  11.933  1.00  0.00    -0.272 OA
HETATM   22  N   UNL     1     -40.011 -45.979  10.239  1.00  0.00    -0.369 N 
HETATM   23  H   UNL     1     -40.351 -45.825   9.297  1.00  0.00     0.159 HD
HETATM   24  H   UNL     1     -39.127 -45.560  10.496  1.00  0.00     0.159 HD
ENDBRANCH  19  20
ENDBRANCH   4  19
TORSDOF 4
ENDMDL
