MODEL 1
REMARK VINA RESULT:      -5.9      0.000      0.000
REMARK  3 active torsions:
REMARK  status: ('A' for Active; 'I' for Inactive)
REMARK    1  A    between atoms: O_2  and  C_3 
REMARK    2  A    between atoms: C_7  and  N_8 
REMARK       I    between atoms: N_8  and  C_9 
REMARK       I    between atoms: C_9  and  N_11 
REMARK    3  A    between atoms: N_11  and  C_12 
ROOT
HETATM    1  N   UNL     1     -41.892 -45.937  10.775  1.00  0.00    -0.336 N 
HETATM    2  C   UNL     1     -42.645 -46.886  10.124  1.00  0.00     0.322 C 
HETATM    3  O   UNL     1     -42.203 -47.986   9.815  1.00  0.00    -0.247 OA
HETATM    4  N   UNL     1     -43.898 -46.418   9.801  1.00  0.00    -0.295 N 
HETATM    5  H   UNL     1     -42.402 -45.377  11.446  1.00  0.00     0.164 HD
HETATM    6  H   UNL     1     -43.917 -45.447   9.531  1.00  0.00     0.172 HD
ENDROOT
BRANCH   1   7
HETATM    7  C   UNL     1     -40.480 -46.197  11.062  1.00  0.00     0.115 C 
HETATM    8  C   UNL     1     -40.163 -46.361  12.560  1.00  0.00     0.143 C 
HETATM    9  C   UNL     1     -40.087 -44.922  13.072  1.00  0.00     0.034 C 
HETATM   10  C   UNL     1     -39.660 -44.068  11.878  1.00  0.00     0.005 C 
HETATM   11  C   UNL     1     -39.626 -44.998  10.670  1.00  0.00     0.028 C 
BRANCH   8  12
HETATM   12  O   UNL     1     -41.143 -47.090  13.291  1.00  0.00    -0.389 OA
HETATM   13  C   UNL     1     -41.001 -48.499  13.141  1.00  0.00     0.202 C 
ENDBRANCH   8  12
ENDBRANCH   1   7
BRANCH   4  14
HETATM   14  C   UNL     1     -44.762 -47.206   9.029  1.00  0.00     0.108 A 
HETATM   15  C   UNL     1     -46.057 -47.495   9.459  1.00  0.00     0.052 A 
HETATM   16  C   UNL     1     -46.828 -48.388   8.724  1.00  0.00     0.047 A 
HETATM   17  C   UNL     1     -46.278 -48.962   7.591  1.00  0.00     0.131 A 
HETATM   18  F   UNL     1     -46.968 -49.867   6.888  1.00  0.00    -0.205 F 
HETATM   19  C   UNL     1     -45.002 -48.586   7.206  1.00  0.00     0.132 A 
HETATM   20  N   UNL     1     -44.239 -47.691   7.882  1.00  0.00    -0.349 N 
ATOM     21  HN  UNL     1     -43.322 -47.400   7.543  1.00  0.00     0.167 HD
ENDBRANCH   4  14
TORSDOF 3
ENDMDL
MODEL 2
REMARK VINA RESULT:      -5.4      4.510      6.703
REMARK  3 active torsions:
REMARK  status: ('A' for Active; 'I' for Inactive)
REMARK    1  A    between atoms: O_2  and  C_3 
REMARK    2  A    between atoms: C_7  and  N_8 
REMARK       I    between atoms: N_8  and  C_9 
REMARK       I    between atoms: C_9  and  N_11 
REMARK    3  A    between atoms: N_11  and  C_12 
ROOT
HETATM    1  N   UNL     1     -42.655 -51.120  12.187  1.00  0.00    -0.336 N 
HETATM    2  C   UNL     1     -42.155 -49.841  12.276  1.00  0.00     0.322 C 
HETATM    3  O   UNL     1     -42.025 -49.253  13.342  1.00  0.00    -0.247 OA
HETATM    4  N   UNL     1     -41.909 -49.296  11.037  1.00  0.00    -0.295 N 
HETATM    5  H   UNL     1     -42.232 -51.692  11.467  1.00  0.00     0.164 HD
HETATM    6  H   UNL     1     -42.581 -49.557  10.331  1.00  0.00     0.172 HD
ENDROOT
BRANCH   1   7
HETATM    7  C   UNL     1     -43.123 -51.805  13.393  1.00  0.00     0.115 C 
HETATM    8  C   UNL     1     -42.914 -53.330  13.370  1.00  0.00     0.143 C 
HETATM    9  C   UNL     1     -44.083 -53.842  12.526  1.00  0.00     0.034 C 
HETATM   10  C   UNL     1     -45.210 -52.824  12.699  1.00  0.00     0.005 C 
HETATM   11  C   UNL     1     -44.636 -51.679  13.526  1.00  0.00     0.028 C 
BRANCH   8  12
HETATM   12  O   UNL     1     -41.678 -53.745  12.798  1.00  0.00    -0.389 OA
HETATM   13  C   UNL     1     -40.628 -53.815  13.757  1.00  0.00     0.202 C 
ENDBRANCH   8  12
ENDBRANCH   1   7
BRANCH   4  14
HETATM   14  C   UNL     1     -41.509 -47.958  10.927  1.00  0.00     0.108 A 
HETATM   15  C   UNL     1     -42.382 -46.978  10.456  1.00  0.00     0.052 A 
HETATM   16  C   UNL     1     -41.899 -45.693  10.239  1.00  0.00     0.047 A 
HETATM   17  C   UNL     1     -40.564 -45.434  10.497  1.00  0.00     0.131 A 
HETATM   18  F   UNL     1     -40.048 -44.225  10.249  1.00  0.00    -0.205 F 
HETATM   19  C   UNL     1     -39.775 -46.451  11.008  1.00  0.00     0.132 A 
HETATM   20  N   UNL     1     -40.226 -47.705  11.264  1.00  0.00    -0.349 N 
ATOM     21  HN  UNL     1     -39.630 -48.416  11.687  1.00  0.00     0.167 HD
ENDBRANCH   4  14
TORSDOF 3
ENDMDL
MODEL 3
REMARK VINA RESULT:      -5.4      5.480      6.647
REMARK  3 active torsions:
REMARK  status: ('A' for Active; 'I' for Inactive)
REMARK    1  A    between atoms: O_2  and  C_3 
REMARK    2  A    between atoms: C_7  and  N_8 
REMARK       I    between atoms: N_8  and  C_9 
REMARK       I    between atoms: C_9  and  N_11 
REMARK    3  A    between atoms: N_11  and  C_12 
ROOT
HETATM    1  N   UNL     1     -40.055 -51.433  12.308  1.00  0.00    -0.336 N 
HETATM    2  C   UNL     1     -41.224 -51.771  12.949  1.00  0.00     0.322 C 
HETATM    3  O   UNL     1     -41.576 -51.253  14.002  1.00  0.00    -0.247 OA
HETATM    4  N   UNL     1     -41.882 -52.800  12.315  1.00  0.00    -0.295 N 
HETATM    5  H   UNL     1     -40.108 -51.442  11.297  1.00  0.00     0.164 HD
HETATM    6  H   UNL     1     -41.271 -53.498  11.920  1.00  0.00     0.172 HD
ENDROOT
BRANCH   1   7
HETATM    7  C   UNL     1     -39.141 -50.467  12.919  1.00  0.00     0.115 C 
HETATM    8  C   UNL     1     -38.871 -49.223  12.052  1.00  0.00     0.143 C 
HETATM    9  C   UNL     1     -37.822 -49.704  11.048  1.00  0.00     0.034 C 
HETATM   10  C   UNL     1     -37.054 -50.829  11.741  1.00  0.00     0.005 C 
HETATM   11  C   UNL     1     -37.751 -51.071  13.076  1.00  0.00     0.028 C 
BRANCH   8  12
HETATM   12  O   UNL     1     -40.015 -48.726  11.366  1.00  0.00    -0.389 OA
HETATM   13  C   UNL     1     -40.128 -47.309  11.448  1.00  0.00     0.202 C 
ENDBRANCH   8  12
ENDBRANCH   1   7
BRANCH   4  14
HETATM   14  C   UNL     1     -43.031 -53.358  12.892  1.00  0.00     0.108 A 
HETATM   15  C   UNL     1     -42.944 -54.386  13.830  1.00  0.00     0.052 A 
HETATM   16  C   UNL     1     -44.112 -54.996  14.272  1.00  0.00     0.047 A 
HETATM   17  C   UNL     1     -45.321 -54.560  13.761  1.00  0.00     0.131 A 
HETATM   18  F   UNL     1     -46.463 -55.158  14.119  1.00  0.00    -0.205 F 
HETATM   19  C   UNL     1     -45.325 -53.501  12.868  1.00  0.00     0.132 A 
HETATM   20  N   UNL     1     -44.205 -52.862  12.445  1.00  0.00    -0.349 N 
ATOM     21  HN  UNL     1     -44.247 -52.054  11.825  1.00  0.00     0.167 HD
ENDBRANCH   4  14
TORSDOF 3
ENDMDL
MODEL 4
REMARK VINA RESULT:      -5.3      4.506      6.732
REMARK  3 active torsions:
REMARK  status: ('A' for Active; 'I' for Inactive)
REMARK    1  A    between atoms: O_2  and  C_3 
REMARK    2  A    between atoms: C_7  and  N_8 
REMARK       I    between atoms: N_8  and  C_9 
REMARK       I    between atoms: C_9  and  N_11 
REMARK    3  A    between atoms: N_11  and  C_12 
ROOT
HETATM    1  N   UNL     1     -43.371 -50.810  12.558  1.00  0.00    -0.336 N 
HETATM    2  C   UNL     1     -42.868 -49.532  12.491  1.00  0.00     0.322 C 
HETATM    3  O   UNL     1     -43.109 -48.679  13.336  1.00  0.00    -0.247 OA
HETATM    4  N   UNL     1     -42.149 -49.320  11.337  1.00  0.00    -0.295 N 
HETATM    5  H   UNL     1     -42.745 -51.531  12.223  1.00  0.00     0.164 HD
HETATM    6  H   UNL     1     -42.526 -49.787  10.526  1.00  0.00     0.172 HD
ENDROOT
BRANCH   1   7
HETATM    7  C   UNL     1     -44.291 -51.176  13.636  1.00  0.00     0.115 C 
HETATM    8  C   UNL     1     -44.058 -52.586  14.209  1.00  0.00     0.143 C 
HETATM    9  C   UNL     1     -44.747 -53.505  13.199  1.00  0.00     0.034 C 
HETATM   10  C   UNL     1     -45.863 -52.677  12.563  1.00  0.00     0.005 C 
HETATM   11  C   UNL     1     -45.720 -51.262  13.114  1.00  0.00     0.028 C 
BRANCH   8  12
HETATM   12  O   UNL     1     -42.687 -52.946  14.344  1.00  0.00    -0.389 OA
HETATM   13  C   UNL     1     -42.367 -54.150  13.655  1.00  0.00     0.202 C 
ENDBRANCH   8  12
ENDBRANCH   1   7
BRANCH   4  14
HETATM   14  C   UNL     1     -41.662 -48.040  11.040  1.00  0.00     0.108 A 
HETATM   15  C   UNL     1     -40.340 -47.688  11.308  1.00  0.00     0.052 A 
HETATM   16  C   UNL     1     -39.941 -46.370  11.120  1.00  0.00     0.047 A 
HETATM   17  C   UNL     1     -40.877 -45.453  10.674  1.00  0.00     0.131 A 
HETATM   18  F   UNL     1     -40.547 -44.164  10.533  1.00  0.00    -0.205 F 
HETATM   19  C   UNL     1     -42.157 -45.893  10.386  1.00  0.00     0.132 A 
HETATM   20  N   UNL     1     -42.566 -47.179  10.525  1.00  0.00    -0.349 N 
ATOM     21  HN  UNL     1     -43.503 -47.479  10.256  1.00  0.00     0.167 HD
ENDBRANCH   4  14
TORSDOF 3
ENDMDL
MODEL 5
REMARK VINA RESULT:      -5.1      5.313      6.308
REMARK  3 active torsions:
REMARK  status: ('A' for Active; 'I' for Inactive)
REMARK    1  A    between atoms: O_2  and  C_3 
REMARK    2  A    between atoms: C_7  and  N_8 
REMARK       I    between atoms: N_8  and  C_9 
REMARK       I    between atoms: C_9  and  N_11 
REMARK    3  A    between atoms: N_11  and  C_12 
ROOT
HETATM    1  N   UNL     1     -41.023 -50.346  12.795  1.00  0.00    -0.336 N 
HETATM    2  C   UNL     1     -41.761 -51.504  12.728  1.00  0.00     0.322 C 
HETATM    3  O   UNL     1     -41.822 -52.195  11.718  1.00  0.00    -0.247 OA
HETATM    4  N   UNL     1     -42.469 -51.732  13.886  1.00  0.00    -0.295 N 
HETATM    5  H   UNL     1     -40.582 -50.173  13.689  1.00  0.00     0.164 HD
HETATM    6  H   UNL     1     -42.830 -50.895  14.319  1.00  0.00     0.172 HD
ENDROOT
BRANCH   1   7
HETATM    7  C   UNL     1     -40.326 -49.856  11.604  1.00  0.00     0.115 C 
HETATM    8  C   UNL     1     -39.001 -49.131  11.905  1.00  0.00     0.143 C 
HETATM    9  C   UNL     1     -39.444 -47.728  12.323  1.00  0.00     0.034 C 
HETATM   10  C   UNL     1     -40.775 -47.474  11.616  1.00  0.00     0.005 C 
HETATM   11  C   UNL     1     -41.147 -48.775  10.911  1.00  0.00     0.028 C 
BRANCH   8  12
HETATM   12  O   UNL     1     -38.227 -49.729  12.939  1.00  0.00    -0.389 OA
HETATM   13  C   UNL     1     -37.459 -50.836  12.477  1.00  0.00     0.202 C 
ENDBRANCH   8  12
ENDBRANCH   1   7
BRANCH   4  14
HETATM   14  C   UNL     1     -43.370 -52.803  13.957  1.00  0.00     0.108 A 
HETATM   15  C   UNL     1     -43.051 -53.974  14.643  1.00  0.00     0.052 A 
HETATM   16  C   UNL     1     -43.921 -55.055  14.572  1.00  0.00     0.047 A 
HETATM   17  C   UNL     1     -45.074 -54.930  13.818  1.00  0.00     0.131 A 
HETATM   18  F   UNL     1     -45.909 -55.965  13.680  1.00  0.00    -0.205 F 
HETATM   19  C   UNL     1     -45.341 -53.716  13.205  1.00  0.00     0.132 A 
HETATM   20  N   UNL     1     -44.530 -52.632  13.286  1.00  0.00    -0.349 N 
ATOM     21  HN  UNL     1     -44.781 -51.739  12.863  1.00  0.00     0.167 HD
ENDBRANCH   4  14
TORSDOF 3
ENDMDL
MODEL 6
REMARK VINA RESULT:      -5.0      5.239      7.574
REMARK  3 active torsions:
REMARK  status: ('A' for Active; 'I' for Inactive)
REMARK    1  A    between atoms: O_2  and  C_3 
REMARK    2  A    between atoms: C_7  and  N_8 
REMARK       I    between atoms: N_8  and  C_9 
REMARK       I    between atoms: C_9  and  N_11 
REMARK    3  A    between atoms: N_11  and  C_12 
ROOT
HETATM    1  N   UNL     1     -42.665 -52.355  13.612  1.00  0.00    -0.336 N 
HETATM    2  C   UNL     1     -42.141 -51.477  12.692  1.00  0.00     0.322 C 
HETATM    3  O   UNL     1     -41.659 -51.842  11.627  1.00  0.00    -0.247 OA
HETATM    4  N   UNL     1     -42.154 -50.180  13.151  1.00  0.00    -0.295 N 
HETATM    5  H   UNL     1     -43.475 -52.013  14.113  1.00  0.00     0.164 HD
HETATM    6  H   UNL     1     -41.966 -50.091  14.138  1.00  0.00     0.172 HD
ENDROOT
BRANCH   1   7
HETATM    7  C   UNL     1     -42.594 -53.796  13.367  1.00  0.00     0.115 C 
HETATM    8  C   UNL     1     -43.961 -54.460  13.121  1.00  0.00     0.143 C 
HETATM    9  C   UNL     1     -44.531 -54.645  14.529  1.00  0.00     0.034 C 
HETATM   10  C   UNL     1     -43.326 -54.771  15.462  1.00  0.00     0.005 C 
HETATM   11  C   UNL     1     -42.088 -54.525  14.606  1.00  0.00     0.028 C 
BRANCH   8  12
HETATM   12  O   UNL     1     -44.855 -53.687  12.329  1.00  0.00    -0.389 OA
HETATM   13  C   UNL     1     -45.906 -53.108  13.096  1.00  0.00     0.202 C 
ENDBRANCH   8  12
ENDBRANCH   1   7
BRANCH   4  14
HETATM   14  C   UNL     1     -41.551 -49.164  12.397  1.00  0.00     0.108 A 
HETATM   15  C   UNL     1     -40.513 -48.394  12.918  1.00  0.00     0.052 A 
HETATM   16  C   UNL     1     -40.039 -47.314  12.184  1.00  0.00     0.047 A 
HETATM   17  C   UNL     1     -40.621 -47.040  10.958  1.00  0.00     0.131 A 
HETATM   18  F   UNL     1     -40.231 -45.977  10.246  1.00  0.00    -0.205 F 
HETATM   19  C   UNL     1     -41.616 -47.882  10.490  1.00  0.00     0.132 A 
HETATM   20  N   UNL     1     -42.074 -48.964  11.168  1.00  0.00    -0.349 N 
ATOM     21  HN  UNL     1     -42.774 -49.591  10.771  1.00  0.00     0.167 HD
ENDBRANCH   4  14
TORSDOF 3
ENDMDL
MODEL 7
REMARK VINA RESULT:      -5.0      6.181      8.805
REMARK  3 active torsions:
REMARK  status: ('A' for Active; 'I' for Inactive)
REMARK    1  A    between atoms: O_2  and  C_3 
REMARK    2  A    between atoms: C_7  and  N_8 
REMARK       I    between atoms: N_8  and  C_9 
REMARK       I    between atoms: C_9  and  N_11 
REMARK    3  A    between atoms: N_11  and  C_12 
ROOT
HETATM    1  N   UNL     1     -42.993 -52.902  14.048  1.00  0.00    -0.336 N 
HETATM    2  C   UNL     1     -41.893 -52.674  13.254  1.00  0.00     0.322 C 
HETATM    3  O   UNL     1     -41.468 -53.501  12.457  1.00  0.00    -0.247 OA
HETATM    4  N   UNL     1     -41.302 -51.463  13.528  1.00  0.00    -0.295 N 
HETATM    5  H   UNL     1     -43.575 -52.091  14.211  1.00  0.00     0.164 HD
HETATM    6  H   UNL     1     -41.315 -51.210  14.504  1.00  0.00     0.172 HD
ENDROOT
BRANCH   1   7
HETATM    7  C   UNL     1     -43.662 -54.204  14.010  1.00  0.00     0.115 C 
HETATM    8  C   UNL     1     -45.075 -54.167  13.398  1.00  0.00     0.143 C 
HETATM    9  C   UNL     1     -45.951 -53.658  14.544  1.00  0.00     0.034 C 
HETATM   10  C   UNL     1     -45.253 -54.084  15.835  1.00  0.00     0.005 C 
HETATM   11  C   UNL     1     -43.925 -54.711  15.423  1.00  0.00     0.028 C 
BRANCH   8  12
HETATM   12  O   UNL     1     -45.202 -53.312  12.267  1.00  0.00    -0.389 OA
HETATM   13  C   UNL     1     -46.234 -52.344  12.426  1.00  0.00     0.202 C 
ENDBRANCH   8  12
ENDBRANCH   1   7
BRANCH   4  14
HETATM   14  C   UNL     1     -40.099 -51.113  12.900  1.00  0.00     0.108 A 
HETATM   15  C   UNL     1     -38.871 -51.284  13.540  1.00  0.00     0.052 A 
HETATM   16  C   UNL     1     -37.720 -50.799  12.931  1.00  0.00     0.047 A 
HETATM   17  C   UNL     1     -37.836 -50.159  11.709  1.00  0.00     0.131 A 
HETATM   18  F   UNL     1     -36.760 -49.630  11.116  1.00  0.00    -0.205 F 
HETATM   19  C   UNL     1     -39.086 -50.072  11.119  1.00  0.00     0.132 A 
HETATM   20  N   UNL     1     -40.222 -50.567  11.671  1.00  0.00    -0.349 N 
ATOM     21  HN  UNL     1     -41.118 -50.529  11.186  1.00  0.00     0.167 HD
ENDBRANCH   4  14
TORSDOF 3
ENDMDL
MODEL 8
REMARK VINA RESULT:      -5.0      5.020      7.186
REMARK  3 active torsions:
REMARK  status: ('A' for Active; 'I' for Inactive)
REMARK    1  A    between atoms: O_2  and  C_3 
REMARK    2  A    between atoms: C_7  and  N_8 
REMARK       I    between atoms: N_8  and  C_9 
REMARK       I    between atoms: C_9  and  N_11 
REMARK    3  A    between atoms: N_11  and  C_12 
ROOT
HETATM    1  N   UNL     1     -43.154 -51.945  13.068  1.00  0.00    -0.336 N 
HETATM    2  C   UNL     1     -42.847 -50.625  12.832  1.00  0.00     0.322 C 
HETATM    3  O   UNL     1     -43.441 -49.700  13.371  1.00  0.00    -0.247 OA
HETATM    4  N   UNL     1     -41.869 -50.487  11.874  1.00  0.00    -0.295 N 
HETATM    5  H   UNL     1     -42.360 -52.572  13.074  1.00  0.00     0.164 HD
HETATM    6  H   UNL     1     -41.927 -51.162  11.126  1.00  0.00     0.172 HD
ENDROOT
BRANCH   1   7
HETATM    7  C   UNL     1     -44.279 -52.287  13.941  1.00  0.00     0.115 C 
HETATM    8  C   UNL     1     -43.908 -53.227  15.103  1.00  0.00     0.143 C 
HETATM    9  C   UNL     1     -43.887 -54.612  14.453  1.00  0.00     0.034 C 
HETATM   10  C   UNL     1     -44.857 -54.543  13.274  1.00  0.00     0.005 C 
HETATM   11  C   UNL     1     -45.322 -53.094  13.179  1.00  0.00     0.028 C 
BRANCH   8  12
HETATM   12  O   UNL     1     -42.649 -52.949  15.706  1.00  0.00    -0.389 OA
HETATM   13  C   UNL     1     -42.529 -53.514  17.007  1.00  0.00     0.202 C 
ENDBRANCH   8  12
ENDBRANCH   1   7
BRANCH   4  14
HETATM   14  C   UNL     1     -41.511 -49.211  11.417  1.00  0.00     0.108 A 
HETATM   15  C   UNL     1     -40.325 -48.602  11.826  1.00  0.00     0.052 A 
HETATM   16  C   UNL     1     -40.080 -47.286  11.452  1.00  0.00     0.047 A 
HETATM   17  C   UNL     1     -41.027 -46.626  10.689  1.00  0.00     0.131 A 
HETATM   18  F   UNL     1     -40.853 -45.342  10.355  1.00  0.00    -0.205 F 
HETATM   19  C   UNL     1     -42.157 -47.318  10.285  1.00  0.00     0.132 A 
HETATM   20  N   UNL     1     -42.407 -48.613  10.603  1.00  0.00    -0.349 N 
ATOM     21  HN  UNL     1     -43.226 -49.106  10.248  1.00  0.00     0.167 HD
ENDBRANCH   4  14
TORSDOF 3
ENDMDL
MODEL 9
REMARK VINA RESULT:      -4.9      6.236      7.014
REMARK  3 active torsions:
REMARK  status: ('A' for Active; 'I' for Inactive)
REMARK    1  A    between atoms: O_2  and  C_3 
REMARK    2  A    between atoms: C_7  and  N_8 
REMARK       I    between atoms: N_8  and  C_9 
REMARK       I    between atoms: C_9  and  N_11 
REMARK    3  A    between atoms: N_11  and  C_12 
ROOT
HETATM    1  N   UNL     1     -39.678 -51.133  13.830  1.00  0.00    -0.336 N 
HETATM    2  C   UNL     1     -40.455 -52.262  13.721  1.00  0.00     0.322 C 
HETATM    3  O   UNL     1     -40.005 -53.346  13.370  1.00  0.00    -0.247 OA
HETATM    4  N   UNL     1     -41.783 -52.000  13.969  1.00  0.00    -0.295 N 
HETATM    5  H   UNL     1     -39.929 -50.516  14.592  1.00  0.00     0.164 HD
HETATM    6  H   UNL     1     -42.096 -51.104  13.629  1.00  0.00     0.172 HD
ENDROOT
BRANCH   1   7
HETATM    7  C   UNL     1     -38.265 -51.181  13.451  1.00  0.00     0.115 C 
HETATM    8  C   UNL     1     -37.346 -50.323  14.340  1.00  0.00     0.143 C 
HETATM    9  C   UNL     1     -37.530 -48.908  13.789  1.00  0.00     0.034 C 
HETATM   10  C   UNL     1     -37.903 -49.071  12.316  1.00  0.00     0.005 C 
HETATM   11  C   UNL     1     -38.059 -50.568  12.071  1.00  0.00     0.028 C 
BRANCH   8  12
HETATM   12  O   UNL     1     -37.672 -50.355  15.725  1.00  0.00    -0.389 OA
HETATM   13  C   UNL     1     -37.675 -49.060  16.318  1.00  0.00     0.202 C 
ENDBRANCH   8  12
ENDBRANCH   1   7
BRANCH   4  14
HETATM   14  C   UNL     1     -42.741 -53.007  13.788  1.00  0.00     0.108 A 
HETATM   15  C   UNL     1     -43.668 -52.945  12.748  1.00  0.00     0.052 A 
HETATM   16  C   UNL     1     -44.680 -53.896  12.690  1.00  0.00     0.047 A 
HETATM   17  C   UNL     1     -44.732 -54.869  13.672  1.00  0.00     0.131 A 
HETATM   18  F   UNL     1     -45.722 -55.769  13.683  1.00  0.00    -0.205 F 
HETATM   19  C   UNL     1     -43.746 -54.889  14.644  1.00  0.00     0.132 A 
HETATM   20  N   UNL     1     -42.725 -53.997  14.706  1.00  0.00    -0.349 N 
ATOM     21  HN  UNL     1     -41.988 -54.070  15.407  1.00  0.00     0.167 HD
ENDBRANCH   4  14
TORSDOF 3
ENDMDL
