MODEL 1
REMARK VINA RESULT:      -5.6      0.000      0.000
REMARK  6 active torsions:
REMARK  status: ('A' for Active; 'I' for Inactive)
REMARK    1  A    between atoms: C_2  and  C_3 
REMARK    2  A    between atoms: C_3  and  N_4 
REMARK    3  A    between atoms: C_3  and  C_15 
REMARK    4  A    between atoms: C_3  and  C_18 
REMARK       I    between atoms: N_4  and  C_5 
REMARK    5  A    between atoms: C_5  and  C_7 
REMARK    6  A    between atoms: C_7  and  C_8 
REMARK       I    between atoms: C_18  and  N_20 
ROOT
HETATM    1  N   UNL     1     -44.301 -52.777  14.233  1.00  0.00    -0.342 N 
HETATM    2  C   UNL     1     -43.803 -53.614  13.258  1.00  0.00     0.223 C 
HETATM    3  O   UNL     1     -44.455 -54.510  12.726  1.00  0.00    -0.273 OA
HETATM    4  H   UNL     1     -43.649 -52.173  14.721  1.00  0.00     0.163 HD
ENDROOT
BRANCH   1   5
HETATM    5  C   UNL     1     -45.709 -52.780  14.741  1.00  0.00     0.116 C 
BRANCH   5   6
HETATM    6  C   UNL     1     -46.750 -52.507  13.611  1.00  0.00     0.037 C 
HETATM    7  C   UNL     1     -46.350 -51.439  12.592  1.00  0.00     0.008 C 
ENDBRANCH   5   6
BRANCH   5   8
HETATM    8  C   UNL     1     -45.847 -51.784  15.964  1.00  0.00     0.015 C 
HETATM    9  C   UNL     1     -44.921 -50.559  15.919  1.00  0.00     0.012 C 
HETATM   10  C   UNL     1     -47.284 -51.275  16.183  1.00  0.00     0.012 C 
ENDBRANCH   5   8
BRANCH   5  11
HETATM   11  C   UNL     1     -45.997 -54.219  15.291  1.00  0.00     0.244 C 
HETATM   12  O   UNL     1     -45.424 -54.728  16.254  1.00  0.00    -0.271 OA
HETATM   13  N   UNL     1     -46.846 -55.012  14.558  1.00  0.00    -0.368 N 
HETATM   14  H   UNL     1     -46.953 -54.872  13.564  1.00  0.00     0.159 HD
HETATM   15  H   UNL     1     -46.875 -55.977  14.880  1.00  0.00     0.159 HD
ENDBRANCH   5  11
ENDBRANCH   1   5
BRANCH   2  16
HETATM   16  C   UNL     1     -42.344 -53.397  12.886  1.00  0.00     0.142 C 
BRANCH  16  17
HETATM   17  C   UNL     1     -41.352 -54.042  13.821  1.00  0.00    -0.034 A 
HETATM   18  C   UNL     1     -41.773 -54.553  15.053  1.00  0.00     0.010 A 
HETATM   19  C   UNL     1     -40.850 -55.151  15.910  1.00  0.00     0.018 A 
HETATM   20  C   UNL     1     -39.529 -55.228  15.506  1.00  0.00     0.087 A 
HETATM   21  N   UNL     1     -39.084 -54.748  14.330  1.00  0.00    -0.375 N 
HETATM   22  C   UNL     1     -39.997 -54.155  13.529  1.00  0.00     0.095 A 
ATOM     23  HN  UNL     1     -38.105 -54.828  14.056  1.00  0.00     0.164 HD
ENDBRANCH  16  17
ENDBRANCH   2  16
TORSDOF 6
ENDMDL
MODEL 2
REMARK VINA RESULT:      -5.5      1.725      2.317
REMARK  6 active torsions:
REMARK  status: ('A' for Active; 'I' for Inactive)
REMARK    1  A    between atoms: C_2  and  C_3 
REMARK    2  A    between atoms: C_3  and  N_4 
REMARK    3  A    between atoms: C_3  and  C_15 
REMARK    4  A    between atoms: C_3  and  C_18 
REMARK       I    between atoms: N_4  and  C_5 
REMARK    5  A    between atoms: C_5  and  C_7 
REMARK    6  A    between atoms: C_7  and  C_8 
REMARK       I    between atoms: C_18  and  N_20 
ROOT
HETATM    1  N   UNL     1     -44.037 -53.204  14.519  1.00  0.00    -0.342 N 
HETATM    2  C   UNL     1     -43.628 -53.963  13.442  1.00  0.00     0.223 C 
HETATM    3  O   UNL     1     -44.399 -54.483  12.639  1.00  0.00    -0.273 OA
HETATM    4  H   UNL     1     -43.342 -52.947  15.211  1.00  0.00     0.163 HD
ENDROOT
BRANCH   1   5
HETATM    5  C   UNL     1     -45.454 -52.844  14.835  1.00  0.00     0.116 C 
BRANCH   5   6
HETATM    6  C   UNL     1     -46.246 -52.376  13.574  1.00  0.00     0.037 C 
HETATM    7  C   UNL     1     -45.630 -51.204  12.808  1.00  0.00     0.008 C 
ENDBRANCH   5   6
BRANCH   5   8
HETATM    8  C   UNL     1     -45.495 -51.790  16.016  1.00  0.00     0.015 C 
HETATM    9  C   UNL     1     -44.473 -50.648  15.911  1.00  0.00     0.012 C 
HETATM   10  C   UNL     1     -46.883 -51.156  16.228  1.00  0.00     0.012 C 
ENDBRANCH   5   8
BRANCH   5  11
HETATM   11  C   UNL     1     -46.155 -54.143  15.360  1.00  0.00     0.244 C 
HETATM   12  O   UNL     1     -45.980 -54.631  16.476  1.00  0.00    -0.271 OA
HETATM   13  N   UNL     1     -46.905 -54.859  14.458  1.00  0.00    -0.368 N 
HETATM   14  H   UNL     1     -46.705 -54.814  13.470  1.00  0.00     0.159 HD
HETATM   15  H   UNL     1     -47.207 -55.763  14.813  1.00  0.00     0.159 HD
ENDBRANCH   5  11
ENDBRANCH   1   5
BRANCH   2  16
HETATM   16  C   UNL     1     -42.127 -54.168  13.314  1.00  0.00     0.142 C 
BRANCH  16  17
HETATM   17  C   UNL     1     -41.352 -52.933  12.931  1.00  0.00    -0.034 A 
HETATM   18  C   UNL     1     -40.366 -52.426  13.785  1.00  0.00     0.010 A 
HETATM   19  C   UNL     1     -39.652 -51.285  13.422  1.00  0.00     0.018 A 
HETATM   20  C   UNL     1     -39.938 -50.686  12.209  1.00  0.00     0.087 A 
HETATM   21  N   UNL     1     -40.878 -51.141  11.361  1.00  0.00    -0.375 N 
HETATM   22  C   UNL     1     -41.569 -52.236  11.747  1.00  0.00     0.095 A 
ATOM     23  HN  UNL     1     -41.059 -50.682  10.468  1.00  0.00     0.164 HD
ENDBRANCH  16  17
ENDBRANCH   2  16
TORSDOF 6
ENDMDL
MODEL 3
REMARK VINA RESULT:      -5.4      3.875      6.215
REMARK  6 active torsions:
REMARK  status: ('A' for Active; 'I' for Inactive)
REMARK    1  A    between atoms: C_2  and  C_3 
REMARK    2  A    between atoms: C_3  and  N_4 
REMARK    3  A    between atoms: C_3  and  C_15 
REMARK    4  A    between atoms: C_3  and  C_18 
REMARK       I    between atoms: N_4  and  C_5 
REMARK    5  A    between atoms: C_5  and  C_7 
REMARK    6  A    between atoms: C_7  and  C_8 
REMARK       I    between atoms: C_18  and  N_20 
ROOT
HETATM    1  N   UNL     1     -40.411 -51.374  13.417  1.00  0.00    -0.342 N 
HETATM    2  C   UNL     1     -40.644 -52.579  12.787  1.00  0.00     0.223 C 
HETATM    3  O   UNL     1     -40.490 -52.761  11.582  1.00  0.00    -0.273 OA
HETATM    4  H   UNL     1     -40.712 -51.274  14.381  1.00  0.00     0.163 HD
ENDROOT
BRANCH   1   5
HETATM    5  C   UNL     1     -39.878 -50.141  12.757  1.00  0.00     0.116 C 
BRANCH   5   6
HETATM    6  C   UNL     1     -38.476 -50.369  12.111  1.00  0.00     0.037 C 
HETATM    7  C   UNL     1     -37.452 -51.083  12.996  1.00  0.00     0.008 C 
ENDBRANCH   5   6
BRANCH   5   8
HETATM    8  C   UNL     1     -39.900 -48.929  13.776  1.00  0.00     0.015 C 
HETATM    9  C   UNL     1     -39.623 -49.298  15.241  1.00  0.00     0.012 C 
HETATM   10  C   UNL     1     -38.941 -47.787  13.393  1.00  0.00     0.012 C 
ENDBRANCH   5   8
BRANCH   5  11
HETATM   11  C   UNL     1     -40.864 -49.777  11.595  1.00  0.00     0.244 C 
HETATM   12  O   UNL     1     -42.047 -49.473  11.749  1.00  0.00    -0.271 OA
HETATM   13  N   UNL     1     -40.409 -49.948  10.310  1.00  0.00    -0.368 N 
HETATM   14  H   UNL     1     -39.688 -50.624  10.104  1.00  0.00     0.159 HD
HETATM   15  H   UNL     1     -41.137 -49.842   9.608  1.00  0.00     0.159 HD
ENDBRANCH   5  11
ENDBRANCH   1   5
BRANCH   2  16
HETATM   16  C   UNL     1     -41.158 -53.698  13.678  1.00  0.00     0.142 C 
BRANCH  16  17
HETATM   17  C   UNL     1     -42.649 -53.913  13.626  1.00  0.00    -0.034 A 
HETATM   18  C   UNL     1     -43.264 -54.812  14.503  1.00  0.00     0.010 A 
HETATM   19  C   UNL     1     -44.644 -55.002  14.450  1.00  0.00     0.018 A 
HETATM   20  C   UNL     1     -45.374 -54.280  13.524  1.00  0.00     0.087 A 
HETATM   21  N   UNL     1     -44.821 -53.406  12.662  1.00  0.00    -0.375 N 
HETATM   22  C   UNL     1     -43.479 -53.258  12.722  1.00  0.00     0.095 A 
ATOM     23  HN  UNL     1     -45.387 -52.881  11.996  1.00  0.00     0.164 HD
ENDBRANCH  16  17
ENDBRANCH   2  16
TORSDOF 6
ENDMDL
MODEL 4
REMARK VINA RESULT:      -5.4      0.825      1.154
REMARK  6 active torsions:
REMARK  status: ('A' for Active; 'I' for Inactive)
REMARK    1  A    between atoms: C_2  and  C_3 
REMARK    2  A    between atoms: C_3  and  N_4 
REMARK    3  A    between atoms: C_3  and  C_15 
REMARK    4  A    between atoms: C_3  and  C_18 
REMARK       I    between atoms: N_4  and  C_5 
REMARK    5  A    between atoms: C_5  and  C_7 
REMARK    6  A    between atoms: C_7  and  C_8 
REMARK       I    between atoms: C_18  and  N_20 
ROOT
HETATM    1  N   UNL     1     -43.865 -52.443  14.254  1.00  0.00    -0.342 N 
HETATM    2  C   UNL     1     -42.950 -53.210  13.565  1.00  0.00     0.223 C 
HETATM    3  O   UNL     1     -43.253 -54.175  12.868  1.00  0.00    -0.273 OA
HETATM    4  H   UNL     1     -43.512 -51.767  14.923  1.00  0.00     0.163 HD
ENDROOT
BRANCH   1   5
HETATM    5  C   UNL     1     -45.350 -52.618  14.208  1.00  0.00     0.116 C 
BRANCH   5   6
HETATM    6  C   UNL     1     -45.889 -52.766  12.751  1.00  0.00     0.037 C 
HETATM    7  C   UNL     1     -46.755 -51.609  12.249  1.00  0.00     0.008 C 
ENDBRANCH   5   6
BRANCH   5   8
HETATM    8  C   UNL     1     -46.059 -51.454  15.014  1.00  0.00     0.015 C 
HETATM    9  C   UNL     1     -47.322 -51.865  15.786  1.00  0.00     0.012 C 
HETATM   10  C   UNL     1     -45.123 -50.732  16.002  1.00  0.00     0.012 C 
ENDBRANCH   5   8
BRANCH   5  11
HETATM   11  C   UNL     1     -45.680 -53.956  14.956  1.00  0.00     0.244 C 
HETATM   12  O   UNL     1     -45.150 -54.320  16.005  1.00  0.00    -0.271 OA
HETATM   13  N   UNL     1     -46.514 -54.841  14.318  1.00  0.00    -0.368 N 
HETATM   14  H   UNL     1     -46.583 -54.850  13.311  1.00  0.00     0.159 HD
HETATM   15  H   UNL     1     -46.569 -55.746  14.779  1.00  0.00     0.159 HD
ENDBRANCH   5  11
ENDBRANCH   1   5
BRANCH   2  16
HETATM   16  C   UNL     1     -41.492 -52.817  13.747  1.00  0.00     0.142 C 
BRANCH  16  17
HETATM   17  C   UNL     1     -40.660 -53.815  14.512  1.00  0.00    -0.034 A 
HETATM   18  C   UNL     1     -41.161 -54.404  15.678  1.00  0.00     0.010 A 
HETATM   19  C   UNL     1     -40.387 -55.328  16.378  1.00  0.00     0.018 A 
HETATM   20  C   UNL     1     -39.133 -55.644  15.887  1.00  0.00     0.087 A 
HETATM   21  N   UNL     1     -38.615 -55.100  14.770  1.00  0.00    -0.375 N 
HETATM   22  C   UNL     1     -39.379 -54.192  14.124  1.00  0.00     0.095 A 
ATOM     23  HN  UNL     1     -37.690 -55.361  14.428  1.00  0.00     0.164 HD
ENDBRANCH  16  17
ENDBRANCH   2  16
TORSDOF 6
ENDMDL
MODEL 5
REMARK VINA RESULT:      -5.2      2.150      5.609
REMARK  6 active torsions:
REMARK  status: ('A' for Active; 'I' for Inactive)
REMARK    1  A    between atoms: C_2  and  C_3 
REMARK    2  A    between atoms: C_3  and  N_4 
REMARK    3  A    between atoms: C_3  and  C_15 
REMARK    4  A    between atoms: C_3  and  C_18 
REMARK       I    between atoms: N_4  and  C_5 
REMARK    5  A    between atoms: C_5  and  C_7 
REMARK    6  A    between atoms: C_7  and  C_8 
REMARK       I    between atoms: C_18  and  N_20 
ROOT
HETATM    1  N   UNL     1     -43.578 -52.174  13.681  1.00  0.00    -0.342 N 
HETATM    2  C   UNL     1     -44.540 -52.804  12.920  1.00  0.00     0.223 C 
HETATM    3  O   UNL     1     -44.287 -53.587  12.008  1.00  0.00    -0.273 OA
HETATM    4  H   UNL     1     -43.875 -51.431  14.304  1.00  0.00     0.163 HD
ENDROOT
BRANCH   1   5
HETATM    5  C   UNL     1     -42.102 -52.392  13.564  1.00  0.00     0.116 C 
BRANCH   5   6
HETATM    6  C   UNL     1     -41.720 -53.905  13.580  1.00  0.00     0.037 C 
HETATM    7  C   UNL     1     -42.349 -54.730  14.704  1.00  0.00     0.008 C 
ENDBRANCH   5   6
BRANCH   5   8
HETATM    8  C   UNL     1     -41.341 -51.550  14.667  1.00  0.00     0.015 C 
HETATM    9  C   UNL     1     -42.086 -51.390  16.001  1.00  0.00     0.012 C 
HETATM   10  C   UNL     1     -39.930 -52.082  14.982  1.00  0.00     0.012 C 
ENDBRANCH   5   8
BRANCH   5  11
HETATM   11  C   UNL     1     -41.661 -51.823  12.172  1.00  0.00     0.244 C 
HETATM   12  O   UNL     1     -41.687 -50.632  11.862  1.00  0.00    -0.271 OA
HETATM   13  N   UNL     1     -41.361 -52.734  11.188  1.00  0.00    -0.368 N 
HETATM   14  H   UNL     1     -41.772 -53.656  11.197  1.00  0.00     0.159 HD
HETATM   15  H   UNL     1     -41.230 -52.310  10.273  1.00  0.00     0.159 HD
ENDBRANCH   5  11
ENDBRANCH   1   5
BRANCH   2  16
HETATM   16  C   UNL     1     -45.980 -52.441  13.247  1.00  0.00     0.142 C 
BRANCH  16  17
HETATM   17  C   UNL     1     -46.297 -52.383  14.720  1.00  0.00    -0.034 A 
HETATM   18  C   UNL     1     -47.018 -51.305  15.245  1.00  0.00     0.010 A 
HETATM   19  C   UNL     1     -47.311 -51.261  16.607  1.00  0.00     0.018 A 
HETATM   20  C   UNL     1     -46.879 -52.302  17.408  1.00  0.00     0.087 A 
HETATM   21  N   UNL     1     -46.183 -53.356  16.943  1.00  0.00    -0.375 N 
HETATM   22  C   UNL     1     -45.895 -53.362  15.623  1.00  0.00     0.095 A 
ATOM     23  HN  UNL     1     -45.886 -54.114  17.558  1.00  0.00     0.164 HD
ENDBRANCH  16  17
ENDBRANCH   2  16
TORSDOF 6
ENDMDL
MODEL 6
REMARK VINA RESULT:      -5.2      1.564      2.302
REMARK  6 active torsions:
REMARK  status: ('A' for Active; 'I' for Inactive)
REMARK    1  A    between atoms: C_2  and  C_3 
REMARK    2  A    between atoms: C_3  and  N_4 
REMARK    3  A    between atoms: C_3  and  C_15 
REMARK    4  A    between atoms: C_3  and  C_18 
REMARK       I    between atoms: N_4  and  C_5 
REMARK    5  A    between atoms: C_5  and  C_7 
REMARK    6  A    between atoms: C_7  and  C_8 
REMARK       I    between atoms: C_18  and  N_20 
ROOT
HETATM    1  N   UNL     1     -43.730 -53.627  15.297  1.00  0.00    -0.342 N 
HETATM    2  C   UNL     1     -43.147 -54.875  15.374  1.00  0.00     0.223 C 
HETATM    3  O   UNL     1     -43.688 -55.908  14.986  1.00  0.00    -0.273 OA
HETATM    4  H   UNL     1     -43.277 -52.859  15.779  1.00  0.00     0.163 HD
ENDROOT
BRANCH   1   5
HETATM    5  C   UNL     1     -45.059 -53.330  14.677  1.00  0.00     0.116 C 
BRANCH   5   6
HETATM    6  C   UNL     1     -45.081 -53.619  13.144  1.00  0.00     0.037 C 
HETATM    7  C   UNL     1     -43.811 -53.232  12.384  1.00  0.00     0.008 C 
ENDBRANCH   5   6
BRANCH   5   8
HETATM    8  C   UNL     1     -45.505 -51.853  15.034  1.00  0.00     0.015 C 
HETATM    9  C   UNL     1     -44.393 -50.796  14.960  1.00  0.00     0.012 C 
HETATM   10  C   UNL     1     -46.687 -51.346  14.187  1.00  0.00     0.012 C 
ENDBRANCH   5   8
BRANCH   5  11
HETATM   11  C   UNL     1     -46.103 -54.293  15.340  1.00  0.00     0.244 C 
HETATM   12  O   UNL     1     -46.236 -54.454  16.553  1.00  0.00    -0.271 OA
HETATM   13  N   UNL     1     -46.817 -55.115  14.502  1.00  0.00    -0.368 N 
HETATM   14  H   UNL     1     -46.441 -55.393  13.608  1.00  0.00     0.159 HD
HETATM   15  H   UNL     1     -47.363 -55.817  14.996  1.00  0.00     0.159 HD
ENDBRANCH   5  11
ENDBRANCH   1   5
BRANCH   2  16
HETATM   16  C   UNL     1     -41.773 -54.920  16.022  1.00  0.00     0.142 C 
BRANCH  16  17
HETATM   17  C   UNL     1     -40.804 -53.879  15.522  1.00  0.00    -0.034 A 
HETATM   18  C   UNL     1     -40.402 -53.875  14.182  1.00  0.00     0.010 A 
HETATM   19  C   UNL     1     -39.509 -52.906  13.726  1.00  0.00     0.018 A 
HETATM   20  C   UNL     1     -39.047 -51.961  14.624  1.00  0.00     0.087 A 
HETATM   21  N   UNL     1     -39.408 -51.931  15.920  1.00  0.00    -0.375 N 
HETATM   22  C   UNL     1     -40.259 -52.894  16.339  1.00  0.00     0.095 A 
ATOM     23  HN  UNL     1     -39.057 -51.215  16.557  1.00  0.00     0.164 HD
ENDBRANCH  16  17
ENDBRANCH   2  16
TORSDOF 6
ENDMDL
MODEL 7
REMARK VINA RESULT:      -5.0      3.133      4.557
REMARK  6 active torsions:
REMARK  status: ('A' for Active; 'I' for Inactive)
REMARK    1  A    between atoms: C_2  and  C_3 
REMARK    2  A    between atoms: C_3  and  N_4 
REMARK    3  A    between atoms: C_3  and  C_15 
REMARK    4  A    between atoms: C_3  and  C_18 
REMARK       I    between atoms: N_4  and  C_5 
REMARK    5  A    between atoms: C_5  and  C_7 
REMARK    6  A    between atoms: C_7  and  C_8 
REMARK       I    between atoms: C_18  and  N_20 
ROOT
HETATM    1  N   UNL     1     -43.885 -52.030  14.575  1.00  0.00    -0.342 N 
HETATM    2  C   UNL     1     -43.022 -51.840  13.516  1.00  0.00     0.223 C 
HETATM    3  O   UNL     1     -42.966 -52.580  12.537  1.00  0.00    -0.273 OA
HETATM    4  H   UNL     1     -43.753 -51.462  15.404  1.00  0.00     0.163 HD
ENDROOT
BRANCH   1   5
HETATM    5  C   UNL     1     -44.918 -53.109  14.665  1.00  0.00     0.116 C 
BRANCH   5   6
HETATM    6  C   UNL     1     -44.528 -54.379  13.846  1.00  0.00     0.037 C 
HETATM    7  C   UNL     1     -45.610 -55.456  13.749  1.00  0.00     0.008 C 
ENDBRANCH   5   6
BRANCH   5   8
HETATM    8  C   UNL     1     -46.339 -52.532  14.273  1.00  0.00     0.015 C 
HETATM    9  C   UNL     1     -46.861 -51.402  15.174  1.00  0.00     0.012 C 
HETATM   10  C   UNL     1     -46.423 -52.041  12.815  1.00  0.00     0.012 C 
ENDBRANCH   5   8
BRANCH   5  11
HETATM   11  C   UNL     1     -45.003 -53.542  16.170  1.00  0.00     0.244 C 
HETATM   12  O   UNL     1     -45.840 -54.318  16.629  1.00  0.00    -0.271 OA
HETATM   13  N   UNL     1     -44.172 -52.898  17.054  1.00  0.00    -0.368 N 
HETATM   14  H   UNL     1     -43.841 -51.963  16.865  1.00  0.00     0.159 HD
HETATM   15  H   UNL     1     -44.378 -53.111  18.027  1.00  0.00     0.159 HD
ENDBRANCH   5  11
ENDBRANCH   1   5
BRANCH   2  16
HETATM   16  C   UNL     1     -42.080 -50.653  13.640  1.00  0.00     0.142 C 
BRANCH  16  17
HETATM   17  C   UNL     1     -42.074 -49.725  12.451  1.00  0.00    -0.034 A 
HETATM   18  C   UNL     1     -43.094 -48.782  12.287  1.00  0.00     0.010 A 
HETATM   19  C   UNL     1     -43.079 -47.926  11.187  1.00  0.00     0.018 A 
HETATM   20  C   UNL     1     -42.037 -48.032  10.283  1.00  0.00     0.087 A 
HETATM   21  N   UNL     1     -41.039 -48.925  10.404  1.00  0.00    -0.375 N 
HETATM   22  C   UNL     1     -41.090 -49.757  11.469  1.00  0.00     0.095 A 
ATOM     23  HN  UNL     1     -40.279 -48.973   9.726  1.00  0.00     0.164 HD
ENDBRANCH  16  17
ENDBRANCH   2  16
TORSDOF 6
ENDMDL
MODEL 8
REMARK VINA RESULT:      -5.0      1.967      2.826
REMARK  6 active torsions:
REMARK  status: ('A' for Active; 'I' for Inactive)
REMARK    1  A    between atoms: C_2  and  C_3 
REMARK    2  A    between atoms: C_3  and  N_4 
REMARK    3  A    between atoms: C_3  and  C_15 
REMARK    4  A    between atoms: C_3  and  C_18 
REMARK       I    between atoms: N_4  and  C_5 
REMARK    5  A    between atoms: C_5  and  C_7 
REMARK    6  A    between atoms: C_7  and  C_8 
REMARK       I    between atoms: C_18  and  N_20 
ROOT
HETATM    1  N   UNL     1     -43.639 -53.474  15.585  1.00  0.00    -0.342 N 
HETATM    2  C   UNL     1     -42.844 -54.594  15.711  1.00  0.00     0.223 C 
HETATM    3  O   UNL     1     -43.255 -55.683  16.105  1.00  0.00    -0.273 OA
HETATM    4  H   UNL     1     -43.184 -52.586  15.402  1.00  0.00     0.163 HD
ENDROOT
BRANCH   1   5
HETATM    5  C   UNL     1     -45.113 -53.426  15.837  1.00  0.00     0.116 C 
BRANCH   5   6
HETATM    6  C   UNL     1     -45.906 -54.415  14.928  1.00  0.00     0.037 C 
HETATM    7  C   UNL     1     -45.392 -54.546  13.493  1.00  0.00     0.008 C 
ENDBRANCH   5   6
BRANCH   5   8
HETATM    8  C   UNL     1     -45.632 -51.934  15.729  1.00  0.00     0.015 C 
HETATM    9  C   UNL     1     -44.910 -51.062  14.691  1.00  0.00     0.012 C 
HETATM   10  C   UNL     1     -47.144 -51.828  15.457  1.00  0.00     0.012 C 
ENDBRANCH   5   8
BRANCH   5  11
HETATM   11  C   UNL     1     -45.342 -53.881  17.319  1.00  0.00     0.244 C 
HETATM   12  O   UNL     1     -46.060 -54.821  17.660  1.00  0.00    -0.271 OA
HETATM   13  N   UNL     1     -44.818 -53.084  18.308  1.00  0.00    -0.368 N 
HETATM   14  H   UNL     1     -44.665 -52.099  18.150  1.00  0.00     0.159 HD
HETATM   15  H   UNL     1     -45.126 -53.346  19.241  1.00  0.00     0.159 HD
ENDBRANCH   5  11
ENDBRANCH   1   5
BRANCH   2  16
HETATM   16  C   UNL     1     -41.376 -54.402  15.367  1.00  0.00     0.142 C 
BRANCH  16  17
HETATM   17  C   UNL     1     -41.119 -53.539  14.158  1.00  0.00    -0.034 A 
HETATM   18  C   UNL     1     -40.824 -52.180  14.311  1.00  0.00     0.010 A 
HETATM   19  C   UNL     1     -40.584 -51.389  13.188  1.00  0.00     0.018 A 
HETATM   20  C   UNL     1     -40.638 -51.983  11.940  1.00  0.00     0.087 A 
HETATM   21  N   UNL     1     -40.919 -53.285  11.750  1.00  0.00    -0.375 N 
HETATM   22  C   UNL     1     -41.168 -54.023  12.855  1.00  0.00     0.095 A 
ATOM     23  HN  UNL     1     -40.943 -53.697  10.817  1.00  0.00     0.164 HD
ENDBRANCH  16  17
ENDBRANCH   2  16
TORSDOF 6
ENDMDL
MODEL 9
REMARK VINA RESULT:      -5.0      3.599      5.395
REMARK  6 active torsions:
REMARK  status: ('A' for Active; 'I' for Inactive)
REMARK    1  A    between atoms: C_2  and  C_3 
REMARK    2  A    between atoms: C_3  and  N_4 
REMARK    3  A    between atoms: C_3  and  C_15 
REMARK    4  A    between atoms: C_3  and  C_18 
REMARK       I    between atoms: N_4  and  C_5 
REMARK    5  A    between atoms: C_5  and  C_7 
REMARK    6  A    between atoms: C_7  and  C_8 
REMARK       I    between atoms: C_18  and  N_20 
ROOT
HETATM    1  N   UNL     1     -44.014 -51.122  13.941  1.00  0.00    -0.342 N 
HETATM    2  C   UNL     1     -42.769 -50.738  13.489  1.00  0.00     0.223 C 
HETATM    3  O   UNL     1     -41.871 -51.528  13.204  1.00  0.00    -0.273 OA
HETATM    4  H   UNL     1     -44.634 -50.403  14.297  1.00  0.00     0.163 HD
ENDROOT
BRANCH   1   5
HETATM    5  C   UNL     1     -44.484 -52.535  14.087  1.00  0.00     0.116 C 
BRANCH   5   6
HETATM    6  C   UNL     1     -45.885 -52.630  14.767  1.00  0.00     0.037 C 
HETATM    7  C   UNL     1     -46.605 -51.297  14.980  1.00  0.00     0.008 C 
ENDBRANCH   5   6
BRANCH   5   8
HETATM    8  C   UNL     1     -43.380 -53.400  14.823  1.00  0.00     0.015 C 
HETATM    9  C   UNL     1     -42.980 -52.902  16.220  1.00  0.00     0.012 C 
HETATM   10  C   UNL     1     -43.747 -54.890  14.945  1.00  0.00     0.012 C 
ENDBRANCH   5   8
BRANCH   5  11
HETATM   11  C   UNL     1     -44.635 -53.124  12.642  1.00  0.00     0.244 C 
HETATM   12  O   UNL     1     -45.705 -53.259  12.050  1.00  0.00    -0.271 OA
HETATM   13  N   UNL     1     -43.509 -53.653  12.061  1.00  0.00    -0.368 N 
HETATM   14  H   UNL     1     -42.759 -54.019  12.628  1.00  0.00     0.159 HD
HETATM   15  H   UNL     1     -43.699 -54.152  11.195  1.00  0.00     0.159 HD
ENDBRANCH   5  11
ENDBRANCH   1   5
BRANCH   2  16
HETATM   16  C   UNL     1     -42.536 -49.239  13.395  1.00  0.00     0.142 C 
BRANCH  16  17
HETATM   17  C   UNL     1     -42.602 -48.675  11.999  1.00  0.00    -0.034 A 
HETATM   18  C   UNL     1     -43.721 -47.945  11.585  1.00  0.00     0.010 A 
HETATM   19  C   UNL     1     -43.774 -47.425  10.293  1.00  0.00     0.018 A 
HETATM   20  C   UNL     1     -42.699 -47.643   9.450  1.00  0.00     0.087 A 
HETATM   21  N   UNL     1     -41.605 -48.341   9.809  1.00  0.00    -0.375 N 
HETATM   22  C   UNL     1     -41.591 -48.851  11.060  1.00  0.00     0.095 A 
ATOM     23  HN  UNL     1     -40.824 -48.477   9.167  1.00  0.00     0.164 HD
ENDBRANCH  16  17
ENDBRANCH   2  16
TORSDOF 6
ENDMDL
