MODEL 1
REMARK VINA RESULT:      -6.7      0.000      0.000
REMARK  4 active torsions:
REMARK  status: ('A' for Active; 'I' for Inactive)
REMARK    1  A    between atoms: O_2  and  C_3 
REMARK    2  A    between atoms: C_10  and  N_11 
REMARK       I    between atoms: N_11  and  C_12 
REMARK       I    between atoms: C_12  and  N_14 
REMARK    3  A    between atoms: N_14  and  C_15 
REMARK    4  A    between atoms: N_18  and  C_21 
ROOT
HETATM    1  N   UNL     1     -42.495 -48.613  10.643  1.00  0.00    -0.292 N 
HETATM    2  C   UNL     1     -42.564 -49.006  11.959  1.00  0.00     0.322 C 
HETATM    3  O   UNL     1     -43.219 -48.480  12.850  1.00  0.00    -0.247 OA
HETATM    4  N   UNL     1     -41.753 -50.102  12.221  1.00  0.00    -0.338 N 
HETATM    5  H   UNL     1     -41.681 -48.857  10.105  1.00  0.00     0.172 HD
HETATM    6  H   UNL     1     -41.599 -50.723  11.439  1.00  0.00     0.164 HD
ENDROOT
BRANCH   1   7
HETATM    7  C   UNL     1     -43.343 -47.640  10.079  1.00  0.00     0.143 A 
HETATM    8  C   UNL     1     -42.829 -46.368   9.786  1.00  0.00     0.112 A 
HETATM    9  C   UNL     1     -43.688 -45.442   9.188  1.00  0.00     0.042 A 
HETATM   10  C   UNL     1     -45.017 -45.783   8.945  1.00  0.00     0.027 A 
HETATM   11  C   UNL     1     -45.449 -47.054   9.280  1.00  0.00     0.007 A 
HETATM   12  C   UNL     1     -46.878 -47.469   9.121  1.00  0.00     0.068 C 
HETATM   13  N   UNL     1     -44.625 -47.974   9.821  1.00  0.00    -0.344 N 
ATOM     14  HN  UNL     1     -44.966 -48.912  10.032  1.00  0.00     0.167 HD
BRANCH   8  15
HETATM   15  O   UNL     1     -41.514 -46.111  10.087  1.00  0.00    -0.352 OA
HETATM   16  C   UNL     1     -41.310 -45.108  11.082  1.00  0.00     0.210 C 
ENDBRANCH   8  15
ENDBRANCH   1   7
BRANCH   4  17
HETATM   17  C   UNL     1     -41.780 -50.693  13.565  1.00  0.00     0.089 C 
HETATM   18  C   UNL     1     -40.468 -51.408  13.895  1.00  0.00     0.055 C 
HETATM   19  C   UNL     1     -40.395 -52.816  13.303  1.00  0.00     0.275 C 
HETATM   20  N   UNL     1     -41.551 -53.664  13.633  1.00  0.00     0.093 N 
HETATM   21  C   UNL     1     -42.786 -53.003  13.183  1.00  0.00     0.275 C 
HETATM   22  C   UNL     1     -42.995 -51.612  13.778  1.00  0.00     0.055 C 
BRANCH  20  23
HETATM   23  C   UNL     1     -41.578 -54.113  15.037  1.00  0.00     0.223 C 
HETATM   24  C   UNL     1     -40.253 -54.760  15.500  1.00  0.00     0.036 C 
HETATM   25  C   UNL     1     -40.623 -55.927  16.419  1.00  0.00     0.002 C 
HETATM   26  C   UNL     1     -42.123 -55.826  16.630  1.00  0.00     0.002 C 
HETATM   27  C   UNL     1     -42.619 -55.203  15.337  1.00  0.00     0.036 C 
ENDBRANCH  20  23
ENDBRANCH   4  17
TORSDOF 4
ENDMDL
MODEL 2
REMARK VINA RESULT:      -6.5      2.586      8.522
REMARK  4 active torsions:
REMARK  status: ('A' for Active; 'I' for Inactive)
REMARK    1  A    between atoms: O_2  and  C_3 
REMARK    2  A    between atoms: C_10  and  N_11 
REMARK       I    between atoms: N_11  and  C_12 
REMARK       I    between atoms: C_12  and  N_14 
REMARK    3  A    between atoms: N_14  and  C_15 
REMARK    4  A    between atoms: N_18  and  C_21 
ROOT
HETATM    1  N   UNL     1     -41.879 -50.620  11.700  1.00  0.00    -0.292 N 
HETATM    2  C   UNL     1     -42.318 -49.478  12.328  1.00  0.00     0.322 C 
HETATM    3  O   UNL     1     -43.020 -49.413  13.330  1.00  0.00    -0.247 OA
HETATM    4  N   UNL     1     -41.901 -48.327  11.672  1.00  0.00    -0.338 N 
HETATM    5  H   UNL     1     -41.644 -50.577  10.723  1.00  0.00     0.172 HD
HETATM    6  H   UNL     1     -41.032 -48.410  11.164  1.00  0.00     0.164 HD
ENDROOT
BRANCH   1   7
HETATM    7  C   UNL     1     -42.018 -51.909  12.250  1.00  0.00     0.143 A 
HETATM    8  C   UNL     1     -40.872 -52.621  12.632  1.00  0.00     0.112 A 
HETATM    9  C   UNL     1     -41.052 -53.879  13.213  1.00  0.00     0.042 A 
HETATM   10  C   UNL     1     -42.335 -54.403  13.354  1.00  0.00     0.027 A 
HETATM   11  C   UNL     1     -43.413 -53.642  12.935  1.00  0.00     0.007 A 
HETATM   12  C   UNL     1     -44.813 -54.166  12.982  1.00  0.00     0.068 C 
HETATM   13  N   UNL     1     -43.262 -52.410  12.409  1.00  0.00    -0.344 N 
ATOM     14  HN  UNL     1     -44.077 -51.863  12.134  1.00  0.00     0.167 HD
BRANCH   8  15
HETATM   15  O   UNL     1     -39.645 -52.038  12.430  1.00  0.00    -0.352 OA
HETATM   16  C   UNL     1     -38.926 -51.720  13.622  1.00  0.00     0.210 C 
ENDBRANCH   8  15
ENDBRANCH   1   7
BRANCH   4  17
HETATM   17  C   UNL     1     -42.220 -47.023  12.266  1.00  0.00     0.089 C 
HETATM   18  C   UNL     1     -42.520 -45.972  11.196  1.00  0.00     0.055 C 
HETATM   19  C   UNL     1     -41.253 -45.361  10.596  1.00  0.00     0.275 C 
HETATM   20  N   UNL     1     -40.309 -44.837  11.595  1.00  0.00     0.093 N 
HETATM   21  C   UNL     1     -39.943 -45.912  12.532  1.00  0.00     0.275 C 
HETATM   22  C   UNL     1     -41.137 -46.542  13.246  1.00  0.00     0.055 C 
BRANCH  20  23
HETATM   23  C   UNL     1     -40.761 -43.592  12.244  1.00  0.00     0.223 C 
HETATM   24  C   UNL     1     -41.237 -42.515  11.243  1.00  0.00     0.036 C 
HETATM   25  C   UNL     1     -40.768 -41.163  11.785  1.00  0.00     0.002 C 
HETATM   26  C   UNL     1     -40.206 -41.445  13.167  1.00  0.00     0.002 C 
HETATM   27  C   UNL     1     -39.672 -42.861  13.047  1.00  0.00     0.036 C 
ENDBRANCH  20  23
ENDBRANCH   4  17
TORSDOF 4
ENDMDL
MODEL 3
REMARK VINA RESULT:      -6.4      2.570      8.445
REMARK  4 active torsions:
REMARK  status: ('A' for Active; 'I' for Inactive)
REMARK    1  A    between atoms: O_2  and  C_3 
REMARK    2  A    between atoms: C_10  and  N_11 
REMARK       I    between atoms: N_11  and  C_12 
REMARK       I    between atoms: C_12  and  N_14 
REMARK    3  A    between atoms: N_14  and  C_15 
REMARK    4  A    between atoms: N_18  and  C_21 
ROOT
HETATM    1  N   UNL     1     -43.211 -51.694  12.513  1.00  0.00    -0.292 N 
HETATM    2  C   UNL     1     -43.357 -50.446  13.073  1.00  0.00     0.322 C 
HETATM    3  O   UNL     1     -43.918 -50.175  14.127  1.00  0.00    -0.247 OA
HETATM    4  N   UNL     1     -42.808 -49.448  12.278  1.00  0.00    -0.338 N 
HETATM    5  H   UNL     1     -43.083 -51.767  11.517  1.00  0.00     0.172 HD
HETATM    6  H   UNL     1     -42.032 -49.736  11.698  1.00  0.00     0.164 HD
ENDROOT
BRANCH   1   7
HETATM    7  C   UNL     1     -43.527 -52.888  13.188  1.00  0.00     0.143 A 
HETATM    8  C   UNL     1     -44.755 -53.517  12.936  1.00  0.00     0.112 A 
HETATM    9  C   UNL     1     -45.015 -54.723  13.592  1.00  0.00     0.042 A 
HETATM   10  C   UNL     1     -44.088 -55.237  14.496  1.00  0.00     0.027 A 
HETATM   11  C   UNL     1     -42.907 -54.544  14.701  1.00  0.00     0.007 A 
HETATM   12  C   UNL     1     -41.897 -54.991  15.712  1.00  0.00     0.068 C 
HETATM   13  N   UNL     1     -42.621 -53.401  14.048  1.00  0.00    -0.344 N 
ATOM     14  HN  UNL     1     -41.730 -52.928  14.200  1.00  0.00     0.167 HD
BRANCH   8  15
HETATM   15  O   UNL     1     -45.621 -52.923  12.050  1.00  0.00    -0.352 OA
HETATM   16  C   UNL     1     -46.620 -52.098  12.648  1.00  0.00     0.210 C 
ENDBRANCH   8  15
ENDBRANCH   1   7
BRANCH   4  17
HETATM   17  C   UNL     1     -42.810 -48.068  12.779  1.00  0.00     0.089 C 
HETATM   18  C   UNL     1     -43.032 -47.058  11.652  1.00  0.00     0.055 C 
HETATM   19  C   UNL     1     -41.753 -46.748  10.874  1.00  0.00     0.275 C 
HETATM   20  N   UNL     1     -40.619 -46.347  11.721  1.00  0.00     0.093 N 
HETATM   21  C   UNL     1     -40.352 -47.403  12.711  1.00  0.00     0.275 C 
HETATM   22  C   UNL     1     -41.550 -47.738  13.596  1.00  0.00     0.055 C 
BRANCH  20  23
HETATM   23  C   UNL     1     -40.755 -44.995  12.295  1.00  0.00     0.223 C 
HETATM   24  C   UNL     1     -41.196 -43.932  11.264  1.00  0.00     0.036 C 
HETATM   25  C   UNL     1     -40.434 -42.646  11.594  1.00  0.00     0.002 C 
HETATM   26  C   UNL     1     -39.719 -42.916  12.906  1.00  0.00     0.002 C 
HETATM   27  C   UNL     1     -39.451 -44.410  12.860  1.00  0.00     0.036 C 
ENDBRANCH  20  23
ENDBRANCH   4  17
TORSDOF 4
ENDMDL
MODEL 4
REMARK VINA RESULT:      -6.1      2.522      3.468
REMARK  4 active torsions:
REMARK  status: ('A' for Active; 'I' for Inactive)
REMARK    1  A    between atoms: O_2  and  C_3 
REMARK    2  A    between atoms: C_10  and  N_11 
REMARK       I    between atoms: N_11  and  C_12 
REMARK       I    between atoms: C_12  and  N_14 
REMARK    3  A    between atoms: N_14  and  C_15 
REMARK    4  A    between atoms: N_18  and  C_21 
ROOT
HETATM    1  N   UNL     1     -41.473 -47.712  10.966  1.00  0.00    -0.292 N 
HETATM    2  C   UNL     1     -40.747 -48.747  11.506  1.00  0.00     0.322 C 
HETATM    3  O   UNL     1     -39.572 -48.720  11.851  1.00  0.00    -0.247 OA
HETATM    4  N   UNL     1     -41.494 -49.914  11.606  1.00  0.00    -0.338 N 
HETATM    5  H   UNL     1     -42.271 -47.926  10.390  1.00  0.00     0.172 HD
HETATM    6  H   UNL     1     -42.489 -49.782  11.723  1.00  0.00     0.164 HD
ENDROOT
BRANCH   1   7
HETATM    7  C   UNL     1     -41.008 -46.384  10.912  1.00  0.00     0.143 A 
HETATM    8  C   UNL     1     -41.578 -45.422  11.758  1.00  0.00     0.112 A 
HETATM    9  C   UNL     1     -41.061 -44.124  11.707  1.00  0.00     0.042 A 
HETATM   10  C   UNL     1     -40.046 -43.814  10.805  1.00  0.00     0.027 A 
HETATM   11  C   UNL     1     -39.550 -44.820   9.993  1.00  0.00     0.007 A 
HETATM   12  C   UNL     1     -38.515 -44.549   8.947  1.00  0.00     0.068 C 
HETATM   13  N   UNL     1     -40.008 -46.086  10.055  1.00  0.00    -0.344 N 
ATOM     14  HN  UNL     1     -39.604 -46.811   9.462  1.00  0.00     0.167 HD
BRANCH   8  15
HETATM   15  O   UNL     1     -42.595 -45.810  12.595  1.00  0.00    -0.352 OA
HETATM   16  C   UNL     1     -42.804 -44.958  13.722  1.00  0.00     0.210 C 
ENDBRANCH   8  15
ENDBRANCH   1   7
BRANCH   4  17
HETATM   17  C   UNL     1     -40.883 -51.088  12.241  1.00  0.00     0.089 C 
HETATM   18  C   UNL     1     -41.627 -52.376  11.882  1.00  0.00     0.055 C 
HETATM   19  C   UNL     1     -42.877 -52.595  12.734  1.00  0.00     0.275 C 
HETATM   20  N   UNL     1     -42.636 -52.517  14.183  1.00  0.00     0.093 N 
HETATM   21  C   UNL     1     -42.039 -51.211  14.508  1.00  0.00     0.275 C 
HETATM   22  C   UNL     1     -40.737 -50.924  13.763  1.00  0.00     0.055 C 
BRANCH  20  23
HETATM   23  C   UNL     1     -41.901 -53.674  14.727  1.00  0.00     0.223 C 
HETATM   24  C   UNL     1     -42.751 -54.963  14.796  1.00  0.00     0.036 C 
HETATM   25  C   UNL     1     -42.363 -55.685  16.089  1.00  0.00     0.002 C 
HETATM   26  C   UNL     1     -41.176 -54.921  16.647  1.00  0.00     0.002 C 
HETATM   27  C   UNL     1     -41.420 -53.498  16.176  1.00  0.00     0.036 C 
ENDBRANCH  20  23
ENDBRANCH   4  17
TORSDOF 4
ENDMDL
MODEL 5
REMARK VINA RESULT:      -6.1      1.180      2.311
REMARK  4 active torsions:
REMARK  status: ('A' for Active; 'I' for Inactive)
REMARK    1  A    between atoms: O_2  and  C_3 
REMARK    2  A    between atoms: C_10  and  N_11 
REMARK       I    between atoms: N_11  and  C_12 
REMARK       I    between atoms: C_12  and  N_14 
REMARK    3  A    between atoms: N_14  and  C_15 
REMARK    4  A    between atoms: N_18  and  C_21 
ROOT
HETATM    1  N   UNL     1     -42.749 -48.502  10.675  1.00  0.00    -0.292 N 
HETATM    2  C   UNL     1     -42.682 -48.906  11.987  1.00  0.00     0.322 C 
HETATM    3  O   UNL     1     -42.699 -48.188  12.979  1.00  0.00    -0.247 OA
HETATM    4  N   UNL     1     -42.554 -50.284  12.104  1.00  0.00    -0.338 N 
HETATM    5  H   UNL     1     -42.362 -49.098   9.962  1.00  0.00     0.172 HD
HETATM    6  H   UNL     1     -42.964 -50.821  11.353  1.00  0.00     0.164 HD
ENDROOT
BRANCH   1   7
HETATM    7  C   UNL     1     -43.049 -47.182  10.284  1.00  0.00     0.143 A 
HETATM    8  C   UNL     1     -44.023 -46.961   9.301  1.00  0.00     0.112 A 
HETATM    9  C   UNL     1     -44.324 -45.636   8.970  1.00  0.00     0.042 A 
HETATM   10  C   UNL     1     -43.631 -44.593   9.580  1.00  0.00     0.027 A 
HETATM   11  C   UNL     1     -42.671 -44.898  10.529  1.00  0.00     0.007 A 
HETATM   12  C   UNL     1     -41.832 -43.838  11.171  1.00  0.00     0.068 C 
HETATM   13  N   UNL     1     -42.395 -46.167  10.890  1.00  0.00    -0.344 N 
ATOM     14  HN  UNL     1     -41.701 -46.359  11.612  1.00  0.00     0.167 HD
BRANCH   8  15
HETATM   15  O   UNL     1     -44.635 -48.051   8.732  1.00  0.00    -0.352 OA
HETATM   16  C   UNL     1     -46.062 -48.001   8.720  1.00  0.00     0.210 C 
ENDBRANCH   8  15
ENDBRANCH   1   7
BRANCH   4  17
HETATM   17  C   UNL     1     -42.554 -50.880  13.446  1.00  0.00     0.089 C 
HETATM   18  C   UNL     1     -41.157 -51.349  13.856  1.00  0.00     0.055 C 
HETATM   19  C   UNL     1     -40.797 -52.716  13.275  1.00  0.00     0.275 C 
HETATM   20  N   UNL     1     -41.799 -53.761  13.539  1.00  0.00     0.093 N 
HETATM   21  C   UNL     1     -43.104 -53.330  13.014  1.00  0.00     0.275 C 
HETATM   22  C   UNL     1     -43.594 -52.003  13.591  1.00  0.00     0.055 C 
BRANCH  20  23
HETATM   23  C   UNL     1     -41.827 -54.217  14.941  1.00  0.00     0.223 C 
HETATM   24  C   UNL     1     -40.460 -54.730  15.448  1.00  0.00     0.036 C 
HETATM   25  C   UNL     1     -40.741 -55.933  16.352  1.00  0.00     0.002 C 
HETATM   26  C   UNL     1     -42.250 -55.984  16.513  1.00  0.00     0.002 C 
HETATM   27  C   UNL     1     -42.763 -55.408  15.204  1.00  0.00     0.036 C 
ENDBRANCH  20  23
ENDBRANCH   4  17
TORSDOF 4
ENDMDL
MODEL 6
REMARK VINA RESULT:      -5.8      1.792      2.887
REMARK  4 active torsions:
REMARK  status: ('A' for Active; 'I' for Inactive)
REMARK    1  A    between atoms: O_2  and  C_3 
REMARK    2  A    between atoms: C_10  and  N_11 
REMARK       I    between atoms: N_11  and  C_12 
REMARK       I    between atoms: C_12  and  N_14 
REMARK    3  A    between atoms: N_14  and  C_15 
REMARK    4  A    between atoms: N_18  and  C_21 
ROOT
HETATM    1  N   UNL     1     -42.589 -49.698  12.094  1.00  0.00    -0.292 N 
HETATM    2  C   UNL     1     -41.583 -50.635  12.102  1.00  0.00     0.322 C 
HETATM    3  O   UNL     1     -40.550 -50.610  11.444  1.00  0.00    -0.247 OA
HETATM    4  N   UNL     1     -41.865 -51.699  12.949  1.00  0.00    -0.338 N 
HETATM    5  H   UNL     1     -43.518 -49.979  12.360  1.00  0.00     0.172 HD
HETATM    6  H   UNL     1     -42.457 -51.478  13.737  1.00  0.00     0.164 HD
ENDROOT
BRANCH   1   7
HETATM    7  C   UNL     1     -42.479 -48.448  11.454  1.00  0.00     0.143 A 
HETATM    8  C   UNL     1     -41.837 -47.391  12.116  1.00  0.00     0.112 A 
HETATM    9  C   UNL     1     -41.709 -46.178  11.433  1.00  0.00     0.042 A 
HETATM   10  C   UNL     1     -42.251 -46.038  10.158  1.00  0.00     0.027 A 
HETATM   11  C   UNL     1     -42.885 -47.126   9.582  1.00  0.00     0.007 A 
HETATM   12  C   UNL     1     -43.558 -47.031   8.249  1.00  0.00     0.068 C 
HETATM   13  N   UNL     1     -42.983 -48.315  10.209  1.00  0.00    -0.344 N 
ATOM     14  HN  UNL     1     -43.433 -49.106   9.747  1.00  0.00     0.167 HD
BRANCH   8  15
HETATM   15  O   UNL     1     -41.359 -47.612  13.384  1.00  0.00    -0.352 OA
HETATM   16  C   UNL     1     -39.940 -47.516  13.517  1.00  0.00     0.210 C 
ENDBRANCH   8  15
ENDBRANCH   1   7
BRANCH   4  17
HETATM   17  C   UNL     1     -40.849 -52.743  13.130  1.00  0.00     0.089 C 
HETATM   18  C   UNL     1     -41.484 -54.117  13.354  1.00  0.00     0.055 C 
HETATM   19  C   UNL     1     -41.932 -54.335  14.799  1.00  0.00     0.275 C 
HETATM   20  N   UNL     1     -40.882 -54.074  15.797  1.00  0.00     0.093 N 
HETATM   21  C   UNL     1     -40.386 -52.698  15.635  1.00  0.00     0.275 C 
HETATM   22  C   UNL     1     -39.843 -52.396  14.240  1.00  0.00     0.055 C 
BRANCH  20  23
HETATM   23  C   UNL     1     -39.826 -55.102  15.830  1.00  0.00     0.223 C 
HETATM   24  C   UNL     1     -40.224 -56.367  16.624  1.00  0.00     0.036 C 
HETATM   25  C   UNL     1     -38.976 -56.833  17.377  1.00  0.00     0.002 C 
HETATM   26  C   UNL     1     -37.839 -55.965  16.869  1.00  0.00     0.002 C 
HETATM   27  C   UNL     1     -38.526 -54.656  16.519  1.00  0.00     0.036 C 
ENDBRANCH  20  23
ENDBRANCH   4  17
TORSDOF 4
ENDMDL
MODEL 7
REMARK VINA RESULT:      -5.4      2.269      3.503
REMARK  4 active torsions:
REMARK  status: ('A' for Active; 'I' for Inactive)
REMARK    1  A    between atoms: O_2  and  C_3 
REMARK    2  A    between atoms: C_10  and  N_11 
REMARK       I    between atoms: N_11  and  C_12 
REMARK       I    between atoms: C_12  and  N_14 
REMARK    3  A    between atoms: N_14  and  C_15 
REMARK    4  A    between atoms: N_18  and  C_21 
ROOT
HETATM    1  N   UNL     1     -39.779 -48.396  12.311  1.00  0.00    -0.292 N 
HETATM    2  C   UNL     1     -40.088 -48.935  13.538  1.00  0.00     0.322 C 
HETATM    3  O   UNL     1     -40.531 -48.340  14.512  1.00  0.00    -0.247 OA
HETATM    4  N   UNL     1     -39.810 -50.295  13.596  1.00  0.00    -0.338 N 
HETATM    5  H   UNL     1     -39.099 -48.861  11.733  1.00  0.00     0.172 HD
HETATM    6  H   UNL     1     -39.870 -50.787  12.716  1.00  0.00     0.164 HD
ENDROOT
BRANCH   1   7
HETATM    7  C   UNL     1     -40.119 -47.082  11.934  1.00  0.00     0.143 A 
HETATM    8  C   UNL     1     -41.043 -46.883  10.899  1.00  0.00     0.112 A 
HETATM    9  C   UNL     1     -41.389 -45.566  10.580  1.00  0.00     0.042 A 
HETATM   10  C   UNL     1     -40.786 -44.507  11.254  1.00  0.00     0.027 A 
HETATM   11  C   UNL     1     -39.869 -44.791  12.252  1.00  0.00     0.007 A 
HETATM   12  C   UNL     1     -39.123 -43.708  12.968  1.00  0.00     0.068 C 
HETATM   13  N   UNL     1     -39.553 -46.054  12.600  1.00  0.00    -0.344 N 
ATOM     14  HN  UNL     1     -38.895 -46.231  13.359  1.00  0.00     0.167 HD
BRANCH   8  15
HETATM   15  O   UNL     1     -41.566 -47.986  10.270  1.00  0.00    -0.352 OA
HETATM   16  C   UNL     1     -42.873 -47.804   9.723  1.00  0.00     0.210 C 
ENDBRANCH   8  15
ENDBRANCH   1   7
BRANCH   4  17
HETATM   17  C   UNL     1     -40.164 -51.034  14.815  1.00  0.00     0.089 C 
HETATM   18  C   UNL     1     -39.081 -52.043  15.199  1.00  0.00     0.055 C 
HETATM   19  C   UNL     1     -39.180 -53.348  14.408  1.00  0.00     0.275 C 
HETATM   20  N   UNL     1     -40.512 -53.970  14.444  1.00  0.00     0.093 N 
HETATM   21  C   UNL     1     -41.512 -53.013  13.944  1.00  0.00     0.275 C 
HETATM   22  C   UNL     1     -41.549 -51.697  14.719  1.00  0.00     0.055 C 
BRANCH  20  23
HETATM   23  C   UNL     1     -40.849 -54.579  15.744  1.00  0.00     0.223 C 
HETATM   24  C   UNL     1     -39.805 -55.611  16.227  1.00  0.00     0.036 C 
HETATM   25  C   UNL     1     -40.579 -56.750  16.897  1.00  0.00     0.002 C 
HETATM   26  C   UNL     1     -42.022 -56.282  16.966  1.00  0.00     0.002 C 
HETATM   27  C   UNL     1     -42.159 -55.383  15.750  1.00  0.00     0.036 C 
ENDBRANCH  20  23
ENDBRANCH   4  17
TORSDOF 4
ENDMDL
MODEL 8
REMARK VINA RESULT:      -5.4      4.972      6.641
REMARK  4 active torsions:
REMARK  status: ('A' for Active; 'I' for Inactive)
REMARK    1  A    between atoms: O_2  and  C_3 
REMARK    2  A    between atoms: C_10  and  N_11 
REMARK       I    between atoms: N_11  and  C_12 
REMARK       I    between atoms: C_12  and  N_14 
REMARK    3  A    between atoms: N_14  and  C_15 
REMARK    4  A    between atoms: N_18  and  C_21 
ROOT
HETATM    1  N   UNL     1     -43.803 -54.163  14.944  1.00  0.00    -0.292 N 
HETATM    2  C   UNL     1     -42.854 -53.920  15.909  1.00  0.00     0.322 C 
HETATM    3  O   UNL     1     -42.618 -52.850  16.454  1.00  0.00    -0.247 OA
HETATM    4  N   UNL     1     -42.116 -55.056  16.214  1.00  0.00    -0.338 N 
HETATM    5  H   UNL     1     -43.671 -54.939  14.316  1.00  0.00     0.172 HD
HETATM    6  H   UNL     1     -42.599 -55.934  16.086  1.00  0.00     0.164 HD
ENDROOT
BRANCH   1   7
HETATM    7  C   UNL     1     -44.792 -53.230  14.577  1.00  0.00     0.143 A 
HETATM    8  C   UNL     1     -44.856 -52.783  13.249  1.00  0.00     0.112 A 
HETATM    9  C   UNL     1     -45.877 -51.890  12.912  1.00  0.00     0.042 A 
HETATM   10  C   UNL     1     -46.759 -51.440  13.893  1.00  0.00     0.027 A 
HETATM   11  C   UNL     1     -46.616 -51.918  15.184  1.00  0.00     0.007 A 
HETATM   12  C   UNL     1     -47.475 -51.426  16.306  1.00  0.00     0.068 C 
HETATM   13  N   UNL     1     -45.663 -52.810  15.519  1.00  0.00    -0.344 N 
ATOM     14  HN  UNL     1     -45.600 -53.165  16.473  1.00  0.00     0.167 HD
BRANCH   8  15
HETATM   15  O   UNL     1     -43.926 -53.257  12.356  1.00  0.00    -0.352 OA
HETATM   16  C   UNL     1     -42.718 -52.500  12.288  1.00  0.00     0.210 C 
ENDBRANCH   8  15
ENDBRANCH   1   7
BRANCH   4  17
HETATM   17  C   UNL     1     -41.117 -54.979  17.288  1.00  0.00     0.089 C 
HETATM   18  C   UNL     1     -39.763 -54.495  16.767  1.00  0.00     0.055 C 
HETATM   19  C   UNL     1     -38.944 -55.611  16.118  1.00  0.00     0.275 C 
HETATM   20  N   UNL     1     -38.784 -56.805  16.963  1.00  0.00     0.093 N 
HETATM   21  C   UNL     1     -40.110 -57.319  17.338  1.00  0.00     0.275 C 
HETATM   22  C   UNL     1     -40.987 -56.300  18.064  1.00  0.00     0.055 C 
BRANCH  20  23
HETATM   23  C   UNL     1     -37.864 -56.610  18.099  1.00  0.00     0.223 C 
HETATM   24  C   UNL     1     -36.492 -56.030  17.686  1.00  0.00     0.036 C 
HETATM   25  C   UNL     1     -35.436 -56.718  18.555  1.00  0.00     0.002 C 
HETATM   26  C   UNL     1     -36.210 -57.531  19.577  1.00  0.00     0.002 C 
HETATM   27  C   UNL     1     -37.485 -57.902  18.840  1.00  0.00     0.036 C 
ENDBRANCH  20  23
ENDBRANCH   4  17
TORSDOF 4
ENDMDL
MODEL 9
REMARK VINA RESULT:      -5.4      5.508     10.900
REMARK  4 active torsions:
REMARK  status: ('A' for Active; 'I' for Inactive)
REMARK    1  A    between atoms: O_2  and  C_3 
REMARK    2  A    between atoms: C_10  and  N_11 
REMARK       I    between atoms: N_11  and  C_12 
REMARK       I    between atoms: C_12  and  N_14 
REMARK    3  A    between atoms: N_14  and  C_15 
REMARK    4  A    between atoms: N_18  and  C_21 
ROOT
HETATM    1  N   UNL     1     -39.034 -56.004  17.419  1.00  0.00    -0.292 N 
HETATM    2  C   UNL     1     -40.296 -56.168  16.898  1.00  0.00     0.322 C 
HETATM    3  O   UNL     1     -40.907 -57.222  16.768  1.00  0.00    -0.247 OA
HETATM    4  N   UNL     1     -40.846 -54.966  16.472  1.00  0.00    -0.338 N 
HETATM    5  H   UNL     1     -38.496 -55.199  17.145  1.00  0.00     0.172 HD
HETATM    6  H   UNL     1     -40.526 -54.145  16.966  1.00  0.00     0.164 HD
ENDROOT
BRANCH   1   7
HETATM    7  C   UNL     1     -38.326 -57.031  18.074  1.00  0.00     0.143 A 
HETATM    8  C   UNL     1     -36.931 -56.943  18.181  1.00  0.00     0.112 A 
HETATM    9  C   UNL     1     -36.267 -57.959  18.874  1.00  0.00     0.042 A 
HETATM   10  C   UNL     1     -36.988 -59.034  19.391  1.00  0.00     0.027 A 
HETATM   11  C   UNL     1     -38.362 -59.053  19.226  1.00  0.00     0.007 A 
HETATM   12  C   UNL     1     -39.195 -60.208  19.684  1.00  0.00     0.068 C 
HETATM   13  N   UNL     1     -39.024 -58.062  18.596  1.00  0.00    -0.344 N 
ATOM     14  HN  UNL     1     -40.040 -58.091  18.514  1.00  0.00     0.167 HD
BRANCH   8  15
HETATM   15  O   UNL     1     -36.301 -55.862  17.616  1.00  0.00    -0.352 OA
HETATM   16  C   UNL     1     -34.892 -56.012  17.440  1.00  0.00     0.210 C 
ENDBRANCH   8  15
ENDBRANCH   1   7
BRANCH   4  17
HETATM   17  C   UNL     1     -42.224 -54.963  15.966  1.00  0.00     0.089 C 
HETATM   18  C   UNL     1     -42.289 -54.517  14.504  1.00  0.00     0.055 C 
HETATM   19  C   UNL     1     -42.253 -52.997  14.345  1.00  0.00     0.275 C 
HETATM   20  N   UNL     1     -43.256 -52.287  15.154  1.00  0.00     0.093 N 
HETATM   21  C   UNL     1     -43.080 -52.641  16.572  1.00  0.00     0.275 C 
HETATM   22  C   UNL     1     -43.174 -54.139  16.852  1.00  0.00     0.055 C 
BRANCH  20  23
HETATM   23  C   UNL     1     -44.636 -52.439  14.657  1.00  0.00     0.223 C 
HETATM   24  C   UNL     1     -44.773 -52.186  13.138  1.00  0.00     0.036 C 
HETATM   25  C   UNL     1     -46.098 -51.451  12.924  1.00  0.00     0.002 C 
HETATM   26  C   UNL     1     -46.795 -51.457  14.273  1.00  0.00     0.002 C 
HETATM   27  C   UNL     1     -45.644 -51.449  15.264  1.00  0.00     0.036 C 
ENDBRANCH  20  23
ENDBRANCH   4  17
TORSDOF 4
ENDMDL
