MODEL 1
REMARK VINA RESULT:      -5.8      0.000      0.000
REMARK  4 active torsions:
REMARK  status: ('A' for Active; 'I' for Inactive)
REMARK    1  A    between atoms: C_2  and  C_3 
REMARK    2  A    between atoms: C_2  and  N_13 
REMARK       I    between atoms: C_3  and  N_5 
REMARK    3  A    between atoms: N_5  and  C_6 
REMARK    4  A    between atoms: C_6  and  C_7 
ROOT
HETATM    1  C   UNL     1     -42.266 -48.167  10.756  1.00  0.00     0.242 C 
HETATM    2  O   UNL     1     -42.906 -48.262  11.802  1.00  0.00    -0.271 OA
HETATM    3  N   UNL     1     -41.126 -48.911  10.509  1.00  0.00    -0.359 N 
HETATM    4  H   UNL     1     -40.693 -48.869   9.591  1.00  0.00     0.162 HD
ENDROOT
BRANCH   1   5
HETATM    5  C   UNL     1     -42.653 -47.186   9.658  1.00  0.00     0.196 C 
HETATM    6  C   UNL     1     -42.620 -45.738  10.151  1.00  0.00     0.044 C 
BRANCH   5   7
HETATM    7  N   UNL     1     -43.957 -47.524   9.116  1.00  0.00    -0.273 N 
HETATM    8  C   UNL     1     -44.260 -48.018   7.883  1.00  0.00     0.202 A 
HETATM    9  N   UNL     1     -45.556 -48.201   7.792  1.00  0.00    -0.346 N 
HETATM   10  C   UNL     1     -46.014 -47.789   9.010  1.00  0.00     0.198 A 
ATOM     11  HN  UNL     1     -46.090 -48.565   7.003  1.00  0.00     0.167 HD
HETATM   12  N   UNL     1     -45.076 -47.337   9.846  1.00  0.00    -0.292 N 
ATOM     13  HN  UNL     1     -45.177 -46.953  10.785  1.00  0.00     0.188 HD
ENDBRANCH   5   7
ENDBRANCH   1   5
BRANCH   3  14
HETATM   14  C   UNL     1     -40.663 -49.925  11.440  1.00  0.00     0.127 C 
BRANCH  14  15
HETATM   15  C   UNL     1     -39.792 -49.352  12.574  1.00  0.00     0.003 C 
HETATM   16  C   UNL     1     -38.429 -48.889  12.028  1.00  0.00     0.006 C 
HETATM   17  C   UNL     1     -37.513 -50.052  11.636  1.00  0.00     0.000 C 
HETATM   18  C   UNL     1     -37.358 -51.072  12.761  1.00  0.00     0.000 C 
HETATM   19  C   UNL     1     -38.701 -51.527  13.327  1.00  0.00     0.000 C 
HETATM   20  C   UNL     1     -39.567 -50.339  13.732  1.00  0.00     0.006 C 
ENDBRANCH  14  15
ENDBRANCH   3  14
TORSDOF 4
ENDMDL
MODEL 2
REMARK VINA RESULT:      -5.6      2.754      3.539
REMARK  4 active torsions:
REMARK  status: ('A' for Active; 'I' for Inactive)
REMARK    1  A    between atoms: C_2  and  C_3 
REMARK    2  A    between atoms: C_2  and  N_13 
REMARK       I    between atoms: C_3  and  N_5 
REMARK    3  A    between atoms: N_5  and  C_6 
REMARK    4  A    between atoms: C_6  and  C_7 
ROOT
HETATM    1  C   UNL     1     -42.171 -48.923  11.681  1.00  0.00     0.242 C 
HETATM    2  O   UNL     1     -42.617 -48.443  12.721  1.00  0.00    -0.271 OA
HETATM    3  N   UNL     1     -41.820 -50.257  11.566  1.00  0.00    -0.359 N 
HETATM    4  H   UNL     1     -41.552 -50.625  10.658  1.00  0.00     0.162 HD
ENDROOT
BRANCH   1   5
HETATM    5  C   UNL     1     -41.926 -48.077  10.440  1.00  0.00     0.196 C 
HETATM    6  C   UNL     1     -41.201 -46.772  10.776  1.00  0.00     0.044 C 
BRANCH   5   7
HETATM    7  N   UNL     1     -43.176 -47.818   9.749  1.00  0.00    -0.273 N 
HETATM    8  C   UNL     1     -43.374 -47.547   8.430  1.00  0.00     0.202 A 
HETATM    9  N   UNL     1     -44.657 -47.389   8.203  1.00  0.00    -0.346 N 
HETATM   10  C   UNL     1     -45.214 -47.565   9.437  1.00  0.00     0.198 A 
ATOM     11  HN  UNL     1     -45.124 -47.185   7.320  1.00  0.00     0.167 HD
HETATM   12  N   UNL     1     -44.344 -47.802  10.424  1.00  0.00    -0.292 N 
ATOM     13  HN  UNL     1     -44.517 -47.934  11.420  1.00  0.00     0.188 HD
ENDBRANCH   5   7
ENDBRANCH   1   5
BRANCH   3  14
HETATM   14  C   UNL     1     -42.047 -51.199  12.648  1.00  0.00     0.127 C 
BRANCH  14  15
HETATM   15  C   UNL     1     -42.209 -52.651  12.159  1.00  0.00     0.003 C 
HETATM   16  C   UNL     1     -43.628 -53.168  12.458  1.00  0.00     0.006 C 
HETATM   17  C   UNL     1     -43.871 -53.426  13.947  1.00  0.00     0.000 C 
HETATM   18  C   UNL     1     -42.799 -54.321  14.563  1.00  0.00     0.000 C 
HETATM   19  C   UNL     1     -41.385 -53.834  14.259  1.00  0.00     0.000 C 
HETATM   20  C   UNL     1     -41.178 -53.619  12.764  1.00  0.00     0.006 C 
ENDBRANCH  14  15
ENDBRANCH   3  14
TORSDOF 4
ENDMDL
MODEL 3
REMARK VINA RESULT:      -5.6      3.343      4.368
REMARK  4 active torsions:
REMARK  status: ('A' for Active; 'I' for Inactive)
REMARK    1  A    between atoms: C_2  and  C_3 
REMARK    2  A    between atoms: C_2  and  N_13 
REMARK       I    between atoms: C_3  and  N_5 
REMARK    3  A    between atoms: N_5  and  C_6 
REMARK    4  A    between atoms: C_6  and  C_7 
ROOT
HETATM    1  C   UNL     1     -41.914 -49.069  11.432  1.00  0.00     0.242 C 
HETATM    2  O   UNL     1     -40.860 -49.544  11.013  1.00  0.00    -0.271 OA
HETATM    3  N   UNL     1     -42.804 -49.794  12.204  1.00  0.00    -0.359 N 
HETATM    4  H   UNL     1     -43.610 -49.326  12.608  1.00  0.00     0.162 HD
ENDROOT
BRANCH   1   5
HETATM    5  C   UNL     1     -42.349 -47.649  11.099  1.00  0.00     0.196 C 
HETATM    6  C   UNL     1     -43.129 -47.009  12.250  1.00  0.00     0.044 C 
BRANCH   5   7
HETATM    7  N   UNL     1     -43.122 -47.631   9.871  1.00  0.00    -0.273 N 
HETATM    8  C   UNL     1     -44.424 -47.274   9.695  1.00  0.00     0.202 A 
HETATM    9  N   UNL     1     -44.740 -47.384   8.426  1.00  0.00    -0.346 N 
HETATM   10  C   UNL     1     -43.583 -47.828   7.855  1.00  0.00     0.198 A 
ATOM     11  HN  UNL     1     -45.634 -47.184   7.976  1.00  0.00     0.167 HD
HETATM   12  N   UNL     1     -42.570 -48.024   8.704  1.00  0.00    -0.292 N 
ATOM     13  HN  UNL     1     -41.631 -48.376   8.520  1.00  0.00     0.188 HD
ENDBRANCH   5   7
ENDBRANCH   1   5
BRANCH   3  14
HETATM   14  C   UNL     1     -42.503 -51.144  12.648  1.00  0.00     0.127 C 
BRANCH  14  15
HETATM   15  C   UNL     1     -43.262 -51.542  13.928  1.00  0.00     0.003 C 
HETATM   16  C   UNL     1     -43.312 -53.074  14.074  1.00  0.00     0.006 C 
HETATM   17  C   UNL     1     -44.249 -53.742  13.065  1.00  0.00     0.000 C 
HETATM   18  C   UNL     1     -45.645 -53.125  13.072  1.00  0.00     0.000 C 
HETATM   19  C   UNL     1     -45.613 -51.604  12.948  1.00  0.00     0.000 C 
HETATM   20  C   UNL     1     -44.692 -50.979  13.991  1.00  0.00     0.006 C 
ENDBRANCH  14  15
ENDBRANCH   3  14
TORSDOF 4
ENDMDL
MODEL 4
REMARK VINA RESULT:      -5.6      4.487      6.271
REMARK  4 active torsions:
REMARK  status: ('A' for Active; 'I' for Inactive)
REMARK    1  A    between atoms: C_2  and  C_3 
REMARK    2  A    between atoms: C_2  and  N_13 
REMARK       I    between atoms: C_3  and  N_5 
REMARK    3  A    between atoms: N_5  and  C_6 
REMARK    4  A    between atoms: C_6  and  C_7 
ROOT
HETATM    1  C   UNL     1     -42.321 -51.645  12.520  1.00  0.00     0.242 C 
HETATM    2  O   UNL     1     -42.865 -50.940  13.367  1.00  0.00    -0.271 OA
HETATM    3  N   UNL     1     -42.872 -52.833  12.072  1.00  0.00    -0.359 N 
HETATM    4  H   UNL     1     -42.433 -53.326  11.300  1.00  0.00     0.162 HD
ENDROOT
BRANCH   1   5
HETATM    5  C   UNL     1     -40.967 -51.290  11.921  1.00  0.00     0.196 C 
HETATM    6  C   UNL     1     -39.819 -51.605  12.883  1.00  0.00     0.044 C 
BRANCH   5   7
HETATM    7  N   UNL     1     -40.943 -49.895  11.518  1.00  0.00    -0.273 N 
HETATM    8  C   UNL     1     -39.898 -49.023  11.550  1.00  0.00     0.202 A 
HETATM    9  N   UNL     1     -40.286 -47.859  11.084  1.00  0.00    -0.346 N 
HETATM   10  C   UNL     1     -41.601 -48.067  10.785  1.00  0.00     0.198 A 
ATOM     11  HN  UNL     1     -39.737 -47.006  10.973  1.00  0.00     0.167 HD
HETATM   12  N   UNL     1     -42.059 -49.292  11.060  1.00  0.00    -0.292 N 
ATOM     13  HN  UNL     1     -43.000 -49.669  10.953  1.00  0.00     0.188 HD
ENDBRANCH   5   7
ENDBRANCH   1   5
BRANCH   3  14
HETATM   14  C   UNL     1     -44.183 -53.277  12.512  1.00  0.00     0.127 C 
BRANCH  14  15
HETATM   15  C   UNL     1     -44.130 -54.550  13.377  1.00  0.00     0.003 C 
HETATM   16  C   UNL     1     -45.552 -55.041  13.706  1.00  0.00     0.006 C 
HETATM   17  C   UNL     1     -46.278 -54.142  14.711  1.00  0.00     0.000 C 
HETATM   18  C   UNL     1     -45.455 -53.898  15.973  1.00  0.00     0.000 C 
HETATM   19  C   UNL     1     -44.035 -53.430  15.663  1.00  0.00     0.000 C 
HETATM   20  C   UNL     1     -43.339 -54.370  14.683  1.00  0.00     0.006 C 
ENDBRANCH  14  15
ENDBRANCH   3  14
TORSDOF 4
ENDMDL
MODEL 5
REMARK VINA RESULT:      -5.5      4.691      7.156
REMARK  4 active torsions:
REMARK  status: ('A' for Active; 'I' for Inactive)
REMARK    1  A    between atoms: C_2  and  C_3 
REMARK    2  A    between atoms: C_2  and  N_13 
REMARK       I    between atoms: C_3  and  N_5 
REMARK    3  A    between atoms: N_5  and  C_6 
REMARK    4  A    between atoms: C_6  and  C_7 
ROOT
HETATM    1  C   UNL     1     -42.469 -53.644  13.212  1.00  0.00     0.242 C 
HETATM    2  O   UNL     1     -42.722 -54.164  14.297  1.00  0.00    -0.271 OA
HETATM    3  N   UNL     1     -43.451 -53.136  12.381  1.00  0.00    -0.359 N 
HETATM    4  H   UNL     1     -43.181 -52.626  11.544  1.00  0.00     0.162 HD
ENDROOT
BRANCH   1   5
HETATM    5  C   UNL     1     -41.048 -53.552  12.672  1.00  0.00     0.196 C 
HETATM    6  C   UNL     1     -40.051 -54.293  13.566  1.00  0.00     0.044 C 
BRANCH   5   7
HETATM    7  N   UNL     1     -40.662 -52.164  12.497  1.00  0.00    -0.273 N 
HETATM    8  C   UNL     1     -40.147 -51.306  13.420  1.00  0.00     0.202 A 
HETATM    9  N   UNL     1     -39.919 -50.143  12.856  1.00  0.00    -0.346 N 
HETATM   10  C   UNL     1     -40.327 -50.336  11.568  1.00  0.00     0.198 A 
ATOM     11  HN  UNL     1     -39.530 -49.299  13.278  1.00  0.00     0.167 HD
HETATM   12  N   UNL     1     -40.819 -51.551  11.305  1.00  0.00    -0.292 N 
ATOM     13  HN  UNL     1     -41.208 -51.916  10.437  1.00  0.00     0.188 HD
ENDBRANCH   5   7
ENDBRANCH   1   5
BRANCH   3  14
HETATM   14  C   UNL     1     -44.846 -53.103  12.783  1.00  0.00     0.127 C 
BRANCH  14  15
HETATM   15  C   UNL     1     -45.418 -51.674  12.861  1.00  0.00     0.003 C 
HETATM   16  C   UNL     1     -44.476 -50.756  13.660  1.00  0.00     0.006 C 
HETATM   17  C   UNL     1     -44.476 -51.057  15.161  1.00  0.00     0.000 C 
HETATM   18  C   UNL     1     -45.885 -51.076  15.749  1.00  0.00     0.000 C 
HETATM   19  C   UNL     1     -46.837 -51.967  14.956  1.00  0.00     0.000 C 
HETATM   20  C   UNL     1     -46.828 -51.613  13.472  1.00  0.00     0.006 C 
ENDBRANCH  14  15
ENDBRANCH   3  14
TORSDOF 4
ENDMDL
MODEL 6
REMARK VINA RESULT:      -5.5      4.186      5.601
REMARK  4 active torsions:
REMARK  status: ('A' for Active; 'I' for Inactive)
REMARK    1  A    between atoms: C_2  and  C_3 
REMARK    2  A    between atoms: C_2  and  N_13 
REMARK       I    between atoms: C_3  and  N_5 
REMARK    3  A    between atoms: N_5  and  C_6 
REMARK    4  A    between atoms: C_6  and  C_7 
ROOT
HETATM    1  C   UNL     1     -42.431 -49.843  12.491  1.00  0.00     0.242 C 
HETATM    2  O   UNL     1     -42.956 -49.000  13.215  1.00  0.00    -0.271 OA
HETATM    3  N   UNL     1     -42.702 -51.195  12.600  1.00  0.00    -0.359 N 
HETATM    4  H   UNL     1     -42.319 -51.838  11.913  1.00  0.00     0.162 HD
ENDROOT
BRANCH   1   5
HETATM    5  C   UNL     1     -41.399 -49.471  11.435  1.00  0.00     0.196 C 
HETATM    6  C   UNL     1     -39.997 -49.336  12.033  1.00  0.00     0.044 C 
BRANCH   5   7
HETATM    7  N   UNL     1     -41.793 -48.254  10.749  1.00  0.00    -0.273 N 
HETATM    8  C   UNL     1     -41.130 -47.067  10.682  1.00  0.00     0.202 A 
HETATM    9  N   UNL     1     -41.817 -46.222   9.950  1.00  0.00    -0.346 N 
HETATM   10  C   UNL     1     -42.918 -46.946   9.592  1.00  0.00     0.198 A 
ATOM     11  HN  UNL     1     -41.585 -45.259   9.706  1.00  0.00     0.167 HD
HETATM   12  N   UNL     1     -42.964 -48.188  10.082  1.00  0.00    -0.292 N 
ATOM     13  HN  UNL     1     -43.690 -48.897   9.980  1.00  0.00     0.188 HD
ENDBRANCH   5   7
ENDBRANCH   1   5
BRANCH   3  14
HETATM   14  C   UNL     1     -43.704 -51.697  13.525  1.00  0.00     0.127 C 
BRANCH  14  15
HETATM   15  C   UNL     1     -44.904 -52.353  12.816  1.00  0.00     0.003 C 
HETATM   16  C   UNL     1     -46.161 -51.474  12.952  1.00  0.00     0.006 C 
HETATM   17  C   UNL     1     -46.739 -51.471  14.370  1.00  0.00     0.000 C 
HETATM   18  C   UNL     1     -46.971 -52.881  14.905  1.00  0.00     0.000 C 
HETATM   19  C   UNL     1     -45.740 -53.772  14.759  1.00  0.00     0.000 C 
HETATM   20  C   UNL     1     -45.217 -53.770  13.327  1.00  0.00     0.006 C 
ENDBRANCH  14  15
ENDBRANCH   3  14
TORSDOF 4
ENDMDL
MODEL 7
REMARK VINA RESULT:      -5.4      3.468      4.710
REMARK  4 active torsions:
REMARK  status: ('A' for Active; 'I' for Inactive)
REMARK    1  A    between atoms: C_2  and  C_3 
REMARK    2  A    between atoms: C_2  and  N_13 
REMARK       I    between atoms: C_3  and  N_5 
REMARK    3  A    between atoms: N_5  and  C_6 
REMARK    4  A    between atoms: C_6  and  C_7 
ROOT
HETATM    1  C   UNL     1     -42.117 -49.814  12.115  1.00  0.00     0.242 C 
HETATM    2  O   UNL     1     -42.883 -49.173  12.831  1.00  0.00    -0.271 OA
HETATM    3  N   UNL     1     -42.097 -51.198  12.094  1.00  0.00    -0.359 N 
HETATM    4  H   UNL     1     -41.517 -51.678  11.412  1.00  0.00     0.162 HD
ENDROOT
BRANCH   1   5
HETATM    5  C   UNL     1     -41.091 -49.136  11.218  1.00  0.00     0.196 C 
HETATM    6  C   UNL     1     -39.845 -48.713  11.999  1.00  0.00     0.044 C 
BRANCH   5   7
HETATM    7  N   UNL     1     -41.687 -48.004  10.532  1.00  0.00    -0.273 N 
HETATM    8  C   UNL     1     -41.264 -46.710  10.508  1.00  0.00     0.202 A 
HETATM    9  N   UNL     1     -42.074 -45.999   9.760  1.00  0.00    -0.346 N 
HETATM   10  C   UNL     1     -43.000 -46.914   9.349  1.00  0.00     0.198 A 
ATOM     11  HN  UNL     1     -42.023 -45.005   9.538  1.00  0.00     0.167 HD
HETATM   12  N   UNL     1     -42.823 -48.152   9.820  1.00  0.00    -0.292 N 
ATOM     13  HN  UNL     1     -43.394 -48.985   9.679  1.00  0.00     0.188 HD
ENDBRANCH   5   7
ENDBRANCH   1   5
BRANCH   3  14
HETATM   14  C   UNL     1     -43.053 -51.984  12.855  1.00  0.00     0.127 C 
BRANCH  14  15
HETATM   15  C   UNL     1     -42.999 -53.487  12.521  1.00  0.00     0.003 C 
HETATM   16  C   UNL     1     -44.302 -54.184  12.952  1.00  0.00     0.006 C 
HETATM   17  C   UNL     1     -44.437 -54.318  14.471  1.00  0.00     0.000 C 
HETATM   18  C   UNL     1     -43.210 -54.964  15.108  1.00  0.00     0.000 C 
HETATM   19  C   UNL     1     -41.907 -54.296  14.675  1.00  0.00     0.000 C 
HETATM   20  C   UNL     1     -41.801 -54.212  13.156  1.00  0.00     0.006 C 
ENDBRANCH  14  15
ENDBRANCH   3  14
TORSDOF 4
ENDMDL
MODEL 8
REMARK VINA RESULT:      -5.3      4.719      7.044
REMARK  4 active torsions:
REMARK  status: ('A' for Active; 'I' for Inactive)
REMARK    1  A    between atoms: C_2  and  C_3 
REMARK    2  A    between atoms: C_2  and  N_13 
REMARK       I    between atoms: C_3  and  N_5 
REMARK    3  A    between atoms: N_5  and  C_6 
REMARK    4  A    between atoms: C_6  and  C_7 
ROOT
HETATM    1  C   UNL     1     -41.389 -52.531  13.775  1.00  0.00     0.242 C 
HETATM    2  O   UNL     1     -41.943 -51.560  14.286  1.00  0.00    -0.271 OA
HETATM    3  N   UNL     1     -41.929 -53.804  13.813  1.00  0.00    -0.359 N 
HETATM    4  H   UNL     1     -41.482 -54.551  13.289  1.00  0.00     0.162 HD
ENDROOT
BRANCH   1   5
HETATM    5  C   UNL     1     -40.033 -52.420  13.091  1.00  0.00     0.196 C 
HETATM    6  C   UNL     1     -38.882 -52.473  14.098  1.00  0.00     0.044 C 
BRANCH   5   7
HETATM    7  N   UNL     1     -39.969 -51.213  12.288  1.00  0.00    -0.273 N 
HETATM    8  C   UNL     1     -39.004 -50.252  12.279  1.00  0.00     0.202 A 
HETATM    9  N   UNL     1     -39.313 -49.330  11.397  1.00  0.00    -0.346 N 
HETATM   10  C   UNL     1     -40.500 -49.772  10.889  1.00  0.00     0.198 A 
ATOM     11  HN  UNL     1     -38.791 -48.489  11.151  1.00  0.00     0.167 HD
HETATM   12  N   UNL     1     -40.959 -50.907  11.424  1.00  0.00    -0.292 N 
ATOM     13  HN  UNL     1     -41.826 -51.408  11.232  1.00  0.00     0.188 HD
ENDBRANCH   5   7
ENDBRANCH   1   5
BRANCH   3  14
HETATM   14  C   UNL     1     -43.241 -54.057  14.383  1.00  0.00     0.127 C 
BRANCH  14  15
HETATM   15  C   UNL     1     -44.316 -54.348  13.318  1.00  0.00     0.003 C 
HETATM   16  C   UNL     1     -44.707 -53.056  12.577  1.00  0.00     0.006 C 
HETATM   17  C   UNL     1     -45.530 -52.095  13.439  1.00  0.00     0.000 C 
HETATM   18  C   UNL     1     -46.740 -52.775  14.073  1.00  0.00     0.000 C 
HETATM   19  C   UNL     1     -46.372 -54.069  14.796  1.00  0.00     0.000 C 
HETATM   20  C   UNL     1     -45.581 -55.008  13.891  1.00  0.00     0.006 C 
ENDBRANCH  14  15
ENDBRANCH   3  14
TORSDOF 4
ENDMDL
MODEL 9
REMARK VINA RESULT:      -5.1      1.446      2.301
REMARK  4 active torsions:
REMARK  status: ('A' for Active; 'I' for Inactive)
REMARK    1  A    between atoms: C_2  and  C_3 
REMARK    2  A    between atoms: C_2  and  N_13 
REMARK       I    between atoms: C_3  and  N_5 
REMARK    3  A    between atoms: N_5  and  C_6 
REMARK    4  A    between atoms: C_6  and  C_7 
ROOT
HETATM    1  C   UNL     1     -40.819 -46.475  11.501  1.00  0.00     0.242 C 
HETATM    2  O   UNL     1     -40.958 -46.276  12.706  1.00  0.00    -0.271 OA
HETATM    3  N   UNL     1     -39.915 -47.393  10.996  1.00  0.00    -0.359 N 
HETATM    4  H   UNL     1     -39.911 -47.592  10.000  1.00  0.00     0.162 HD
ENDROOT
BRANCH   1   5
HETATM    5  C   UNL     1     -41.606 -45.695  10.457  1.00  0.00     0.196 C 
HETATM    6  C   UNL     1     -42.158 -44.385  11.023  1.00  0.00     0.044 C 
BRANCH   5   7
HETATM    7  N   UNL     1     -42.670 -46.516   9.908  1.00  0.00    -0.273 N 
HETATM    8  C   UNL     1     -43.585 -47.273  10.573  1.00  0.00     0.202 A 
HETATM    9  N   UNL     1     -44.386 -47.851   9.710  1.00  0.00    -0.346 N 
HETATM   10  C   UNL     1     -43.907 -47.420   8.506  1.00  0.00     0.198 A 
ATOM     11  HN  UNL     1     -45.174 -48.472   9.893  1.00  0.00     0.167 HD
HETATM   12  N   UNL     1     -42.837 -46.623   8.573  1.00  0.00    -0.292 N 
ATOM     13  HN  UNL     1     -42.293 -46.207   7.818  1.00  0.00     0.188 HD
ENDBRANCH   5   7
ENDBRANCH   1   5
BRANCH   3  14
HETATM   14  C   UNL     1     -39.133 -48.250  11.870  1.00  0.00     0.127 C 
BRANCH  14  15
HETATM   15  C   UNL     1     -39.049 -49.705  11.370  1.00  0.00     0.003 C 
HETATM   16  C   UNL     1     -40.223 -50.535  11.921  1.00  0.00     0.006 C 
HETATM   17  C   UNL     1     -40.101 -50.827  13.418  1.00  0.00     0.000 C 
HETATM   18  C   UNL     1     -38.752 -51.440  13.782  1.00  0.00     0.000 C 
HETATM   19  C   UNL     1     -37.577 -50.640  13.227  1.00  0.00     0.000 C 
HETATM   20  C   UNL     1     -37.724 -50.399  11.728  1.00  0.00     0.006 C 
ENDBRANCH  14  15
ENDBRANCH   3  14
TORSDOF 4
ENDMDL
