MODEL 1
REMARK VINA RESULT:      -5.8      0.000      0.000
REMARK  4 active torsions:
REMARK  status: ('A' for Active; 'I' for Inactive)
REMARK    1  A    between atoms: C_2  and  C_3 
REMARK       I    between atoms: C_2  and  N_12 
REMARK    2  A    between atoms: C_3  and  N_4 
REMARK    3  A    between atoms: N_12  and  C_13 
REMARK    4  A    between atoms: C_13  and  C_14 
ROOT
HETATM    1  O   UNL     1     -42.713 -48.280  11.883  1.00  0.00    -0.272 OA
HETATM    2  C   UNL     1     -42.199 -48.133  10.777  1.00  0.00     0.235 C 
HETATM    3  N   UNL     1     -41.099 -48.849  10.351  1.00  0.00    -0.359 N 
HETATM    4  H   UNL     1     -40.618 -48.534   9.512  1.00  0.00     0.162 HD
ENDROOT
BRANCH   2   5
HETATM    5  C   UNL     1     -42.713 -47.104   9.774  1.00  0.00     0.235 C 
BRANCH   5   6
HETATM    6  N   UNL     1     -43.899 -47.590   9.077  1.00  0.00    -0.301 N 
HETATM    7  C   UNL     1     -45.119 -47.586   9.718  1.00  0.00     0.102 A 
HETATM    8  C   UNL     1     -46.216 -48.081   9.144  1.00  0.00     0.092 A 
HETATM    9  C   UNL     1     -46.111 -48.653   7.791  1.00  0.00     0.250 A 
HETATM   10  O   UNL     1     -47.071 -49.196   7.257  1.00  0.00    -0.268 OA
HETATM   11  N   UNL     1     -44.891 -48.538   7.190  1.00  0.00    -0.275 N 
HETATM   12  C   UNL     1     -43.757 -48.037   7.771  1.00  0.00     0.329 A 
HETATM   13  H   UNL     1     -44.803 -48.912   6.259  1.00  0.00     0.173 HD
HETATM   14  O   UNL     1     -42.691 -47.999   7.155  1.00  0.00    -0.246 OA
ENDBRANCH   5   6
ENDBRANCH   2   5
BRANCH   3  15
HETATM   15  C   UNL     1     -40.485 -49.892  11.153  1.00  0.00     0.129 C 
BRANCH  15  16
HETATM   16  C   UNL     1     -39.152 -49.483  11.777  1.00  0.00     0.029 C 
HETATM   17  C   UNL     1     -38.352 -50.618  12.397  1.00  0.00     0.034 C 
HETATM   18  C   UNL     1     -37.692 -49.999  13.618  1.00  0.00     0.168 C 
HETATM   19  O   UNL     1     -38.017 -48.606  13.619  1.00  0.00    -0.391 OA
HETATM   20  C   UNL     1     -39.246 -48.465  12.897  1.00  0.00     0.173 C 
ENDBRANCH  15  16
ENDBRANCH   3  15
TORSDOF 4
ENDMDL
MODEL 2
REMARK VINA RESULT:      -5.6      5.508      6.567
REMARK  4 active torsions:
REMARK  status: ('A' for Active; 'I' for Inactive)
REMARK    1  A    between atoms: C_2  and  C_3 
REMARK       I    between atoms: C_2  and  N_12 
REMARK    2  A    between atoms: C_3  and  N_4 
REMARK    3  A    between atoms: N_12  and  C_13 
REMARK    4  A    between atoms: C_13  and  C_14 
ROOT
HETATM    1  O   UNL     1     -42.420 -53.474  13.844  1.00  0.00    -0.272 OA
HETATM    2  C   UNL     1     -42.960 -53.217  12.771  1.00  0.00     0.235 C 
HETATM    3  N   UNL     1     -42.375 -52.436  11.795  1.00  0.00    -0.359 N 
HETATM    4  H   UNL     1     -42.958 -52.111  11.028  1.00  0.00     0.162 HD
ENDROOT
BRANCH   2   5
HETATM    5  C   UNL     1     -44.362 -53.715  12.428  1.00  0.00     0.235 C 
BRANCH   5   6
HETATM    6  N   UNL     1     -45.345 -53.230  13.389  1.00  0.00    -0.301 N 
HETATM    7  C   UNL     1     -45.677 -51.892  13.414  1.00  0.00     0.102 A 
HETATM    8  C   UNL     1     -46.522 -51.395  14.318  1.00  0.00     0.092 A 
HETATM    9  C   UNL     1     -47.106 -52.304  15.319  1.00  0.00     0.250 A 
HETATM   10  O   UNL     1     -47.818 -51.880  16.221  1.00  0.00    -0.268 OA
HETATM   11  N   UNL     1     -46.798 -53.625  15.172  1.00  0.00    -0.275 N 
HETATM   12  C   UNL     1     -45.929 -54.148  14.252  1.00  0.00     0.329 A 
HETATM   13  H   UNL     1     -47.198 -54.265  15.840  1.00  0.00     0.173 HD
HETATM   14  O   UNL     1     -45.694 -55.356  14.214  1.00  0.00    -0.246 OA
ENDBRANCH   5   6
ENDBRANCH   2   5
BRANCH   3  15
HETATM   15  C   UNL     1     -41.034 -51.894  11.925  1.00  0.00     0.129 C 
BRANCH  15  16
HETATM   16  C   UNL     1     -41.001 -50.385  12.158  1.00  0.00     0.029 C 
HETATM   17  C   UNL     1     -42.361 -49.723  12.315  1.00  0.00     0.034 C 
HETATM   18  C   UNL     1     -42.207 -48.368  11.645  1.00  0.00     0.168 C 
HETATM   19  O   UNL     1     -40.841 -48.244  11.239  1.00  0.00    -0.391 OA
HETATM   20  C   UNL     1     -40.339 -49.574  11.060  1.00  0.00     0.173 C 
ENDBRANCH  15  16
ENDBRANCH   3  15
TORSDOF 4
ENDMDL
MODEL 3
REMARK VINA RESULT:      -5.5      6.588      8.064
REMARK  4 active torsions:
REMARK  status: ('A' for Active; 'I' for Inactive)
REMARK    1  A    between atoms: C_2  and  C_3 
REMARK       I    between atoms: C_2  and  N_12 
REMARK    2  A    between atoms: C_3  and  N_4 
REMARK    3  A    between atoms: N_12  and  C_13 
REMARK    4  A    between atoms: C_13  and  C_14 
ROOT
HETATM    1  O   UNL     1     -45.624 -54.567  16.393  1.00  0.00    -0.272 OA
HETATM    2  C   UNL     1     -45.832 -54.223  15.232  1.00  0.00     0.235 C 
HETATM    3  N   UNL     1     -46.612 -53.137  14.891  1.00  0.00    -0.359 N 
HETATM    4  H   UNL     1     -46.895 -53.037  13.919  1.00  0.00     0.162 HD
ENDROOT
BRANCH   2   5
HETATM    5  C   UNL     1     -45.271 -55.000  14.043  1.00  0.00     0.235 C 
BRANCH   5   6
HETATM    6  N   UNL     1     -44.109 -54.328  13.473  1.00  0.00    -0.301 N 
HETATM    7  C   UNL     1     -42.849 -54.616  13.952  1.00  0.00     0.102 A 
HETATM    8  C   UNL     1     -41.765 -53.979  13.507  1.00  0.00     0.092 A 
HETATM    9  C   UNL     1     -41.928 -52.936  12.480  1.00  0.00     0.250 A 
HETATM   10  O   UNL     1     -40.975 -52.265  12.103  1.00  0.00    -0.268 OA
HETATM   11  N   UNL     1     -43.193 -52.773  11.994  1.00  0.00    -0.275 N 
HETATM   12  C   UNL     1     -44.314 -53.416  12.447  1.00  0.00     0.329 A 
HETATM   13  H   UNL     1     -43.323 -52.072  11.283  1.00  0.00     0.173 HD
HETATM   14  O   UNL     1     -45.421 -53.182  11.962  1.00  0.00    -0.246 OA
ENDBRANCH   5   6
ENDBRANCH   2   5
BRANCH   3  15
HETATM   15  C   UNL     1     -47.209 -52.260  15.881  1.00  0.00     0.129 C 
BRANCH  15  16
HETATM   16  C   UNL     1     -46.390 -51.001  16.160  1.00  0.00     0.029 C 
HETATM   17  C   UNL     1     -45.132 -50.847  15.319  1.00  0.00     0.034 C 
HETATM   18  C   UNL     1     -44.121 -50.208  16.256  1.00  0.00     0.168 C 
HETATM   19  O   UNL     1     -44.794 -49.933  17.488  1.00  0.00    -0.391 OA
HETATM   20  C   UNL     1     -45.883 -50.859  17.582  1.00  0.00     0.173 C 
ENDBRANCH  15  16
ENDBRANCH   3  15
TORSDOF 4
ENDMDL
MODEL 4
REMARK VINA RESULT:      -5.4      4.263      6.574
REMARK  4 active torsions:
REMARK  status: ('A' for Active; 'I' for Inactive)
REMARK    1  A    between atoms: C_2  and  C_3 
REMARK       I    between atoms: C_2  and  N_12 
REMARK    2  A    between atoms: C_3  and  N_4 
REMARK    3  A    between atoms: N_12  and  C_13 
REMARK    4  A    between atoms: C_13  and  C_14 
ROOT
HETATM    1  O   UNL     1     -40.907 -50.190  13.355  1.00  0.00    -0.272 OA
HETATM    2  C   UNL     1     -41.305 -50.552  12.250  1.00  0.00     0.235 C 
HETATM    3  N   UNL     1     -41.977 -49.721  11.377  1.00  0.00    -0.359 N 
HETATM    4  H   UNL     1     -42.442 -50.142  10.577  1.00  0.00     0.162 HD
ENDROOT
BRANCH   2   5
HETATM    5  C   UNL     1     -41.126 -51.984  11.752  1.00  0.00     0.235 C 
BRANCH   5   6
HETATM    6  N   UNL     1     -41.782 -52.939  12.638  1.00  0.00    -0.301 N 
HETATM    7  C   UNL     1     -43.158 -53.004  12.677  1.00  0.00     0.102 A 
HETATM    8  C   UNL     1     -43.800 -53.815  13.518  1.00  0.00     0.092 A 
HETATM    9  C   UNL     1     -43.010 -54.656  14.433  1.00  0.00     0.250 A 
HETATM   10  O   UNL     1     -43.554 -55.352  15.282  1.00  0.00    -0.268 OA
HETATM   11  N   UNL     1     -41.656 -54.600  14.272  1.00  0.00    -0.275 N 
HETATM   12  C   UNL     1     -40.986 -53.767  13.416  1.00  0.00     0.329 A 
HETATM   13  H   UNL     1     -41.099 -55.177  14.881  1.00  0.00     0.173 HD
HETATM   14  O   UNL     1     -39.755 -53.771  13.360  1.00  0.00    -0.246 OA
ENDBRANCH   5   6
ENDBRANCH   2   5
BRANCH   3  15
HETATM   15  C   UNL     1     -42.218 -48.318  11.660  1.00  0.00     0.129 C 
BRANCH  15  16
HETATM   16  C   UNL     1     -41.488 -47.365  10.715  1.00  0.00     0.029 C 
HETATM   17  C   UNL     1     -40.142 -46.863  11.214  1.00  0.00     0.034 C 
HETATM   18  C   UNL     1     -40.060 -45.429  10.718  1.00  0.00     0.168 C 
HETATM   19  O   UNL     1     -41.221 -45.186   9.919  1.00  0.00    -0.391 OA
HETATM   20  C   UNL     1     -42.235 -46.090  10.375  1.00  0.00     0.173 C 
ENDBRANCH  15  16
ENDBRANCH   3  15
TORSDOF 4
ENDMDL
MODEL 5
REMARK VINA RESULT:      -5.4      3.544      5.860
REMARK  4 active torsions:
REMARK  status: ('A' for Active; 'I' for Inactive)
REMARK    1  A    between atoms: C_2  and  C_3 
REMARK       I    between atoms: C_2  and  N_12 
REMARK    2  A    between atoms: C_3  and  N_4 
REMARK    3  A    between atoms: N_12  and  C_13 
REMARK    4  A    between atoms: C_13  and  C_14 
ROOT
HETATM    1  O   UNL     1     -40.293 -50.013  10.867  1.00  0.00    -0.272 OA
HETATM    2  C   UNL     1     -40.723 -49.645  11.957  1.00  0.00     0.235 C 
HETATM    3  N   UNL     1     -41.040 -48.333  12.244  1.00  0.00    -0.359 N 
HETATM    4  H   UNL     1     -41.200 -48.080  13.216  1.00  0.00     0.162 HD
ENDROOT
BRANCH   2   5
HETATM    5  C   UNL     1     -40.913 -50.613  13.123  1.00  0.00     0.235 C 
BRANCH   5   6
HETATM    6  N   UNL     1     -42.046 -51.502  12.894  1.00  0.00    -0.301 N 
HETATM    7  C   UNL     1     -43.324 -51.069  13.177  1.00  0.00     0.102 A 
HETATM    8  C   UNL     1     -44.382 -51.869  13.044  1.00  0.00     0.092 A 
HETATM    9  C   UNL     1     -44.171 -53.254  12.589  1.00  0.00     0.250 A 
HETATM   10  O   UNL     1     -45.100 -54.051  12.534  1.00  0.00    -0.268 OA
HETATM   11  N   UNL     1     -42.891 -53.577  12.244  1.00  0.00    -0.275 N 
HETATM   12  C   UNL     1     -41.796 -52.767  12.381  1.00  0.00     0.329 A 
HETATM   13  H   UNL     1     -42.729 -54.517  11.919  1.00  0.00     0.173 HD
HETATM   14  O   UNL     1     -40.671 -53.159  12.066  1.00  0.00    -0.246 OA
ENDBRANCH   5   6
ENDBRANCH   2   5
BRANCH   3  15
HETATM   15  C   UNL     1     -40.953 -47.273  11.257  1.00  0.00     0.129 C 
BRANCH  15  16
HETATM   16  C   UNL     1     -42.308 -46.831  10.707  1.00  0.00     0.029 C 
HETATM   17  C   UNL     1     -42.841 -47.664   9.551  1.00  0.00     0.034 C 
HETATM   18  C   UNL     1     -43.548 -46.663   8.653  1.00  0.00     0.168 C 
HETATM   19  O   UNL     1     -43.502 -45.393   9.309  1.00  0.00    -0.391 OA
HETATM   20  C   UNL     1     -42.360 -45.413  10.173  1.00  0.00     0.173 C 
ENDBRANCH  15  16
ENDBRANCH   3  15
TORSDOF 4
ENDMDL
MODEL 6
REMARK VINA RESULT:      -5.4      5.823      6.524
REMARK  4 active torsions:
REMARK  status: ('A' for Active; 'I' for Inactive)
REMARK    1  A    between atoms: C_2  and  C_3 
REMARK       I    between atoms: C_2  and  N_12 
REMARK    2  A    between atoms: C_3  and  N_4 
REMARK    3  A    between atoms: N_12  and  C_13 
REMARK    4  A    between atoms: C_13  and  C_14 
ROOT
HETATM    1  O   UNL     1     -43.072 -52.817  16.354  1.00  0.00    -0.272 OA
HETATM    2  C   UNL     1     -43.359 -53.821  15.707  1.00  0.00     0.235 C 
HETATM    3  N   UNL     1     -42.416 -54.682  15.185  1.00  0.00    -0.359 N 
HETATM    4  H   UNL     1     -42.722 -55.372  14.503  1.00  0.00     0.162 HD
ENDROOT
BRANCH   2   5
HETATM    5  C   UNL     1     -44.804 -54.194  15.385  1.00  0.00     0.235 C 
BRANCH   5   6
HETATM    6  N   UNL     1     -45.369 -53.302  14.379  1.00  0.00    -0.301 N 
HETATM    7  C   UNL     1     -46.111 -52.208  14.772  1.00  0.00     0.102 A 
HETATM    8  C   UNL     1     -46.700 -51.404  13.887  1.00  0.00     0.092 A 
HETATM    9  C   UNL     1     -46.556 -51.702  12.452  1.00  0.00     0.250 A 
HETATM   10  O   UNL     1     -47.148 -51.044  11.606  1.00  0.00    -0.268 OA
HETATM   11  N   UNL     1     -45.734 -52.747  12.142  1.00  0.00    -0.275 N 
HETATM   12  C   UNL     1     -45.129 -53.584  13.042  1.00  0.00     0.329 A 
HETATM   13  H   UNL     1     -45.613 -52.960  11.165  1.00  0.00     0.173 HD
HETATM   14  O   UNL     1     -44.423 -54.520  12.664  1.00  0.00    -0.246 OA
ENDBRANCH   5   6
ENDBRANCH   2   5
BRANCH   3  15
HETATM   15  C   UNL     1     -40.991 -54.511  15.407  1.00  0.00     0.129 C 
BRANCH  15  16
HETATM   16  C   UNL     1     -40.253 -53.896  14.220  1.00  0.00     0.029 C 
HETATM   17  C   UNL     1     -39.890 -52.427  14.373  1.00  0.00     0.034 C 
HETATM   18  C   UNL     1     -40.052 -51.844  12.979  1.00  0.00     0.168 C 
HETATM   19  O   UNL     1     -40.379 -52.925  12.100  1.00  0.00    -0.391 OA
HETATM   20  C   UNL     1     -41.000 -53.938  12.900  1.00  0.00     0.173 C 
ENDBRANCH  15  16
ENDBRANCH   3  15
TORSDOF 4
ENDMDL
MODEL 7
REMARK VINA RESULT:      -5.3      5.384      6.625
REMARK  4 active torsions:
REMARK  status: ('A' for Active; 'I' for Inactive)
REMARK    1  A    between atoms: C_2  and  C_3 
REMARK       I    between atoms: C_2  and  N_12 
REMARK    2  A    between atoms: C_3  and  N_4 
REMARK    3  A    between atoms: N_12  and  C_13 
REMARK    4  A    between atoms: C_13  and  C_14 
ROOT
HETATM    1  O   UNL     1     -39.672 -53.075  16.343  1.00  0.00    -0.272 OA
HETATM    2  C   UNL     1     -39.484 -53.261  15.143  1.00  0.00     0.235 C 
HETATM    3  N   UNL     1     -38.812 -52.369  14.334  1.00  0.00    -0.359 N 
HETATM    4  H   UNL     1     -38.870 -52.499  13.326  1.00  0.00     0.162 HD
ENDROOT
BRANCH   2   5
HETATM    5  C   UNL     1     -40.018 -54.495  14.420  1.00  0.00     0.235 C 
BRANCH   5   6
HETATM    6  N   UNL     1     -41.380 -54.282  13.945  1.00  0.00    -0.301 N 
HETATM    7  C   UNL     1     -42.447 -54.716  14.704  1.00  0.00     0.102 A 
HETATM    8  C   UNL     1     -43.705 -54.601  14.278  1.00  0.00     0.092 A 
HETATM    9  C   UNL     1     -43.954 -53.999  12.957  1.00  0.00     0.250 A 
HETATM   10  O   UNL     1     -45.084 -53.950  12.487  1.00  0.00    -0.268 OA
HETATM   11  N   UNL     1     -42.856 -53.514  12.308  1.00  0.00    -0.275 N 
HETATM   12  C   UNL     1     -41.559 -53.632  12.732  1.00  0.00     0.329 A 
HETATM   13  H   UNL     1     -43.007 -53.088  11.408  1.00  0.00     0.173 HD
HETATM   14  O   UNL     1     -40.628 -53.183  12.061  1.00  0.00    -0.246 OA
ENDBRANCH   5   6
ENDBRANCH   2   5
BRANCH   3  15
HETATM   15  C   UNL     1     -38.207 -51.151  14.843  1.00  0.00     0.129 C 
BRANCH  15  16
HETATM   16  C   UNL     1     -37.773 -50.177  13.749  1.00  0.00     0.029 C 
HETATM   17  C   UNL     1     -38.828 -49.167  13.325  1.00  0.00     0.034 C 
HETATM   18  C   UNL     1     -38.615 -48.995  11.830  1.00  0.00     0.168 C 
HETATM   19  O   UNL     1     -37.467 -49.769  11.471  1.00  0.00    -0.391 OA
HETATM   20  C   UNL     1     -37.352 -50.817  12.440  1.00  0.00     0.173 C 
ENDBRANCH  15  16
ENDBRANCH   3  15
TORSDOF 4
ENDMDL
MODEL 8
REMARK VINA RESULT:      -5.3      1.898      7.390
REMARK  4 active torsions:
REMARK  status: ('A' for Active; 'I' for Inactive)
REMARK    1  A    between atoms: C_2  and  C_3 
REMARK       I    between atoms: C_2  and  N_12 
REMARK    2  A    between atoms: C_3  and  N_4 
REMARK    3  A    between atoms: N_12  and  C_13 
REMARK    4  A    between atoms: C_13  and  C_14 
ROOT
HETATM    1  O   UNL     1     -42.361 -48.844  11.957  1.00  0.00    -0.272 OA
HETATM    2  C   UNL     1     -41.546 -48.776  11.040  1.00  0.00     0.235 C 
HETATM    3  N   UNL     1     -41.583 -47.803  10.063  1.00  0.00    -0.359 N 
HETATM    4  H   UNL     1     -41.000 -47.929   9.239  1.00  0.00     0.162 HD
ENDROOT
BRANCH   2   5
HETATM    5  C   UNL     1     -40.424 -49.798  10.875  1.00  0.00     0.235 C 
BRANCH   5   6
HETATM    6  N   UNL     1     -39.548 -49.815  12.041  1.00  0.00    -0.301 N 
HETATM    7  C   UNL     1     -38.932 -48.652  12.452  1.00  0.00     0.102 A 
HETATM    8  C   UNL     1     -38.073 -48.635  13.472  1.00  0.00     0.092 A 
HETATM    9  C   UNL     1     -37.774 -49.897  14.168  1.00  0.00     0.250 A 
HETATM   10  O   UNL     1     -36.928 -49.947  15.053  1.00  0.00    -0.268 OA
HETATM   11  N   UNL     1     -38.490 -50.985  13.760  1.00  0.00    -0.275 N 
HETATM   12  C   UNL     1     -39.370 -51.017  12.711  1.00  0.00     0.329 A 
HETATM   13  H   UNL     1     -38.308 -51.856  14.233  1.00  0.00     0.173 HD
HETATM   14  O   UNL     1     -39.951 -52.058  12.401  1.00  0.00    -0.246 OA
ENDBRANCH   5   6
ENDBRANCH   2   5
BRANCH   3  15
HETATM   15  C   UNL     1     -42.558 -46.727  10.065  1.00  0.00     0.129 C 
BRANCH  15  16
HETATM   16  C   UNL     1     -43.642 -46.879   9.000  1.00  0.00     0.029 C 
HETATM   17  C   UNL     1     -45.021 -47.247   9.526  1.00  0.00     0.034 C 
HETATM   18  C   UNL     1     -45.600 -48.173   8.468  1.00  0.00     0.168 C 
HETATM   19  O   UNL     1     -44.660 -48.231   7.391  1.00  0.00    -0.391 OA
HETATM   20  C   UNL     1     -43.373 -47.936   7.946  1.00  0.00     0.173 C 
ENDBRANCH  15  16
ENDBRANCH   3  15
TORSDOF 4
ENDMDL
MODEL 9
REMARK VINA RESULT:      -5.2      4.147      6.124
REMARK  4 active torsions:
REMARK  status: ('A' for Active; 'I' for Inactive)
REMARK    1  A    between atoms: C_2  and  C_3 
REMARK       I    between atoms: C_2  and  N_12 
REMARK    2  A    between atoms: C_3  and  N_4 
REMARK    3  A    between atoms: N_12  and  C_13 
REMARK    4  A    between atoms: C_13  and  C_14 
ROOT
HETATM    1  O   UNL     1     -42.086 -49.751  14.005  1.00  0.00    -0.272 OA
HETATM    2  C   UNL     1     -42.277 -50.185  12.872  1.00  0.00     0.235 C 
HETATM    3  N   UNL     1     -43.412 -50.880  12.506  1.00  0.00    -0.359 N 
HETATM    4  H   UNL     1     -43.407 -51.371  11.616  1.00  0.00     0.162 HD
ENDROOT
BRANCH   2   5
HETATM    5  C   UNL     1     -41.245 -50.026  11.758  1.00  0.00     0.235 C 
BRANCH   5   6
HETATM    6  N   UNL     1     -41.123 -48.633  11.344  1.00  0.00    -0.301 N 
HETATM    7  C   UNL     1     -42.198 -47.996  10.760  1.00  0.00     0.102 A 
HETATM    8  C   UNL     1     -42.111 -46.744  10.308  1.00  0.00     0.092 A 
HETATM    9  C   UNL     1     -40.828 -46.033  10.432  1.00  0.00     0.250 A 
HETATM   10  O   UNL     1     -40.675 -44.915   9.954  1.00  0.00    -0.268 OA
HETATM   11  N   UNL     1     -39.842 -46.698  11.100  1.00  0.00    -0.275 N 
HETATM   12  C   UNL     1     -39.916 -47.985  11.564  1.00  0.00     0.329 A 
HETATM   13  H   UNL     1     -38.960 -46.223  11.205  1.00  0.00     0.173 HD
HETATM   14  O   UNL     1     -38.959 -48.511  12.134  1.00  0.00    -0.246 OA
ENDBRANCH   5   6
ENDBRANCH   2   5
BRANCH   3  15
HETATM   15  C   UNL     1     -44.518 -51.107  13.418  1.00  0.00     0.129 C 
BRANCH  15  16
HETATM   16  C   UNL     1     -45.271 -52.410  13.158  1.00  0.00     0.029 C 
HETATM   17  C   UNL     1     -45.930 -53.033  14.378  1.00  0.00     0.034 C 
HETATM   18  C   UNL     1     -45.782 -54.531  14.172  1.00  0.00     0.168 C 
HETATM   19  O   UNL     1     -45.180 -54.728  12.890  1.00  0.00    -0.391 OA
HETATM   20  C   UNL     1     -44.432 -53.542  12.595  1.00  0.00     0.173 C 
ENDBRANCH  15  16
ENDBRANCH   3  15
TORSDOF 4
ENDMDL
