MODEL 1
REMARK VINA RESULT:      -5.1      0.000      0.000
REMARK  5 active torsions:
REMARK  status: ('A' for Active; 'I' for Inactive)
REMARK    1  A    between atoms: C_2  and  N_3 
REMARK    2  A    between atoms: C_2  and  C_8 
REMARK    3  A    between atoms: N_3  and  C_4 
REMARK    4  A    between atoms: C_4  and  C_5 
REMARK    5  A    between atoms: C_8  and  N_10 
ROOT
HETATM    1  C   UNL     1     -40.826 -47.690  11.009  1.00  0.00     0.136 C 
HETATM    2  C   UNL     1     -40.846 -46.379  11.804  1.00  0.00     0.036 C 
ENDROOT
BRANCH   1   3
HETATM    3  C   UNL     1     -42.237 -48.396  10.913  1.00  0.00     0.240 C 
HETATM    4  C   UNL     1     -43.141 -47.961  12.083  1.00  0.00     0.045 C 
BRANCH   3   5
HETATM    5  N   UNL     1     -43.055 -48.141   9.693  1.00  0.00     0.090 N 
HETATM    6  H   UNL     1     -43.287 -49.026   9.242  1.00  0.00     0.316 HD
BRANCH   5   7
HETATM    7  C   UNL     1     -44.289 -47.422   9.976  1.00  0.00     0.274 C 
BRANCH   7   8
HETATM    8  C   UNL     1     -45.272 -47.488   8.853  1.00  0.00     0.014 A 
HETATM    9  C   UNL     1     -46.661 -46.950   9.116  1.00  0.00     0.007 A 
HETATM   10  C   UNL     1     -46.457 -48.424   8.929  1.00  0.00     0.007 A 
ENDBRANCH   7   8
ENDBRANCH   5   7
ENDBRANCH   3   5
ENDBRANCH   1   3
BRANCH   1  11
HETATM   11  N   UNL     1     -39.772 -48.531  11.581  1.00  0.00    -0.297 N 
HETATM   12  C   UNL     1     -39.066 -48.318  12.737  1.00  0.00     0.118 A 
HETATM   13  C   UNL     1     -38.396 -49.494  13.003  1.00  0.00    -0.028 A 
HETATM   14  C   UNL     1     -37.603 -49.850  14.199  1.00  0.00     0.051 C 
HETATM   15  C   UNL     1     -38.680 -50.312  11.888  1.00  0.00     0.115 A 
HETATM   16  N   UNL     1     -39.478 -49.714  11.000  1.00  0.00    -0.309 N 
ATOM     17  HN  UNL     1     -39.792 -50.068  10.097  1.00  0.00     0.186 HD
ENDBRANCH   1  11
TORSDOF 5
ENDMDL
MODEL 2
REMARK VINA RESULT:      -5.1      5.660      6.587
REMARK  5 active torsions:
REMARK  status: ('A' for Active; 'I' for Inactive)
REMARK    1  A    between atoms: C_2  and  N_3 
REMARK    2  A    between atoms: C_2  and  C_8 
REMARK    3  A    between atoms: N_3  and  C_4 
REMARK    4  A    between atoms: C_4  and  C_5 
REMARK    5  A    between atoms: C_8  and  N_10 
ROOT
HETATM    1  C   UNL     1     -43.724 -53.617  13.925  1.00  0.00     0.136 C 
HETATM    2  C   UNL     1     -42.981 -54.737  14.663  1.00  0.00     0.036 C 
ENDROOT
BRANCH   1   3
HETATM    3  C   UNL     1     -45.029 -54.105  13.181  1.00  0.00     0.240 C 
HETATM    4  C   UNL     1     -45.573 -55.393  13.828  1.00  0.00     0.045 C 
BRANCH   3   5
HETATM    5  N   UNL     1     -46.196 -53.177  13.153  1.00  0.00     0.090 N 
HETATM    6  H   UNL     1     -46.898 -53.524  12.498  1.00  0.00     0.316 HD
BRANCH   5   7
HETATM    7  C   UNL     1     -46.818 -53.007  14.458  1.00  0.00     0.274 C 
BRANCH   7   8
HETATM    8  C   UNL     1     -46.891 -51.579  14.888  1.00  0.00     0.014 A 
HETATM    9  C   UNL     1     -45.912 -51.122  15.946  1.00  0.00     0.007 A 
HETATM   10  C   UNL     1     -47.371 -51.222  16.277  1.00  0.00     0.007 A 
ENDBRANCH   7   8
ENDBRANCH   5   7
ENDBRANCH   3   5
ENDBRANCH   1   3
BRANCH   1  11
HETATM   11  N   UNL     1     -42.752 -52.947  13.057  1.00  0.00    -0.297 N 
HETATM   12  C   UNL     1     -42.674 -51.612  12.760  1.00  0.00     0.118 A 
HETATM   13  C   UNL     1     -41.455 -51.423  12.143  1.00  0.00    -0.028 A 
HETATM   14  C   UNL     1     -40.813 -50.151  11.745  1.00  0.00     0.051 C 
HETATM   15  C   UNL     1     -40.927 -52.727  12.017  1.00  0.00     0.115 A 
HETATM   16  N   UNL     1     -41.732 -53.660  12.530  1.00  0.00    -0.309 N 
ATOM     17  HN  UNL     1     -41.606 -54.672  12.526  1.00  0.00     0.186 HD
ENDBRANCH   1  11
TORSDOF 5
ENDMDL
MODEL 3
REMARK VINA RESULT:      -5.1      2.144      6.155
REMARK  5 active torsions:
REMARK  status: ('A' for Active; 'I' for Inactive)
REMARK    1  A    between atoms: C_2  and  N_3 
REMARK    2  A    between atoms: C_2  and  C_8 
REMARK    3  A    between atoms: N_3  and  C_4 
REMARK    4  A    between atoms: C_4  and  C_5 
REMARK    5  A    between atoms: C_8  and  N_10 
ROOT
HETATM    1  C   UNL     1     -41.688 -47.843  11.088  1.00  0.00     0.136 C 
HETATM    2  C   UNL     1     -40.819 -46.618  10.776  1.00  0.00     0.036 C 
ENDROOT
BRANCH   1   3
HETATM    3  C   UNL     1     -40.890 -49.206  11.082  1.00  0.00     0.240 C 
HETATM    4  C   UNL     1     -39.655 -49.115  11.999  1.00  0.00     0.045 C 
BRANCH   3   5
HETATM    5  N   UNL     1     -41.609 -50.429  11.541  1.00  0.00     0.090 N 
HETATM    6  H   UNL     1     -42.190 -50.792  10.784  1.00  0.00     0.316 HD
BRANCH   5   7
HETATM    7  C   UNL     1     -40.710 -51.483  11.987  1.00  0.00     0.274 C 
BRANCH   7   8
HETATM    8  C   UNL     1     -41.362 -52.449  12.922  1.00  0.00     0.014 A 
HETATM    9  C   UNL     1     -40.487 -53.097  13.971  1.00  0.00     0.007 A 
HETATM   10  C   UNL     1     -41.037 -53.924  12.847  1.00  0.00     0.007 A 
ENDBRANCH   7   8
ENDBRANCH   5   7
ENDBRANCH   3   5
ENDBRANCH   1   3
BRANCH   1  11
HETATM   11  N   UNL     1     -42.830 -47.811  10.170  1.00  0.00    -0.297 N 
HETATM   12  C   UNL     1     -44.142 -47.560  10.475  1.00  0.00     0.118 A 
HETATM   13  C   UNL     1     -44.788 -47.364   9.271  1.00  0.00    -0.028 A 
HETATM   14  C   UNL     1     -46.181 -46.928   9.036  1.00  0.00     0.051 C 
HETATM   15  C   UNL     1     -43.796 -47.629   8.301  1.00  0.00     0.115 A 
HETATM   16  N   UNL     1     -42.618 -47.945   8.843  1.00  0.00    -0.309 N 
ATOM     17  HN  UNL     1     -41.760 -48.222   8.366  1.00  0.00     0.186 HD
ENDBRANCH   1  11
TORSDOF 5
ENDMDL
MODEL 4
REMARK VINA RESULT:      -5.0      4.203      7.192
REMARK  5 active torsions:
REMARK  status: ('A' for Active; 'I' for Inactive)
REMARK    1  A    between atoms: C_2  and  N_3 
REMARK    2  A    between atoms: C_2  and  C_8 
REMARK    3  A    between atoms: N_3  and  C_4 
REMARK    4  A    between atoms: C_4  and  C_5 
REMARK    5  A    between atoms: C_8  and  N_10 
ROOT
HETATM    1  C   UNL     1     -43.042 -52.745  12.468  1.00  0.00     0.136 C 
HETATM    2  C   UNL     1     -42.472 -53.910  13.286  1.00  0.00     0.036 C 
ENDROOT
BRANCH   1   3
HETATM    3  C   UNL     1     -42.130 -51.455  12.480  1.00  0.00     0.240 C 
HETATM    4  C   UNL     1     -41.530 -51.228  13.881  1.00  0.00     0.045 C 
BRANCH   3   5
HETATM    5  N   UNL     1     -40.956 -51.432  11.561  1.00  0.00     0.090 N 
HETATM    6  H   UNL     1     -41.098 -50.726  10.837  1.00  0.00     0.316 HD
BRANCH   5   7
HETATM    7  C   UNL     1     -39.703 -51.153  12.247  1.00  0.00     0.274 C 
BRANCH   7   8
HETATM    8  C   UNL     1     -38.998 -49.951  11.709  1.00  0.00     0.014 A 
HETATM    9  C   UNL     1     -37.512 -50.074  11.454  1.00  0.00     0.007 A 
HETATM   10  C   UNL     1     -38.007 -49.198  12.567  1.00  0.00     0.007 A 
ENDBRANCH   7   8
ENDBRANCH   5   7
ENDBRANCH   3   5
ENDBRANCH   1   3
BRANCH   1  11
HETATM   11  N   UNL     1     -44.413 -52.516  12.933  1.00  0.00    -0.297 N 
HETATM   12  C   UNL     1     -44.840 -52.336  14.223  1.00  0.00     0.118 A 
HETATM   13  C   UNL     1     -46.141 -51.885  14.140  1.00  0.00    -0.028 A 
HETATM   14  C   UNL     1     -47.020 -51.407  15.229  1.00  0.00     0.051 C 
HETATM   15  C   UNL     1     -46.436 -51.936  12.760  1.00  0.00     0.115 A 
HETATM   16  N   UNL     1     -45.403 -52.362  12.028  1.00  0.00    -0.309 N 
ATOM     17  HN  UNL     1     -45.371 -52.530  11.023  1.00  0.00     0.186 HD
ENDBRANCH   1  11
TORSDOF 5
ENDMDL
MODEL 5
REMARK VINA RESULT:      -4.9      1.467      2.024
REMARK  5 active torsions:
REMARK  status: ('A' for Active; 'I' for Inactive)
REMARK    1  A    between atoms: C_2  and  N_3 
REMARK    2  A    between atoms: C_2  and  C_8 
REMARK    3  A    between atoms: N_3  and  C_4 
REMARK    4  A    between atoms: C_4  and  C_5 
REMARK    5  A    between atoms: C_8  and  N_10 
ROOT
HETATM    1  C   UNL     1     -41.172 -46.955  10.646  1.00  0.00     0.136 C 
HETATM    2  C   UNL     1     -39.984 -45.997  10.799  1.00  0.00     0.036 C 
ENDROOT
BRANCH   1   3
HETATM    3  C   UNL     1     -42.522 -46.390  11.242  1.00  0.00     0.240 C 
HETATM    4  C   UNL     1     -42.303 -44.993  11.853  1.00  0.00     0.045 C 
BRANCH   3   5
HETATM    5  N   UNL     1     -43.670 -46.214  10.306  1.00  0.00     0.090 N 
HETATM    6  H   UNL     1     -43.337 -45.832   9.420  1.00  0.00     0.316 HD
BRANCH   5   7
HETATM    7  C   UNL     1     -44.384 -47.454  10.043  1.00  0.00     0.274 C 
BRANCH   7   8
HETATM    8  C   UNL     1     -45.302 -47.360   8.868  1.00  0.00     0.014 A 
HETATM    9  C   UNL     1     -46.753 -47.033   9.147  1.00  0.00     0.007 A 
HETATM   10  C   UNL     1     -46.379 -48.400   8.654  1.00  0.00     0.007 A 
ENDBRANCH   7   8
ENDBRANCH   5   7
ENDBRANCH   3   5
ENDBRANCH   1   3
BRANCH   1  11
HETATM   11  N   UNL     1     -40.764 -48.248  11.202  1.00  0.00    -0.297 N 
HETATM   12  C   UNL     1     -41.573 -49.281  11.598  1.00  0.00     0.118 A 
HETATM   13  C   UNL     1     -40.746 -50.369  11.784  1.00  0.00    -0.028 A 
HETATM   14  C   UNL     1     -41.120 -51.769  12.077  1.00  0.00     0.051 C 
HETATM   15  C   UNL     1     -39.447 -49.853  11.581  1.00  0.00     0.115 A 
HETATM   16  N   UNL     1     -39.451 -48.555  11.273  1.00  0.00    -0.309 N 
ATOM     17  HN  UNL     1     -38.651 -47.940  11.124  1.00  0.00     0.186 HD
ENDBRANCH   1  11
TORSDOF 5
ENDMDL
MODEL 6
REMARK VINA RESULT:      -4.9      3.834      5.498
REMARK  5 active torsions:
REMARK  status: ('A' for Active; 'I' for Inactive)
REMARK    1  A    between atoms: C_2  and  N_3 
REMARK    2  A    between atoms: C_2  and  C_8 
REMARK    3  A    between atoms: N_3  and  C_4 
REMARK    4  A    between atoms: C_4  and  C_5 
REMARK    5  A    between atoms: C_8  and  N_10 
ROOT
HETATM    1  C   UNL     1     -40.632 -51.127  12.486  1.00  0.00     0.136 C 
HETATM    2  C   UNL     1     -39.121 -50.880  12.402  1.00  0.00     0.036 C 
ENDROOT
BRANCH   1   3
HETATM    3  C   UNL     1     -41.076 -52.539  11.933  1.00  0.00     0.240 C 
HETATM    4  C   UNL     1     -40.706 -53.653  12.931  1.00  0.00     0.045 C 
BRANCH   3   5
HETATM    5  N   UNL     1     -42.527 -52.748  11.658  1.00  0.00     0.090 N 
HETATM    6  H   UNL     1     -42.652 -53.577  11.077  1.00  0.00     0.316 HD
BRANCH   5   7
HETATM    7  C   UNL     1     -43.318 -52.901  12.870  1.00  0.00     0.274 C 
BRANCH   7   8
HETATM    8  C   UNL     1     -44.362 -53.963  12.754  1.00  0.00     0.014 A 
HETATM    9  C   UNL     1     -45.653 -53.753  13.514  1.00  0.00     0.007 A 
HETATM   10  C   UNL     1     -44.704 -54.832  13.944  1.00  0.00     0.007 A 
ENDBRANCH   7   8
ENDBRANCH   5   7
ENDBRANCH   3   5
ENDBRANCH   1   3
BRANCH   1  11
HETATM   11  N   UNL     1     -41.295 -49.992  11.838  1.00  0.00    -0.297 N 
HETATM   12  C   UNL     1     -42.310 -49.219  12.338  1.00  0.00     0.118 A 
HETATM   13  C   UNL     1     -42.409 -48.124  11.504  1.00  0.00    -0.028 A 
HETATM   14  C   UNL     1     -43.248 -46.918  11.667  1.00  0.00     0.051 C 
HETATM   15  C   UNL     1     -41.483 -48.393  10.472  1.00  0.00     0.115 A 
HETATM   16  N   UNL     1     -40.838 -49.548  10.647  1.00  0.00    -0.309 N 
ATOM     17  HN  UNL     1     -40.159 -49.991  10.028  1.00  0.00     0.186 HD
ENDBRANCH   1  11
TORSDOF 5
ENDMDL
MODEL 7
REMARK VINA RESULT:      -4.9      2.085      2.520
REMARK  5 active torsions:
REMARK  status: ('A' for Active; 'I' for Inactive)
REMARK    1  A    between atoms: C_2  and  N_3 
REMARK    2  A    between atoms: C_2  and  C_8 
REMARK    3  A    between atoms: N_3  and  C_4 
REMARK    4  A    between atoms: C_4  and  C_5 
REMARK    5  A    between atoms: C_8  and  N_10 
ROOT
HETATM    1  C   UNL     1     -40.176 -49.242  11.516  1.00  0.00     0.136 C 
HETATM    2  C   UNL     1     -39.652 -48.419  12.699  1.00  0.00     0.036 C 
ENDROOT
BRANCH   1   3
HETATM    3  C   UNL     1     -41.532 -48.696  10.915  1.00  0.00     0.240 C 
HETATM    4  C   UNL     1     -42.519 -48.338  12.042  1.00  0.00     0.045 C 
BRANCH   3   5
HETATM    5  N   UNL     1     -41.468 -47.470  10.068  1.00  0.00     0.090 N 
HETATM    6  H   UNL     1     -41.356 -47.733   9.088  1.00  0.00     0.316 HD
BRANCH   5   7
HETATM    7  C   UNL     1     -42.649 -46.630  10.195  1.00  0.00     0.274 C 
BRANCH   7   8
HETATM    8  C   UNL     1     -43.406 -46.491   8.915  1.00  0.00     0.014 A 
HETATM    9  C   UNL     1     -44.756 -47.168   8.831  1.00  0.00     0.007 A 
HETATM   10  C   UNL     1     -43.611 -47.688   8.014  1.00  0.00     0.007 A 
ENDBRANCH   7   8
ENDBRANCH   5   7
ENDBRANCH   3   5
ENDBRANCH   1   3
BRANCH   1  11
HETATM   11  N   UNL     1     -40.230 -50.641  11.948  1.00  0.00    -0.297 N 
HETATM   12  C   UNL     1     -39.633 -51.202  13.046  1.00  0.00     0.118 A 
HETATM   13  C   UNL     1     -40.187 -52.456  13.190  1.00  0.00    -0.028 A 
HETATM   14  C   UNL     1     -39.998 -53.425  14.291  1.00  0.00     0.051 C 
HETATM   15  C   UNL     1     -41.025 -52.594  12.061  1.00  0.00     0.115 A 
HETATM   16  N   UNL     1     -41.018 -51.511  11.280  1.00  0.00    -0.309 N 
ATOM     17  HN  UNL     1     -41.497 -51.373  10.390  1.00  0.00     0.186 HD
ENDBRANCH   1  11
TORSDOF 5
ENDMDL
MODEL 8
REMARK VINA RESULT:      -4.9      3.611      5.577
REMARK  5 active torsions:
REMARK  status: ('A' for Active; 'I' for Inactive)
REMARK    1  A    between atoms: C_2  and  N_3 
REMARK    2  A    between atoms: C_2  and  C_8 
REMARK    3  A    between atoms: N_3  and  C_4 
REMARK    4  A    between atoms: C_4  and  C_5 
REMARK    5  A    between atoms: C_8  and  N_10 
ROOT
HETATM    1  C   UNL     1     -41.635 -52.481  12.021  1.00  0.00     0.136 C 
HETATM    2  C   UNL     1     -40.810 -53.592  12.682  1.00  0.00     0.036 C 
ENDROOT
BRANCH   1   3
HETATM    3  C   UNL     1     -40.999 -51.043  12.172  1.00  0.00     0.240 C 
HETATM    4  C   UNL     1     -39.624 -51.128  12.864  1.00  0.00     0.045 C 
BRANCH   3   5
HETATM    5  N   UNL     1     -40.743 -50.267  10.925  1.00  0.00     0.090 N 
HETATM    6  H   UNL     1     -41.242 -50.693  10.144  1.00  0.00     0.316 HD
BRANCH   5   7
HETATM    7  C   UNL     1     -41.144 -48.872  11.031  1.00  0.00     0.274 C 
BRANCH   7   8
HETATM    8  C   UNL     1     -42.526 -48.702  11.573  1.00  0.00     0.014 A 
HETATM    9  C   UNL     1     -43.285 -47.461  11.160  1.00  0.00     0.007 A 
HETATM   10  C   UNL     1     -42.824 -47.613  12.579  1.00  0.00     0.007 A 
ENDBRANCH   7   8
ENDBRANCH   5   7
ENDBRANCH   3   5
ENDBRANCH   1   3
BRANCH   1  11
HETATM   11  N   UNL     1     -43.003 -52.590  12.535  1.00  0.00    -0.297 N 
HETATM   12  C   UNL     1     -43.693 -51.669  13.280  1.00  0.00     0.118 A 
HETATM   13  C   UNL     1     -45.008 -52.085  13.286  1.00  0.00    -0.028 A 
HETATM   14  C   UNL     1     -46.192 -51.382  13.827  1.00  0.00     0.051 C 
HETATM   15  C   UNL     1     -44.981 -53.324  12.609  1.00  0.00     0.115 A 
HETATM   16  N   UNL     1     -43.758 -53.656  12.191  1.00  0.00    -0.309 N 
ATOM     17  HN  UNL     1     -43.463 -54.512  11.722  1.00  0.00     0.186 HD
ENDBRANCH   1  11
TORSDOF 5
ENDMDL
MODEL 9
REMARK VINA RESULT:      -4.8      4.053      4.838
REMARK  5 active torsions:
REMARK  status: ('A' for Active; 'I' for Inactive)
REMARK    1  A    between atoms: C_2  and  N_3 
REMARK    2  A    between atoms: C_2  and  C_8 
REMARK    3  A    between atoms: N_3  and  C_4 
REMARK    4  A    between atoms: C_4  and  C_5 
REMARK    5  A    between atoms: C_8  and  N_10 
ROOT
HETATM    1  C   UNL     1     -41.650 -51.835  13.445  1.00  0.00     0.136 C 
HETATM    2  C   UNL     1     -41.746 -51.799  14.975  1.00  0.00     0.036 C 
ENDROOT
BRANCH   1   3
HETATM    3  C   UNL     1     -42.227 -53.159  12.804  1.00  0.00     0.240 C 
HETATM    4  C   UNL     1     -42.533 -54.202  13.896  1.00  0.00     0.045 C 
BRANCH   3   5
HETATM    5  N   UNL     1     -43.492 -53.053  12.022  1.00  0.00     0.090 N 
HETATM    6  H   UNL     1     -43.545 -53.816  11.345  1.00  0.00     0.316 HD
BRANCH   5   7
HETATM    7  C   UNL     1     -44.683 -53.088  12.859  1.00  0.00     0.274 C 
BRANCH   7   8
HETATM    8  C   UNL     1     -45.343 -51.755  12.988  1.00  0.00     0.014 A 
HETATM    9  C   UNL     1     -46.529 -51.656  13.923  1.00  0.00     0.007 A 
HETATM   10  C   UNL     1     -46.736 -51.535  12.442  1.00  0.00     0.007 A 
ENDBRANCH   7   8
ENDBRANCH   5   7
ENDBRANCH   3   5
ENDBRANCH   1   3
BRANCH   1  11
HETATM   11  N   UNL     1     -40.257 -51.553  13.089  1.00  0.00    -0.297 N 
HETATM   12  C   UNL     1     -39.796 -50.814  12.031  1.00  0.00     0.118 A 
HETATM   13  C   UNL     1     -38.453 -50.599  12.265  1.00  0.00    -0.028 A 
HETATM   14  C   UNL     1     -37.513 -49.747  11.506  1.00  0.00     0.051 C 
HETATM   15  C   UNL     1     -38.184 -51.346  13.433  1.00  0.00     0.115 A 
HETATM   16  N   UNL     1     -39.267 -51.963  13.911  1.00  0.00    -0.309 N 
ATOM     17  HN  UNL     1     -39.331 -52.595  14.709  1.00  0.00     0.186 HD
ENDBRANCH   1  11
TORSDOF 5
ENDMDL
