MODEL 1
REMARK VINA RESULT:      -6.1      0.000      0.000
REMARK  5 active torsions:
REMARK  status: ('A' for Active; 'I' for Inactive)
REMARK    1  A    between atoms: C_2  and  N_3 
REMARK    2  A    between atoms: N_6  and  C_9 
REMARK    3  A    between atoms: C_9  and  C_11 
REMARK    4  A    between atoms: C_11  and  N_12 
REMARK       I    between atoms: N_12  and  C_13 
REMARK       I    between atoms: C_13  and  N_15 
REMARK    5  A    between atoms: N_15  and  C_16 
ROOT
HETATM    1  N   UNL     1     -40.131 -48.885  11.355  1.00  0.00    -0.341 N 
HETATM    2  C   UNL     1     -40.887 -49.850  11.994  1.00  0.00     0.322 C 
HETATM    3  O   UNL     1     -41.569 -49.595  12.981  1.00  0.00    -0.247 OA
HETATM    4  N   UNL     1     -40.742 -51.069  11.386  1.00  0.00    -0.288 N 
HETATM    5  H   UNL     1     -39.901 -49.089  10.405  1.00  0.00     0.164 HD
HETATM    6  H   UNL     1     -40.016 -51.213  10.707  1.00  0.00     0.172 HD
ENDROOT
BRANCH   1   7
HETATM    7  C   UNL     1     -40.297 -47.489  11.739  1.00  0.00     0.159 C 
BRANCH   7   8
HETATM    8  C   UNL     1     -40.904 -46.558  10.644  1.00  0.00     0.236 C 
HETATM    9  C   UNL     1     -39.885 -45.417  10.438  1.00  0.00     0.044 C 
BRANCH   8  10
HETATM   10  N   UNL     1     -42.255 -46.000  10.973  1.00  0.00     0.097 N 
HETATM   11  C   UNL     1     -43.226 -46.998  11.465  1.00  0.00     0.303 C 
HETATM   12  C   UNL     1     -43.612 -48.041  10.386  1.00  0.00     0.302 C 
HETATM   13  N   UNL     1     -44.243 -47.447   9.189  1.00  0.00     0.091 N 
HETATM   14  C   UNL     1     -43.389 -46.328   8.707  1.00  0.00     0.302 C 
HETATM   15  C   UNL     1     -42.914 -45.345   9.809  1.00  0.00     0.303 C 
BRANCH  13  16
HETATM   16  C   UNL     1     -45.614 -46.976   9.444  1.00  0.00     0.268 C 
HETATM   17  C   UNL     1     -46.689 -47.918   8.906  1.00  0.00     0.037 C 
ENDBRANCH  13  16
ENDBRANCH   8  10
ENDBRANCH   7   8
ENDBRANCH   1   7
BRANCH   4  18
HETATM   18  C   UNL     1     -41.361 -52.181  11.883  1.00  0.00     0.168 A 
HETATM   19  N   UNL     1     -42.550 -52.674  11.639  1.00  0.00    -0.279 N 
HETATM   20  N   UNL     1     -42.822 -53.770  12.432  1.00  0.00    -0.303 N 
ATOM     21  HN  UNL     1     -43.197 -52.294  10.948  1.00  0.00     0.189 HD
HETATM   22  C   UNL     1     -41.817 -54.055  13.233  1.00  0.00     0.160 A 
ATOM     23  HN  UNL     1     -43.695 -54.296  12.400  1.00  0.00     0.186 HD
HETATM   24  S   UNL     1     -40.439 -53.049  13.029  1.00  0.00    -0.046 SA
ENDBRANCH   4  18
TORSDOF 5
ENDMDL
MODEL 2
REMARK VINA RESULT:      -5.9      2.871      6.622
REMARK  5 active torsions:
REMARK  status: ('A' for Active; 'I' for Inactive)
REMARK    1  A    between atoms: C_2  and  N_3 
REMARK    2  A    between atoms: N_6  and  C_9 
REMARK    3  A    between atoms: C_9  and  C_11 
REMARK    4  A    between atoms: C_11  and  N_12 
REMARK       I    between atoms: N_12  and  C_13 
REMARK       I    between atoms: C_13  and  N_15 
REMARK    5  A    between atoms: N_15  and  C_16 
ROOT
HETATM    1  N   UNL     1     -40.896 -51.101  11.409  1.00  0.00    -0.341 N 
HETATM    2  C   UNL     1     -41.056 -49.739  11.583  1.00  0.00     0.322 C 
HETATM    3  O   UNL     1     -41.023 -49.215  12.691  1.00  0.00    -0.247 OA
HETATM    4  N   UNL     1     -41.260 -49.113  10.381  1.00  0.00    -0.288 N 
HETATM    5  H   UNL     1     -40.598 -51.380  10.499  1.00  0.00     0.164 HD
HETATM    6  H   UNL     1     -41.459 -49.652   9.557  1.00  0.00     0.172 HD
ENDROOT
BRANCH   1   7
HETATM    7  C   UNL     1     -40.483 -51.913  12.547  1.00  0.00     0.159 C 
BRANCH   7   8
HETATM    8  C   UNL     1     -41.593 -52.823  13.162  1.00  0.00     0.236 C 
HETATM    9  C   UNL     1     -41.139 -54.278  12.917  1.00  0.00     0.044 C 
BRANCH   8  10
HETATM   10  N   UNL     1     -42.965 -52.602  12.606  1.00  0.00     0.097 N 
HETATM   11  C   UNL     1     -43.716 -51.503  13.247  1.00  0.00     0.303 C 
HETATM   12  C   UNL     1     -44.061 -51.798  14.728  1.00  0.00     0.302 C 
HETATM   13  N   UNL     1     -44.903 -52.998  14.911  1.00  0.00     0.091 N 
HETATM   14  C   UNL     1     -44.286 -54.130  14.170  1.00  0.00     0.302 C 
HETATM   15  C   UNL     1     -43.841 -53.801  12.721  1.00  0.00     0.303 C 
BRANCH  13  16
HETATM   16  C   UNL     1     -46.293 -52.789  14.469  1.00  0.00     0.268 C 
HETATM   17  C   UNL     1     -46.908 -51.494  14.994  1.00  0.00     0.037 C 
ENDBRANCH  13  16
ENDBRANCH   8  10
ENDBRANCH   7   8
ENDBRANCH   1   7
BRANCH   4  18
HETATM   18  C   UNL     1     -41.493 -47.768  10.319  1.00  0.00     0.168 A 
HETATM   19  N   UNL     1     -40.679 -46.754  10.484  1.00  0.00    -0.279 N 
HETATM   20  N   UNL     1     -41.346 -45.548  10.431  1.00  0.00    -0.303 N 
ATOM     21  HN  UNL     1     -39.674 -46.846  10.634  1.00  0.00     0.189 HD
HETATM   22  C   UNL     1     -42.636 -45.713  10.221  1.00  0.00     0.160 A 
ATOM     23  HN  UNL     1     -40.896 -44.640  10.540  1.00  0.00     0.186 HD
HETATM   24  S   UNL     1     -43.117 -47.348  10.003  1.00  0.00    -0.046 SA
ENDBRANCH   4  18
TORSDOF 5
ENDMDL
MODEL 3
REMARK VINA RESULT:      -5.9      2.595      6.658
REMARK  5 active torsions:
REMARK  status: ('A' for Active; 'I' for Inactive)
REMARK    1  A    between atoms: C_2  and  N_3 
REMARK    2  A    between atoms: N_6  and  C_9 
REMARK    3  A    between atoms: C_9  and  C_11 
REMARK    4  A    between atoms: C_11  and  N_12 
REMARK       I    between atoms: N_12  and  C_13 
REMARK       I    between atoms: C_13  and  N_15 
REMARK    5  A    between atoms: N_15  and  C_16 
ROOT
HETATM    1  N   UNL     1     -40.386 -49.788  10.724  1.00  0.00    -0.341 N 
HETATM    2  C   UNL     1     -41.103 -48.609  10.808  1.00  0.00     0.322 C 
HETATM    3  O   UNL     1     -41.082 -47.904  11.811  1.00  0.00    -0.247 OA
HETATM    4  N   UNL     1     -41.810 -48.383   9.656  1.00  0.00    -0.288 N 
HETATM    5  H   UNL     1     -40.189 -50.099   9.796  1.00  0.00     0.164 HD
HETATM    6  H   UNL     1     -41.911 -49.111   8.972  1.00  0.00     0.172 HD
ENDROOT
BRANCH   1   7
HETATM    7  C   UNL     1     -39.427 -50.107  11.774  1.00  0.00     0.159 C 
BRANCH   7   8
HETATM    8  C   UNL     1     -39.977 -50.981  12.944  1.00  0.00     0.236 C 
HETATM    9  C   UNL     1     -38.844 -51.059  13.990  1.00  0.00     0.044 C 
BRANCH   8  10
HETATM   10  N   UNL     1     -40.418 -52.356  12.547  1.00  0.00     0.097 N 
HETATM   11  C   UNL     1     -41.802 -52.432  12.036  1.00  0.00     0.303 C 
HETATM   12  C   UNL     1     -42.859 -52.103  13.120  1.00  0.00     0.302 C 
HETATM   13  N   UNL     1     -42.825 -53.022  14.277  1.00  0.00     0.091 N 
HETATM   14  C   UNL     1     -41.424 -53.115  14.770  1.00  0.00     0.302 C 
HETATM   15  C   UNL     1     -40.355 -53.335  13.668  1.00  0.00     0.303 C 
BRANCH  13  16
HETATM   16  C   UNL     1     -43.347 -54.361  13.954  1.00  0.00     0.268 C 
HETATM   17  C   UNL     1     -44.724 -54.332  13.296  1.00  0.00     0.037 C 
ENDBRANCH  13  16
ENDBRANCH   8  10
ENDBRANCH   7   8
ENDBRANCH   1   7
BRANCH   4  18
HETATM   18  C   UNL     1     -42.631 -47.297   9.537  1.00  0.00     0.168 A 
HETATM   19  N   UNL     1     -42.626 -46.152  10.175  1.00  0.00    -0.279 N 
HETATM   20  N   UNL     1     -43.696 -45.361   9.814  1.00  0.00    -0.303 N 
ATOM     21  HN  UNL     1     -41.916 -45.879  10.855  1.00  0.00     0.189 HD
HETATM   22  C   UNL     1     -44.456 -45.948   8.913  1.00  0.00     0.160 A 
ATOM     23  HN  UNL     1     -43.877 -44.433  10.198  1.00  0.00     0.186 HD
HETATM   24  S   UNL     1     -43.880 -47.480   8.388  1.00  0.00    -0.046 SA
ENDBRANCH   4  18
TORSDOF 5
ENDMDL
MODEL 4
REMARK VINA RESULT:      -5.6      4.069      7.209
REMARK  5 active torsions:
REMARK  status: ('A' for Active; 'I' for Inactive)
REMARK    1  A    between atoms: C_2  and  N_3 
REMARK    2  A    between atoms: N_6  and  C_9 
REMARK    3  A    between atoms: C_9  and  C_11 
REMARK    4  A    between atoms: C_11  and  N_12 
REMARK       I    between atoms: N_12  and  C_13 
REMARK       I    between atoms: C_13  and  N_15 
REMARK    5  A    between atoms: N_15  and  C_16 
ROOT
HETATM    1  N   UNL     1     -42.767 -53.664  12.301  1.00  0.00    -0.341 N 
HETATM    2  C   UNL     1     -42.298 -52.365  12.250  1.00  0.00     0.322 C 
HETATM    3  O   UNL     1     -43.026 -51.401  12.460  1.00  0.00    -0.247 OA
HETATM    4  N   UNL     1     -40.965 -52.336  11.931  1.00  0.00    -0.288 N 
HETATM    5  H   UNL     1     -42.069 -54.360  12.459  1.00  0.00     0.164 HD
HETATM    6  H   UNL     1     -40.509 -53.164  11.592  1.00  0.00     0.172 HD
ENDROOT
BRANCH   1   7
HETATM    7  C   UNL     1     -44.111 -53.910  12.806  1.00  0.00     0.159 C 
BRANCH   7   8
HETATM    8  C   UNL     1     -44.260 -53.890  14.360  1.00  0.00     0.236 C 
HETATM    9  C   UNL     1     -43.406 -55.062  14.888  1.00  0.00     0.044 C 
BRANCH   8  10
HETATM   10  N   UNL     1     -45.669 -54.002  14.856  1.00  0.00     0.097 N 
HETATM   11  C   UNL     1     -46.617 -53.059  14.229  1.00  0.00     0.303 C 
HETATM   12  C   UNL     1     -46.315 -51.582  14.584  1.00  0.00     0.302 C 
HETATM   13  N   UNL     1     -46.387 -51.294  16.031  1.00  0.00     0.091 N 
HETATM   14  C   UNL     1     -45.563 -52.298  16.757  1.00  0.00     0.302 C 
HETATM   15  C   UNL     1     -45.790 -53.770  16.322  1.00  0.00     0.303 C 
BRANCH  13  16
HETATM   16  C   UNL     1     -47.769 -51.295  16.541  1.00  0.00     0.268 C 
HETATM   17  C   UNL     1     -47.856 -51.098  18.053  1.00  0.00     0.037 C 
ENDBRANCH  13  16
ENDBRANCH   8  10
ENDBRANCH   7   8
ENDBRANCH   1   7
BRANCH   4  18
HETATM   18  C   UNL     1     -40.305 -51.150  11.777  1.00  0.00     0.168 A 
HETATM   19  N   UNL     1     -40.480 -50.184  10.909  1.00  0.00    -0.279 N 
HETATM   20  N   UNL     1     -39.527 -49.196  11.044  1.00  0.00    -0.303 N 
ATOM     21  HN  UNL     1     -41.229 -50.166  10.217  1.00  0.00     0.189 HD
HETATM   22  C   UNL     1     -38.680 -49.464  12.016  1.00  0.00     0.160 A 
ATOM     23  HN  UNL     1     -39.484 -48.360  10.462  1.00  0.00     0.186 HD
HETATM   24  S   UNL     1     -39.027 -50.906  12.883  1.00  0.00    -0.046 SA
ENDBRANCH   4  18
TORSDOF 5
ENDMDL
MODEL 5
REMARK VINA RESULT:      -5.6      2.905      6.584
REMARK  5 active torsions:
REMARK  status: ('A' for Active; 'I' for Inactive)
REMARK    1  A    between atoms: C_2  and  N_3 
REMARK    2  A    between atoms: N_6  and  C_9 
REMARK    3  A    between atoms: C_9  and  C_11 
REMARK    4  A    between atoms: C_11  and  N_12 
REMARK       I    between atoms: N_12  and  C_13 
REMARK       I    between atoms: C_13  and  N_15 
REMARK    5  A    between atoms: N_15  and  C_16 
ROOT
HETATM    1  N   UNL     1     -40.957 -52.772  11.745  1.00  0.00    -0.341 N 
HETATM    2  C   UNL     1     -40.646 -51.454  12.025  1.00  0.00     0.322 C 
HETATM    3  O   UNL     1     -40.384 -51.074  13.161  1.00  0.00    -0.247 OA
HETATM    4  N   UNL     1     -40.692 -50.688  10.889  1.00  0.00    -0.288 N 
HETATM    5  H   UNL     1     -40.816 -53.048  10.797  1.00  0.00     0.164 HD
HETATM    6  H   UNL     1     -41.101 -51.054  10.049  1.00  0.00     0.172 HD
ENDROOT
BRANCH   1   7
HETATM    7  C   UNL     1     -40.781 -53.775  12.788  1.00  0.00     0.159 C 
BRANCH   7   8
HETATM    8  C   UNL     1     -41.859 -53.770  13.916  1.00  0.00     0.236 C 
HETATM    9  C   UNL     1     -41.328 -54.708  15.020  1.00  0.00     0.044 C 
BRANCH   8  10
HETATM   10  N   UNL     1     -43.226 -54.196  13.479  1.00  0.00     0.097 N 
HETATM   11  C   UNL     1     -43.878 -53.278  12.523  1.00  0.00     0.303 C 
HETATM   12  C   UNL     1     -44.204 -51.898  13.146  1.00  0.00     0.302 C 
HETATM   13  N   UNL     1     -45.126 -51.972  14.298  1.00  0.00     0.091 N 
HETATM   14  C   UNL     1     -44.612 -52.989  15.254  1.00  0.00     0.302 C 
HETATM   15  C   UNL     1     -44.183 -54.334  14.612  1.00  0.00     0.303 C 
BRANCH  13  16
HETATM   16  C   UNL     1     -46.507 -52.290  13.900  1.00  0.00     0.268 C 
HETATM   17  C   UNL     1     -46.930 -51.626  12.592  1.00  0.00     0.037 C 
ENDBRANCH  13  16
ENDBRANCH   8  10
ENDBRANCH   7   8
ENDBRANCH   1   7
BRANCH   4  18
HETATM   18  C   UNL     1     -40.467 -49.341  10.941  1.00  0.00     0.168 A 
HETATM   19  N   UNL     1     -39.375 -48.670  11.210  1.00  0.00    -0.279 N 
HETATM   20  N   UNL     1     -39.606 -47.310  11.248  1.00  0.00    -0.303 N 
ATOM     21  HN  UNL     1     -38.464 -49.100  11.372  1.00  0.00     0.189 HD
HETATM   22  C   UNL     1     -40.866 -47.022  10.997  1.00  0.00     0.160 A 
ATOM     23  HN  UNL     1     -38.888 -46.614  11.445  1.00  0.00     0.186 HD
HETATM   24  S   UNL     1     -41.847 -48.384  10.628  1.00  0.00    -0.046 SA
ENDBRANCH   4  18
TORSDOF 5
ENDMDL
MODEL 6
REMARK VINA RESULT:      -5.6      3.417      6.502
REMARK  5 active torsions:
REMARK  status: ('A' for Active; 'I' for Inactive)
REMARK    1  A    between atoms: C_2  and  N_3 
REMARK    2  A    between atoms: N_6  and  C_9 
REMARK    3  A    between atoms: C_9  and  C_11 
REMARK    4  A    between atoms: C_11  and  N_12 
REMARK       I    between atoms: N_12  and  C_13 
REMARK       I    between atoms: C_13  and  N_15 
REMARK    5  A    between atoms: N_15  and  C_16 
ROOT
HETATM    1  N   UNL     1     -40.305 -49.723  10.675  1.00  0.00    -0.341 N 
HETATM    2  C   UNL     1     -41.547 -49.137  10.834  1.00  0.00     0.322 C 
HETATM    3  O   UNL     1     -42.257 -49.368  11.807  1.00  0.00    -0.247 OA
HETATM    4  N   UNL     1     -41.839 -48.315   9.777  1.00  0.00    -0.288 N 
HETATM    5  H   UNL     1     -39.681 -49.235  10.069  1.00  0.00     0.164 HD
HETATM    6  H   UNL     1     -41.279 -48.343   8.944  1.00  0.00     0.172 HD
ENDROOT
BRANCH   1   7
HETATM    7  C   UNL     1     -39.737 -50.483  11.782  1.00  0.00     0.159 C 
BRANCH   7   8
HETATM    8  C   UNL     1     -38.587 -49.775  12.564  1.00  0.00     0.236 C 
HETATM    9  C   UNL     1     -37.327 -50.640  12.349  1.00  0.00     0.044 C 
BRANCH   8  10
HETATM   10  N   UNL     1     -38.847 -49.584  14.026  1.00  0.00     0.097 N 
HETATM   11  C   UNL     1     -39.929 -48.627  14.336  1.00  0.00     0.303 C 
HETATM   12  C   UNL     1     -39.580 -47.175  13.923  1.00  0.00     0.302 C 
HETATM   13  N   UNL     1     -38.385 -46.638  14.605  1.00  0.00     0.091 N 
HETATM   14  C   UNL     1     -37.275 -47.618  14.462  1.00  0.00     0.302 C 
HETATM   15  C   UNL     1     -37.656 -49.089  14.770  1.00  0.00     0.303 C 
BRANCH  13  16
HETATM   16  C   UNL     1     -38.628 -46.339  16.027  1.00  0.00     0.268 C 
HETATM   17  C   UNL     1     -39.647 -45.224  16.246  1.00  0.00     0.037 C 
ENDBRANCH  13  16
ENDBRANCH   8  10
ENDBRANCH   7   8
ENDBRANCH   1   7
BRANCH   4  18
HETATM   18  C   UNL     1     -43.041 -47.669   9.700  1.00  0.00     0.168 A 
HETATM   19  N   UNL     1     -44.181 -47.919  10.295  1.00  0.00    -0.279 N 
HETATM   20  N   UNL     1     -45.180 -47.071   9.863  1.00  0.00    -0.303 N 
ATOM     21  HN  UNL     1     -44.314 -48.651  10.993  1.00  0.00     0.189 HD
HETATM   22  C   UNL     1     -44.740 -46.216   8.964  1.00  0.00     0.160 A 
ATOM     23  HN  UNL     1     -46.142 -47.103  10.200  1.00  0.00     0.186 HD
HETATM   24  S   UNL     1     -43.058 -46.337   8.632  1.00  0.00    -0.046 SA
ENDBRANCH   4  18
TORSDOF 5
ENDMDL
MODEL 7
REMARK VINA RESULT:      -5.5      2.263      4.019
REMARK  5 active torsions:
REMARK  status: ('A' for Active; 'I' for Inactive)
REMARK    1  A    between atoms: C_2  and  N_3 
REMARK    2  A    between atoms: N_6  and  C_9 
REMARK    3  A    between atoms: C_9  and  C_11 
REMARK    4  A    between atoms: C_11  and  N_12 
REMARK       I    between atoms: N_12  and  C_13 
REMARK       I    between atoms: C_13  and  N_15 
REMARK    5  A    between atoms: N_15  and  C_16 
ROOT
HETATM    1  N   UNL     1     -41.979 -49.034  11.052  1.00  0.00    -0.341 N 
HETATM    2  C   UNL     1     -41.263 -50.144  11.461  1.00  0.00     0.322 C 
HETATM    3  O   UNL     1     -40.037 -50.169  11.448  1.00  0.00    -0.247 OA
HETATM    4  N   UNL     1     -42.104 -51.156  11.844  1.00  0.00    -0.288 N 
HETATM    5  H   UNL     1     -42.908 -48.975  11.410  1.00  0.00     0.164 HD
HETATM    6  H   UNL     1     -43.085 -51.104  11.636  1.00  0.00     0.172 HD
ENDROOT
BRANCH   1   7
HETATM    7  C   UNL     1     -41.263 -47.793  10.785  1.00  0.00     0.159 C 
BRANCH   7   8
HETATM    8  C   UNL     1     -42.078 -46.482  11.020  1.00  0.00     0.236 C 
HETATM    9  C   UNL     1     -43.389 -46.644  10.221  1.00  0.00     0.044 C 
BRANCH   8  10
HETATM   10  N   UNL     1     -41.372 -45.224  10.619  1.00  0.00     0.097 N 
HETATM   11  C   UNL     1     -39.963 -45.147  11.054  1.00  0.00     0.303 C 
HETATM   12  C   UNL     1     -39.815 -45.069  12.594  1.00  0.00     0.302 C 
HETATM   13  N   UNL     1     -40.467 -43.886  13.192  1.00  0.00     0.091 N 
HETATM   14  C   UNL     1     -41.865 -43.808  12.688  1.00  0.00     0.302 C 
HETATM   15  C   UNL     1     -42.021 -43.996  11.156  1.00  0.00     0.303 C 
BRANCH  13  16
HETATM   16  C   UNL     1     -39.746 -42.635  12.905  1.00  0.00     0.268 C 
HETATM   17  C   UNL     1     -40.459 -41.390  13.430  1.00  0.00     0.037 C 
ENDBRANCH  13  16
ENDBRANCH   8  10
ENDBRANCH   7   8
ENDBRANCH   1   7
BRANCH   4  18
HETATM   18  C   UNL     1     -41.612 -52.368  12.238  1.00  0.00     0.168 A 
HETATM   19  N   UNL     1     -40.923 -53.264  11.575  1.00  0.00    -0.279 N 
HETATM   20  N   UNL     1     -40.705 -54.400  12.325  1.00  0.00    -0.303 N 
ATOM     21  HN  UNL     1     -40.588 -53.136  10.619  1.00  0.00     0.189 HD
HETATM   22  C   UNL     1     -41.237 -54.303  13.525  1.00  0.00     0.160 A 
ATOM     23  HN  UNL     1     -40.193 -55.217  11.991  1.00  0.00     0.186 HD
HETATM   24  S   UNL     1     -41.982 -52.789  13.851  1.00  0.00    -0.046 SA
ENDBRANCH   4  18
TORSDOF 5
ENDMDL
MODEL 8
REMARK VINA RESULT:      -5.4      3.625      7.033
REMARK  5 active torsions:
REMARK  status: ('A' for Active; 'I' for Inactive)
REMARK    1  A    between atoms: C_2  and  N_3 
REMARK    2  A    between atoms: N_6  and  C_9 
REMARK    3  A    between atoms: C_9  and  C_11 
REMARK    4  A    between atoms: C_11  and  N_12 
REMARK       I    between atoms: N_12  and  C_13 
REMARK       I    between atoms: C_13  and  N_15 
REMARK    5  A    between atoms: N_15  and  C_16 
ROOT
HETATM    1  N   UNL     1     -39.750 -49.842  13.311  1.00  0.00    -0.341 N 
HETATM    2  C   UNL     1     -39.499 -48.888  12.343  1.00  0.00     0.322 C 
HETATM    3  O   UNL     1     -38.670 -49.062  11.456  1.00  0.00    -0.247 OA
HETATM    4  N   UNL     1     -40.273 -47.774  12.539  1.00  0.00    -0.288 N 
HETATM    5  H   UNL     1     -40.640 -49.768  13.757  1.00  0.00     0.164 HD
HETATM    6  H   UNL     1     -40.777 -47.654  13.399  1.00  0.00     0.172 HD
ENDROOT
BRANCH   1   7
HETATM    7  C   UNL     1     -39.161 -51.167  13.165  1.00  0.00     0.159 C 
BRANCH   7   8
HETATM    8  C   UNL     1     -40.007 -52.346  13.739  1.00  0.00     0.236 C 
HETATM    9  C   UNL     1     -38.999 -53.333  14.364  1.00  0.00     0.044 C 
BRANCH   8  10
HETATM   10  N   UNL     1     -40.871 -53.046  12.735  1.00  0.00     0.097 N 
HETATM   11  C   UNL     1     -42.036 -52.262  12.277  1.00  0.00     0.303 C 
HETATM   12  C   UNL     1     -43.069 -52.010  13.405  1.00  0.00     0.302 C 
HETATM   13  N   UNL     1     -43.638 -53.250  13.972  1.00  0.00     0.091 N 
HETATM   14  C   UNL     1     -42.521 -54.164  14.333  1.00  0.00     0.302 C 
HETATM   15  C   UNL     1     -41.431 -54.329  13.242  1.00  0.00     0.303 C 
BRANCH  13  16
HETATM   16  C   UNL     1     -44.574 -53.918  13.053  1.00  0.00     0.268 C 
HETATM   17  C   UNL     1     -45.338 -55.072  13.698  1.00  0.00     0.037 C 
ENDBRANCH  13  16
ENDBRANCH   8  10
ENDBRANCH   7   8
ENDBRANCH   1   7
BRANCH   4  18
HETATM   18  C   UNL     1     -40.153 -46.682  11.727  1.00  0.00     0.168 A 
HETATM   19  N   UNL     1     -40.151 -46.589  10.420  1.00  0.00    -0.279 N 
HETATM   20  N   UNL     1     -39.907 -45.298   9.999  1.00  0.00    -0.303 N 
ATOM     21  HN  UNL     1     -40.309 -47.376   9.790  1.00  0.00     0.189 HD
HETATM   22  C   UNL     1     -39.745 -44.476  11.015  1.00  0.00     0.160 A 
ATOM     23  HN  UNL     1     -39.860 -45.015   9.021  1.00  0.00     0.186 HD
HETATM   24  S   UNL     1     -39.946 -45.205  12.558  1.00  0.00    -0.046 SA
ENDBRANCH   4  18
TORSDOF 5
ENDMDL
MODEL 9
REMARK VINA RESULT:      -5.3      2.758      4.380
REMARK  5 active torsions:
REMARK  status: ('A' for Active; 'I' for Inactive)
REMARK    1  A    between atoms: C_2  and  N_3 
REMARK    2  A    between atoms: N_6  and  C_9 
REMARK    3  A    between atoms: C_9  and  C_11 
REMARK    4  A    between atoms: C_11  and  N_12 
REMARK       I    between atoms: N_12  and  C_13 
REMARK       I    between atoms: C_13  and  N_15 
REMARK    5  A    between atoms: N_15  and  C_16 
ROOT
HETATM    1  N   UNL     1     -42.181 -52.331  11.716  1.00  0.00    -0.341 N 
HETATM    2  C   UNL     1     -43.021 -52.677  12.758  1.00  0.00     0.322 C 
HETATM    3  O   UNL     1     -42.597 -52.921  13.883  1.00  0.00    -0.247 OA
HETATM    4  N   UNL     1     -44.327 -52.715  12.344  1.00  0.00    -0.288 N 
HETATM    5  H   UNL     1     -42.617 -51.832  10.969  1.00  0.00     0.164 HD
HETATM    6  H   UNL     1     -44.547 -52.688  11.365  1.00  0.00     0.172 HD
ENDROOT
BRANCH   1   7
HETATM    7  C   UNL     1     -40.779 -52.056  12.001  1.00  0.00     0.159 C 
BRANCH   7   8
HETATM    8  C   UNL     1     -40.311 -50.592  11.729  1.00  0.00     0.236 C 
HETATM    9  C   UNL     1     -38.815 -50.543  12.105  1.00  0.00     0.044 C 
BRANCH   8  10
HETATM   10  N   UNL     1     -41.073 -49.541  12.476  1.00  0.00     0.097 N 
HETATM   11  C   UNL     1     -42.213 -48.967  11.732  1.00  0.00     0.303 C 
HETATM   12  C   UNL     1     -41.769 -48.157  10.488  1.00  0.00     0.302 C 
HETATM   13  N   UNL     1     -40.900 -47.006  10.811  1.00  0.00     0.091 N 
HETATM   14  C   UNL     1     -39.793 -47.476  11.686  1.00  0.00     0.302 C 
HETATM   15  C   UNL     1     -40.230 -48.378  12.869  1.00  0.00     0.303 C 
BRANCH  13  16
HETATM   16  C   UNL     1     -41.634 -45.904  11.457  1.00  0.00     0.268 C 
HETATM   17  C   UNL     1     -42.662 -45.241  10.542  1.00  0.00     0.037 C 
ENDBRANCH  13  16
ENDBRANCH   8  10
ENDBRANCH   7   8
ENDBRANCH   1   7
BRANCH   4  18
HETATM   18  C   UNL     1     -45.325 -53.086  13.200  1.00  0.00     0.168 A 
HETATM   19  N   UNL     1     -45.816 -54.269  13.475  1.00  0.00    -0.279 N 
HETATM   20  N   UNL     1     -46.891 -54.189  14.335  1.00  0.00    -0.303 N 
ATOM     21  HN  UNL     1     -45.447 -55.143  13.099  1.00  0.00     0.189 HD
HETATM   22  C   UNL     1     -47.156 -52.945  14.673  1.00  0.00     0.160 A 
ATOM     23  HN  UNL     1     -47.417 -54.997  14.669  1.00  0.00     0.186 HD
HETATM   24  S   UNL     1     -46.067 -51.785  14.021  1.00  0.00    -0.046 SA
ENDBRANCH   4  18
TORSDOF 5
ENDMDL
