MODEL 1
REMARK VINA RESULT:      -5.6      0.000      0.000
REMARK  5 active torsions:
REMARK  status: ('A' for Active; 'I' for Inactive)
REMARK    1  A    between atoms: N_12  and  C_13 
REMARK    2  A    between atoms: C_13  and  C_14 
REMARK    3  A    between atoms: C_14  and  O_15 
REMARK    4  A    between atoms: C_14  and  C_16 
REMARK    5  A    between atoms: C_16  and  N_17 
ROOT
HETATM    1  C   UNL     3     -46.390 -54.457  14.534  1.00  0.00     0.049 C 
HETATM    2  C   UNL     3     -45.254 -53.588  14.066  1.00  0.00    -0.054 A 
HETATM    3  C   UNL     3     -44.065 -54.190  13.593  1.00  0.00     0.039 A 
HETATM    4  C   UNL     3     -43.068 -53.366  13.086  1.00  0.00     0.060 A 
HETATM    5  N   UNL     3     -41.885 -53.730  12.559  1.00  0.00    -0.350 N 
ATOM      6  HN  UNL     3     -41.495 -54.668  12.477  1.00  0.00     0.166 HD
HETATM    7  C   UNL     3     -41.330 -52.557  12.163  1.00  0.00     0.184 A 
HETATM    8  N   UNL     3     -42.122 -51.489  12.428  1.00  0.00    -0.339 N 
HETATM    9  C   UNL     3     -43.211 -52.007  13.030  1.00  0.00     0.062 A 
HETATM   10  C   UNL     3     -44.350 -51.371  13.514  1.00  0.00     0.039 A 
HETATM   11  C   UNL     3     -45.382 -52.166  14.060  1.00  0.00    -0.054 A 
HETATM   12  C   UNL     3     -46.600 -51.493  14.636  1.00  0.00     0.049 C 
ENDROOT
BRANCH   8  13
HETATM   13  C   UNL     3     -41.848 -50.096  12.057  1.00  0.00     0.163 C 
BRANCH  13  14
HETATM   14  C   UNL     3     -40.424 -49.883  11.502  1.00  0.00     0.164 C 
BRANCH  14  15
HETATM   15  O   UNL     3     -40.446 -49.867  10.097  1.00  0.00    -0.392 OA
HETATM   16  H   UNL     3     -39.535 -49.627   9.783  1.00  0.00     0.210 HD
ENDBRANCH  14  15
BRANCH  14  17
HETATM   17  C   UNL     3     -39.767 -48.590  12.037  1.00  0.00     0.299 C 
BRANCH  17  18
HETATM   18  N   UNL     3     -39.756 -47.528  11.030  1.00  0.00     0.080 N 
HETATM   19  H   UNL     3     -39.496 -46.619  11.474  1.00  0.00     0.312 HD
HETATM   20  H   UNL     3     -40.727 -47.409  10.661  1.00  0.00     0.312 HD
ENDBRANCH  17  18
ENDBRANCH  14  17
ENDBRANCH  13  14
ENDBRANCH   8  13
TORSDOF 5
ENDMDL
MODEL 2
REMARK VINA RESULT:      -5.5      2.885      3.825
REMARK  5 active torsions:
REMARK  status: ('A' for Active; 'I' for Inactive)
REMARK    1  A    between atoms: N_12  and  C_13 
REMARK    2  A    between atoms: C_13  and  C_14 
REMARK    3  A    between atoms: C_14  and  O_15 
REMARK    4  A    between atoms: C_14  and  C_16 
REMARK    5  A    between atoms: C_16  and  N_17 
ROOT
HETATM    1  C   UNL     3     -47.901 -51.181  16.569  1.00  0.00     0.049 C 
HETATM    2  C   UNL     3     -46.687 -51.670  15.827  1.00  0.00    -0.054 A 
HETATM    3  C   UNL     3     -46.821 -52.711  14.879  1.00  0.00     0.039 A 
HETATM    4  C   UNL     3     -45.701 -53.082  14.147  1.00  0.00     0.060 A 
HETATM    5  N   UNL     3     -45.617 -54.015  13.181  1.00  0.00    -0.350 N 
ATOM      6  HN  UNL     3     -46.349 -54.640  12.846  1.00  0.00     0.166 HD
HETATM    7  C   UNL     3     -44.331 -53.931  12.757  1.00  0.00     0.184 A 
HETATM    8  N   UNL     3     -43.622 -52.988  13.425  1.00  0.00    -0.339 N 
HETATM    9  C   UNL     3     -44.489 -52.469  14.316  1.00  0.00     0.062 A 
HETATM   10  C   UNL     3     -44.304 -51.464  15.260  1.00  0.00     0.039 A 
HETATM   11  C   UNL     3     -45.410 -51.068  16.045  1.00  0.00    -0.054 A 
HETATM   12  C   UNL     3     -45.218 -50.018  17.107  1.00  0.00     0.049 C 
ENDROOT
BRANCH   8  13
HETATM   13  C   UNL     3     -42.234 -52.596  13.155  1.00  0.00     0.163 C 
BRANCH  13  14
HETATM   14  C   UNL     3     -41.313 -53.796  12.844  1.00  0.00     0.164 C 
BRANCH  14  15
HETATM   15  O   UNL     3     -40.547 -53.537  11.696  1.00  0.00    -0.392 OA
HETATM   16  H   UNL     3     -39.637 -53.904  11.850  1.00  0.00     0.210 HD
ENDBRANCH  14  15
BRANCH  14  17
HETATM   17  C   UNL     3     -40.388 -54.156  14.030  1.00  0.00     0.299 C 
BRANCH  17  18
HETATM   18  N   UNL     3     -39.118 -54.722  13.576  1.00  0.00     0.080 N 
HETATM   19  H   UNL     3     -39.217 -55.752  13.432  1.00  0.00     0.312 HD
HETATM   20  H   UNL     3     -38.408 -54.597  14.334  1.00  0.00     0.312 HD
ENDBRANCH  17  18
ENDBRANCH  14  17
ENDBRANCH  13  14
ENDBRANCH   8  13
TORSDOF 5
ENDMDL
MODEL 3
REMARK VINA RESULT:      -5.1      1.937      2.468
REMARK  5 active torsions:
REMARK  status: ('A' for Active; 'I' for Inactive)
REMARK    1  A    between atoms: N_12  and  C_13 
REMARK    2  A    between atoms: C_13  and  C_14 
REMARK    3  A    between atoms: C_14  and  O_15 
REMARK    4  A    between atoms: C_14  and  C_16 
REMARK    5  A    between atoms: C_16  and  N_17 
ROOT
HETATM    1  C   UNL     3     -47.159 -51.523  15.519  1.00  0.00     0.049 C 
HETATM    2  C   UNL     3     -45.832 -51.256  14.862  1.00  0.00    -0.054 A 
HETATM    3  C   UNL     3     -44.727 -50.868  15.655  1.00  0.00     0.039 A 
HETATM    4  C   UNL     3     -43.495 -50.712  15.033  1.00  0.00     0.060 A 
HETATM    5  N   UNL     3     -42.319 -50.386  15.600  1.00  0.00    -0.350 N 
ATOM      6  HN  UNL     3     -42.135 -50.155  16.576  1.00  0.00     0.166 HD
HETATM    7  C   UNL     3     -41.436 -50.434  14.572  1.00  0.00     0.184 A 
HETATM    8  N   UNL     3     -42.022 -50.774  13.397  1.00  0.00    -0.339 N 
HETATM    9  C   UNL     3     -43.327 -50.929  13.693  1.00  0.00     0.062 A 
HETATM   10  C   UNL     3     -44.393 -51.279  12.870  1.00  0.00     0.039 A 
HETATM   11  C   UNL     3     -45.671 -51.426  13.453  1.00  0.00    -0.054 A 
HETATM   12  C   UNL     3     -46.847 -51.755  12.571  1.00  0.00     0.049 C 
ENDROOT
BRANCH   8  13
HETATM   13  C   UNL     3     -41.335 -50.987  12.118  1.00  0.00     0.163 C 
BRANCH  13  14
HETATM   14  C   UNL     3     -40.757 -49.689  11.513  1.00  0.00     0.164 C 
BRANCH  14  15
HETATM   15  O   UNL     3     -40.226 -49.941  10.237  1.00  0.00    -0.392 OA
HETATM   16  H   UNL     3     -39.380 -49.428  10.155  1.00  0.00     0.210 HD
ENDBRANCH  14  15
BRANCH  14  17
HETATM   17  C   UNL     3     -41.803 -48.554  11.439  1.00  0.00     0.299 C 
BRANCH  17  18
HETATM   18  N   UNL     3     -42.369 -48.422  10.097  1.00  0.00     0.080 N 
HETATM   19  H   UNL     3     -42.580 -47.419   9.895  1.00  0.00     0.312 HD
HETATM   20  H   UNL     3     -43.285 -48.927  10.070  1.00  0.00     0.312 HD
ENDBRANCH  17  18
ENDBRANCH  14  17
ENDBRANCH  13  14
ENDBRANCH   8  13
TORSDOF 5
ENDMDL
MODEL 4
REMARK VINA RESULT:      -5.0      2.101      2.930
REMARK  5 active torsions:
REMARK  status: ('A' for Active; 'I' for Inactive)
REMARK    1  A    between atoms: N_12  and  C_13 
REMARK    2  A    between atoms: C_13  and  C_14 
REMARK    3  A    between atoms: C_14  and  O_15 
REMARK    4  A    between atoms: C_14  and  C_16 
REMARK    5  A    between atoms: C_16  and  N_17 
ROOT
HETATM    1  C   UNL     3     -48.079 -51.143  16.638  1.00  0.00     0.049 C 
HETATM    2  C   UNL     3     -46.826 -51.537  15.904  1.00  0.00    -0.054 A 
HETATM    3  C   UNL     3     -46.899 -52.489  14.861  1.00  0.00     0.039 A 
HETATM    4  C   UNL     3     -45.743 -52.769  14.144  1.00  0.00     0.060 A 
HETATM    5  N   UNL     3     -45.600 -53.607  13.101  1.00  0.00    -0.350 N 
ATOM      6  HN  UNL     3     -46.304 -54.213  12.681  1.00  0.00     0.166 HD
HETATM    7  C   UNL     3     -44.301 -53.458  12.739  1.00  0.00     0.184 A 
HETATM    8  N   UNL     3     -43.641 -52.566  13.517  1.00  0.00    -0.339 N 
HETATM    9  C   UNL     3     -44.554 -52.149  14.417  1.00  0.00     0.062 A 
HETATM   10  C   UNL     3     -44.429 -51.231  15.455  1.00  0.00     0.039 A 
HETATM   11  C   UNL     3     -45.574 -50.932  16.227  1.00  0.00    -0.054 A 
HETATM   12  C   UNL     3     -45.447 -49.980  17.388  1.00  0.00     0.049 C 
ENDROOT
BRANCH   8  13
HETATM   13  C   UNL     3     -42.253 -52.123  13.340  1.00  0.00     0.163 C 
BRANCH  13  14
HETATM   14  C   UNL     3     -42.061 -51.201  12.117  1.00  0.00     0.164 C 
BRANCH  14  15
HETATM   15  O   UNL     3     -42.868 -50.057  12.239  1.00  0.00    -0.392 OA
HETATM   16  H   UNL     3     -42.274 -49.290  12.453  1.00  0.00     0.210 HD
ENDBRANCH  14  15
BRANCH  14  17
HETATM   17  C   UNL     3     -40.585 -50.790  11.912  1.00  0.00     0.299 C 
BRANCH  17  18
HETATM   18  N   UNL     3     -40.372 -50.159  10.609  1.00  0.00     0.080 N 
HETATM   19  H   UNL     3     -40.540 -49.130  10.679  1.00  0.00     0.312 HD
HETATM   20  H   UNL     3     -41.083 -50.530   9.939  1.00  0.00     0.312 HD
ENDBRANCH  17  18
ENDBRANCH  14  17
ENDBRANCH  13  14
ENDBRANCH   8  13
TORSDOF 5
ENDMDL
MODEL 5
REMARK VINA RESULT:      -5.0      1.544      1.978
REMARK  5 active torsions:
REMARK  status: ('A' for Active; 'I' for Inactive)
REMARK    1  A    between atoms: N_12  and  C_13 
REMARK    2  A    between atoms: C_13  and  C_14 
REMARK    3  A    between atoms: C_14  and  O_15 
REMARK    4  A    between atoms: C_14  and  C_16 
REMARK    5  A    between atoms: C_16  and  N_17 
ROOT
HETATM    1  C   UNL     3     -44.938 -54.063  13.360  1.00  0.00     0.049 C 
HETATM    2  C   UNL     3     -44.059 -52.861  13.143  1.00  0.00    -0.054 A 
HETATM    3  C   UNL     3     -42.802 -53.021  12.516  1.00  0.00     0.039 A 
HETATM    4  C   UNL     3     -42.050 -51.883  12.251  1.00  0.00     0.060 A 
HETATM    5  N   UNL     3     -40.855 -51.807  11.638  1.00  0.00    -0.350 N 
ATOM      6  HN  UNL     3     -40.273 -52.572  11.298  1.00  0.00     0.166 HD
HETATM    7  C   UNL     3     -40.604 -50.476  11.576  1.00  0.00     0.184 A 
HETATM    8  N   UNL     3     -41.594 -49.732  12.129  1.00  0.00    -0.339 N 
HETATM    9  C   UNL     3     -42.496 -50.630  12.571  1.00  0.00     0.062 A 
HETATM   10  C   UNL     3     -43.711 -50.429  13.218  1.00  0.00     0.039 A 
HETATM   11  C   UNL     3     -44.500 -51.559  13.530  1.00  0.00    -0.054 A 
HETATM   12  C   UNL     3     -45.795 -51.367  14.275  1.00  0.00     0.049 C 
ENDROOT
BRANCH   8  13
HETATM   13  C   UNL     3     -41.664 -48.266  12.154  1.00  0.00     0.163 C 
BRANCH  13  14
HETATM   14  C   UNL     3     -40.871 -47.600  11.009  1.00  0.00     0.164 C 
BRANCH  14  15
HETATM   15  O   UNL     3     -41.625 -47.614   9.823  1.00  0.00    -0.392 OA
HETATM   16  H   UNL     3     -41.581 -46.705   9.426  1.00  0.00     0.210 HD
ENDBRANCH  14  15
BRANCH  14  17
HETATM   17  C   UNL     3     -40.443 -46.154  11.349  1.00  0.00     0.299 C 
BRANCH  17  18
HETATM   18  N   UNL     3     -39.969 -45.435  10.166  1.00  0.00     0.080 N 
HETATM   19  H   UNL     3     -39.661 -46.115   9.435  1.00  0.00     0.312 HD
HETATM   20  H   UNL     3     -39.122 -44.881  10.430  1.00  0.00     0.312 HD
ENDBRANCH  17  18
ENDBRANCH  14  17
ENDBRANCH  13  14
ENDBRANCH   8  13
TORSDOF 5
ENDMDL
MODEL 6
REMARK VINA RESULT:      -4.9      2.650      5.638
REMARK  5 active torsions:
REMARK  status: ('A' for Active; 'I' for Inactive)
REMARK    1  A    between atoms: N_12  and  C_13 
REMARK    2  A    between atoms: C_13  and  C_14 
REMARK    3  A    between atoms: C_14  and  O_15 
REMARK    4  A    between atoms: C_14  and  C_16 
REMARK    5  A    between atoms: C_16  and  N_17 
ROOT
HETATM    1  C   UNL     3     -40.485 -46.555  12.006  1.00  0.00     0.049 C 
HETATM    2  C   UNL     3     -41.160 -47.893  12.143  1.00  0.00    -0.054 A 
HETATM    3  C   UNL     3     -40.551 -49.040  11.584  1.00  0.00     0.039 A 
HETATM    4  C   UNL     3     -41.152 -50.274  11.800  1.00  0.00     0.060 A 
HETATM    5  N   UNL     3     -40.726 -51.483  11.392  1.00  0.00    -0.350 N 
ATOM      6  HN  UNL     3     -39.911 -51.702  10.819  1.00  0.00     0.166 HD
HETATM    7  C   UNL     3     -41.632 -52.343  11.920  1.00  0.00     0.184 A 
HETATM    8  N   UNL     3     -42.598 -51.712  12.632  1.00  0.00    -0.339 N 
HETATM    9  C   UNL     3     -42.299 -50.402  12.535  1.00  0.00     0.062 A 
HETATM   10  C   UNL     3     -42.948 -49.297  13.075  1.00  0.00     0.039 A 
HETATM   11  C   UNL     3     -42.387 -48.018  12.862  1.00  0.00    -0.054 A 
HETATM   12  C   UNL     3     -43.103 -46.804  13.394  1.00  0.00     0.049 C 
ENDROOT
BRANCH   8  13
HETATM   13  C   UNL     3     -43.676 -52.358  13.390  1.00  0.00     0.163 C 
BRANCH  13  14
HETATM   14  C   UNL     3     -44.807 -52.906  12.492  1.00  0.00     0.164 C 
BRANCH  14  15
HETATM   15  O   UNL     3     -45.005 -54.274  12.740  1.00  0.00    -0.392 OA
HETATM   16  H   UNL     3     -45.885 -54.376  13.189  1.00  0.00     0.210 HD
ENDBRANCH  14  15
BRANCH  14  17
HETATM   17  C   UNL     3     -46.134 -52.135  12.676  1.00  0.00     0.299 C 
BRANCH  17  18
HETATM   18  N   UNL     3     -46.911 -52.086  11.438  1.00  0.00     0.080 N 
HETATM   19  H   UNL     3     -47.697 -52.773  11.483  1.00  0.00     0.312 HD
HETATM   20  H   UNL     3     -46.298 -52.391  10.647  1.00  0.00     0.312 HD
ENDBRANCH  17  18
ENDBRANCH  14  17
ENDBRANCH  13  14
ENDBRANCH   8  13
TORSDOF 5
ENDMDL
MODEL 7
REMARK VINA RESULT:      -4.9      2.634      4.221
REMARK  5 active torsions:
REMARK  status: ('A' for Active; 'I' for Inactive)
REMARK    1  A    between atoms: N_12  and  C_13 
REMARK    2  A    between atoms: C_13  and  C_14 
REMARK    3  A    between atoms: C_14  and  O_15 
REMARK    4  A    between atoms: C_14  and  C_16 
REMARK    5  A    between atoms: C_16  and  N_17 
ROOT
HETATM    1  C   UNL     3     -47.624 -51.048  17.593  1.00  0.00     0.049 C 
HETATM    2  C   UNL     3     -46.947 -51.743  16.444  1.00  0.00    -0.054 A 
HETATM    3  C   UNL     3     -47.194 -51.306  15.122  1.00  0.00     0.039 A 
HETATM    4  C   UNL     3     -46.489 -51.908  14.088  1.00  0.00     0.060 A 
HETATM    5  N   UNL     3     -46.545 -51.624  12.774  1.00  0.00    -0.350 N 
ATOM      6  HN  UNL     3     -47.143 -50.946  12.303  1.00  0.00     0.166 HD
HETATM    7  C   UNL     3     -45.620 -52.448  12.222  1.00  0.00     0.184 A 
HETATM    8  N   UNL     3     -45.002 -53.229  13.141  1.00  0.00    -0.339 N 
HETATM    9  C   UNL     3     -45.570 -52.896  14.316  1.00  0.00     0.062 A 
HETATM   10  C   UNL     3     -45.320 -53.379  15.597  1.00  0.00     0.039 A 
HETATM   11  C   UNL     3     -46.031 -52.813  16.679  1.00  0.00    -0.054 A 
HETATM   12  C   UNL     3     -45.812 -53.358  18.066  1.00  0.00     0.049 C 
ENDROOT
BRANCH   8  13
HETATM   13  C   UNL     3     -43.904 -54.168  12.881  1.00  0.00     0.163 C 
BRANCH  13  14
HETATM   14  C   UNL     3     -42.507 -53.537  13.066  1.00  0.00     0.164 C 
BRANCH  14  15
HETATM   15  O   UNL     3     -41.506 -54.483  12.794  1.00  0.00    -0.392 OA
HETATM   16  H   UNL     3     -40.744 -54.005  12.371  1.00  0.00     0.210 HD
ENDBRANCH  14  15
BRANCH  14  17
HETATM   17  C   UNL     3     -42.304 -52.281  12.188  1.00  0.00     0.299 C 
BRANCH  17  18
HETATM   18  N   UNL     3     -41.225 -52.465  11.217  1.00  0.00     0.080 N 
HETATM   19  H   UNL     3     -41.389 -51.858  10.382  1.00  0.00     0.312 HD
HETATM   20  H   UNL     3     -41.250 -53.452  10.874  1.00  0.00     0.312 HD
ENDBRANCH  17  18
ENDBRANCH  14  17
ENDBRANCH  13  14
ENDBRANCH   8  13
TORSDOF 5
ENDMDL
MODEL 8
REMARK VINA RESULT:      -4.8      2.453      3.440
REMARK  5 active torsions:
REMARK  status: ('A' for Active; 'I' for Inactive)
REMARK    1  A    between atoms: N_12  and  C_13 
REMARK    2  A    between atoms: C_13  and  C_14 
REMARK    3  A    between atoms: C_14  and  O_15 
REMARK    4  A    between atoms: C_14  and  C_16 
REMARK    5  A    between atoms: C_16  and  N_17 
ROOT
HETATM    1  C   UNL     3     -43.981 -54.677  13.962  1.00  0.00     0.049 C 
HETATM    2  C   UNL     3     -42.749 -53.866  13.664  1.00  0.00    -0.054 A 
HETATM    3  C   UNL     3     -42.747 -52.984  12.558  1.00  0.00     0.039 A 
HETATM    4  C   UNL     3     -41.628 -52.185  12.357  1.00  0.00     0.060 A 
HETATM    5  N   UNL     3     -41.434 -51.263  11.397  1.00  0.00    -0.350 N 
ATOM      6  HN  UNL     3     -42.054 -51.019  10.626  1.00  0.00     0.166 HD
HETATM    7  C   UNL     3     -40.221 -50.734  11.694  1.00  0.00     0.184 A 
HETATM    8  N   UNL     3     -39.662 -51.295  12.794  1.00  0.00    -0.339 N 
HETATM    9  C   UNL     3     -40.549 -52.226  13.197  1.00  0.00     0.062 A 
HETATM   10  C   UNL     3     -40.496 -53.101  14.277  1.00  0.00     0.039 A 
HETATM   11  C   UNL     3     -41.601 -53.951  14.508  1.00  0.00    -0.054 A 
HETATM   12  C   UNL     3     -41.541 -54.941  15.641  1.00  0.00     0.049 C 
ENDROOT
BRANCH   8  13
HETATM   13  C   UNL     3     -38.396 -50.896  13.421  1.00  0.00     0.163 C 
BRANCH  13  14
HETATM   14  C   UNL     3     -37.228 -50.786  12.418  1.00  0.00     0.164 C 
BRANCH  14  15
HETATM   15  O   UNL     3     -36.987 -52.031  11.814  1.00  0.00    -0.392 OA
HETATM   16  H   UNL     3     -37.163 -52.735  12.492  1.00  0.00     0.210 HD
ENDBRANCH  14  15
BRANCH  14  17
HETATM   17  C   UNL     3     -37.477 -49.710  11.336  1.00  0.00     0.299 C 
BRANCH  17  18
HETATM   18  N   UNL     3     -37.099 -50.181  10.003  1.00  0.00     0.080 N 
HETATM   19  H   UNL     3     -36.166 -50.650  10.042  1.00  0.00     0.312 HD
HETATM   20  H   UNL     3     -36.986 -49.352   9.376  1.00  0.00     0.312 HD
ENDBRANCH  17  18
ENDBRANCH  14  17
ENDBRANCH  13  14
ENDBRANCH   8  13
TORSDOF 5
ENDMDL
MODEL 9
REMARK VINA RESULT:      -4.8      3.539      5.453
REMARK  5 active torsions:
REMARK  status: ('A' for Active; 'I' for Inactive)
REMARK    1  A    between atoms: N_12  and  C_13 
REMARK    2  A    between atoms: C_13  and  C_14 
REMARK    3  A    between atoms: C_14  and  O_15 
REMARK    4  A    between atoms: C_14  and  C_16 
REMARK    5  A    between atoms: C_16  and  N_17 
ROOT
HETATM    1  C   UNL     3     -38.440 -55.561  16.151  1.00  0.00     0.049 C 
HETATM    2  C   UNL     3     -39.676 -55.020  15.485  1.00  0.00    -0.054 A 
HETATM    3  C   UNL     3     -39.547 -54.180  14.354  1.00  0.00     0.039 A 
HETATM    4  C   UNL     3     -40.705 -53.766  13.708  1.00  0.00     0.060 A 
HETATM    5  N   UNL     3     -40.807 -53.001  12.606  1.00  0.00    -0.350 N 
ATOM      6  HN  UNL     3     -40.056 -52.559  12.076  1.00  0.00     0.166 HD
HETATM    7  C   UNL     3     -42.140 -52.956  12.363  1.00  0.00     0.184 A 
HETATM    8  N   UNL     3     -42.861 -53.658  13.271  1.00  0.00    -0.339 N 
HETATM    9  C   UNL     3     -41.947 -54.151  14.131  1.00  0.00     0.062 A 
HETATM   10  C   UNL     3     -42.122 -54.949  15.257  1.00  0.00     0.039 A 
HETATM   11  C   UNL     3     -40.974 -55.376  15.961  1.00  0.00    -0.054 A 
HETATM   12  C   UNL     3     -41.144 -56.198  17.212  1.00  0.00     0.049 C 
ENDROOT
BRANCH   8  13
HETATM   13  C   UNL     3     -44.313 -53.871  13.247  1.00  0.00     0.163 C 
BRANCH  13  14
HETATM   14  C   UNL     3     -45.099 -52.644  12.737  1.00  0.00     0.164 C 
BRANCH  14  15
HETATM   15  O   UNL     3     -46.333 -53.047  12.200  1.00  0.00    -0.392 OA
HETATM   16  H   UNL     3     -46.936 -53.264  12.959  1.00  0.00     0.210 HD
ENDBRANCH  14  15
BRANCH  14  17
HETATM   17  C   UNL     3     -45.319 -51.582  13.838  1.00  0.00     0.299 C 
BRANCH  17  18
HETATM   18  N   UNL     3     -46.741 -51.353  14.096  1.00  0.00     0.080 N 
HETATM   19  H   UNL     3     -46.856 -50.670  14.878  1.00  0.00     0.312 HD
HETATM   20  H   UNL     3     -47.169 -52.249  14.422  1.00  0.00     0.312 HD
ENDBRANCH  17  18
ENDBRANCH  14  17
ENDBRANCH  13  14
ENDBRANCH   8  13
TORSDOF 5
ENDMDL
