MODEL 1
REMARK VINA RESULT:      -7.4      0.000      0.000
REMARK  4 active torsions:
REMARK  status: ('A' for Active; 'I' for Inactive)
REMARK    1  A    between atoms: N_1  and  C_8 
REMARK    2  A    between atoms: N_2  and  C_7 
REMARK    3  A    between atoms: C_8  and  C_9 
REMARK       I    between atoms: C_9  and  N_10 
REMARK    4  A    between atoms: N_10  and  C_11 
ROOT
HETATM    1  C   UNL     1     -44.323 -54.824  14.337  1.00  0.00     0.240 C 
ENDROOT
BRANCH   1   2
HETATM    2  N   UNL     1     -45.412 -53.847  14.448  1.00  0.00    -0.255 N 
HETATM    3  C   UNL     1     -45.936 -53.619  15.719  1.00  0.00     0.334 C 
HETATM    4  N   UNL     1     -46.510 -52.359  15.927  1.00  0.00    -0.279 N 
HETATM    5  O   UNL     1     -45.876 -54.471  16.604  1.00  0.00    -0.246 OA
HETATM    6  C   UNL     1     -46.883 -51.564  14.860  1.00  0.00     0.146 C 
HETATM    7  C   UNL     1     -46.595 -51.908  13.606  1.00  0.00     0.200 C 
HETATM    8  C   UNL     1     -45.758 -53.099  13.335  1.00  0.00     0.292 C 
HETATM    9  F   UNL     1     -46.992 -51.173  12.550  1.00  0.00    -0.199 F 
HETATM   10  O   UNL     1     -45.411 -53.388  12.193  1.00  0.00    -0.264 OA
BRANCH   4  11
HETATM   11  C   UNL     1     -46.898 -52.022  17.299  1.00  0.00     0.232 C 
HETATM   12  O   UNL     1     -48.279 -51.612  17.398  1.00  0.00    -0.366 OA
HETATM   13  C   UNL     1     -48.408 -50.804  18.586  1.00  0.00     0.170 C 
HETATM   14  C   UNL     1     -47.011 -50.545  19.116  1.00  0.00     0.031 C 
HETATM   15  C   UNL     1     -46.147 -50.845  17.916  1.00  0.00     0.056 C 
ENDBRANCH   4  11
ENDBRANCH   1   2
BRANCH   1  16
HETATM   16  C   UNL     1     -42.843 -54.393  14.317  1.00  0.00     0.236 C 
HETATM   17  N   UNL     1     -42.298 -54.108  13.096  1.00  0.00    -0.351 N 
HETATM   18  H   UNL     1     -42.907 -54.137  12.289  1.00  0.00     0.163 HD
HETATM   19  O   UNL     1     -42.235 -54.191  15.372  1.00  0.00    -0.272 OA
BRANCH  17  20
HETATM   20  C   UNL     1     -40.929 -53.627  12.857  1.00  0.00     0.118 C 
HETATM   21  C   UNL     1     -40.721 -52.118  12.819  1.00  0.00    -0.029 C 
HETATM   22  C   UNL     1     -39.505 -51.548  13.244  1.00  0.00    -0.050 C 
HETATM   23  C   UNL     1     -41.635 -51.300  12.129  1.00  0.00     0.010 C 
HETATM   24  C   UNL     1     -38.507 -52.306  14.078  1.00  0.00     0.039 C 
HETATM   25  C   UNL     1     -39.163 -50.244  12.834  1.00  0.00     0.007 C 
HETATM   26  C   UNL     1     -38.991 -53.662  14.582  1.00  0.00     0.007 C 
HETATM   27  C   UNL     1     -39.819 -54.434  13.560  1.00  0.00     0.030 C 
HETATM   28  C   UNL     1     -40.037 -49.488  12.063  1.00  0.00     0.001 C 
HETATM   29  C   UNL     1     -41.292 -49.996  11.748  1.00  0.00     0.001 C 
ENDBRANCH  17  20
ENDBRANCH   1  16
TORSDOF 4
ENDMDL
MODEL 2
REMARK VINA RESULT:      -7.3      4.377      7.573
REMARK  4 active torsions:
REMARK  status: ('A' for Active; 'I' for Inactive)
REMARK    1  A    between atoms: N_1  and  C_8 
REMARK    2  A    between atoms: N_2  and  C_7 
REMARK    3  A    between atoms: C_8  and  C_9 
REMARK       I    between atoms: C_9  and  N_10 
REMARK    4  A    between atoms: N_10  and  C_11 
ROOT
HETATM    1  C   UNL     1     -39.755 -49.694  13.177  1.00  0.00     0.240 C 
ENDROOT
BRANCH   1   2
HETATM    2  N   UNL     1     -39.937 -48.414  12.481  1.00  0.00    -0.255 N 
HETATM    3  C   UNL     1     -40.778 -48.409  11.370  1.00  0.00     0.334 C 
HETATM    4  N   UNL     1     -41.396 -47.186  11.077  1.00  0.00    -0.279 N 
HETATM    5  O   UNL     1     -40.975 -49.424  10.705  1.00  0.00    -0.246 OA
HETATM    6  C   UNL     1     -40.908 -46.002  11.596  1.00  0.00     0.146 C 
HETATM    7  C   UNL     1     -39.921 -45.993  12.489  1.00  0.00     0.200 C 
HETATM    8  C   UNL     1     -39.401 -47.265  13.038  1.00  0.00     0.292 C 
HETATM    9  F   UNL     1     -39.398 -44.848  12.970  1.00  0.00    -0.199 F 
HETATM   10  O   UNL     1     -38.549 -47.278  13.922  1.00  0.00    -0.264 OA
BRANCH   4  11
HETATM   11  C   UNL     1     -42.426 -47.194  10.034  1.00  0.00     0.232 C 
HETATM   12  O   UNL     1     -42.606 -45.897   9.426  1.00  0.00    -0.366 OA
HETATM   13  C   UNL     1     -43.935 -45.861   8.866  1.00  0.00     0.170 C 
HETATM   14  C   UNL     1     -44.660 -47.109   9.330  1.00  0.00     0.031 C 
HETATM   15  C   UNL     1     -43.832 -47.545  10.514  1.00  0.00     0.056 C 
ENDBRANCH   4  11
ENDBRANCH   1   2
BRANCH   1  16
HETATM   16  C   UNL     1     -40.845 -50.283  14.093  1.00  0.00     0.236 C 
HETATM   17  N   UNL     1     -41.334 -51.516  13.760  1.00  0.00    -0.351 N 
HETATM   18  H   UNL     1     -40.913 -51.994  12.974  1.00  0.00     0.163 HD
HETATM   19  O   UNL     1     -41.153 -49.715  15.145  1.00  0.00    -0.272 OA
BRANCH  17  20
HETATM   20  C   UNL     1     -42.330 -52.280  14.525  1.00  0.00     0.118 C 
HETATM   21  C   UNL     1     -43.726 -52.396  13.925  1.00  0.00    -0.029 C 
HETATM   22  C   UNL     1     -44.517 -53.539  14.155  1.00  0.00    -0.050 C 
HETATM   23  C   UNL     1     -44.338 -51.267  13.348  1.00  0.00     0.010 C 
HETATM   24  C   UNL     1     -43.937 -54.829  14.671  1.00  0.00     0.039 C 
HETATM   25  C   UNL     1     -45.911 -53.475  13.962  1.00  0.00     0.007 C 
HETATM   26  C   UNL     1     -42.414 -54.864  14.744  1.00  0.00     0.007 C 
HETATM   27  C   UNL     1     -41.794 -53.552  15.213  1.00  0.00     0.030 C 
HETATM   28  C   UNL     1     -46.512 -52.315  13.490  1.00  0.00     0.001 C 
HETATM   29  C   UNL     1     -45.723 -51.226  13.139  1.00  0.00     0.001 C 
ENDBRANCH  17  20
ENDBRANCH   1  16
TORSDOF 4
ENDMDL
MODEL 3
REMARK VINA RESULT:      -7.2      3.875      7.738
REMARK  4 active torsions:
REMARK  status: ('A' for Active; 'I' for Inactive)
REMARK    1  A    between atoms: N_1  and  C_8 
REMARK    2  A    between atoms: N_2  and  C_7 
REMARK    3  A    between atoms: C_8  and  C_9 
REMARK       I    between atoms: C_9  and  N_10 
REMARK    4  A    between atoms: N_10  and  C_11 
ROOT
HETATM    1  C   UNL     1     -40.671 -51.926  11.767  1.00  0.00     0.240 C 
ENDROOT
BRANCH   1   2
HETATM    2  N   UNL     1     -39.816 -50.786  12.120  1.00  0.00    -0.255 N 
HETATM    3  C   UNL     1     -40.239 -49.523  11.711  1.00  0.00     0.334 C 
HETATM    4  N   UNL     1     -39.796 -48.447  12.490  1.00  0.00    -0.279 N 
HETATM    5  O   UNL     1     -40.974 -49.373  10.736  1.00  0.00    -0.246 OA
HETATM    6  C   UNL     1     -38.716 -48.585  13.342  1.00  0.00     0.146 C 
HETATM    7  C   UNL     1     -38.144 -49.770  13.548  1.00  0.00     0.200 C 
HETATM    8  C   UNL     1     -38.732 -50.993  12.956  1.00  0.00     0.292 C 
HETATM    9  F   UNL     1     -37.062 -49.918  14.335  1.00  0.00    -0.199 F 
HETATM   10  O   UNL     1     -38.271 -52.104  13.201  1.00  0.00    -0.264 OA
BRANCH   4  11
HETATM   11  C   UNL     1     -40.373 -47.132  12.200  1.00  0.00     0.232 C 
HETATM   12  O   UNL     1     -39.794 -46.521  11.026  1.00  0.00    -0.366 OA
HETATM   13  C   UNL     1     -39.985 -45.096  11.139  1.00  0.00     0.170 C 
HETATM   14  C   UNL     1     -40.519 -44.816  12.531  1.00  0.00     0.031 C 
HETATM   15  C   UNL     1     -40.153 -46.074  13.278  1.00  0.00     0.056 C 
ENDBRANCH   4  11
ENDBRANCH   1   2
BRANCH   1  16
HETATM   16  C   UNL     1     -41.758 -52.453  12.725  1.00  0.00     0.236 C 
HETATM   17  N   UNL     1     -42.961 -51.805  12.713  1.00  0.00    -0.351 N 
HETATM   18  H   UNL     1     -43.090 -51.061  12.038  1.00  0.00     0.163 HD
HETATM   19  O   UNL     1     -41.576 -53.493  13.366  1.00  0.00    -0.272 OA
BRANCH  17  20
HETATM   20  C   UNL     1     -44.145 -52.177  13.500  1.00  0.00     0.118 C 
HETATM   21  C   UNL     1     -44.427 -51.363  14.757  1.00  0.00    -0.029 C 
HETATM   22  C   UNL     1     -45.748 -51.157  15.201  1.00  0.00    -0.050 C 
HETATM   23  C   UNL     1     -43.372 -51.022  15.624  1.00  0.00     0.010 C 
HETATM   24  C   UNL     1     -46.942 -51.391  14.315  1.00  0.00     0.039 C 
HETATM   25  C   UNL     1     -45.985 -50.778  16.537  1.00  0.00     0.007 C 
HETATM   26  C   UNL     1     -46.609 -51.683  12.855  1.00  0.00     0.007 C 
HETATM   27  C   UNL     1     -45.385 -52.574  12.673  1.00  0.00     0.030 C 
HETATM   28  C   UNL     1     -44.929 -50.547  17.410  1.00  0.00     0.001 C 
HETATM   29  C   UNL     1     -43.622 -50.624  16.944  1.00  0.00     0.001 C 
ENDBRANCH  17  20
ENDBRANCH   1  16
TORSDOF 4
ENDMDL
MODEL 4
REMARK VINA RESULT:      -7.1      3.906      6.020
REMARK  4 active torsions:
REMARK  status: ('A' for Active; 'I' for Inactive)
REMARK    1  A    between atoms: N_1  and  C_8 
REMARK    2  A    between atoms: N_2  and  C_7 
REMARK    3  A    between atoms: C_8  and  C_9 
REMARK       I    between atoms: C_9  and  N_10 
REMARK    4  A    between atoms: N_10  and  C_11 
ROOT
HETATM    1  C   UNL     1     -41.464 -52.622  11.896  1.00  0.00     0.240 C 
ENDROOT
BRANCH   1   2
HETATM    2  N   UNL     1     -41.637 -53.615  12.962  1.00  0.00    -0.255 N 
HETATM    3  C   UNL     1     -40.503 -53.973  13.688  1.00  0.00     0.334 C 
HETATM    4  N   UNL     1     -40.730 -54.423  14.995  1.00  0.00    -0.279 N 
HETATM    5  O   UNL     1     -39.374 -53.878  13.210  1.00  0.00    -0.246 OA
HETATM    6  C   UNL     1     -41.983 -54.853  15.390  1.00  0.00     0.146 C 
HETATM    7  C   UNL     1     -43.040 -54.734  14.588  1.00  0.00     0.200 C 
HETATM    8  C   UNL     1     -42.917 -54.027  13.294  1.00  0.00     0.292 C 
HETATM    9  F   UNL     1     -44.258 -55.191  14.934  1.00  0.00    -0.199 F 
HETATM   10  O   UNL     1     -43.895 -53.833  12.578  1.00  0.00    -0.264 OA
BRANCH   4  11
HETATM   11  C   UNL     1     -39.553 -54.627  15.843  1.00  0.00     0.232 C 
HETATM   12  O   UNL     1     -39.093 -55.996  15.829  1.00  0.00    -0.366 OA
HETATM   13  C   UNL     1     -38.349 -56.216  17.046  1.00  0.00     0.170 C 
HETATM   14  C   UNL     1     -38.539 -54.995  17.924  1.00  0.00     0.031 C 
HETATM   15  C   UNL     1     -39.768 -54.354  17.329  1.00  0.00     0.056 C 
ENDBRANCH   4  11
ENDBRANCH   1   2
BRANCH   1  16
HETATM   16  C   UNL     1     -41.013 -51.178  12.194  1.00  0.00     0.236 C 
HETATM   17  N   UNL     1     -40.330 -50.525  11.206  1.00  0.00    -0.351 N 
HETATM   18  H   UNL     1     -40.214 -51.001  10.320  1.00  0.00     0.163 HD
HETATM   19  O   UNL     1     -41.377 -50.610  13.229  1.00  0.00    -0.272 OA
BRANCH  17  20
HETATM   20  C   UNL     1     -39.862 -49.133  11.261  1.00  0.00     0.118 C 
HETATM   21  C   UNL     1     -40.923 -48.041  11.195  1.00  0.00    -0.029 C 
HETATM   22  C   UNL     1     -40.733 -46.812  11.856  1.00  0.00    -0.050 C 
HETATM   23  C   UNL     1     -41.983 -48.146  10.275  1.00  0.00     0.010 C 
HETATM   24  C   UNL     1     -39.696 -46.627  12.932  1.00  0.00     0.039 C 
HETATM   25  C   UNL     1     -41.488 -45.686  11.470  1.00  0.00     0.007 C 
HETATM   26  C   UNL     1     -39.002 -47.909  13.381  1.00  0.00     0.007 C 
HETATM   27  C   UNL     1     -38.698 -48.871  12.238  1.00  0.00     0.030 C 
HETATM   28  C   UNL     1     -42.460 -45.786  10.483  1.00  0.00     0.001 C 
HETATM   29  C   UNL     1     -42.741 -47.024   9.917  1.00  0.00     0.001 C 
ENDBRANCH  17  20
ENDBRANCH   1  16
TORSDOF 4
ENDMDL
MODEL 5
REMARK VINA RESULT:      -7.0      3.644      5.579
REMARK  4 active torsions:
REMARK  status: ('A' for Active; 'I' for Inactive)
REMARK    1  A    between atoms: N_1  and  C_8 
REMARK    2  A    between atoms: N_2  and  C_7 
REMARK    3  A    between atoms: C_8  and  C_9 
REMARK       I    between atoms: C_9  and  N_10 
REMARK    4  A    between atoms: N_10  and  C_11 
ROOT
HETATM    1  C   UNL     1     -40.556 -51.334  11.961  1.00  0.00     0.240 C 
ENDROOT
BRANCH   1   2
HETATM    2  N   UNL     1     -41.190 -51.961  13.127  1.00  0.00    -0.255 N 
HETATM    3  C   UNL     1     -42.361 -51.377  13.605  1.00  0.00     0.334 C 
HETATM    4  N   UNL     1     -43.241 -52.234  14.279  1.00  0.00    -0.279 N 
HETATM    5  O   UNL     1     -42.610 -50.186  13.423  1.00  0.00    -0.246 OA
HETATM    6  C   UNL     1     -42.807 -53.448  14.776  1.00  0.00     0.146 C 
HETATM    7  C   UNL     1     -41.581 -53.902  14.521  1.00  0.00     0.200 C 
HETATM    8  C   UNL     1     -40.691 -53.165  13.596  1.00  0.00     0.292 C 
HETATM    9  F   UNL     1     -41.122 -55.059  15.036  1.00  0.00    -0.199 F 
HETATM   10  O   UNL     1     -39.590 -53.608  13.282  1.00  0.00    -0.264 OA
BRANCH   4  11
HETATM   11  C   UNL     1     -44.559 -51.696  14.627  1.00  0.00     0.232 C 
HETATM   12  O   UNL     1     -45.235 -52.493  15.623  1.00  0.00    -0.366 OA
HETATM   13  C   UNL     1     -46.650 -52.244  15.490  1.00  0.00     0.170 C 
HETATM   14  C   UNL     1     -46.853 -51.423  14.231  1.00  0.00     0.031 C 
HETATM   15  C   UNL     1     -45.566 -51.656  13.480  1.00  0.00     0.056 C 
ENDBRANCH   4  11
ENDBRANCH   1   2
BRANCH   1  16
HETATM   16  C   UNL     1     -39.548 -50.177  12.107  1.00  0.00     0.236 C 
HETATM   17  N   UNL     1     -40.034 -48.989  12.578  1.00  0.00    -0.351 N 
HETATM   18  H   UNL     1     -41.006 -48.954  12.859  1.00  0.00     0.163 HD
HETATM   19  O   UNL     1     -38.342 -50.371  11.931  1.00  0.00    -0.272 OA
BRANCH  17  20
HETATM   20  C   UNL     1     -39.239 -47.781  12.845  1.00  0.00     0.118 C 
HETATM   21  C   UNL     1     -39.777 -46.462  12.304  1.00  0.00    -0.029 C 
HETATM   22  C   UNL     1     -39.532 -45.252  12.982  1.00  0.00    -0.050 C 
HETATM   23  C   UNL     1     -40.305 -46.401  11.001  1.00  0.00     0.010 C 
HETATM   24  C   UNL     1     -39.067 -45.210  14.413  1.00  0.00     0.039 C 
HETATM   25  C   UNL     1     -39.661 -44.028  12.297  1.00  0.00     0.007 C 
HETATM   26  C   UNL     1     -39.063 -46.559  15.126  1.00  0.00     0.007 C 
HETATM   27  C   UNL     1     -38.599 -47.714  14.246  1.00  0.00     0.030 C 
HETATM   28  C   UNL     1     -40.084 -43.994  10.974  1.00  0.00     0.001 C 
HETATM   29  C   UNL     1     -40.451 -45.174  10.339  1.00  0.00     0.001 C 
ENDBRANCH  17  20
ENDBRANCH   1  16
TORSDOF 4
ENDMDL
MODEL 6
REMARK VINA RESULT:      -7.0      3.850      8.015
REMARK  4 active torsions:
REMARK  status: ('A' for Active; 'I' for Inactive)
REMARK    1  A    between atoms: N_1  and  C_8 
REMARK    2  A    between atoms: N_2  and  C_7 
REMARK    3  A    between atoms: C_8  and  C_9 
REMARK       I    between atoms: C_9  and  N_10 
REMARK    4  A    between atoms: N_10  and  C_11 
ROOT
HETATM    1  C   UNL     1     -40.292 -50.889  14.877  1.00  0.00     0.240 C 
ENDROOT
BRANCH   1   2
HETATM    2  N   UNL     1     -39.839 -50.292  13.615  1.00  0.00    -0.255 N 
HETATM    3  C   UNL     1     -40.406 -49.073  13.249  1.00  0.00     0.334 C 
HETATM    4  N   UNL     1     -39.619 -48.254  12.429  1.00  0.00    -0.279 N 
HETATM    5  O   UNL     1     -41.521 -48.735  13.643  1.00  0.00    -0.246 OA
HETATM    6  C   UNL     1     -38.552 -48.773  11.721  1.00  0.00     0.146 C 
HETATM    7  C   UNL     1     -38.157 -50.034  11.892  1.00  0.00     0.200 C 
HETATM    8  C   UNL     1     -38.781 -50.875  12.938  1.00  0.00     0.292 C 
HETATM    9  F   UNL     1     -37.151 -50.574  11.178  1.00  0.00    -0.199 F 
HETATM   10  O   UNL     1     -38.377 -52.011  13.169  1.00  0.00    -0.264 OA
BRANCH   4  11
HETATM   11  C   UNL     1     -40.107 -46.894  12.182  1.00  0.00     0.232 C 
HETATM   12  O   UNL     1     -39.982 -46.505  10.797  1.00  0.00    -0.366 OA
HETATM   13  C   UNL     1     -39.944 -45.064  10.753  1.00  0.00     0.170 C 
HETATM   14  C   UNL     1     -39.835 -44.566  12.181  1.00  0.00     0.031 C 
HETATM   15  C   UNL     1     -39.350 -45.790  12.916  1.00  0.00     0.056 C 
ENDBRANCH   4  11
ENDBRANCH   1   2
BRANCH   1  16
HETATM   16  C   UNL     1     -41.529 -51.807  14.944  1.00  0.00     0.236 C 
HETATM   17  N   UNL     1     -42.748 -51.217  14.764  1.00  0.00    -0.351 N 
HETATM   18  H   UNL     1     -42.767 -50.231  14.539  1.00  0.00     0.163 HD
HETATM   19  O   UNL     1     -41.394 -53.032  15.022  1.00  0.00    -0.272 OA
BRANCH  17  20
HETATM   20  C   UNL     1     -44.043 -51.914  14.733  1.00  0.00     0.118 C 
HETATM   21  C   UNL     1     -45.179 -51.303  15.545  1.00  0.00    -0.029 C 
HETATM   22  C   UNL     1     -46.517 -51.436  15.125  1.00  0.00    -0.050 C 
HETATM   23  C   UNL     1     -44.933 -50.821  16.845  1.00  0.00     0.010 C 
HETATM   24  C   UNL     1     -46.884 -51.842  13.723  1.00  0.00     0.039 C 
HETATM   25  C   UNL     1     -47.562 -51.246  16.049  1.00  0.00     0.007 C 
HETATM   26  C   UNL     1     -45.713 -51.915  12.748  1.00  0.00     0.007 C 
HETATM   27  C   UNL     1     -44.442 -52.494  13.361  1.00  0.00     0.030 C 
HETATM   28  C   UNL     1     -47.294 -50.871  17.360  1.00  0.00     0.001 C 
HETATM   29  C   UNL     1     -45.984 -50.614  17.748  1.00  0.00     0.001 C 
ENDBRANCH  17  20
ENDBRANCH   1  16
TORSDOF 4
ENDMDL
MODEL 7
REMARK VINA RESULT:      -7.0      3.806      6.135
REMARK  4 active torsions:
REMARK  status: ('A' for Active; 'I' for Inactive)
REMARK    1  A    between atoms: N_1  and  C_8 
REMARK    2  A    between atoms: N_2  and  C_7 
REMARK    3  A    between atoms: C_8  and  C_9 
REMARK       I    between atoms: C_9  and  N_10 
REMARK    4  A    between atoms: N_10  and  C_11 
ROOT
HETATM    1  C   UNL     1     -40.003 -50.048  14.027  1.00  0.00     0.240 C 
ENDROOT
BRANCH   1   2
HETATM    2  N   UNL     1     -40.825 -51.263  14.019  1.00  0.00    -0.255 N 
HETATM    3  C   UNL     1     -42.124 -51.156  14.510  1.00  0.00     0.334 C 
HETATM    4  N   UNL     1     -43.050 -52.073  13.996  1.00  0.00    -0.279 N 
HETATM    5  O   UNL     1     -42.436 -50.294  15.330  1.00  0.00    -0.246 OA
HETATM    6  C   UNL     1     -42.630 -53.229  13.367  1.00  0.00     0.146 C 
HETATM    7  C   UNL     1     -41.341 -53.449  13.113  1.00  0.00     0.200 C 
HETATM    8  C   UNL     1     -40.337 -52.399  13.395  1.00  0.00     0.292 C 
HETATM    9  F   UNL     1     -40.906 -54.590  12.545  1.00  0.00    -0.199 F 
HETATM   10  O   UNL     1     -39.156 -52.548  13.092  1.00  0.00    -0.264 OA
BRANCH   4  11
HETATM   11  C   UNL     1     -44.458 -51.867  14.350  1.00  0.00     0.232 C 
HETATM   12  O   UNL     1     -45.149 -53.108  14.610  1.00  0.00    -0.366 OA
HETATM   13  C   UNL     1     -46.556 -52.873  14.395  1.00  0.00     0.170 C 
HETATM   14  C   UNL     1     -46.701 -51.493  13.783  1.00  0.00     0.031 C 
HETATM   15  C   UNL     1     -45.312 -51.221  13.262  1.00  0.00     0.056 C 
ENDBRANCH   4  11
ENDBRANCH   1   2
BRANCH   1  16
HETATM   16  C   UNL     1     -39.894 -49.131  12.792  1.00  0.00     0.236 C 
HETATM   17  N   UNL     1     -40.786 -48.099  12.706  1.00  0.00    -0.351 N 
HETATM   18  H   UNL     1     -41.422 -47.959  13.481  1.00  0.00     0.163 HD
HETATM   19  O   UNL     1     -38.957 -49.259  11.999  1.00  0.00    -0.272 OA
BRANCH  17  20
HETATM   20  C   UNL     1     -40.821 -47.080  11.647  1.00  0.00     0.118 C 
HETATM   21  C   UNL     1     -42.174 -46.786  11.011  1.00  0.00    -0.029 C 
HETATM   22  C   UNL     1     -42.477 -45.499  10.525  1.00  0.00    -0.050 C 
HETATM   23  C   UNL     1     -43.037 -47.845  10.675  1.00  0.00     0.010 C 
HETATM   24  C   UNL     1     -41.678 -44.282  10.911  1.00  0.00     0.039 C 
HETATM   25  C   UNL     1     -43.522 -45.330   9.595  1.00  0.00     0.007 C 
HETATM   26  C   UNL     1     -40.643 -44.517  12.008  1.00  0.00     0.007 C 
HETATM   27  C   UNL     1     -39.918 -45.853  11.889  1.00  0.00     0.030 C 
HETATM   28  C   UNL     1     -44.298 -46.411   9.193  1.00  0.00     0.001 C 
HETATM   29  C   UNL     1     -44.088 -47.659   9.766  1.00  0.00     0.001 C 
ENDBRANCH  17  20
ENDBRANCH   1  16
TORSDOF 4
ENDMDL
MODEL 8
REMARK VINA RESULT:      -6.8      3.305      7.603
REMARK  4 active torsions:
REMARK  status: ('A' for Active; 'I' for Inactive)
REMARK    1  A    between atoms: N_1  and  C_8 
REMARK    2  A    between atoms: N_2  and  C_7 
REMARK    3  A    between atoms: C_8  and  C_9 
REMARK       I    between atoms: C_9  and  N_10 
REMARK    4  A    between atoms: N_10  and  C_11 
ROOT
HETATM    1  C   UNL     1     -40.764 -52.995  12.705  1.00  0.00     0.240 C 
ENDROOT
BRANCH   1   2
HETATM    2  N   UNL     1     -39.737 -52.686  13.706  1.00  0.00    -0.255 N 
HETATM    3  C   UNL     1     -38.934 -51.572  13.470  1.00  0.00     0.334 C 
HETATM    4  N   UNL     1     -38.397 -50.953  14.606  1.00  0.00    -0.279 N 
HETATM    5  O   UNL     1     -38.730 -51.152  12.332  1.00  0.00    -0.246 OA
HETATM    6  C   UNL     1     -38.338 -51.618  15.816  1.00  0.00     0.146 C 
HETATM    7  C   UNL     1     -38.903 -52.814  15.976  1.00  0.00     0.200 C 
HETATM    8  C   UNL     1     -39.713 -53.407  14.888  1.00  0.00     0.292 C 
HETATM    9  F   UNL     1     -38.815 -53.501  17.131  1.00  0.00    -0.199 F 
HETATM   10  O   UNL     1     -40.310 -54.468  15.044  1.00  0.00    -0.264 OA
BRANCH   4  11
HETATM   11  C   UNL     1     -37.707 -49.676  14.405  1.00  0.00     0.232 C 
HETATM   12  O   UNL     1     -36.748 -49.396  15.449  1.00  0.00    -0.366 OA
HETATM   13  C   UNL     1     -36.553 -47.967  15.486  1.00  0.00     0.170 C 
HETATM   14  C   UNL     1     -37.585 -47.341  14.568  1.00  0.00     0.031 C 
HETATM   15  C   UNL     1     -38.606 -48.442  14.427  1.00  0.00     0.056 C 
ENDBRANCH   4  11
ENDBRANCH   1   2
BRANCH   1  16
HETATM   16  C   UNL     1     -42.245 -52.619  12.917  1.00  0.00     0.236 C 
HETATM   17  N   UNL     1     -43.010 -53.494  13.635  1.00  0.00    -0.351 N 
HETATM   18  H   UNL     1     -42.551 -54.303  14.036  1.00  0.00     0.163 HD
HETATM   19  O   UNL     1     -42.666 -51.513  12.563  1.00  0.00    -0.272 OA
BRANCH  17  20
HETATM   20  C   UNL     1     -44.421 -53.303  14.000  1.00  0.00     0.118 C 
HETATM   21  C   UNL     1     -44.722 -52.296  15.103  1.00  0.00    -0.029 C 
HETATM   22  C   UNL     1     -45.925 -51.563  15.100  1.00  0.00    -0.050 C 
HETATM   23  C   UNL     1     -43.927 -52.267  16.264  1.00  0.00     0.010 C 
HETATM   24  C   UNL     1     -46.794 -51.444  13.876  1.00  0.00     0.039 C 
HETATM   25  C   UNL     1     -46.382 -50.963  16.290  1.00  0.00     0.007 C 
HETATM   26  C   UNL     1     -46.184 -52.014  12.599  1.00  0.00     0.007 C 
HETATM   27  C   UNL     1     -45.410 -53.310  12.816  1.00  0.00     0.030 C 
HETATM   28  C   UNL     1     -45.631 -51.035  17.457  1.00  0.00     0.001 C 
HETATM   29  C   UNL     1     -44.383 -51.646  17.434  1.00  0.00     0.001 C 
ENDBRANCH  17  20
ENDBRANCH   1  16
TORSDOF 4
ENDMDL
MODEL 9
REMARK VINA RESULT:      -6.6      3.251      7.226
REMARK  4 active torsions:
REMARK  status: ('A' for Active; 'I' for Inactive)
REMARK    1  A    between atoms: N_1  and  C_8 
REMARK    2  A    between atoms: N_2  and  C_7 
REMARK    3  A    between atoms: C_8  and  C_9 
REMARK       I    between atoms: C_9  and  N_10 
REMARK    4  A    between atoms: N_10  and  C_11 
ROOT
HETATM    1  C   UNL     1     -40.200 -52.772  13.794  1.00  0.00     0.240 C 
ENDROOT
BRANCH   1   2
HETATM    2  N   UNL     1     -39.912 -51.394  13.381  1.00  0.00    -0.255 N 
HETATM    3  C   UNL     1     -40.671 -50.872  12.336  1.00  0.00     0.334 C 
HETATM    4  N   UNL     1     -40.822 -49.479  12.326  1.00  0.00    -0.279 N 
HETATM    5  O   UNL     1     -41.190 -51.597  11.489  1.00  0.00    -0.246 OA
HETATM    6  C   UNL     1     -39.969 -48.667  13.049  1.00  0.00     0.146 C 
HETATM    7  C   UNL     1     -39.061 -49.182  13.877  1.00  0.00     0.200 C 
HETATM    8  C   UNL     1     -39.026 -50.639  14.132  1.00  0.00     0.292 C 
HETATM    9  F   UNL     1     -38.188 -48.411  14.554  1.00  0.00    -0.199 F 
HETATM   10  O   UNL     1     -38.254 -51.125  14.953  1.00  0.00    -0.264 OA
BRANCH   4  11
HETATM   11  C   UNL     1     -41.765 -48.918  11.354  1.00  0.00     0.232 C 
HETATM   12  O   UNL     1     -41.221 -47.781  10.650  1.00  0.00    -0.366 OA
HETATM   13  C   UNL     1     -42.333 -46.994  10.173  1.00  0.00     0.170 C 
HETATM   14  C   UNL     1     -43.595 -47.568  10.786  1.00  0.00     0.031 C 
HETATM   15  C   UNL     1     -43.058 -48.366  11.949  1.00  0.00     0.056 C 
ENDBRANCH   4  11
ENDBRANCH   1   2
BRANCH   1  16
HETATM   16  C   UNL     1     -41.643 -53.275  14.000  1.00  0.00     0.236 C 
HETATM   17  N   UNL     1     -42.611 -52.325  14.172  1.00  0.00    -0.351 N 
HETATM   18  H   UNL     1     -42.337 -51.354  14.095  1.00  0.00     0.163 HD
HETATM   19  O   UNL     1     -41.912 -54.474  13.877  1.00  0.00    -0.272 OA
BRANCH  17  20
HETATM   20  C   UNL     1     -44.050 -52.583  14.327  1.00  0.00     0.118 C 
HETATM   21  C   UNL     1     -44.782 -51.802  15.412  1.00  0.00    -0.029 C 
HETATM   22  C   UNL     1     -46.138 -51.453  15.257  1.00  0.00    -0.050 C 
HETATM   23  C   UNL     1     -44.193 -51.641  16.680  1.00  0.00     0.010 C 
HETATM   24  C   UNL     1     -46.832 -51.490  13.922  1.00  0.00     0.039 C 
HETATM   25  C   UNL     1     -46.906 -51.113  16.388  1.00  0.00     0.007 C 
HETATM   26  C   UNL     1     -45.916 -51.750  12.730  1.00  0.00     0.007 C 
HETATM   27  C   UNL     1     -44.826 -52.778  13.009  1.00  0.00     0.030 C 
HETATM   28  C   UNL     1     -46.329 -51.061  17.651  1.00  0.00     0.001 C 
HETATM   29  C   UNL     1     -44.964 -51.279  17.793  1.00  0.00     0.001 C 
ENDBRANCH  17  20
ENDBRANCH   1  16
TORSDOF 4
ENDMDL
