MODEL 1
REMARK VINA RESULT:      -5.8      0.000      0.000
REMARK  7 active torsions:
REMARK  status: ('A' for Active; 'I' for Inactive)
REMARK    1  A    between atoms: CG_2  and  CB_4 
REMARK    2  A    between atoms: CB_4  and  CA_5 
REMARK    3  A    between atoms: CA_5  and  C_7 
REMARK    4  A    between atoms: CA_5  and  N_6 
REMARK       I    between atoms: N_6  and  C_12 
REMARK    5  A    between atoms: C_7  and  OXT_9 
REMARK    6  A    between atoms: C_12  and  C_14 
REMARK    7  A    between atoms: C_14  and  N_16 
ROOT
ATOM      1  N   LEU A   1     -43.304 -50.799  12.606  1.00  0.00    -0.345 N 
ATOM      2  H   LEU A   1     -43.270 -50.858  11.588  1.00  0.00     0.163 HD
HETATM    3  C   UNK A   0     -42.259 -50.162  13.251  1.00  0.00     0.242 C 
HETATM    4  O   UNK A   0     -42.075 -50.291  14.460  1.00  0.00    -0.271 OA
ENDROOT
BRANCH   3   5
HETATM    5  C   UNK A   0     -41.413 -49.252  12.364  1.00  0.00     0.195 C 
HETATM    6  C   UNK A   0     -40.406 -50.005  11.498  1.00  0.00     0.044 C 
BRANCH   5   7
HETATM    7  N   UNK A   0     -42.243 -48.355  11.554  1.00  0.00    -0.283 N 
HETATM    8  N   UNK A   0     -42.318 -48.603  10.227  1.00  0.00    -0.302 N 
HETATM    9  C   UNK A   0     -43.120 -47.646   9.754  1.00  0.00     0.024 A 
ATOM     10  HN  UNK A   0     -41.864 -49.353   9.705  1.00  0.00     0.186 HD
HETATM   11  C   UNK A   0     -43.474 -47.585   8.315  1.00  0.00     0.070 C 
HETATM   12  C   UNK A   0     -43.536 -46.769  10.777  1.00  0.00     0.052 A 
HETATM   13  C   UNK A   0     -42.964 -47.252  11.935  1.00  0.00     0.027 A 
HETATM   14  C   UNK A   0     -43.069 -46.731  13.321  1.00  0.00     0.070 C 
ENDBRANCH   5   7
ENDBRANCH   3   5
BRANCH   1  15
ATOM     15  CA  LEU A   1     -44.180 -51.766  13.276  1.00  0.00     0.182 C 
BRANCH  15  16
ATOM     16  CB  LEU A   1     -45.618 -51.232  13.278  1.00  0.00     0.040 C 
BRANCH  16  17
ATOM     17  CG  LEU A   1     -46.348 -51.268  14.637  1.00  0.00    -0.020 C 
ATOM     18  CD1 LEU A   1     -47.035 -52.608  14.901  1.00  0.00     0.009 C 
ATOM     19  CD2 LEU A   1     -45.355 -50.963  15.764  1.00  0.00     0.009 C 
ENDBRANCH  16  17
ENDBRANCH  15  16
BRANCH  15  20
ATOM     20  C   LEU A   1     -44.076 -53.076  12.486  1.00  0.00     0.163 C 
ATOM     21  O   LEU A   1     -44.914 -53.965  12.539  1.00  0.00    -0.648 OA
BRANCH  20  22
ATOM     22  OXT LEU A   1     -42.983 -53.168  11.696  1.00  0.00    -0.775 OA
ATOM     23  HXT LEU A   1     -43.162 -53.064  10.742  1.00  0.00     0.167 HD
ENDBRANCH  20  22
ENDBRANCH  15  20
ENDBRANCH   1  15
TORSDOF 7
ENDMDL
MODEL 2
REMARK VINA RESULT:      -5.8      2.192      3.446
REMARK  7 active torsions:
REMARK  status: ('A' for Active; 'I' for Inactive)
REMARK    1  A    between atoms: CG_2  and  CB_4 
REMARK    2  A    between atoms: CB_4  and  CA_5 
REMARK    3  A    between atoms: CA_5  and  C_7 
REMARK    4  A    between atoms: CA_5  and  N_6 
REMARK       I    between atoms: N_6  and  C_12 
REMARK    5  A    between atoms: C_7  and  OXT_9 
REMARK    6  A    between atoms: C_12  and  C_14 
REMARK    7  A    between atoms: C_14  and  N_16 
ROOT
ATOM      1  N   LEU A   1     -43.181 -53.332  13.503  1.00  0.00    -0.345 N 
ATOM      2  H   LEU A   1     -42.705 -54.184  13.209  1.00  0.00     0.163 HD
HETATM    3  C   UNK A   0     -42.403 -52.285  13.965  1.00  0.00     0.242 C 
HETATM    4  O   UNK A   0     -42.892 -51.349  14.594  1.00  0.00    -0.271 OA
ENDROOT
BRANCH   3   5
HETATM    5  C   UNK A   0     -40.928 -52.358  13.577  1.00  0.00     0.195 C 
HETATM    6  C   UNK A   0     -40.544 -53.656  12.872  1.00  0.00     0.044 C 
BRANCH   5   7
HETATM    7  N   UNK A   0     -40.510 -51.189  12.798  1.00  0.00    -0.283 N 
HETATM    8  N   UNK A   0     -41.465 -50.521  12.114  1.00  0.00    -0.302 N 
HETATM    9  C   UNK A   0     -40.808 -49.529  11.507  1.00  0.00     0.024 A 
ATOM     10  HN  UNK A   0     -42.463 -50.728  12.070  1.00  0.00     0.186 HD
HETATM   11  C   UNK A   0     -41.523 -48.542  10.660  1.00  0.00     0.070 C 
HETATM   12  C   UNK A   0     -39.427 -49.580  11.783  1.00  0.00     0.052 A 
HETATM   13  C   UNK A   0     -39.257 -50.656  12.628  1.00  0.00     0.027 A 
HETATM   14  C   UNK A   0     -38.012 -51.175  13.248  1.00  0.00     0.070 C 
ENDBRANCH   5   7
ENDBRANCH   3   5
BRANCH   1  15
ATOM     15  CA  LEU A   1     -44.602 -53.472  13.833  1.00  0.00     0.182 C 
BRANCH  15  16
ATOM     16  CB  LEU A   1     -45.448 -53.094  12.611  1.00  0.00     0.040 C 
BRANCH  16  17
ATOM     17  CG  LEU A   1     -46.121 -51.706  12.660  1.00  0.00    -0.020 C 
ATOM     18  CD1 LEU A   1     -47.234 -51.555  11.622  1.00  0.00     0.009 C 
ATOM     19  CD2 LEU A   1     -46.682 -51.453  14.063  1.00  0.00     0.009 C 
ENDBRANCH  16  17
ENDBRANCH  15  16
BRANCH  15  20
ATOM     20  C   LEU A   1     -44.822 -54.937  14.228  1.00  0.00     0.163 C 
ATOM     21  O   LEU A   1     -45.814 -55.579  13.916  1.00  0.00    -0.648 OA
BRANCH  20  22
ATOM     22  OXT LEU A   1     -43.809 -55.483  14.938  1.00  0.00    -0.775 OA
ATOM     23  HXT LEU A   1     -42.972 -54.982  14.903  1.00  0.00     0.167 HD
ENDBRANCH  20  22
ENDBRANCH  15  20
ENDBRANCH   1  15
TORSDOF 7
ENDMDL
MODEL 3
REMARK VINA RESULT:      -5.7      2.161      6.198
REMARK  7 active torsions:
REMARK  status: ('A' for Active; 'I' for Inactive)
REMARK    1  A    between atoms: CG_2  and  CB_4 
REMARK    2  A    between atoms: CB_4  and  CA_5 
REMARK    3  A    between atoms: CA_5  and  C_7 
REMARK    4  A    between atoms: CA_5  and  N_6 
REMARK       I    between atoms: N_6  and  C_12 
REMARK    5  A    between atoms: C_7  and  OXT_9 
REMARK    6  A    between atoms: C_12  and  C_14 
REMARK    7  A    between atoms: C_14  and  N_16 
ROOT
ATOM      1  N   LEU A   1     -42.333 -50.482  11.943  1.00  0.00    -0.345 N 
ATOM      2  H   LEU A   1     -43.111 -50.413  11.287  1.00  0.00     0.163 HD
HETATM    3  C   UNK A   0     -42.500 -51.283  13.059  1.00  0.00     0.242 C 
HETATM    4  O   UNK A   0     -41.745 -51.204  14.026  1.00  0.00    -0.271 OA
ENDROOT
BRANCH   3   5
HETATM    5  C   UNK A   0     -43.638 -52.296  12.961  1.00  0.00     0.195 C 
HETATM    6  C   UNK A   0     -43.220 -53.722  13.313  1.00  0.00     0.044 C 
BRANCH   5   7
HETATM    7  N   UNK A   0     -44.807 -51.880  13.740  1.00  0.00    -0.283 N 
HETATM    8  N   UNK A   0     -44.615 -51.584  15.045  1.00  0.00    -0.302 N 
HETATM    9  C   UNK A   0     -45.828 -51.249  15.493  1.00  0.00     0.024 A 
ATOM     10  HN  UNK A   0     -43.741 -51.610  15.569  1.00  0.00     0.186 HD
HETATM   11  C   UNK A   0     -46.036 -50.831  16.901  1.00  0.00     0.070 C 
HETATM   12  C   UNK A   0     -46.801 -51.357  14.478  1.00  0.00     0.052 A 
HETATM   13  C   UNK A   0     -46.117 -51.758  13.350  1.00  0.00     0.027 A 
HETATM   14  C   UNK A   0     -46.634 -52.019  11.983  1.00  0.00     0.070 C 
ENDBRANCH   5   7
ENDBRANCH   3   5
BRANCH   1  15
ATOM     15  CA  LEU A   1     -41.341 -49.405  11.878  1.00  0.00     0.182 C 
BRANCH  15  16
ATOM     16  CB  LEU A   1     -40.021 -49.962  11.331  1.00  0.00     0.040 C 
BRANCH  16  17
ATOM     17  CG  LEU A   1     -38.746 -49.190  11.732  1.00  0.00    -0.020 C 
ATOM     18  CD1 LEU A   1     -38.681 -48.900  13.232  1.00  0.00     0.009 C 
ATOM     19  CD2 LEU A   1     -37.506 -49.982  11.302  1.00  0.00     0.009 C 
ENDBRANCH  16  17
ENDBRANCH  15  16
BRANCH  15  20
ATOM     20  C   LEU A   1     -41.917 -48.329  10.950  1.00  0.00     0.163 C 
ATOM     21  O   LEU A   1     -42.552 -47.364  11.347  1.00  0.00    -0.648 OA
BRANCH  20  22
ATOM     22  OXT LEU A   1     -41.644 -48.517   9.639  1.00  0.00    -0.775 OA
ATOM     23  HXT LEU A   1     -41.676 -49.448   9.347  1.00  0.00     0.167 HD
ENDBRANCH  20  22
ENDBRANCH  15  20
ENDBRANCH   1  15
TORSDOF 7
ENDMDL
MODEL 4
REMARK VINA RESULT:      -5.7      2.374      5.959
REMARK  7 active torsions:
REMARK  status: ('A' for Active; 'I' for Inactive)
REMARK    1  A    between atoms: CG_2  and  CB_4 
REMARK    2  A    between atoms: CB_4  and  CA_5 
REMARK    3  A    between atoms: CA_5  and  C_7 
REMARK    4  A    between atoms: CA_5  and  N_6 
REMARK       I    between atoms: N_6  and  C_12 
REMARK    5  A    between atoms: C_7  and  OXT_9 
REMARK    6  A    between atoms: C_12  and  C_14 
REMARK    7  A    between atoms: C_14  and  N_16 
ROOT
ATOM      1  N   LEU A   1     -42.724 -48.798  11.584  1.00  0.00    -0.345 N 
ATOM      2  H   LEU A   1     -43.334 -48.559  12.365  1.00  0.00     0.163 HD
HETATM    3  C   UNK A   0     -41.676 -49.668  11.827  1.00  0.00     0.242 C 
HETATM    4  O   UNK A   0     -40.742 -49.787  11.037  1.00  0.00    -0.271 OA
ENDROOT
BRANCH   3   5
HETATM    5  C   UNK A   0     -41.809 -50.497  13.102  1.00  0.00     0.195 C 
HETATM    6  C   UNK A   0     -42.149 -49.669  14.339  1.00  0.00     0.044 C 
BRANCH   5   7
HETATM    7  N   UNK A   0     -42.749 -51.608  12.935  1.00  0.00    -0.283 N 
HETATM    8  N   UNK A   0     -44.069 -51.320  12.972  1.00  0.00    -0.302 N 
HETATM    9  C   UNK A   0     -44.673 -52.500  12.801  1.00  0.00     0.024 A 
ATOM     10  HN  UNK A   0     -44.506 -50.408  13.101  1.00  0.00     0.186 HD
HETATM   11  C   UNK A   0     -46.152 -52.604  12.759  1.00  0.00     0.070 C 
HETATM   12  C   UNK A   0     -43.736 -53.546  12.681  1.00  0.00     0.052 A 
HETATM   13  C   UNK A   0     -42.497 -52.946  12.762  1.00  0.00     0.027 A 
HETATM   14  C   UNK A   0     -41.149 -53.564  12.686  1.00  0.00     0.070 C 
ENDBRANCH   5   7
ENDBRANCH   3   5
BRANCH   1  15
ATOM     15  CA  LEU A   1     -42.740 -47.871  10.449  1.00  0.00     0.182 C 
BRANCH  15  16
ATOM     16  CB  LEU A   1     -44.177 -47.395  10.201  1.00  0.00     0.040 C 
BRANCH  16  17
ATOM     17  CG  LEU A   1     -44.620 -47.332   8.724  1.00  0.00    -0.020 C 
ATOM     18  CD1 LEU A   1     -43.570 -47.901   7.769  1.00  0.00     0.009 C 
ATOM     19  CD2 LEU A   1     -45.943 -48.087   8.550  1.00  0.00     0.009 C 
ENDBRANCH  16  17
ENDBRANCH  15  16
BRANCH  15  20
ATOM     20  C   LEU A   1     -41.825 -46.699  10.824  1.00  0.00     0.163 C 
ATOM     21  O   LEU A   1     -42.171 -45.776  11.548  1.00  0.00    -0.648 OA
BRANCH  20  22
ATOM     22  OXT LEU A   1     -40.578 -46.774  10.307  1.00  0.00    -0.775 OA
ATOM     23  HXT LEU A   1     -40.355 -46.061   9.679  1.00  0.00     0.167 HD
ENDBRANCH  20  22
ENDBRANCH  15  20
ENDBRANCH   1  15
TORSDOF 7
ENDMDL
MODEL 5
REMARK VINA RESULT:      -5.7      3.955      6.455
REMARK  7 active torsions:
REMARK  status: ('A' for Active; 'I' for Inactive)
REMARK    1  A    between atoms: CG_2  and  CB_4 
REMARK    2  A    between atoms: CB_4  and  CA_5 
REMARK    3  A    between atoms: CA_5  and  C_7 
REMARK    4  A    between atoms: CA_5  and  N_6 
REMARK       I    between atoms: N_6  and  C_12 
REMARK    5  A    between atoms: C_7  and  OXT_9 
REMARK    6  A    between atoms: C_12  and  C_14 
REMARK    7  A    between atoms: C_14  and  N_16 
ROOT
ATOM      1  N   LEU A   1     -42.451 -53.326  13.234  1.00  0.00    -0.345 N 
ATOM      2  H   LEU A   1     -42.848 -52.971  12.364  1.00  0.00     0.163 HD
HETATM    3  C   UNK A   0     -43.324 -53.643  14.259  1.00  0.00     0.242 C 
HETATM    4  O   UNK A   0     -42.930 -53.801  15.413  1.00  0.00    -0.271 OA
ENDROOT
BRANCH   3   5
HETATM    5  C   UNK A   0     -44.776 -53.838  13.833  1.00  0.00     0.195 C 
HETATM    6  C   UNK A   0     -45.255 -55.284  13.932  1.00  0.00     0.044 C 
BRANCH   5   7
HETATM    7  N   UNK A   0     -45.681 -52.931  14.545  1.00  0.00    -0.283 N 
HETATM    8  N   UNK A   0     -45.799 -53.091  15.882  1.00  0.00    -0.302 N 
HETATM    9  C   UNK A   0     -46.673 -52.151  16.253  1.00  0.00     0.024 A 
ATOM     10  HN  UNK A   0     -45.327 -53.774  16.474  1.00  0.00     0.186 HD
HETATM   11  C   UNK A   0     -47.059 -51.984  17.676  1.00  0.00     0.070 C 
HETATM   12  C   UNK A   0     -47.134 -51.408  15.147  1.00  0.00     0.052 A 
HETATM   13  C   UNK A   0     -46.472 -51.924  14.053  1.00  0.00     0.027 A 
HETATM   14  C   UNK A   0     -46.559 -51.518  12.628  1.00  0.00     0.070 C 
ENDBRANCH   5   7
ENDBRANCH   3   5
BRANCH   1  15
ATOM     15  CA  LEU A   1     -41.033 -53.032  13.459  1.00  0.00     0.182 C 
BRANCH  15  16
ATOM     16  CB  LEU A   1     -40.260 -54.346  13.626  1.00  0.00     0.040 C 
BRANCH  16  17
ATOM     17  CG  LEU A   1     -39.265 -54.398  14.804  1.00  0.00    -0.020 C 
ATOM     18  CD1 LEU A   1     -39.093 -53.043  15.490  1.00  0.00     0.009 C 
ATOM     19  CD2 LEU A   1     -39.729 -55.442  15.826  1.00  0.00     0.009 C 
ENDBRANCH  16  17
ENDBRANCH  15  16
BRANCH  15  20
ATOM     20  C   LEU A   1     -40.543 -52.253  12.233  1.00  0.00     0.163 C 
ATOM     21  O   LEU A   1     -39.590 -51.487  12.255  1.00  0.00    -0.648 OA
BRANCH  20  22
ATOM     22  OXT LEU A   1     -41.239 -52.497  11.100  1.00  0.00    -0.775 OA
ATOM     23  HXT LEU A   1     -41.896 -53.215  11.174  1.00  0.00     0.167 HD
ENDBRANCH  20  22
ENDBRANCH  15  20
ENDBRANCH   1  15
TORSDOF 7
ENDMDL
MODEL 6
REMARK VINA RESULT:      -5.2      1.727      2.437
REMARK  7 active torsions:
REMARK  status: ('A' for Active; 'I' for Inactive)
REMARK    1  A    between atoms: CG_2  and  CB_4 
REMARK    2  A    between atoms: CB_4  and  CA_5 
REMARK    3  A    between atoms: CA_5  and  C_7 
REMARK    4  A    between atoms: CA_5  and  N_6 
REMARK       I    between atoms: N_6  and  C_12 
REMARK    5  A    between atoms: C_7  and  OXT_9 
REMARK    6  A    between atoms: C_12  and  C_14 
REMARK    7  A    between atoms: C_14  and  N_16 
ROOT
ATOM      1  N   LEU A   1     -43.125 -51.718  12.815  1.00  0.00    -0.345 N 
ATOM      2  H   LEU A   1     -43.736 -50.999  13.204  1.00  0.00     0.163 HD
HETATM    3  C   UNK A   0     -41.903 -51.318  12.306  1.00  0.00     0.242 C 
HETATM    4  O   UNK A   0     -41.239 -52.051  11.576  1.00  0.00    -0.271 OA
ENDROOT
BRANCH   3   5
HETATM    5  C   UNK A   0     -41.428 -49.943  12.771  1.00  0.00     0.195 C 
HETATM    6  C   UNK A   0     -39.915 -49.758  12.693  1.00  0.00     0.044 C 
BRANCH   5   7
HETATM    7  N   UNK A   0     -42.130 -48.860  12.077  1.00  0.00    -0.283 N 
HETATM    8  N   UNK A   0     -42.183 -48.914  10.728  1.00  0.00    -0.302 N 
HETATM    9  C   UNK A   0     -42.864 -47.820  10.377  1.00  0.00     0.024 A 
ATOM     10  HN  UNK A   0     -41.791 -49.630  10.116  1.00  0.00     0.186 HD
HETATM   11  C   UNK A   0     -43.157 -47.525   8.953  1.00  0.00     0.070 C 
HETATM   12  C   UNK A   0     -43.223 -47.052  11.503  1.00  0.00     0.052 A 
HETATM   13  C   UNK A   0     -42.747 -47.748  12.593  1.00  0.00     0.027 A 
HETATM   14  C   UNK A   0     -42.847 -47.414  14.036  1.00  0.00     0.070 C 
ENDBRANCH   5   7
ENDBRANCH   3   5
BRANCH   1  15
ATOM     15  CA  LEU A   1     -43.776 -52.972  12.427  1.00  0.00     0.182 C 
BRANCH  15  16
ATOM     16  CB  LEU A   1     -43.187 -54.126  13.249  1.00  0.00     0.040 C 
BRANCH  16  17
ATOM     17  CG  LEU A   1     -42.785 -53.784  14.698  1.00  0.00    -0.020 C 
ATOM     18  CD1 LEU A   1     -43.679 -54.466  15.734  1.00  0.00     0.009 C 
ATOM     19  CD2 LEU A   1     -41.323 -54.179  14.935  1.00  0.00     0.009 C 
ENDBRANCH  16  17
ENDBRANCH  15  16
BRANCH  15  20
ATOM     20  C   LEU A   1     -45.273 -52.799  12.709  1.00  0.00     0.163 C 
ATOM     21  O   LEU A   1     -45.826 -51.710  12.780  1.00  0.00    -0.648 OA
BRANCH  20  22
ATOM     22  OXT LEU A   1     -45.954 -53.958  12.851  1.00  0.00    -0.775 OA
ATOM     23  HXT LEU A   1     -46.283 -54.341  12.016  1.00  0.00     0.167 HD
ENDBRANCH  20  22
ENDBRANCH  15  20
ENDBRANCH   1  15
TORSDOF 7
ENDMDL
MODEL 7
REMARK VINA RESULT:      -5.2      3.599      4.405
REMARK  7 active torsions:
REMARK  status: ('A' for Active; 'I' for Inactive)
REMARK    1  A    between atoms: CG_2  and  CB_4 
REMARK    2  A    between atoms: CB_4  and  CA_5 
REMARK    3  A    between atoms: CA_5  and  C_7 
REMARK    4  A    between atoms: CA_5  and  N_6 
REMARK       I    between atoms: N_6  and  C_12 
REMARK    5  A    between atoms: C_7  and  OXT_9 
REMARK    6  A    between atoms: C_12  and  C_14 
REMARK    7  A    between atoms: C_14  and  N_16 
ROOT
ATOM      1  N   LEU A   1     -39.244 -52.607  13.857  1.00  0.00    -0.345 N 
ATOM      2  H   LEU A   1     -38.294 -52.895  13.621  1.00  0.00     0.163 HD
HETATM    3  C   UNK A   0     -39.463 -51.269  14.131  1.00  0.00     0.242 C 
HETATM    4  O   UNK A   0     -40.488 -50.886  14.690  1.00  0.00    -0.271 OA
ENDROOT
BRANCH   3   5
HETATM    5  C   UNK A   0     -38.374 -50.322  13.631  1.00  0.00     0.195 C 
HETATM    6  C   UNK A   0     -37.482 -50.930  12.551  1.00  0.00     0.044 C 
BRANCH   5   7
HETATM    7  N   UNK A   0     -38.927 -49.035  13.199  1.00  0.00    -0.283 N 
HETATM    8  N   UNK A   0     -39.797 -49.045  12.165  1.00  0.00    -0.302 N 
HETATM    9  C   UNK A   0     -40.124 -47.762  11.992  1.00  0.00     0.024 A 
ATOM     10  HN  UNK A   0     -40.129 -49.851  11.636  1.00  0.00     0.186 HD
HETATM   11  C   UNK A   0     -41.092 -47.353  10.945  1.00  0.00     0.070 C 
HETATM   12  C   UNK A   0     -39.441 -46.928  12.901  1.00  0.00     0.052 A 
HETATM   13  C   UNK A   0     -38.678 -47.774  13.678  1.00  0.00     0.027 A 
HETATM   14  C   UNK A   0     -37.766 -47.446  14.803  1.00  0.00     0.070 C 
ENDBRANCH   5   7
ENDBRANCH   3   5
BRANCH   1  15
ATOM     15  CA  LEU A   1     -40.141 -53.670  14.320  1.00  0.00     0.182 C 
BRANCH  15  16
ATOM     16  CB  LEU A   1     -41.271 -53.862  13.300  1.00  0.00     0.040 C 
BRANCH  16  17
ATOM     17  CG  LEU A   1     -42.705 -53.798  13.865  1.00  0.00    -0.020 C 
ATOM     18  CD1 LEU A   1     -43.771 -53.835  12.770  1.00  0.00     0.009 C 
ATOM     19  CD2 LEU A   1     -42.927 -54.956  14.844  1.00  0.00     0.009 C 
ENDBRANCH  16  17
ENDBRANCH  15  16
BRANCH  15  20
ATOM     20  C   LEU A   1     -39.291 -54.940  14.450  1.00  0.00     0.163 C 
ATOM     21  O   LEU A   1     -39.171 -55.569  15.492  1.00  0.00    -0.648 OA
BRANCH  20  22
ATOM     22  OXT LEU A   1     -38.693 -55.333  13.303  1.00  0.00    -0.775 OA
ATOM     23  HXT LEU A   1     -38.253 -56.203  13.351  1.00  0.00     0.167 HD
ENDBRANCH  20  22
ENDBRANCH  15  20
ENDBRANCH   1  15
TORSDOF 7
ENDMDL
MODEL 8
REMARK VINA RESULT:      -5.2      2.310      3.596
REMARK  7 active torsions:
REMARK  status: ('A' for Active; 'I' for Inactive)
REMARK    1  A    between atoms: CG_2  and  CB_4 
REMARK    2  A    between atoms: CB_4  and  CA_5 
REMARK    3  A    between atoms: CA_5  and  C_7 
REMARK    4  A    between atoms: CA_5  and  N_6 
REMARK       I    between atoms: N_6  and  C_12 
REMARK    5  A    between atoms: C_7  and  OXT_9 
REMARK    6  A    between atoms: C_12  and  C_14 
REMARK    7  A    between atoms: C_14  and  N_16 
ROOT
ATOM      1  N   LEU A   1     -41.962 -50.770  11.955  1.00  0.00    -0.345 N 
ATOM      2  H   LEU A   1     -41.295 -50.724  11.184  1.00  0.00     0.163 HD
HETATM    3  C   UNK A   0     -42.429 -49.576  12.475  1.00  0.00     0.242 C 
HETATM    4  O   UNK A   0     -42.999 -49.528  13.563  1.00  0.00    -0.271 OA
ENDROOT
BRANCH   3   5
HETATM    5  C   UNK A   0     -42.238 -48.360  11.572  1.00  0.00     0.195 C 
HETATM    6  C   UNK A   0     -43.535 -47.618  11.261  1.00  0.00     0.044 C 
BRANCH   5   7
HETATM    7  N   UNK A   0     -41.218 -47.447  12.096  1.00  0.00    -0.283 N 
HETATM    8  N   UNK A   0     -40.701 -47.721  13.314  1.00  0.00    -0.302 N 
HETATM    9  C   UNK A   0     -39.820 -46.741  13.530  1.00  0.00     0.024 A 
ATOM     10  HN  UNK A   0     -40.931 -48.501  13.929  1.00  0.00     0.186 HD
HETATM   11  C   UNK A   0     -39.013 -46.697  14.775  1.00  0.00     0.070 C 
HETATM   12  C   UNK A   0     -39.795 -45.824  12.460  1.00  0.00     0.052 A 
HETATM   13  C   UNK A   0     -40.700 -46.305  11.538  1.00  0.00     0.027 A 
HETATM   14  C   UNK A   0     -41.076 -45.749  10.214  1.00  0.00     0.070 C 
ENDBRANCH   5   7
ENDBRANCH   3   5
BRANCH   1  15
ATOM     15  CA  LEU A   1     -41.993 -52.030  12.704  1.00  0.00     0.182 C 
BRANCH  15  16
ATOM     16  CB  LEU A   1     -43.209 -52.855  12.262  1.00  0.00     0.040 C 
BRANCH  16  17
ATOM     17  CG  LEU A   1     -44.361 -52.956  13.282  1.00  0.00    -0.020 C 
ATOM     18  CD1 LEU A   1     -45.519 -52.011  12.959  1.00  0.00     0.009 C 
ATOM     19  CD2 LEU A   1     -44.872 -54.399  13.344  1.00  0.00     0.009 C 
ENDBRANCH  16  17
ENDBRANCH  15  16
BRANCH  15  20
ATOM     20  C   LEU A   1     -40.683 -52.762  12.390  1.00  0.00     0.163 C 
ATOM     21  O   LEU A   1     -39.716 -52.768  13.139  1.00  0.00    -0.648 OA
BRANCH  20  22
ATOM     22  OXT LEU A   1     -40.683 -53.431  11.215  1.00  0.00    -0.775 OA
ATOM     23  HXT LEU A   1     -40.665 -52.861  10.423  1.00  0.00     0.167 HD
ENDBRANCH  20  22
ENDBRANCH  15  20
ENDBRANCH   1  15
TORSDOF 7
ENDMDL
MODEL 9
REMARK VINA RESULT:      -5.1      2.597      3.961
REMARK  7 active torsions:
REMARK  status: ('A' for Active; 'I' for Inactive)
REMARK    1  A    between atoms: CG_2  and  CB_4 
REMARK    2  A    between atoms: CB_4  and  CA_5 
REMARK    3  A    between atoms: CA_5  and  C_7 
REMARK    4  A    between atoms: CA_5  and  N_6 
REMARK       I    between atoms: N_6  and  C_12 
REMARK    5  A    between atoms: C_7  and  OXT_9 
REMARK    6  A    between atoms: C_12  and  C_14 
REMARK    7  A    between atoms: C_14  and  N_16 
ROOT
ATOM      1  N   LEU A   1     -43.147 -52.504  13.207  1.00  0.00    -0.345 N 
ATOM      2  H   LEU A   1     -43.812 -51.870  13.649  1.00  0.00     0.163 HD
HETATM    3  C   UNK A   0     -42.177 -51.954  12.388  1.00  0.00     0.242 C 
HETATM    4  O   UNK A   0     -41.527 -52.645  11.606  1.00  0.00    -0.271 OA
ENDROOT
BRANCH   3   5
HETATM    5  C   UNK A   0     -41.942 -50.458  12.582  1.00  0.00     0.195 C 
HETATM    6  C   UNK A   0     -42.427 -49.931  13.931  1.00  0.00     0.044 C 
BRANCH   5   7
HETATM    7  N   UNK A   0     -40.545 -50.089  12.342  1.00  0.00    -0.283 N 
HETATM    8  N   UNK A   0     -39.591 -50.956  12.749  1.00  0.00    -0.302 N 
HETATM    9  C   UNK A   0     -38.440 -50.369  12.412  1.00  0.00     0.024 A 
ATOM     10  HN  UNK A   0     -39.722 -51.857  13.210  1.00  0.00     0.186 HD
HETATM   11  C   UNK A   0     -37.138 -51.028  12.678  1.00  0.00     0.070 C 
HETATM   12  C   UNK A   0     -38.658 -49.112  11.813  1.00  0.00     0.052 A 
HETATM   13  C   UNK A   0     -40.027 -48.955  11.769  1.00  0.00     0.027 A 
HETATM   14  C   UNK A   0     -40.825 -47.823  11.232  1.00  0.00     0.070 C 
ENDBRANCH   5   7
ENDBRANCH   3   5
BRANCH   1  15
ATOM     15  CA  LEU A   1     -43.561 -53.908  13.116  1.00  0.00     0.182 C 
BRANCH  15  16
ATOM     16  CB  LEU A   1     -43.230 -54.621  14.433  1.00  0.00     0.040 C 
BRANCH  16  17
ATOM     17  CG  LEU A   1     -43.016 -53.709  15.659  1.00  0.00    -0.020 C 
ATOM     18  CD1 LEU A   1     -44.128 -53.850  16.699  1.00  0.00     0.009 C 
ATOM     19  CD2 LEU A   1     -41.661 -54.020  16.303  1.00  0.00     0.009 C 
ENDBRANCH  16  17
ENDBRANCH  15  16
BRANCH  15  20
ATOM     20  C   LEU A   1     -45.071 -53.906  12.850  1.00  0.00     0.163 C 
ATOM     21  O   LEU A   1     -45.637 -53.057  12.176  1.00  0.00    -0.648 OA
BRANCH  20  22
ATOM     22  OXT LEU A   1     -45.738 -54.943  13.404  1.00  0.00    -0.775 OA
ATOM     23  HXT LEU A   1     -45.647 -55.013  14.373  1.00  0.00     0.167 HD
ENDBRANCH  20  22
ENDBRANCH  15  20
ENDBRANCH   1  15
TORSDOF 7
ENDMDL
