MODEL 1
REMARK VINA RESULT:      -6.0      0.000      0.000
REMARK  5 active torsions:
REMARK  status: ('A' for Active; 'I' for Inactive)
REMARK    1  A    between atoms: C_2  and  N_3 
REMARK    2  A    between atoms: C_5  and  N_6 
REMARK       I    between atoms: N_6  and  C_7 
REMARK       I    between atoms: C_7  and  N_9 
REMARK    3  A    between atoms: N_9  and  C_10 
REMARK    4  A    between atoms: C_10  and  C_11 
REMARK    5  A    between atoms: C_11  and  N_13 
ROOT
HETATM    1  N   UNL     1     -41.783 -48.171   9.792  1.00  0.00    -0.306 N 
HETATM    2  C   UNL     1     -41.202 -48.403  11.018  1.00  0.00     0.320 C 
HETATM    3  O   UNL     1     -41.575 -47.955  12.097  1.00  0.00    -0.247 OA
HETATM    4  N   UNL     1     -40.101 -49.234  10.924  1.00  0.00    -0.341 N 
HETATM    5  H   UNL     1     -41.481 -48.731   9.009  1.00  0.00     0.171 HD
HETATM    6  H   UNL     1     -39.611 -49.200  10.045  1.00  0.00     0.164 HD
ENDROOT
BRANCH   1   7
HETATM    7  C   UNL     1     -42.865 -47.336   9.584  1.00  0.00     0.070 A 
HETATM    8  C   UNL     1     -44.182 -47.684   9.386  1.00  0.00     0.141 A 
HETATM    9  N   UNL     1     -44.860 -46.526   9.156  1.00  0.00    -0.302 N 
HETATM   10  N   UNL     1     -44.092 -45.423   9.265  1.00  0.00    -0.308 N 
HETATM   11  C   UNL     1     -42.878 -45.921   9.524  1.00  0.00     0.138 A 
ATOM     12  HN  UNL     1     -44.369 -44.447   9.173  1.00  0.00     0.186 HD
BRANCH   9  13
HETATM   13  C   UNL     1     -46.252 -46.417   8.763  1.00  0.00     0.143 C 
HETATM   14  C   UNL     1     -47.027 -47.681   9.095  1.00  0.00     0.028 C 
ENDBRANCH   9  13
ENDBRANCH   1   7
BRANCH   4  15
HETATM   15  C   UNL     1     -39.267 -49.427  12.105  1.00  0.00     0.159 C 
BRANCH  15  16
HETATM   16  C   UNL     1     -39.075 -50.923  12.525  1.00  0.00     0.236 C 
HETATM   17  C   UNL     1     -37.583 -51.100  12.874  1.00  0.00     0.044 C 
BRANCH  16  18
HETATM   18  N   UNL     1     -39.958 -51.292  13.672  1.00  0.00     0.098 N 
HETATM   19  C   UNL     1     -39.653 -52.608  14.294  1.00  0.00     0.299 C 
HETATM   20  C   UNL     1     -40.076 -53.839  13.467  1.00  0.00     0.198 C 
HETATM   21  O   UNL     1     -41.450 -53.782  13.062  1.00  0.00    -0.388 OA
HETATM   22  C   UNL     1     -41.734 -52.552  12.384  1.00  0.00     0.198 C 
HETATM   23  C   UNL     1     -41.397 -51.358  13.289  1.00  0.00     0.299 C 
ENDBRANCH  16  18
ENDBRANCH  15  16
ENDBRANCH   4  15
TORSDOF 5
ENDMDL
MODEL 2
REMARK VINA RESULT:      -5.6      2.008      2.564
REMARK  5 active torsions:
REMARK  status: ('A' for Active; 'I' for Inactive)
REMARK    1  A    between atoms: C_2  and  N_3 
REMARK    2  A    between atoms: C_5  and  N_6 
REMARK       I    between atoms: N_6  and  C_7 
REMARK       I    between atoms: C_7  and  N_9 
REMARK    3  A    between atoms: N_9  and  C_10 
REMARK    4  A    between atoms: C_10  and  C_11 
REMARK    5  A    between atoms: C_11  and  N_13 
ROOT
HETATM    1  N   UNL     1     -41.130 -49.311  10.504  1.00  0.00    -0.306 N 
HETATM    2  C   UNL     1     -41.088 -49.959  11.718  1.00  0.00     0.320 C 
HETATM    3  O   UNL     1     -41.559 -49.555  12.776  1.00  0.00    -0.247 OA
HETATM    4  N   UNL     1     -40.433 -51.174  11.637  1.00  0.00    -0.341 N 
HETATM    5  H   UNL     1     -40.853 -49.824   9.681  1.00  0.00     0.171 HD
HETATM    6  H   UNL     1     -39.729 -51.235  10.919  1.00  0.00     0.164 HD
ENDROOT
BRANCH   1   7
HETATM    7  C   UNL     1     -41.676 -48.055  10.306  1.00  0.00     0.070 A 
HETATM    8  C   UNL     1     -42.881 -47.736   9.722  1.00  0.00     0.141 A 
HETATM    9  N   UNL     1     -42.946 -46.375   9.687  1.00  0.00    -0.302 N 
HETATM   10  N   UNL     1     -41.898 -45.772  10.282  1.00  0.00    -0.308 N 
HETATM   11  C   UNL     1     -41.126 -46.799  10.655  1.00  0.00     0.138 A 
ATOM     12  HN  UNL     1     -41.733 -44.775  10.415  1.00  0.00     0.186 HD
BRANCH   9  13
HETATM   13  C   UNL     1     -43.977 -45.589   9.036  1.00  0.00     0.143 C 
HETATM   14  C   UNL     1     -45.272 -46.371   8.896  1.00  0.00     0.028 C 
ENDBRANCH   9  13
ENDBRANCH   1   7
BRANCH   4  15
HETATM   15  C   UNL     1     -40.142 -51.895  12.871  1.00  0.00     0.159 C 
BRANCH  15  16
HETATM   16  C   UNL     1     -41.104 -53.095  13.162  1.00  0.00     0.236 C 
HETATM   17  C   UNL     1     -40.265 -54.181  13.865  1.00  0.00     0.044 C 
BRANCH  16  18
HETATM   18  N   UNL     1     -42.272 -52.676  13.995  1.00  0.00     0.098 N 
HETATM   19  C   UNL     1     -42.666 -53.647  15.049  1.00  0.00     0.299 C 
HETATM   20  C   UNL     1     -43.381 -54.915  14.540  1.00  0.00     0.198 C 
HETATM   21  O   UNL     1     -44.498 -54.613  13.695  1.00  0.00    -0.388 OA
HETATM   22  C   UNL     1     -44.110 -53.744  12.623  1.00  0.00     0.198 C 
HETATM   23  C   UNL     1     -43.502 -52.450  13.184  1.00  0.00     0.299 C 
ENDBRANCH  16  18
ENDBRANCH  15  16
ENDBRANCH   4  15
TORSDOF 5
ENDMDL
MODEL 3
REMARK VINA RESULT:      -5.5      3.292      4.828
REMARK  5 active torsions:
REMARK  status: ('A' for Active; 'I' for Inactive)
REMARK    1  A    between atoms: C_2  and  N_3 
REMARK    2  A    between atoms: C_5  and  N_6 
REMARK       I    between atoms: N_6  and  C_7 
REMARK       I    between atoms: C_7  and  N_9 
REMARK    3  A    between atoms: N_9  and  C_10 
REMARK    4  A    between atoms: C_10  and  C_11 
REMARK    5  A    between atoms: C_11  and  N_13 
ROOT
HETATM    1  N   UNL     1     -42.140 -49.308  11.158  1.00  0.00    -0.306 N 
HETATM    2  C   UNL     1     -42.265 -49.708  12.469  1.00  0.00     0.320 C 
HETATM    3  O   UNL     1     -42.121 -49.004  13.462  1.00  0.00    -0.247 OA
HETATM    4  N   UNL     1     -42.588 -51.049  12.576  1.00  0.00    -0.341 N 
HETATM    5  H   UNL     1     -42.447 -49.942  10.436  1.00  0.00     0.171 HD
HETATM    6  H   UNL     1     -42.268 -51.629  11.818  1.00  0.00     0.164 HD
ENDROOT
BRANCH   1   7
HETATM    7  C   UNL     1     -41.772 -48.035  10.760  1.00  0.00     0.070 A 
HETATM    8  C   UNL     1     -40.615 -47.353  11.061  1.00  0.00     0.141 A 
HETATM    9  N   UNL     1     -40.740 -46.115  10.506  1.00  0.00    -0.302 N 
HETATM   10  N   UNL     1     -41.871 -45.959   9.791  1.00  0.00    -0.308 N 
HETATM   11  C   UNL     1     -42.498 -47.130   9.950  1.00  0.00     0.138 A 
ATOM     12  HN  UNL     1     -42.175 -45.145   9.257  1.00  0.00     0.186 HD
BRANCH   9  13
HETATM   13  C   UNL     1     -39.819 -45.007  10.681  1.00  0.00     0.143 C 
HETATM   14  C   UNL     1     -39.026 -44.734   9.414  1.00  0.00     0.028 C 
ENDBRANCH   9  13
ENDBRANCH   1   7
BRANCH   4  15
HETATM   15  C   UNL     1     -42.573 -51.668  13.896  1.00  0.00     0.159 C 
BRANCH  15  16
HETATM   16  C   UNL     1     -43.984 -52.087  14.430  1.00  0.00     0.236 C 
HETATM   17  C   UNL     1     -44.630 -50.820  15.025  1.00  0.00     0.044 C 
BRANCH  16  18
HETATM   18  N   UNL     1     -44.829 -52.682  13.350  1.00  0.00     0.098 N 
HETATM   19  C   UNL     1     -46.277 -52.779  13.675  1.00  0.00     0.299 C 
HETATM   20  C   UNL     1     -46.650 -53.882  14.687  1.00  0.00     0.198 C 
HETATM   21  O   UNL     1     -46.133 -55.165  14.315  1.00  0.00    -0.388 OA
HETATM   22  C   UNL     1     -44.720 -55.101  14.084  1.00  0.00     0.198 C 
HETATM   23  C   UNL     1     -44.409 -54.066  12.992  1.00  0.00     0.299 C 
ENDBRANCH  16  18
ENDBRANCH  15  16
ENDBRANCH   4  15
TORSDOF 5
ENDMDL
MODEL 4
REMARK VINA RESULT:      -5.5      3.269      6.217
REMARK  5 active torsions:
REMARK  status: ('A' for Active; 'I' for Inactive)
REMARK    1  A    between atoms: C_2  and  N_3 
REMARK    2  A    between atoms: C_5  and  N_6 
REMARK       I    between atoms: N_6  and  C_7 
REMARK       I    between atoms: C_7  and  N_9 
REMARK    3  A    between atoms: N_9  and  C_10 
REMARK    4  A    between atoms: C_10  and  C_11 
REMARK    5  A    between atoms: C_11  and  N_13 
ROOT
HETATM    1  N   UNL     1     -42.832 -52.430  11.814  1.00  0.00    -0.306 N 
HETATM    2  C   UNL     1     -41.772 -51.733  12.349  1.00  0.00     0.320 C 
HETATM    3  O   UNL     1     -41.559 -51.531  13.539  1.00  0.00    -0.247 OA
HETATM    4  N   UNL     1     -40.918 -51.254  11.372  1.00  0.00    -0.341 N 
HETATM    5  H   UNL     1     -42.801 -52.665  10.834  1.00  0.00     0.171 HD
HETATM    6  H   UNL     1     -41.347 -51.068  10.480  1.00  0.00     0.164 HD
ENDROOT
BRANCH   1   7
HETATM    7  C   UNL     1     -43.866 -52.972  12.557  1.00  0.00     0.070 A 
HETATM    8  C   UNL     1     -45.001 -52.344  13.016  1.00  0.00     0.141 A 
HETATM    9  N   UNL     1     -45.681 -53.264  13.756  1.00  0.00    -0.302 N 
HETATM   10  N   UNL     1     -45.108 -54.484  13.753  1.00  0.00    -0.308 N 
HETATM   11  C   UNL     1     -44.002 -54.301  13.023  1.00  0.00     0.138 A 
ATOM     12  HN  UNL     1     -45.439 -55.340  14.198  1.00  0.00     0.186 HD
BRANCH   9  13
HETATM   13  C   UNL     1     -46.870 -53.010  14.548  1.00  0.00     0.143 C 
HETATM   14  C   UNL     1     -46.926 -51.569  15.026  1.00  0.00     0.028 C 
ENDBRANCH   9  13
ENDBRANCH   1   7
BRANCH   4  15
HETATM   15  C   UNL     1     -39.851 -50.340  11.762  1.00  0.00     0.159 C 
BRANCH  15  16
HETATM   16  C   UNL     1     -40.342 -48.917  12.190  1.00  0.00     0.236 C 
HETATM   17  C   UNL     1     -39.298 -48.364  13.182  1.00  0.00     0.044 C 
BRANCH  16  18
HETATM   18  N   UNL     1     -40.514 -48.014  11.012  1.00  0.00     0.098 N 
HETATM   19  C   UNL     1     -40.348 -46.567  11.306  1.00  0.00     0.299 C 
HETATM   20  C   UNL     1     -41.514 -45.915  12.078  1.00  0.00     0.198 C 
HETATM   21  O   UNL     1     -42.784 -46.159  11.460  1.00  0.00    -0.388 OA
HETATM   22  C   UNL     1     -42.991 -47.561  11.250  1.00  0.00     0.198 C 
HETATM   23  C   UNL     1     -41.861 -48.140  10.386  1.00  0.00     0.299 C 
ENDBRANCH  16  18
ENDBRANCH  15  16
ENDBRANCH   4  15
TORSDOF 5
ENDMDL
MODEL 5
REMARK VINA RESULT:      -5.4      3.679      6.132
REMARK  5 active torsions:
REMARK  status: ('A' for Active; 'I' for Inactive)
REMARK    1  A    between atoms: C_2  and  N_3 
REMARK    2  A    between atoms: C_5  and  N_6 
REMARK       I    between atoms: N_6  and  C_7 
REMARK       I    between atoms: C_7  and  N_9 
REMARK    3  A    between atoms: N_9  and  C_10 
REMARK    4  A    between atoms: C_10  and  C_11 
REMARK    5  A    between atoms: C_11  and  N_13 
ROOT
HETATM    1  N   UNL     1     -43.019 -52.538  11.828  1.00  0.00    -0.306 N 
HETATM    2  C   UNL     1     -41.880 -52.028  12.410  1.00  0.00     0.320 C 
HETATM    3  O   UNL     1     -41.636 -51.975  13.610  1.00  0.00    -0.247 OA
HETATM    4  N   UNL     1     -40.983 -51.555  11.469  1.00  0.00    -0.341 N 
HETATM    5  H   UNL     1     -43.024 -52.673  10.829  1.00  0.00     0.171 HD
HETATM    6  H   UNL     1     -41.394 -51.229  10.610  1.00  0.00     0.164 HD
ENDROOT
BRANCH   1   7
HETATM    7  C   UNL     1     -44.104 -53.028  12.532  1.00  0.00     0.070 A 
HETATM    8  C   UNL     1     -45.129 -52.319  13.115  1.00  0.00     0.141 A 
HETATM    9  N   UNL     1     -45.918 -53.229  13.753  1.00  0.00    -0.302 N 
HETATM   10  N   UNL     1     -45.524 -54.504  13.565  1.00  0.00    -0.308 N 
HETATM   11  C   UNL     1     -44.418 -54.377  12.823  1.00  0.00     0.138 A 
ATOM     12  HN  UNL     1     -45.964 -55.359  13.906  1.00  0.00     0.186 HD
BRANCH   9  13
HETATM   13  C   UNL     1     -47.042 -52.924  14.617  1.00  0.00     0.143 C 
HETATM   14  C   UNL     1     -46.967 -51.505  15.153  1.00  0.00     0.028 C 
ENDBRANCH   9  13
ENDBRANCH   1   7
BRANCH   4  15
HETATM   15  C   UNL     1     -39.812 -50.816  11.929  1.00  0.00     0.159 C 
BRANCH  15  16
HETATM   16  C   UNL     1     -40.000 -49.263  11.965  1.00  0.00     0.236 C 
HETATM   17  C   UNL     1     -41.109 -48.923  10.949  1.00  0.00     0.044 C 
BRANCH  16  18
HETATM   18  N   UNL     1     -40.341 -48.779  13.337  1.00  0.00     0.098 N 
HETATM   19  C   UNL     1     -40.576 -47.315  13.441  1.00  0.00     0.299 C 
HETATM   20  C   UNL     1     -39.309 -46.439  13.360  1.00  0.00     0.198 C 
HETATM   21  O   UNL     1     -38.298 -46.852  14.288  1.00  0.00    -0.388 OA
HETATM   22  C   UNL     1     -38.002 -48.246  14.138  1.00  0.00     0.198 C 
HETATM   23  C   UNL     1     -39.276 -49.082  14.333  1.00  0.00     0.299 C 
ENDBRANCH  16  18
ENDBRANCH  15  16
ENDBRANCH   4  15
TORSDOF 5
ENDMDL
MODEL 6
REMARK VINA RESULT:      -5.4      2.232      3.296
REMARK  5 active torsions:
REMARK  status: ('A' for Active; 'I' for Inactive)
REMARK    1  A    between atoms: C_2  and  N_3 
REMARK    2  A    between atoms: C_5  and  N_6 
REMARK       I    between atoms: N_6  and  C_7 
REMARK       I    between atoms: C_7  and  N_9 
REMARK    3  A    between atoms: N_9  and  C_10 
REMARK    4  A    between atoms: C_10  and  C_11 
REMARK    5  A    between atoms: C_11  and  N_13 
ROOT
HETATM    1  N   UNL     1     -41.413 -48.920  10.451  1.00  0.00    -0.306 N 
HETATM    2  C   UNL     1     -41.249 -49.692  11.579  1.00  0.00     0.320 C 
HETATM    3  O   UNL     1     -41.450 -49.342  12.737  1.00  0.00    -0.247 OA
HETATM    4  N   UNL     1     -40.818 -50.971  11.277  1.00  0.00    -0.341 N 
HETATM    5  H   UNL     1     -41.375 -49.376   9.553  1.00  0.00     0.171 HD
HETATM    6  H   UNL     1     -40.276 -51.052  10.432  1.00  0.00     0.164 HD
ENDROOT
BRANCH   1   7
HETATM    7  C   UNL     1     -41.784 -47.587  10.463  1.00  0.00     0.070 A 
HETATM    8  C   UNL     1     -41.014 -46.494  10.789  1.00  0.00     0.141 A 
HETATM    9  N   UNL     1     -41.834 -45.409  10.723  1.00  0.00    -0.302 N 
HETATM   10  N   UNL     1     -43.079 -45.701  10.298  1.00  0.00    -0.308 N 
HETATM   11  C   UNL     1     -43.045 -47.030  10.144  1.00  0.00     0.138 A 
ATOM     12  HN  UNL     1     -43.859 -45.065  10.135  1.00  0.00     0.186 HD
BRANCH   9  13
HETATM   13  C   UNL     1     -41.489 -44.056  11.118  1.00  0.00     0.143 C 
HETATM   14  C   UNL     1     -42.655 -43.358  11.798  1.00  0.00     0.028 C 
ENDBRANCH   9  13
ENDBRANCH   1   7
BRANCH   4  15
HETATM   15  C   UNL     1     -40.420 -51.851  12.369  1.00  0.00     0.159 C 
BRANCH  15  16
HETATM   16  C   UNL     1     -41.461 -52.970  12.710  1.00  0.00     0.236 C 
HETATM   17  C   UNL     1     -40.658 -54.190  13.205  1.00  0.00     0.044 C 
BRANCH  16  18
HETATM   18  N   UNL     1     -42.452 -52.511  13.730  1.00  0.00     0.098 N 
HETATM   19  C   UNL     1     -42.852 -53.546  14.719  1.00  0.00     0.299 C 
HETATM   20  C   UNL     1     -43.794 -54.641  14.179  1.00  0.00     0.198 C 
HETATM   21  O   UNL     1     -44.949 -54.098  13.526  1.00  0.00    -0.388 OA
HETATM   22  C   UNL     1     -44.570 -53.162  12.510  1.00  0.00     0.198 C 
HETATM   23  C   UNL     1     -43.724 -52.033  13.118  1.00  0.00     0.299 C 
ENDBRANCH  16  18
ENDBRANCH  15  16
ENDBRANCH   4  15
TORSDOF 5
ENDMDL
MODEL 7
REMARK VINA RESULT:      -5.4      2.672      3.612
REMARK  5 active torsions:
REMARK  status: ('A' for Active; 'I' for Inactive)
REMARK    1  A    between atoms: C_2  and  N_3 
REMARK    2  A    between atoms: C_5  and  N_6 
REMARK       I    between atoms: N_6  and  C_7 
REMARK       I    between atoms: C_7  and  N_9 
REMARK    3  A    between atoms: N_9  and  C_10 
REMARK    4  A    between atoms: C_10  and  C_11 
REMARK    5  A    between atoms: C_11  and  N_13 
ROOT
HETATM    1  N   UNL     1     -41.849 -47.196   9.928  1.00  0.00    -0.306 N 
HETATM    2  C   UNL     1     -41.257 -48.107  10.775  1.00  0.00     0.320 C 
HETATM    3  O   UNL     1     -41.687 -49.218  11.065  1.00  0.00    -0.247 OA
HETATM    4  N   UNL     1     -40.067 -47.634  11.297  1.00  0.00    -0.341 N 
HETATM    5  H   UNL     1     -41.312 -46.391   9.645  1.00  0.00     0.171 HD
HETATM    6  H   UNL     1     -40.003 -46.633  11.382  1.00  0.00     0.164 HD
ENDROOT
BRANCH   1   7
HETATM    7  C   UNL     1     -43.071 -47.384   9.309  1.00  0.00     0.070 A 
HETATM    8  C   UNL     1     -44.328 -47.202   9.838  1.00  0.00     0.141 A 
HETATM    9  N   UNL     1     -45.214 -47.581   8.875  1.00  0.00    -0.302 N 
HETATM   10  N   UNL     1     -44.626 -47.930   7.713  1.00  0.00    -0.308 N 
HETATM   11  C   UNL     1     -43.321 -47.811   7.982  1.00  0.00     0.138 A 
ATOM     12  HN  UNL     1     -45.069 -48.216   6.840  1.00  0.00     0.186 HD
BRANCH   9  13
HETATM   13  C   UNL     1     -46.652 -47.688   9.034  1.00  0.00     0.143 C 
HETATM   14  C   UNL     1     -47.101 -49.138   9.104  1.00  0.00     0.028 C 
ENDBRANCH   9  13
ENDBRANCH   1   7
BRANCH   4  15
HETATM   15  C   UNL     1     -39.413 -48.401  12.352  1.00  0.00     0.159 C 
BRANCH  15  16
HETATM   16  C   UNL     1     -38.765 -47.529  13.479  1.00  0.00     0.236 C 
HETATM   17  C   UNL     1     -39.359 -46.112  13.345  1.00  0.00     0.044 C 
BRANCH  16  18
HETATM   18  N   UNL     1     -39.013 -48.105  14.835  1.00  0.00     0.098 N 
HETATM   19  C   UNL     1     -38.181 -47.523  15.921  1.00  0.00     0.299 C 
HETATM   20  C   UNL     1     -36.701 -47.957  15.919  1.00  0.00     0.198 C 
HETATM   21  O   UNL     1     -36.548 -49.381  15.879  1.00  0.00    -0.388 OA
HETATM   22  C   UNL     1     -37.277 -49.945  14.782  1.00  0.00     0.198 C 
HETATM   23  C   UNL     1     -38.764 -49.573  14.888  1.00  0.00     0.299 C 
ENDBRANCH  16  18
ENDBRANCH  15  16
ENDBRANCH   4  15
TORSDOF 5
ENDMDL
MODEL 8
REMARK VINA RESULT:      -5.3      3.328      4.941
REMARK  5 active torsions:
REMARK  status: ('A' for Active; 'I' for Inactive)
REMARK    1  A    between atoms: C_2  and  N_3 
REMARK    2  A    between atoms: C_5  and  N_6 
REMARK       I    between atoms: N_6  and  C_7 
REMARK       I    between atoms: C_7  and  N_9 
REMARK    3  A    between atoms: N_9  and  C_10 
REMARK    4  A    between atoms: C_10  and  C_11 
REMARK    5  A    between atoms: C_11  and  N_13 
ROOT
HETATM    1  N   UNL     1     -41.352 -50.089  11.213  1.00  0.00    -0.306 N 
HETATM    2  C   UNL     1     -41.911 -50.621  12.353  1.00  0.00     0.320 C 
HETATM    3  O   UNL     1     -42.389 -49.993  13.292  1.00  0.00    -0.247 OA
HETATM    4  N   UNL     1     -41.888 -52.004  12.347  1.00  0.00    -0.341 N 
HETATM    5  H   UNL     1     -41.149 -50.713  10.447  1.00  0.00     0.171 HD
HETATM    6  H   UNL     1     -41.139 -52.419  11.818  1.00  0.00     0.164 HD
ENDROOT
BRANCH   1   7
HETATM    7  C   UNL     1     -41.195 -48.735  10.977  1.00  0.00     0.070 A 
HETATM    8  C   UNL     1     -40.213 -47.898  11.455  1.00  0.00     0.141 A 
HETATM    9  N   UNL     1     -40.519 -46.647  11.013  1.00  0.00    -0.302 N 
HETATM   10  N   UNL     1     -41.599 -46.613  10.207  1.00  0.00    -0.308 N 
HETATM   11  C   UNL     1     -42.009 -47.886  10.190  1.00  0.00     0.138 A 
ATOM     12  HN  UNL     1     -42.005 -45.810   9.726  1.00  0.00     0.186 HD
BRANCH   9  13
HETATM   13  C   UNL     1     -39.837 -45.422  11.383  1.00  0.00     0.143 C 
HETATM   14  C   UNL     1     -40.631 -44.193  10.972  1.00  0.00     0.028 C 
ENDBRANCH   9  13
ENDBRANCH   1   7
BRANCH   4  15
HETATM   15  C   UNL     1     -42.272 -52.715  13.561  1.00  0.00     0.159 C 
BRANCH  15  16
HETATM   16  C   UNL     1     -43.772 -53.162  13.603  1.00  0.00     0.236 C 
HETATM   17  C   UNL     1     -44.293 -53.109  12.152  1.00  0.00     0.044 C 
BRANCH  16  18
HETATM   18  N   UNL     1     -43.926 -54.525  14.195  1.00  0.00     0.098 N 
HETATM   19  C   UNL     1     -45.256 -55.152  13.978  1.00  0.00     0.299 C 
HETATM   20  C   UNL     1     -46.404 -54.566  14.825  1.00  0.00     0.198 C 
HETATM   21  O   UNL     1     -46.090 -54.528  16.223  1.00  0.00    -0.388 OA
HETATM   22  C   UNL     1     -44.849 -53.849  16.451  1.00  0.00     0.198 C 
HETATM   23  C   UNL     1     -43.718 -54.536  15.670  1.00  0.00     0.299 C 
ENDBRANCH  16  18
ENDBRANCH  15  16
ENDBRANCH   4  15
TORSDOF 5
ENDMDL
MODEL 9
REMARK VINA RESULT:      -5.2      2.777      7.059
REMARK  5 active torsions:
REMARK  status: ('A' for Active; 'I' for Inactive)
REMARK    1  A    between atoms: C_2  and  N_3 
REMARK    2  A    between atoms: C_5  and  N_6 
REMARK       I    between atoms: N_6  and  C_7 
REMARK       I    between atoms: C_7  and  N_9 
REMARK    3  A    between atoms: N_9  and  C_10 
REMARK    4  A    between atoms: C_10  and  C_11 
REMARK    5  A    between atoms: C_11  and  N_13 
ROOT
HETATM    1  N   UNL     1     -41.234 -51.805  11.474  1.00  0.00    -0.306 N 
HETATM    2  C   UNL     1     -40.627 -50.634  11.872  1.00  0.00     0.320 C 
HETATM    3  O   UNL     1     -40.318 -50.327  13.018  1.00  0.00    -0.247 OA
HETATM    4  N   UNL     1     -40.381 -49.788  10.806  1.00  0.00    -0.341 N 
HETATM    5  H   UNL     1     -41.283 -52.004  10.487  1.00  0.00     0.171 HD
HETATM    6  H   UNL     1     -41.015 -49.881  10.029  1.00  0.00     0.164 HD
ENDROOT
BRANCH   1   7
HETATM    7  C   UNL     1     -41.642 -52.806  12.337  1.00  0.00     0.070 A 
HETATM    8  C   UNL     1     -42.922 -53.113  12.737  1.00  0.00     0.141 A 
HETATM    9  N   UNL     1     -42.814 -54.125  13.643  1.00  0.00    -0.302 N 
HETATM   10  N   UNL     1     -41.550 -54.561  13.811  1.00  0.00    -0.308 N 
HETATM   11  C   UNL     1     -40.839 -53.754  13.016  1.00  0.00     0.138 A 
ATOM     12  HN  UNL     1     -41.216 -55.323  14.402  1.00  0.00     0.186 HD
BRANCH   9  13
HETATM   13  C   UNL     1     -43.896 -54.681  14.433  1.00  0.00     0.143 C 
HETATM   14  C   UNL     1     -45.176 -54.799  13.622  1.00  0.00     0.028 C 
ENDBRANCH   9  13
ENDBRANCH   1   7
BRANCH   4  15
HETATM   15  C   UNL     1     -39.914 -48.434  11.082  1.00  0.00     0.159 C 
BRANCH  15  16
HETATM   16  C   UNL     1     -40.998 -47.322  10.886  1.00  0.00     0.236 C 
HETATM   17  C   UNL     1     -42.175 -47.975  10.132  1.00  0.00     0.044 C 
BRANCH  16  18
HETATM   18  N   UNL     1     -41.434 -46.739  12.191  1.00  0.00     0.098 N 
HETATM   19  C   UNL     1     -42.395 -45.611  12.079  1.00  0.00     0.299 C 
HETATM   20  C   UNL     1     -41.789 -44.278  11.594  1.00  0.00     0.198 C 
HETATM   21  O   UNL     1     -40.643 -43.886  12.359  1.00  0.00    -0.388 OA
HETATM   22  C   UNL     1     -39.671 -44.938  12.401  1.00  0.00     0.198 C 
HETATM   23  C   UNL     1     -40.294 -46.212  12.992  1.00  0.00     0.299 C 
ENDBRANCH  16  18
ENDBRANCH  15  16
ENDBRANCH   4  15
TORSDOF 5
ENDMDL
