MODEL 1
REMARK VINA RESULT:      -6.1      0.000      0.000
REMARK  8 active torsions:
REMARK  status: ('A' for Active; 'I' for Inactive)
REMARK    1  A    between atoms: N_1  and  C_2 
REMARK    2  A    between atoms: C_4  and  O_12 
REMARK    3  A    between atoms: C_9  and  O_13 
REMARK    4  A    between atoms: C_11  and  C_19 
REMARK    5  A    between atoms: O_12  and  C_15 
REMARK    6  A    between atoms: O_13  and  C_16 
REMARK    7  A    between atoms: C_17  and  O_21 
REMARK    8  A    between atoms: C_19  and  O_21 
ROOT
HETATM    1  C   UNL     1     -41.095 -47.829  12.230  1.00  0.00     0.265 C 
HETATM    2  C   UNL     1     -39.572 -48.005  12.366  1.00  0.00     0.213 C 
HETATM    3  O   UNL     1     -41.491 -48.638  11.113  1.00  0.00    -0.353 OA
HETATM    4  C   UNL     1     -39.307 -49.353  11.674  1.00  0.00     0.197 C 
HETATM    5  C   UNL     1     -40.693 -49.842  11.224  1.00  0.00     0.180 C 
ENDROOT
BRANCH   1   6
HETATM    6  N   UNL     1     -41.561 -46.453  12.095  1.00  0.00    -0.277 N 
HETATM    7  C   UNL     1     -42.631 -46.069  12.905  1.00  0.00     0.331 A 
HETATM    8  N   UNL     1     -42.912 -44.729  12.937  1.00  0.00    -0.273 N 
HETATM    9  O   UNL     1     -43.300 -46.847  13.582  1.00  0.00    -0.246 OA
HETATM   10  C   UNL     1     -42.261 -43.746  12.239  1.00  0.00     0.289 A 
HETATM   11  H   UNL     1     -43.653 -44.438  13.554  1.00  0.00     0.173 HD
HETATM   12  C   UNL     1     -41.172 -44.227  11.368  1.00  0.00     0.199 A 
HETATM   13  O   UNL     1     -42.575 -42.565  12.328  1.00  0.00    -0.265 OA
HETATM   14  C   UNL     1     -40.869 -45.526  11.333  1.00  0.00     0.146 A 
HETATM   15  F   UNL     1     -40.501 -43.305  10.652  1.00  0.00    -0.199 F 
ENDBRANCH   1   6
BRANCH   2  16
HETATM   16  O   UNL     1     -39.184 -48.023  13.751  1.00  0.00    -0.309 OA
BRANCH  16  17
HETATM   17  C   UNL     1     -38.322 -47.033  14.119  1.00  0.00     0.255 C 
HETATM   18  O   UNL     1     -38.560 -45.836  14.077  1.00  0.00    -0.266 OA
HETATM   19  C   UNL     1     -37.057 -47.628  14.646  1.00  0.00     0.126 C 
ENDBRANCH  16  17
ENDBRANCH   2  16
BRANCH   4  20
HETATM   20  O   UNL     1     -38.618 -50.301  12.496  1.00  0.00    -0.311 OA
BRANCH  20  21
HETATM   21  C   UNL     1     -37.459 -50.793  11.986  1.00  0.00     0.255 C 
HETATM   22  O   UNL     1     -36.837 -51.739  12.448  1.00  0.00    -0.266 OA
HETATM   23  C   UNL     1     -37.057 -50.036  10.757  1.00  0.00     0.126 C 
ENDBRANCH  20  21
ENDBRANCH   4  20
BRANCH   5  24
HETATM   24  C   UNL     1     -41.360 -50.874  12.162  1.00  0.00     0.213 C 
BRANCH  24  25
HETATM   25  O   UNL     1     -41.231 -52.229  11.697  1.00  0.00    -0.319 OA
BRANCH  25  26
HETATM   26  C   UNL     1     -40.899 -53.157  12.629  1.00  0.00     0.254 C 
HETATM   27  O   UNL     1     -39.767 -53.371  13.031  1.00  0.00    -0.266 OA
HETATM   28  C   UNL     1     -42.121 -53.859  13.145  1.00  0.00     0.126 C 
ENDBRANCH  25  26
ENDBRANCH  24  25
ENDBRANCH   5  24
TORSDOF 8
ENDMDL
MODEL 2
REMARK VINA RESULT:      -6.0      2.161      4.167
REMARK  8 active torsions:
REMARK  status: ('A' for Active; 'I' for Inactive)
REMARK    1  A    between atoms: N_1  and  C_2 
REMARK    2  A    between atoms: C_4  and  O_12 
REMARK    3  A    between atoms: C_9  and  O_13 
REMARK    4  A    between atoms: C_11  and  C_19 
REMARK    5  A    between atoms: O_12  and  C_15 
REMARK    6  A    between atoms: O_13  and  C_16 
REMARK    7  A    between atoms: C_17  and  O_21 
REMARK    8  A    between atoms: C_19  and  O_21 
ROOT
HETATM    1  C   UNL     1     -40.023 -46.389  11.840  1.00  0.00     0.265 C 
HETATM    2  C   UNL     1     -41.351 -47.147  11.659  1.00  0.00     0.213 C 
HETATM    3  O   UNL     1     -39.397 -46.955  13.001  1.00  0.00    -0.353 OA
HETATM    4  C   UNL     1     -41.105 -48.475  12.394  1.00  0.00     0.197 C 
HETATM    5  C   UNL     1     -39.660 -48.376  12.910  1.00  0.00     0.180 C 
ENDROOT
BRANCH   1   6
HETATM    6  N   UNL     1     -40.134 -44.938  11.936  1.00  0.00    -0.277 N 
HETATM    7  C   UNL     1     -40.013 -44.218  10.747  1.00  0.00     0.331 A 
HETATM    8  N   UNL     1     -40.340 -42.890  10.810  1.00  0.00    -0.273 N 
HETATM    9  O   UNL     1     -39.656 -44.706   9.676  1.00  0.00    -0.246 OA
HETATM   10  C   UNL     1     -40.750 -42.207  11.925  1.00  0.00     0.289 A 
HETATM   11  H   UNL     1     -40.299 -42.373   9.946  1.00  0.00     0.173 HD
HETATM   12  C   UNL     1     -40.811 -43.018  13.156  1.00  0.00     0.199 A 
HETATM   13  O   UNL     1     -41.028 -41.014  11.894  1.00  0.00    -0.265 OA
HETATM   14  C   UNL     1     -40.513 -44.317  13.115  1.00  0.00     0.146 A 
HETATM   15  F   UNL     1     -41.201 -42.397  14.285  1.00  0.00    -0.199 F 
ENDBRANCH   1   6
BRANCH   2  16
HETATM   16  O   UNL     1     -41.637 -47.346  10.263  1.00  0.00    -0.309 OA
BRANCH  16  17
HETATM   17  C   UNL     1     -42.773 -46.741   9.817  1.00  0.00     0.255 C 
HETATM   18  O   UNL     1     -42.814 -45.772   9.076  1.00  0.00    -0.266 OA
HETATM   19  C   UNL     1     -43.974 -47.477  10.318  1.00  0.00     0.126 C 
ENDBRANCH  16  17
ENDBRANCH   2  16
BRANCH   4  20
HETATM   20  O   UNL     1     -41.333 -49.636  11.587  1.00  0.00    -0.311 OA
BRANCH  20  21
HETATM   21  C   UNL     1     -41.950 -50.675  12.208  1.00  0.00     0.255 C 
HETATM   22  O   UNL     1     -41.661 -51.853  12.056  1.00  0.00    -0.266 OA
HETATM   23  C   UNL     1     -43.021 -50.179  13.133  1.00  0.00     0.126 C 
ENDBRANCH  20  21
ENDBRANCH   4  20
BRANCH   5  24
HETATM   24  C   UNL     1     -38.603 -49.089  12.037  1.00  0.00     0.213 C 
BRANCH  24  25
HETATM   25  O   UNL     1     -37.550 -49.697  12.805  1.00  0.00    -0.319 OA
BRANCH  25  26
HETATM   26  C   UNL     1     -37.539 -51.053  12.849  1.00  0.00     0.254 C 
HETATM   27  O   UNL     1     -36.812 -51.769  12.180  1.00  0.00    -0.266 OA
HETATM   28  C   UNL     1     -38.510 -51.563  13.874  1.00  0.00     0.126 C 
ENDBRANCH  25  26
ENDBRANCH  24  25
ENDBRANCH   5  24
TORSDOF 8
ENDMDL
MODEL 3
REMARK VINA RESULT:      -5.8      3.027      4.737
REMARK  8 active torsions:
REMARK  status: ('A' for Active; 'I' for Inactive)
REMARK    1  A    between atoms: N_1  and  C_2 
REMARK    2  A    between atoms: C_4  and  O_12 
REMARK    3  A    between atoms: C_9  and  O_13 
REMARK    4  A    between atoms: C_11  and  C_19 
REMARK    5  A    between atoms: O_12  and  C_15 
REMARK    6  A    between atoms: O_13  and  C_16 
REMARK    7  A    between atoms: C_17  and  O_21 
REMARK    8  A    between atoms: C_19  and  O_21 
ROOT
HETATM    1  C   UNL     1     -42.465 -45.252  11.002  1.00  0.00     0.265 C 
HETATM    2  C   UNL     1     -41.826 -46.390  11.819  1.00  0.00     0.213 C 
HETATM    3  O   UNL     1     -42.407 -45.666   9.630  1.00  0.00    -0.353 OA
HETATM    4  C   UNL     1     -41.978 -47.615  10.901  1.00  0.00     0.197 C 
HETATM    5  C   UNL     1     -42.706 -47.084   9.656  1.00  0.00     0.180 C 
ENDROOT
BRANCH   1   6
HETATM    6  N   UNL     1     -41.878 -43.931  11.195  1.00  0.00    -0.277 N 
HETATM    7  C   UNL     1     -42.666 -42.834  10.844  1.00  0.00     0.331 A 
HETATM    8  N   UNL     1     -42.202 -41.607  11.235  1.00  0.00    -0.273 N 
HETATM    9  O   UNL     1     -43.732 -42.916  10.236  1.00  0.00    -0.246 OA
HETATM   10  C   UNL     1     -41.038 -41.359  11.913  1.00  0.00     0.289 A 
HETATM   11  H   UNL     1     -42.788 -40.815  11.025  1.00  0.00     0.173 HD
HETATM   12  C   UNL     1     -40.230 -42.557  12.211  1.00  0.00     0.199 A 
HETATM   13  O   UNL     1     -40.696 -40.225  12.230  1.00  0.00    -0.265 OA
HETATM   14  C   UNL     1     -40.671 -43.764  11.855  1.00  0.00     0.146 A 
HETATM   15  F   UNL     1     -39.071 -42.372  12.870  1.00  0.00    -0.199 F 
ENDBRANCH   1   6
BRANCH   2  16
HETATM   16  O   UNL     1     -42.512 -46.564  13.072  1.00  0.00    -0.309 OA
BRANCH  16  17
HETATM   17  C   UNL     1     -41.700 -46.739  14.151  1.00  0.00     0.255 C 
HETATM   18  O   UNL     1     -40.515 -46.447  14.201  1.00  0.00    -0.266 OA
HETATM   19  C   UNL     1     -42.486 -47.287  15.298  1.00  0.00     0.126 C 
ENDBRANCH  16  17
ENDBRANCH   2  16
BRANCH   4  20
HETATM   20  O   UNL     1     -42.650 -48.719  11.515  1.00  0.00    -0.311 OA
BRANCH  20  21
HETATM   21  C   UNL     1     -41.851 -49.724  11.960  1.00  0.00     0.255 C 
HETATM   22  O   UNL     1     -42.162 -50.537  12.818  1.00  0.00    -0.266 OA
HETATM   23  C   UNL     1     -40.540 -49.721  11.232  1.00  0.00     0.126 C 
ENDBRANCH  20  21
ENDBRANCH   4  20
BRANCH   5  24
HETATM   24  C   UNL     1     -44.231 -47.338   9.631  1.00  0.00     0.213 C 
BRANCH  24  25
HETATM   25  O   UNL     1     -44.684 -47.951   8.412  1.00  0.00    -0.319 OA
BRANCH  25  26
HETATM   26  C   UNL     1     -46.022 -48.136   8.290  1.00  0.00     0.254 C 
HETATM   27  O   UNL     1     -46.550 -48.991   7.597  1.00  0.00    -0.266 OA
HETATM   28  C   UNL     1     -46.777 -47.181   9.168  1.00  0.00     0.126 C 
ENDBRANCH  25  26
ENDBRANCH  24  25
ENDBRANCH   5  24
TORSDOF 8
ENDMDL
MODEL 4
REMARK VINA RESULT:      -5.8      2.947      6.850
REMARK  8 active torsions:
REMARK  status: ('A' for Active; 'I' for Inactive)
REMARK    1  A    between atoms: N_1  and  C_2 
REMARK    2  A    between atoms: C_4  and  O_12 
REMARK    3  A    between atoms: C_9  and  O_13 
REMARK    4  A    between atoms: C_11  and  C_19 
REMARK    5  A    between atoms: O_12  and  C_15 
REMARK    6  A    between atoms: O_13  and  C_16 
REMARK    7  A    between atoms: C_17  and  O_21 
REMARK    8  A    between atoms: C_19  and  O_21 
ROOT
HETATM    1  C   UNL     1     -40.931 -47.515  11.845  1.00  0.00     0.265 C 
HETATM    2  C   UNL     1     -41.910 -48.447  11.108  1.00  0.00     0.213 C 
HETATM    3  O   UNL     1     -40.521 -46.529  10.886  1.00  0.00    -0.353 OA
HETATM    4  C   UNL     1     -42.424 -47.577   9.949  1.00  0.00     0.197 C 
HETATM    5  C   UNL     1     -41.720 -46.222  10.132  1.00  0.00     0.180 C 
ENDROOT
BRANCH   1   6
HETATM    6  N   UNL     1     -39.788 -48.169  12.472  1.00  0.00    -0.277 N 
HETATM    7  C   UNL     1     -39.718 -48.115  13.864  1.00  0.00     0.331 A 
HETATM    8  N   UNL     1     -38.775 -48.916  14.453  1.00  0.00    -0.273 N 
HETATM    9  O   UNL     1     -40.449 -47.419  14.567  1.00  0.00    -0.246 OA
HETATM   10  C   UNL     1     -37.892 -49.739  13.806  1.00  0.00     0.289 A 
HETATM   11  H   UNL     1     -38.749 -48.917  15.460  1.00  0.00     0.173 HD
HETATM   12  C   UNL     1     -37.990 -49.713  12.334  1.00  0.00     0.199 A 
HETATM   13  O   UNL     1     -37.080 -50.429  14.411  1.00  0.00    -0.265 OA
HETATM   14  C   UNL     1     -38.911 -48.954  11.740  1.00  0.00     0.146 A 
HETATM   15  F   UNL     1     -37.141 -50.498  11.645  1.00  0.00    -0.199 F 
ENDBRANCH   1   6
BRANCH   2  16
HETATM   16  O   UNL     1     -42.972 -48.865  11.983  1.00  0.00    -0.309 OA
BRANCH  16  17
HETATM   17  C   UNL     1     -42.693 -49.963  12.741  1.00  0.00     0.255 C 
HETATM   18  O   UNL     1     -42.020 -50.917  12.383  1.00  0.00    -0.266 OA
HETATM   19  C   UNL     1     -43.282 -49.804  14.106  1.00  0.00     0.126 C 
ENDBRANCH  16  17
ENDBRANCH   2  16
BRANCH   4  20
HETATM   20  O   UNL     1     -43.850 -47.464   9.897  1.00  0.00    -0.311 OA
BRANCH  20  21
HETATM   21  C   UNL     1     -44.418 -47.700   8.686  1.00  0.00     0.255 C 
HETATM   22  O   UNL     1     -43.802 -47.834   7.638  1.00  0.00    -0.266 OA
HETATM   23  C   UNL     1     -45.908 -47.806   8.811  1.00  0.00     0.126 C 
ENDBRANCH  20  21
ENDBRANCH   4  20
BRANCH   5  24
HETATM   24  C   UNL     1     -42.564 -45.136  10.835  1.00  0.00     0.213 C 
BRANCH  24  25
HETATM   25  O   UNL     1     -42.055 -43.805  10.639  1.00  0.00    -0.319 OA
BRANCH  25  26
HETATM   26  C   UNL     1     -41.875 -43.057  11.755  1.00  0.00     0.254 C 
HETATM   27  O   UNL     1     -42.733 -42.832  12.593  1.00  0.00    -0.266 OA
HETATM   28  C   UNL     1     -40.456 -42.578  11.856  1.00  0.00     0.126 C 
ENDBRANCH  25  26
ENDBRANCH  24  25
ENDBRANCH   5  24
TORSDOF 8
ENDMDL
MODEL 5
REMARK VINA RESULT:      -5.8      3.481      6.379
REMARK  8 active torsions:
REMARK  status: ('A' for Active; 'I' for Inactive)
REMARK    1  A    between atoms: N_1  and  C_2 
REMARK    2  A    between atoms: C_4  and  O_12 
REMARK    3  A    between atoms: C_9  and  O_13 
REMARK    4  A    between atoms: C_11  and  C_19 
REMARK    5  A    between atoms: O_12  and  C_15 
REMARK    6  A    between atoms: O_13  and  C_16 
REMARK    7  A    between atoms: C_17  and  O_21 
REMARK    8  A    between atoms: C_19  and  O_21 
ROOT
HETATM    1  C   UNL     1     -41.991 -49.409  11.941  1.00  0.00     0.265 C 
HETATM    2  C   UNL     1     -40.778 -48.501  12.216  1.00  0.00     0.213 C 
HETATM    3  O   UNL     1     -43.123 -48.536  11.821  1.00  0.00    -0.353 OA
HETATM    4  C   UNL     1     -41.221 -47.138  11.658  1.00  0.00     0.197 C 
HETATM    5  C   UNL     1     -42.630 -47.384  11.093  1.00  0.00     0.180 C 
ENDROOT
BRANCH   1   6
HETATM    6  N   UNL     1     -42.222 -50.466  12.919  1.00  0.00    -0.277 N 
HETATM    7  C   UNL     1     -41.680 -51.719  12.631  1.00  0.00     0.331 A 
HETATM    8  N   UNL     1     -41.707 -52.636  13.648  1.00  0.00    -0.273 N 
HETATM    9  O   UNL     1     -41.180 -52.025  11.549  1.00  0.00    -0.246 OA
HETATM   10  C   UNL     1     -42.229 -52.445  14.899  1.00  0.00     0.289 A 
HETATM   11  H   UNL     1     -41.277 -53.528  13.463  1.00  0.00     0.173 HD
HETATM   12  C   UNL     1     -42.827 -51.114  15.121  1.00  0.00     0.199 A 
HETATM   13  O   UNL     1     -42.208 -53.321  15.756  1.00  0.00    -0.265 OA
HETATM   14  C   UNL     1     -42.798 -50.199  14.151  1.00  0.00     0.146 A 
HETATM   15  F   UNL     1     -43.363 -50.872  16.332  1.00  0.00    -0.199 F 
ENDBRANCH   1   6
BRANCH   2  16
HETATM   16  O   UNL     1     -39.605 -49.003  11.552  1.00  0.00    -0.309 OA
BRANCH  16  17
HETATM   17  C   UNL     1     -38.687 -49.588  12.371  1.00  0.00     0.255 C 
HETATM   18  O   UNL     1     -38.815 -49.752  13.574  1.00  0.00    -0.266 OA
HETATM   19  C   UNL     1     -37.517 -50.062  11.570  1.00  0.00     0.126 C 
ENDBRANCH  16  17
ENDBRANCH   2  16
BRANCH   4  20
HETATM   20  O   UNL     1     -40.319 -46.586  10.693  1.00  0.00    -0.311 OA
BRANCH  20  21
HETATM   21  C   UNL     1     -40.055 -45.260  10.823  1.00  0.00     0.255 C 
HETATM   22  O   UNL     1     -40.128 -44.440   9.919  1.00  0.00    -0.266 OA
HETATM   23  C   UNL     1     -39.688 -44.928  12.238  1.00  0.00     0.126 C 
ENDBRANCH  20  21
ENDBRANCH   4  20
BRANCH   5  24
HETATM   24  C   UNL     1     -42.691 -47.615   9.566  1.00  0.00     0.213 C 
BRANCH  24  25
HETATM   25  O   UNL     1     -44.031 -47.773   9.069  1.00  0.00    -0.319 OA
BRANCH  25  26
HETATM   26  C   UNL     1     -44.789 -46.649   9.011  1.00  0.00     0.254 C 
HETATM   27  O   UNL     1     -44.356 -45.521   8.839  1.00  0.00    -0.266 OA
HETATM   28  C   UNL     1     -46.248 -46.981   9.132  1.00  0.00     0.126 C 
ENDBRANCH  25  26
ENDBRANCH  24  25
ENDBRANCH   5  24
TORSDOF 8
ENDMDL
MODEL 6
REMARK VINA RESULT:      -5.7      3.608      6.434
REMARK  8 active torsions:
REMARK  status: ('A' for Active; 'I' for Inactive)
REMARK    1  A    between atoms: N_1  and  C_2 
REMARK    2  A    between atoms: C_4  and  O_12 
REMARK    3  A    between atoms: C_9  and  O_13 
REMARK    4  A    between atoms: C_11  and  C_19 
REMARK    5  A    between atoms: O_12  and  C_15 
REMARK    6  A    between atoms: O_13  and  C_16 
REMARK    7  A    between atoms: C_17  and  O_21 
REMARK    8  A    between atoms: C_19  and  O_21 
ROOT
HETATM    1  C   UNL     1     -41.382 -49.932  11.943  1.00  0.00     0.265 C 
HETATM    2  C   UNL     1     -40.231 -48.971  12.293  1.00  0.00     0.213 C 
HETATM    3  O   UNL     1     -42.582 -49.146  11.980  1.00  0.00    -0.353 OA
HETATM    4  C   UNL     1     -40.802 -47.588  11.936  1.00  0.00     0.197 C 
HETATM    5  C   UNL     1     -42.212 -47.874  11.393  1.00  0.00     0.180 C 
ENDROOT
BRANCH   1   6
HETATM    6  N   UNL     1     -41.486 -51.121  12.781  1.00  0.00    -0.277 N 
HETATM    7  C   UNL     1     -42.119 -50.968  14.015  1.00  0.00     0.331 A 
HETATM    8  N   UNL     1     -42.412 -52.123  14.690  1.00  0.00    -0.273 N 
HETATM    9  O   UNL     1     -42.432 -49.883  14.502  1.00  0.00    -0.246 OA
HETATM   10  C   UNL     1     -42.125 -53.398  14.280  1.00  0.00     0.289 A 
HETATM   11  H   UNL     1     -42.909 -52.023  15.561  1.00  0.00     0.173 HD
HETATM   12  C   UNL     1     -41.415 -53.485  12.990  1.00  0.00     0.199 A 
HETATM   13  O   UNL     1     -42.427 -54.381  14.946  1.00  0.00    -0.265 OA
HETATM   14  C   UNL     1     -41.134 -52.375  12.306  1.00  0.00     0.146 A 
HETATM   15  F   UNL     1     -41.100 -54.714  12.540  1.00  0.00    -0.199 F 
ENDBRANCH   1   6
BRANCH   2  16
HETATM   16  O   UNL     1     -39.055 -49.285  11.527  1.00  0.00    -0.309 OA
BRANCH  16  17
HETATM   17  C   UNL     1     -38.081 -49.944  12.215  1.00  0.00     0.255 C 
HETATM   18  O   UNL     1     -37.539 -50.979  11.858  1.00  0.00    -0.266 OA
HETATM   19  C   UNL     1     -37.720 -49.180  13.448  1.00  0.00     0.126 C 
ENDBRANCH  16  17
ENDBRANCH   2  16
BRANCH   4  20
HETATM   20  O   UNL     1     -39.990 -46.845  11.021  1.00  0.00    -0.311 OA
BRANCH  20  21
HETATM   21  C   UNL     1     -40.141 -45.495  11.060  1.00  0.00     0.255 C 
HETATM   22  O   UNL     1     -40.508 -44.805  10.120  1.00  0.00    -0.266 OA
HETATM   23  C   UNL     1     -39.825 -44.965  12.426  1.00  0.00     0.126 C 
ENDBRANCH  20  21
ENDBRANCH   4  20
BRANCH   5  24
HETATM   24  C   UNL     1     -42.325 -47.911   9.853  1.00  0.00     0.213 C 
BRANCH  24  25
HETATM   25  O   UNL     1     -43.379 -47.076   9.341  1.00  0.00    -0.319 OA
BRANCH  25  26
HETATM   26  C   UNL     1     -44.201 -47.638   8.420  1.00  0.00     0.254 C 
HETATM   27  O   UNL     1     -43.833 -48.154   7.377  1.00  0.00    -0.266 OA
HETATM   28  C   UNL     1     -45.630 -47.590   8.876  1.00  0.00     0.126 C 
ENDBRANCH  25  26
ENDBRANCH  24  25
ENDBRANCH   5  24
TORSDOF 8
ENDMDL
MODEL 7
REMARK VINA RESULT:      -5.6      3.807      6.835
REMARK  8 active torsions:
REMARK  status: ('A' for Active; 'I' for Inactive)
REMARK    1  A    between atoms: N_1  and  C_2 
REMARK    2  A    between atoms: C_4  and  O_12 
REMARK    3  A    between atoms: C_9  and  O_13 
REMARK    4  A    between atoms: C_11  and  C_19 
REMARK    5  A    between atoms: O_12  and  C_15 
REMARK    6  A    between atoms: O_13  and  C_16 
REMARK    7  A    between atoms: C_17  and  O_21 
REMARK    8  A    between atoms: C_19  and  O_21 
ROOT
HETATM    1  C   UNL     1     -42.171 -52.026  13.677  1.00  0.00     0.265 C 
HETATM    2  C   UNL     1     -43.611 -52.229  14.184  1.00  0.00     0.213 C 
HETATM    3  O   UNL     1     -41.331 -52.060  14.840  1.00  0.00    -0.353 OA
HETATM    4  C   UNL     1     -43.415 -52.939  15.534  1.00  0.00     0.197 C 
HETATM    5  C   UNL     1     -41.892 -53.103  15.674  1.00  0.00     0.180 C 
ENDROOT
BRANCH   1   6
HETATM    6  N   UNL     1     -41.947 -50.824  12.881  1.00  0.00    -0.277 N 
HETATM    7  C   UNL     1     -40.921 -50.877  11.936  1.00  0.00     0.331 A 
HETATM    8  N   UNL     1     -40.866 -49.838  11.047  1.00  0.00    -0.273 N 
HETATM    9  O   UNL     1     -40.103 -51.792  11.855  1.00  0.00    -0.246 OA
HETATM   10  C   UNL     1     -41.700 -48.753  11.014  1.00  0.00     0.289 A 
HETATM   11  H   UNL     1     -40.156 -49.891  10.333  1.00  0.00     0.173 HD
HETATM   12  C   UNL     1     -42.732 -48.737  12.068  1.00  0.00     0.199 A 
HETATM   13  O   UNL     1     -41.583 -47.864  10.178  1.00  0.00    -0.265 OA
HETATM   14  C   UNL     1     -42.817 -49.747  12.935  1.00  0.00     0.146 A 
HETATM   15  F   UNL     1     -43.578 -47.689  12.089  1.00  0.00    -0.199 F 
ENDBRANCH   1   6
BRANCH   2  16
HETATM   16  O   UNL     1     -44.369 -53.026  13.258  1.00  0.00    -0.309 OA
BRANCH  16  17
HETATM   17  C   UNL     1     -45.532 -52.461  12.830  1.00  0.00     0.255 C 
HETATM   18  O   UNL     1     -46.163 -52.801  11.841  1.00  0.00    -0.266 OA
HETATM   19  C   UNL     1     -45.964 -51.397  13.787  1.00  0.00     0.126 C 
ENDBRANCH  16  17
ENDBRANCH   2  16
BRANCH   4  20
HETATM   20  O   UNL     1     -44.124 -54.178  15.645  1.00  0.00    -0.311 OA
BRANCH  20  21
HETATM   21  C   UNL     1     -45.341 -54.110  16.246  1.00  0.00     0.255 C 
HETATM   22  O   UNL     1     -46.366 -54.614  15.809  1.00  0.00    -0.266 OA
HETATM   23  C   UNL     1     -45.253 -53.356  17.538  1.00  0.00     0.126 C 
ENDBRANCH  20  21
ENDBRANCH   4  20
BRANCH   5  24
HETATM   24  C   UNL     1     -41.345 -54.493  15.281  1.00  0.00     0.213 C 
BRANCH  24  25
HETATM   25  O   UNL     1     -40.906 -55.270  16.410  1.00  0.00    -0.319 OA
BRANCH  25  26
HETATM   26  C   UNL     1     -39.708 -55.892  16.285  1.00  0.00     0.254 C 
HETATM   27  O   UNL     1     -39.449 -57.005  16.715  1.00  0.00    -0.266 OA
HETATM   28  C   UNL     1     -38.747 -55.052  15.495  1.00  0.00     0.126 C 
ENDBRANCH  25  26
ENDBRANCH  24  25
ENDBRANCH   5  24
TORSDOF 8
ENDMDL
MODEL 8
REMARK VINA RESULT:      -5.6      3.574      5.579
REMARK  8 active torsions:
REMARK  status: ('A' for Active; 'I' for Inactive)
REMARK    1  A    between atoms: N_1  and  C_2 
REMARK    2  A    between atoms: C_4  and  O_12 
REMARK    3  A    between atoms: C_9  and  O_13 
REMARK    4  A    between atoms: C_11  and  C_19 
REMARK    5  A    between atoms: O_12  and  C_15 
REMARK    6  A    between atoms: O_13  and  C_16 
REMARK    7  A    between atoms: C_17  and  O_21 
REMARK    8  A    between atoms: C_19  and  O_21 
ROOT
HETATM    1  C   UNL     1     -41.631 -52.418  13.793  1.00  0.00     0.265 C 
HETATM    2  C   UNL     1     -40.346 -52.856  14.520  1.00  0.00     0.213 C 
HETATM    3  O   UNL     1     -42.165 -53.600  13.180  1.00  0.00    -0.353 OA
HETATM    4  C   UNL     1     -40.561 -54.362  14.743  1.00  0.00     0.197 C 
HETATM    5  C   UNL     1     -41.950 -54.653  14.151  1.00  0.00     0.180 C 
ENDROOT
BRANCH   1   6
HETATM    6  N   UNL     1     -41.473 -51.332  12.832  1.00  0.00    -0.277 N 
HETATM    7  C   UNL     1     -42.578 -50.504  12.630  1.00  0.00     0.331 A 
HETATM    8  N   UNL     1     -42.353 -49.364  11.906  1.00  0.00    -0.273 N 
HETATM    9  O   UNL     1     -43.702 -50.731  13.073  1.00  0.00    -0.246 OA
HETATM   10  C   UNL     1     -41.163 -48.978  11.348  1.00  0.00     0.289 A 
HETATM   11  H   UNL     1     -43.135 -48.738  11.794  1.00  0.00     0.173 HD
HETATM   12  C   UNL     1     -40.048 -49.922  11.560  1.00  0.00     0.199 A 
HETATM   13  O   UNL     1     -41.046 -47.936  10.715  1.00  0.00    -0.265 OA
HETATM   14  C   UNL     1     -40.239 -51.030  12.277  1.00  0.00     0.146 A 
HETATM   15  F   UNL     1     -38.855 -49.597  11.029  1.00  0.00    -0.199 F 
ENDBRANCH   1   6
BRANCH   2  16
HETATM   16  O   UNL     1     -40.193 -52.141  15.758  1.00  0.00    -0.309 OA
BRANCH  16  17
HETATM   17  C   UNL     1     -38.948 -51.635  15.980  1.00  0.00     0.255 C 
HETATM   18  O   UNL     1     -38.324 -50.925  15.205  1.00  0.00    -0.266 OA
HETATM   19  C   UNL     1     -38.474 -52.022  17.343  1.00  0.00     0.126 C 
ENDBRANCH  16  17
ENDBRANCH   2  16
BRANCH   4  20
HETATM   20  O   UNL     1     -40.438 -54.769  16.110  1.00  0.00    -0.311 OA
BRANCH  20  21
HETATM   21  C   UNL     1     -39.656 -55.856  16.335  1.00  0.00     0.255 C 
HETATM   22  O   UNL     1     -40.069 -56.961  16.659  1.00  0.00    -0.266 OA
HETATM   23  C   UNL     1     -38.212 -55.528  16.103  1.00  0.00     0.126 C 
ENDBRANCH  20  21
ENDBRANCH   4  20
BRANCH   5  24
HETATM   24  C   UNL     1     -43.101 -54.711  15.181  1.00  0.00     0.213 C 
BRANCH  24  25
HETATM   25  O   UNL     1     -44.217 -55.504  14.741  1.00  0.00    -0.319 OA
BRANCH  25  26
HETATM   26  C   UNL     1     -45.196 -54.847  14.069  1.00  0.00     0.254 C 
HETATM   27  O   UNL     1     -45.246 -54.718  12.856  1.00  0.00    -0.266 OA
HETATM   28  C   UNL     1     -46.247 -54.341  15.013  1.00  0.00     0.126 C 
ENDBRANCH  25  26
ENDBRANCH  24  25
ENDBRANCH   5  24
TORSDOF 8
ENDMDL
MODEL 9
REMARK VINA RESULT:      -5.6      4.121      6.974
REMARK  8 active torsions:
REMARK  status: ('A' for Active; 'I' for Inactive)
REMARK    1  A    between atoms: N_1  and  C_2 
REMARK    2  A    between atoms: C_4  and  O_12 
REMARK    3  A    between atoms: C_9  and  O_13 
REMARK    4  A    between atoms: C_11  and  C_19 
REMARK    5  A    between atoms: O_12  and  C_15 
REMARK    6  A    between atoms: O_13  and  C_16 
REMARK    7  A    between atoms: C_17  and  O_21 
REMARK    8  A    between atoms: C_19  and  O_21 
ROOT
HETATM    1  C   UNL     1     -43.293 -50.920  13.110  1.00  0.00     0.265 C 
HETATM    2  C   UNL     1     -41.778 -51.108  13.312  1.00  0.00     0.213 C 
HETATM    3  O   UNL     1     -43.556 -49.529  13.346  1.00  0.00    -0.353 OA
HETATM    4  C   UNL     1     -41.211 -49.697  13.083  1.00  0.00     0.197 C 
HETATM    5  C   UNL     1     -42.437 -48.831  12.747  1.00  0.00     0.180 C 
ENDROOT
BRANCH   1   6
HETATM    6  N   UNL     1     -44.149 -51.779  13.919  1.00  0.00    -0.277 N 
HETATM    7  C   UNL     1     -44.649 -52.928  13.305  1.00  0.00     0.331 A 
HETATM    8  N   UNL     1     -45.258 -53.836  14.129  1.00  0.00    -0.273 N 
HETATM    9  O   UNL     1     -44.555 -53.166  12.102  1.00  0.00    -0.246 OA
HETATM   10  C   UNL     1     -45.440 -53.712  15.481  1.00  0.00     0.289 A 
HETATM   11  H   UNL     1     -45.581 -54.689  13.701  1.00  0.00     0.173 HD
HETATM   12  C   UNL     1     -44.929 -52.453  16.058  1.00  0.00     0.199 A 
HETATM   13  O   UNL     1     -45.995 -54.577  16.148  1.00  0.00    -0.265 OA
HETATM   14  C   UNL     1     -44.317 -51.561  15.278  1.00  0.00     0.146 A 
HETATM   15  F   UNL     1     -45.086 -52.273  17.383  1.00  0.00    -0.199 F 
ENDBRANCH   1   6
BRANCH   2  16
HETATM   16  O   UNL     1     -41.254 -52.062  12.372  1.00  0.00    -0.309 OA
BRANCH  16  17
HETATM   17  C   UNL     1     -40.473 -53.036  12.916  1.00  0.00     0.255 C 
HETATM   18  O   UNL     1     -39.300 -52.909  13.233  1.00  0.00    -0.266 OA
HETATM   19  C   UNL     1     -41.279 -54.276  13.133  1.00  0.00     0.126 C 
ENDBRANCH  16  17
ENDBRANCH   2  16
BRANCH   4  20
HETATM   20  O   UNL     1     -40.192 -49.638  12.079  1.00  0.00    -0.311 OA
BRANCH  20  21
HETATM   21  C   UNL     1     -39.077 -48.937  12.410  1.00  0.00     0.255 C 
HETATM   22  O   UNL     1     -39.069 -47.783  12.814  1.00  0.00    -0.266 OA
HETATM   23  C   UNL     1     -37.850 -49.782  12.241  1.00  0.00     0.126 C 
ENDBRANCH  20  21
ENDBRANCH   4  20
BRANCH   5  24
HETATM   24  C   UNL     1     -42.670 -48.583  11.240  1.00  0.00     0.213 C 
BRANCH  24  25
HETATM   25  O   UNL     1     -43.778 -47.705  10.974  1.00  0.00    -0.319 OA
BRANCH  25  26
HETATM   26  C   UNL     1     -44.069 -47.478   9.669  1.00  0.00     0.254 C 
HETATM   27  O   UNL     1     -43.243 -47.345   8.781  1.00  0.00    -0.266 OA
HETATM   28  C   UNL     1     -45.553 -47.466   9.446  1.00  0.00     0.126 C 
ENDBRANCH  25  26
ENDBRANCH  24  25
ENDBRANCH   5  24
TORSDOF 8
ENDMDL
