MODEL 1
REMARK VINA RESULT:      -5.9      0.000      0.000
REMARK  5 active torsions:
REMARK  status: ('A' for Active; 'I' for Inactive)
REMARK    1  A    between atoms: C_8  and  C_9 
REMARK    2  A    between atoms: C_9  and  N_10 
REMARK    3  A    between atoms: N_10  and  C_11 
REMARK    4  A    between atoms: C_11  and  C_12 
REMARK    5  A    between atoms: C_12  and  C_13 
ROOT
HETATM    1  N   UNL     1     -42.952 -52.385  11.798  1.00  0.00     0.084 N 
HETATM    2  H   UNL     1     -43.299 -51.505  11.411  1.00  0.00     0.315 HD
ENDROOT
BRANCH   1   3
HETATM    3  C   UNL     1     -43.659 -52.655  13.050  1.00  0.00     0.279 C 
BRANCH   3   4
HETATM    4  C   UNL     1     -44.472 -51.427  13.561  1.00  0.00     0.045 C 
HETATM    5  C   UNL     1     -43.986 -50.816  14.921  1.00  0.00    -0.009 C 
HETATM    6  C   UNL     1     -42.641 -51.343  15.449  1.00  0.00     0.011 C 
HETATM    7  C   UNL     1     -44.983 -50.754  16.093  1.00  0.00     0.009 C 
HETATM    8  C   UNL     1     -46.440 -51.115  15.857  1.00  0.00     0.028 C 
HETATM    9  C   UNL     1     -46.824 -51.503  14.476  1.00  0.00    -0.024 C 
HETATM   10  C   UNL     1     -45.977 -51.646  13.448  1.00  0.00    -0.081 C 
HETATM   11  C   UNL     1     -46.520 -52.042  12.094  1.00  0.00     0.043 C 
ENDBRANCH   3   4
ENDBRANCH   1   3
BRANCH   1  12
HETATM   12  C   UNL     1     -41.503 -52.283  12.009  1.00  0.00     0.277 C 
BRANCH  12  13
HETATM   13  C   UNL     1     -41.117 -50.810  12.175  1.00  0.00     0.106 C 
BRANCH  13  14
HETATM   14  C   UNL     1     -39.642 -50.610  12.058  1.00  0.00     0.084 A 
HETATM   15  N   UNL     1     -39.028 -50.063  11.026  1.00  0.00    -0.354 N 
HETATM   16  C   UNL     1     -37.692 -50.111  11.320  1.00  0.00     0.106 A 
ATOM     17  HN  UNL     1     -39.460 -49.682  10.184  1.00  0.00     0.166 HD
HETATM   18  C   UNL     1     -37.484 -50.685  12.550  1.00  0.00     0.108 A 
HETATM   19  N   UNL     1     -38.732 -50.993  13.015  1.00  0.00    -0.350 N 
HETATM   20  C   UNL     1     -39.022 -51.614  14.283  1.00  0.00     0.156 C 
ENDBRANCH  13  14
ENDBRANCH  12  13
ENDBRANCH   1  12
TORSDOF 5
ENDMDL
MODEL 2
REMARK VINA RESULT:      -5.8      3.501      4.979
REMARK  5 active torsions:
REMARK  status: ('A' for Active; 'I' for Inactive)
REMARK    1  A    between atoms: C_8  and  C_9 
REMARK    2  A    between atoms: C_9  and  N_10 
REMARK    3  A    between atoms: N_10  and  C_11 
REMARK    4  A    between atoms: C_11  and  C_12 
REMARK    5  A    between atoms: C_12  and  C_13 
ROOT
HETATM    1  N   UNL     1     -42.302 -50.455  11.833  1.00  0.00     0.084 N 
HETATM    2  H   UNL     1     -42.857 -50.703  11.013  1.00  0.00     0.315 HD
ENDROOT
BRANCH   1   3
HETATM    3  C   UNL     1     -42.841 -51.166  12.994  1.00  0.00     0.279 C 
BRANCH   3   4
HETATM    4  C   UNL     1     -43.275 -52.625  12.659  1.00  0.00     0.045 C 
HETATM    5  C   UNL     1     -44.815 -52.907  12.752  1.00  0.00    -0.009 C 
HETATM    6  C   UNL     1     -45.714 -51.670  12.920  1.00  0.00     0.011 C 
HETATM    7  C   UNL     1     -45.302 -54.003  13.719  1.00  0.00     0.009 C 
HETATM    8  C   UNL     1     -44.285 -54.891  14.417  1.00  0.00     0.028 C 
HETATM    9  C   UNL     1     -42.853 -54.651  14.107  1.00  0.00    -0.024 C 
HETATM   10  C   UNL     1     -42.383 -53.660  13.335  1.00  0.00    -0.081 C 
HETATM   11  C   UNL     1     -40.893 -53.547  13.106  1.00  0.00     0.043 C 
ENDBRANCH   3   4
ENDBRANCH   1   3
BRANCH   1  12
HETATM   12  C   UNL     1     -42.344 -49.001  12.026  1.00  0.00     0.277 C 
BRANCH  12  13
HETATM   13  C   UNL     1     -41.508 -48.321  10.937  1.00  0.00     0.106 C 
BRANCH  13  14
HETATM   14  C   UNL     1     -42.369 -47.641   9.925  1.00  0.00     0.084 A 
HETATM   15  N   UNL     1     -42.862 -48.208   8.840  1.00  0.00    -0.354 N 
HETATM   16  C   UNL     1     -43.553 -47.224   8.186  1.00  0.00     0.106 A 
ATOM     17  HN  UNL     1     -42.751 -49.179   8.549  1.00  0.00     0.166 HD
HETATM   18  C   UNL     1     -43.493 -46.042   8.882  1.00  0.00     0.108 A 
HETATM   19  N   UNL     1     -42.743 -46.318   9.991  1.00  0.00    -0.350 N 
HETATM   20  C   UNL     1     -42.408 -45.378  11.031  1.00  0.00     0.156 C 
ENDBRANCH  13  14
ENDBRANCH  12  13
ENDBRANCH   1  12
TORSDOF 5
ENDMDL
MODEL 3
REMARK VINA RESULT:      -5.5      1.680      2.271
REMARK  5 active torsions:
REMARK  status: ('A' for Active; 'I' for Inactive)
REMARK    1  A    between atoms: C_8  and  C_9 
REMARK    2  A    between atoms: C_9  and  N_10 
REMARK    3  A    between atoms: N_10  and  C_11 
REMARK    4  A    between atoms: C_11  and  C_12 
REMARK    5  A    between atoms: C_12  and  C_13 
ROOT
HETATM    1  N   UNL     1     -43.368 -52.984  12.017  1.00  0.00     0.084 N 
HETATM    2  H   UNL     1     -43.951 -52.738  11.214  1.00  0.00     0.315 HD
ENDROOT
BRANCH   1   3
HETATM    3  C   UNL     1     -44.237 -53.203  13.175  1.00  0.00     0.279 C 
BRANCH   3   4
HETATM    4  C   UNL     1     -44.676 -51.873  13.859  1.00  0.00     0.045 C 
HETATM    5  C   UNL     1     -44.115 -51.643  15.305  1.00  0.00    -0.009 C 
HETATM    6  C   UNL     1     -43.024 -52.625  15.765  1.00  0.00     0.011 C 
HETATM    7  C   UNL     1     -45.119 -51.450  16.458  1.00  0.00     0.009 C 
HETATM    8  C   UNL     1     -46.600 -51.312  16.145  1.00  0.00     0.028 C 
HETATM    9  C   UNL     1     -46.996 -51.361  14.715  1.00  0.00    -0.024 C 
HETATM   10  C   UNL     1     -46.167 -51.605  13.690  1.00  0.00    -0.081 C 
HETATM   11  C   UNL     1     -46.718 -51.617  12.282  1.00  0.00     0.043 C 
ENDBRANCH   3   4
ENDBRANCH   1   3
BRANCH   1  12
HETATM   12  C   UNL     1     -42.403 -51.905  12.264  1.00  0.00     0.277 C 
BRANCH  12  13
HETATM   13  C   UNL     1     -41.002 -52.377  11.866  1.00  0.00     0.106 C 
BRANCH  13  14
HETATM   14  C   UNL     1     -40.304 -53.050  13.001  1.00  0.00     0.084 A 
HETATM   15  N   UNL     1     -40.236 -54.355  13.187  1.00  0.00    -0.354 N 
HETATM   16  C   UNL     1     -39.542 -54.529  14.354  1.00  0.00     0.106 A 
ATOM     17  HN  UNL     1     -40.621 -55.083  12.585  1.00  0.00     0.166 HD
HETATM   18  C   UNL     1     -39.170 -53.319  14.885  1.00  0.00     0.108 A 
HETATM   19  N   UNL     1     -39.653 -52.383  14.013  1.00  0.00    -0.350 N 
HETATM   20  C   UNL     1     -39.505 -50.956  14.150  1.00  0.00     0.156 C 
ENDBRANCH  13  14
ENDBRANCH  12  13
ENDBRANCH   1  12
TORSDOF 5
ENDMDL
MODEL 4
REMARK VINA RESULT:      -5.5      3.288      4.726
REMARK  5 active torsions:
REMARK  status: ('A' for Active; 'I' for Inactive)
REMARK    1  A    between atoms: C_8  and  C_9 
REMARK    2  A    between atoms: C_9  and  N_10 
REMARK    3  A    between atoms: N_10  and  C_11 
REMARK    4  A    between atoms: C_11  and  C_12 
REMARK    5  A    between atoms: C_12  and  C_13 
ROOT
HETATM    1  N   UNL     1     -42.840 -50.507  12.485  1.00  0.00     0.084 N 
HETATM    2  H   UNL     1     -43.151 -51.154  11.759  1.00  0.00     0.315 HD
ENDROOT
BRANCH   1   3
HETATM    3  C   UNL     1     -44.010 -50.054  13.240  1.00  0.00     0.279 C 
BRANCH   3   4
HETATM    4  C   UNL     1     -44.465 -51.082  14.320  1.00  0.00     0.045 C 
HETATM    5  C   UNL     1     -45.834 -51.794  14.038  1.00  0.00    -0.009 C 
HETATM    6  C   UNL     1     -46.427 -51.574  12.635  1.00  0.00     0.011 C 
HETATM    7  C   UNL     1     -46.963 -51.648  15.076  1.00  0.00     0.009 C 
HETATM    8  C   UNL     1     -46.671 -50.979  16.409  1.00  0.00     0.028 C 
HETATM    9  C   UNL     1     -45.283 -50.506  16.639  1.00  0.00    -0.024 C 
HETATM   10  C   UNL     1     -44.293 -50.542  15.735  1.00  0.00    -0.081 C 
HETATM   11  C   UNL     1     -42.925 -50.028  16.119  1.00  0.00     0.043 C 
ENDBRANCH   3   4
ENDBRANCH   1   3
BRANCH   1  12
HETATM   12  C   UNL     1     -42.133 -49.382  11.862  1.00  0.00     0.277 C 
BRANCH  12  13
HETATM   13  C   UNL     1     -42.958 -48.104  12.039  1.00  0.00     0.106 C 
BRANCH  13  14
HETATM   14  C   UNL     1     -43.403 -47.549  10.726  1.00  0.00     0.084 A 
HETATM   15  N   UNL     1     -44.468 -47.942  10.055  1.00  0.00    -0.354 N 
HETATM   16  C   UNL     1     -44.478 -47.202   8.903  1.00  0.00     0.106 A 
ATOM     17  HN  UNL     1     -45.145 -48.652  10.336  1.00  0.00     0.166 HD
HETATM   18  C   UNL     1     -43.412 -46.336   8.872  1.00  0.00     0.108 A 
HETATM   19  N   UNL     1     -42.737 -46.559  10.040  1.00  0.00    -0.350 N 
HETATM   20  C   UNL     1     -41.539 -45.876  10.458  1.00  0.00     0.156 C 
ENDBRANCH  13  14
ENDBRANCH  12  13
ENDBRANCH   1  12
TORSDOF 5
ENDMDL
MODEL 5
REMARK VINA RESULT:      -5.5      1.519      2.496
REMARK  5 active torsions:
REMARK  status: ('A' for Active; 'I' for Inactive)
REMARK    1  A    between atoms: C_8  and  C_9 
REMARK    2  A    between atoms: C_9  and  N_10 
REMARK    3  A    between atoms: N_10  and  C_11 
REMARK    4  A    between atoms: C_11  and  C_12 
REMARK    5  A    between atoms: C_12  and  C_13 
ROOT
HETATM    1  N   UNL     1     -42.687 -52.683  11.717  1.00  0.00     0.084 N 
HETATM    2  H   UNL     1     -43.078 -52.253  10.877  1.00  0.00     0.315 HD
ENDROOT
BRANCH   1   3
HETATM    3  C   UNL     1     -43.483 -52.260  12.871  1.00  0.00     0.279 C 
BRANCH   3   4
HETATM    4  C   UNL     1     -44.467 -53.364  13.362  1.00  0.00     0.045 C 
HETATM    5  C   UNL     1     -45.981 -52.956  13.386  1.00  0.00    -0.009 C 
HETATM    6  C   UNL     1     -46.325 -51.622  12.701  1.00  0.00     0.011 C 
HETATM    7  C   UNL     1     -46.739 -53.029  14.725  1.00  0.00     0.009 C 
HETATM    8  C   UNL     1     -46.063 -53.656  15.934  1.00  0.00     0.028 C 
HETATM    9  C   UNL     1     -44.687 -54.179  15.742  1.00  0.00    -0.024 C 
HETATM   10  C   UNL     1     -43.964 -54.065  14.620  1.00  0.00    -0.081 C 
HETATM   11  C   UNL     1     -42.574 -54.657  14.574  1.00  0.00     0.043 C 
ENDBRANCH   3   4
ENDBRANCH   1   3
BRANCH   1  12
HETATM   12  C   UNL     1     -41.281 -52.284  11.858  1.00  0.00     0.277 C 
BRANCH  12  13
HETATM   13  C   UNL     1     -41.199 -50.762  12.006  1.00  0.00     0.106 C 
BRANCH  13  14
HETATM   14  C   UNL     1     -39.784 -50.287  12.036  1.00  0.00     0.084 A 
HETATM   15  N   UNL     1     -39.012 -50.125  10.979  1.00  0.00    -0.354 N 
HETATM   16  C   UNL     1     -37.798 -49.716  11.462  1.00  0.00     0.106 A 
ATOM     17  HN  UNL     1     -39.267 -50.274  10.002  1.00  0.00     0.166 HD
HETATM   18  C   UNL     1     -37.828 -49.616  12.831  1.00  0.00     0.108 A 
HETATM   19  N   UNL     1     -39.098 -49.974  13.187  1.00  0.00    -0.350 N 
HETATM   20  C   UNL     1     -39.608 -50.019  14.535  1.00  0.00     0.156 C 
ENDBRANCH  13  14
ENDBRANCH  12  13
ENDBRANCH   1  12
TORSDOF 5
ENDMDL
MODEL 6
REMARK VINA RESULT:      -5.5      2.618      3.335
REMARK  5 active torsions:
REMARK  status: ('A' for Active; 'I' for Inactive)
REMARK    1  A    between atoms: C_8  and  C_9 
REMARK    2  A    between atoms: C_9  and  N_10 
REMARK    3  A    between atoms: N_10  and  C_11 
REMARK    4  A    between atoms: C_11  and  C_12 
REMARK    5  A    between atoms: C_12  and  C_13 
ROOT
HETATM    1  N   UNL     1     -42.898 -51.345  12.455  1.00  0.00     0.084 N 
HETATM    2  H   UNL     1     -43.483 -51.444  11.624  1.00  0.00     0.315 HD
ENDROOT
BRANCH   1   3
HETATM    3  C   UNL     1     -43.616 -51.904  13.601  1.00  0.00     0.279 C 
BRANCH   3   4
HETATM    4  C   UNL     1     -44.660 -50.914  14.200  1.00  0.00     0.045 C 
HETATM    5  C   UNL     1     -44.366 -50.429  15.662  1.00  0.00    -0.009 C 
HETATM    6  C   UNL     1     -42.980 -50.793  16.223  1.00  0.00     0.011 C 
HETATM    7  C   UNL     1     -45.422 -50.700  16.750  1.00  0.00     0.009 C 
HETATM    8  C   UNL     1     -46.778 -51.262  16.354  1.00  0.00     0.028 C 
HETATM    9  C   UNL     1     -47.009 -51.510  14.908  1.00  0.00    -0.024 C 
HETATM   10  C   UNL     1     -46.093 -51.363  13.941  1.00  0.00    -0.081 C 
HETATM   11  C   UNL     1     -46.481 -51.648  12.508  1.00  0.00     0.043 C 
ENDBRANCH   3   4
ENDBRANCH   1   3
BRANCH   1  12
HETATM   12  C   UNL     1     -42.581 -49.926  12.659  1.00  0.00     0.277 C 
BRANCH  12  13
HETATM   13  C   UNL     1     -41.566 -49.476  11.603  1.00  0.00     0.106 C 
BRANCH  13  14
HETATM   14  C   UNL     1     -42.038 -48.268  10.864  1.00  0.00     0.084 A 
HETATM   15  N   UNL     1     -43.157 -48.190  10.169  1.00  0.00    -0.354 N 
HETATM   16  C   UNL     1     -43.176 -46.930   9.634  1.00  0.00     0.106 A 
ATOM     17  HN  UNL     1     -43.863 -48.918  10.055  1.00  0.00     0.166 HD
HETATM   18  C   UNL     1     -42.061 -46.223  10.012  1.00  0.00     0.108 A 
HETATM   19  N   UNL     1     -41.346 -47.081  10.801  1.00  0.00    -0.350 N 
HETATM   20  C   UNL     1     -40.089 -46.780  11.439  1.00  0.00     0.156 C 
ENDBRANCH  13  14
ENDBRANCH  12  13
ENDBRANCH   1  12
TORSDOF 5
ENDMDL
MODEL 7
REMARK VINA RESULT:      -5.4      2.405      4.089
REMARK  5 active torsions:
REMARK  status: ('A' for Active; 'I' for Inactive)
REMARK    1  A    between atoms: C_8  and  C_9 
REMARK    2  A    between atoms: C_9  and  N_10 
REMARK    3  A    between atoms: N_10  and  C_11 
REMARK    4  A    between atoms: C_11  and  C_12 
REMARK    5  A    between atoms: C_12  and  C_13 
ROOT
HETATM    1  N   UNL     1     -44.690 -52.762  16.916  1.00  0.00     0.084 N 
HETATM    2  H   UNL     1     -44.683 -52.673  17.934  1.00  0.00     0.315 HD
ENDROOT
BRANCH   1   3
HETATM    3  C   UNL     1     -45.613 -53.839  16.549  1.00  0.00     0.279 C 
BRANCH   3   4
HETATM    4  C   UNL     1     -46.464 -53.498  15.288  1.00  0.00     0.045 C 
HETATM    5  C   UNL     1     -45.936 -54.094  13.937  1.00  0.00    -0.009 C 
HETATM    6  C   UNL     1     -44.800 -55.124  14.059  1.00  0.00     0.011 C 
HETATM    7  C   UNL     1     -45.595 -53.122  12.792  1.00  0.00     0.009 C 
HETATM    8  C   UNL     1     -45.943 -51.649  12.932  1.00  0.00     0.028 C 
HETATM    9  C   UNL     1     -46.614 -51.230  14.188  1.00  0.00    -0.024 C 
HETATM   10  C   UNL     1     -46.856 -52.026  15.240  1.00  0.00    -0.081 C 
HETATM   11  C   UNL     1     -47.557 -51.455  16.451  1.00  0.00     0.043 C 
ENDBRANCH   3   4
ENDBRANCH   1   3
BRANCH   1  12
HETATM   12  C   UNL     1     -43.328 -53.037  16.444  1.00  0.00     0.277 C 
BRANCH  12  13
HETATM   13  C   UNL     1     -42.963 -52.040  15.341  1.00  0.00     0.106 C 
BRANCH  13  14
HETATM   14  C   UNL     1     -42.093 -52.663  14.300  1.00  0.00     0.084 A 
HETATM   15  N   UNL     1     -41.478 -53.825  14.417  1.00  0.00    -0.354 N 
HETATM   16  C   UNL     1     -40.768 -53.990  13.258  1.00  0.00     0.106 A 
ATOM     17  HN  UNL     1     -41.522 -54.467  15.209  1.00  0.00     0.166 HD
HETATM   18  C   UNL     1     -40.959 -52.923  12.415  1.00  0.00     0.108 A 
HETATM   19  N   UNL     1     -41.809 -52.087  13.083  1.00  0.00    -0.350 N 
HETATM   20  C   UNL     1     -42.303 -50.826  12.589  1.00  0.00     0.156 C 
ENDBRANCH  13  14
ENDBRANCH  12  13
ENDBRANCH   1  12
TORSDOF 5
ENDMDL
MODEL 8
REMARK VINA RESULT:      -5.4      0.567      2.154
REMARK  5 active torsions:
REMARK  status: ('A' for Active; 'I' for Inactive)
REMARK    1  A    between atoms: C_8  and  C_9 
REMARK    2  A    between atoms: C_9  and  N_10 
REMARK    3  A    between atoms: N_10  and  C_11 
REMARK    4  A    between atoms: C_11  and  C_12 
REMARK    5  A    between atoms: C_12  and  C_13 
ROOT
HETATM    1  N   UNL     1     -42.958 -52.557  11.932  1.00  0.00     0.084 N 
HETATM    2  H   UNL     1     -43.375 -52.449  11.005  1.00  0.00     0.315 HD
ENDROOT
BRANCH   1   3
HETATM    3  C   UNL     1     -43.574 -51.584  12.837  1.00  0.00     0.279 C 
BRANCH   3   4
HETATM    4  C   UNL     1     -44.451 -52.255  13.936  1.00  0.00     0.045 C 
HETATM    5  C   UNL     1     -46.001 -52.143  13.723  1.00  0.00    -0.009 C 
HETATM    6  C   UNL     1     -46.451 -51.606  12.353  1.00  0.00     0.011 C 
HETATM    7  C   UNL     1     -46.843 -51.460  14.818  1.00  0.00     0.009 C 
HETATM    8  C   UNL     1     -46.189 -51.079  16.136  1.00  0.00     0.028 C 
HETATM    9  C   UNL     1     -44.750 -51.405  16.296  1.00  0.00    -0.024 C 
HETATM   10  C   UNL     1     -43.963 -51.925  15.343  1.00  0.00    -0.081 C 
HETATM   11  C   UNL     1     -42.512 -52.209  15.657  1.00  0.00     0.043 C 
ENDBRANCH   3   4
ENDBRANCH   1   3
BRANCH   1  12
HETATM   12  C   UNL     1     -41.506 -52.360  11.837  1.00  0.00     0.277 C 
BRANCH  12  13
HETATM   13  C   UNL     1     -41.158 -50.936  12.277  1.00  0.00     0.106 C 
BRANCH  13  14
HETATM   14  C   UNL     1     -39.701 -50.650  12.116  1.00  0.00     0.084 A 
HETATM   15  N   UNL     1     -39.155 -50.036  11.084  1.00  0.00    -0.354 N 
HETATM   16  C   UNL     1     -37.808 -50.020  11.330  1.00  0.00     0.106 A 
ATOM     17  HN  UNL     1     -39.637 -49.653  10.271  1.00  0.00     0.166 HD
HETATM   18  C   UNL     1     -37.525 -50.621  12.531  1.00  0.00     0.108 A 
HETATM   19  N   UNL     1     -38.737 -51.013  13.028  1.00  0.00    -0.350 N 
HETATM   20  C   UNL     1     -38.947 -51.692  14.283  1.00  0.00     0.156 C 
ENDBRANCH  13  14
ENDBRANCH  12  13
ENDBRANCH   1  12
TORSDOF 5
ENDMDL
MODEL 9
REMARK VINA RESULT:      -5.3      2.091      3.515
REMARK  5 active torsions:
REMARK  status: ('A' for Active; 'I' for Inactive)
REMARK    1  A    between atoms: C_8  and  C_9 
REMARK    2  A    between atoms: C_9  and  N_10 
REMARK    3  A    between atoms: N_10  and  C_11 
REMARK    4  A    between atoms: C_11  and  C_12 
REMARK    5  A    between atoms: C_12  and  C_13 
ROOT
HETATM    1  N   UNL     1     -42.066 -50.750  11.856  1.00  0.00     0.084 N 
HETATM    2  H   UNL     1     -42.445 -51.063  10.961  1.00  0.00     0.315 HD
ENDROOT
BRANCH   1   3
HETATM    3  C   UNL     1     -42.810 -51.406  12.933  1.00  0.00     0.279 C 
BRANCH   3   4
HETATM    4  C   UNL     1     -42.873 -52.954  12.766  1.00  0.00     0.045 C 
HETATM    5  C   UNL     1     -44.315 -53.569  12.718  1.00  0.00    -0.009 C 
HETATM    6  C   UNL     1     -45.469 -52.559  12.599  1.00  0.00     0.011 C 
HETATM    7  C   UNL     1     -44.696 -54.626  13.772  1.00  0.00     0.009 C 
HETATM    8  C   UNL     1     -43.627 -55.171  14.705  1.00  0.00     0.028 C 
HETATM    9  C   UNL     1     -42.249 -54.647  14.533  1.00  0.00    -0.024 C 
HETATM   10  C   UNL     1     -41.891 -53.672  13.685  1.00  0.00    -0.081 C 
HETATM   11  C   UNL     1     -40.442 -53.248  13.617  1.00  0.00     0.043 C 
ENDBRANCH   3   4
ENDBRANCH   1   3
BRANCH   1  12
HETATM   12  C   UNL     1     -42.170 -49.288  11.943  1.00  0.00     0.277 C 
BRANCH  12  13
HETATM   13  C   UNL     1     -41.052 -48.651  11.114  1.00  0.00     0.106 C 
BRANCH  13  14
HETATM   14  C   UNL     1     -39.703 -49.104  11.566  1.00  0.00     0.084 A 
HETATM   15  N   UNL     1     -38.964 -50.015  10.962  1.00  0.00    -0.354 N 
HETATM   16  C   UNL     1     -37.836 -50.147  11.726  1.00  0.00     0.106 A 
ATOM     17  HN  UNL     1     -39.187 -50.516  10.102  1.00  0.00     0.166 HD
HETATM   18  C   UNL     1     -37.878 -49.300  12.807  1.00  0.00     0.108 A 
HETATM   19  N   UNL     1     -39.067 -48.636  12.693  1.00  0.00    -0.350 N 
HETATM   20  C   UNL     1     -39.555 -47.631  13.604  1.00  0.00     0.156 C 
ENDBRANCH  13  14
ENDBRANCH  12  13
ENDBRANCH   1  12
TORSDOF 5
ENDMDL
