MODEL 1
REMARK VINA RESULT:      -4.7      0.000      0.000
REMARK  4 active torsions:
REMARK  status: ('A' for Active; 'I' for Inactive)
REMARK    1  A    between atoms: N_5  and  C_6 
REMARK    2  A    between atoms: C_6  and  C_7 
REMARK    3  A    between atoms: C_7  and  N_8 
REMARK    4  A    between atoms: C_14  and  C_15 
ROOT
HETATM    1  N   UNL     3     -43.436 -46.801   9.984  1.00  0.00    -0.329 N 
HETATM    2  C   UNL     3     -42.972 -45.584  10.315  1.00  0.00     0.201 A 
HETATM    3  N   UNL     3     -43.722 -44.616   9.752  1.00  0.00    -0.295 N 
ATOM      4  HN  UNL     3     -43.581 -43.610   9.844  1.00  0.00     0.187 HD
HETATM    5  N   UNL     3     -44.680 -45.217   9.053  1.00  0.00    -0.288 N 
ATOM      6  HN  UNL     3     -45.416 -44.759   8.514  1.00  0.00     0.188 HD
HETATM    7  C   UNL     3     -44.494 -46.547   9.190  1.00  0.00     0.103 A 
ENDROOT
BRANCH   1   8
HETATM    8  C   UNL     3     -42.893 -48.087  10.442  1.00  0.00     0.161 C 
BRANCH   8   9
HETATM    9  C   UNL     3     -41.378 -48.069  10.664  1.00  0.00     0.286 C 
BRANCH   9  10
HETATM   10  N   UNL     3     -40.791 -49.388  10.455  1.00  0.00     0.079 N 
HETATM   11  H   UNL     3     -41.491 -49.982   9.952  1.00  0.00     0.312 HD
HETATM   12  H   UNL     3     -39.962 -49.292   9.823  1.00  0.00     0.312 HD
ENDBRANCH   9  10
ENDBRANCH   8   9
ENDBRANCH   1   8
BRANCH   7  13
HETATM   13  C   UNL     3     -45.367 -47.613   8.582  1.00  0.00     0.055 A 
HETATM   14  C   UNL     3     -46.611 -48.531   8.797  1.00  0.00     0.013 A 
HETATM   15  C   UNL     3     -46.718 -47.157   9.221  1.00  0.00     0.013 A 
ENDBRANCH   7  13
TORSDOF 4
ENDMDL
MODEL 2
REMARK VINA RESULT:      -4.5      6.379      7.866
REMARK  4 active torsions:
REMARK  status: ('A' for Active; 'I' for Inactive)
REMARK    1  A    between atoms: N_5  and  C_6 
REMARK    2  A    between atoms: C_6  and  C_7 
REMARK    3  A    between atoms: C_7  and  N_8 
REMARK    4  A    between atoms: C_14  and  C_15 
ROOT
HETATM    1  N   UNL     3     -43.610 -53.942  13.446  1.00  0.00    -0.329 N 
HETATM    2  C   UNL     3     -42.299 -54.142  13.226  1.00  0.00     0.201 A 
HETATM    3  N   UNL     3     -41.850 -53.338  12.243  1.00  0.00    -0.295 N 
ATOM      4  HN  UNL     3     -40.896 -53.294  11.884  1.00  0.00     0.187 HD
HETATM    5  N   UNL     3     -42.882 -52.611  11.826  1.00  0.00    -0.288 N 
ATOM      6  HN  UNL     3     -42.868 -51.901  11.093  1.00  0.00     0.188 HD
HETATM    7  C   UNL     3     -43.952 -52.990  12.555  1.00  0.00     0.103 A 
ENDROOT
BRANCH   1   8
HETATM    8  C   UNL     3     -44.428 -54.612  14.465  1.00  0.00     0.161 C 
BRANCH   8   9
HETATM    9  C   UNL     3     -45.600 -55.409  13.884  1.00  0.00     0.286 C 
BRANCH   9  10
HETATM   10  N   UNL     3     -46.862 -55.040  14.516  1.00  0.00     0.079 N 
HETATM   11  H   UNL     3     -46.925 -55.535  15.437  1.00  0.00     0.312 HD
HETATM   12  H   UNL     3     -46.850 -54.013  14.721  1.00  0.00     0.312 HD
ENDBRANCH   9  10
ENDBRANCH   8   9
ENDBRANCH   1   8
BRANCH   7  13
HETATM   13  C   UNL     3     -45.337 -52.409  12.433  1.00  0.00     0.055 A 
HETATM   14  C   UNL     3     -46.472 -51.631  13.169  1.00  0.00     0.013 A 
HETATM   15  C   UNL     3     -45.119 -51.172  13.362  1.00  0.00     0.013 A 
ENDBRANCH   7  13
TORSDOF 4
ENDMDL
MODEL 3
REMARK VINA RESULT:      -4.5      6.129      7.441
REMARK  4 active torsions:
REMARK  status: ('A' for Active; 'I' for Inactive)
REMARK    1  A    between atoms: N_5  and  C_6 
REMARK    2  A    between atoms: C_6  and  C_7 
REMARK    3  A    between atoms: C_7  and  N_8 
REMARK    4  A    between atoms: C_14  and  C_15 
ROOT
HETATM    1  N   UNL     3     -43.847 -53.362  13.410  1.00  0.00    -0.329 N 
HETATM    2  C   UNL     3     -43.647 -54.439  14.190  1.00  0.00     0.201 A 
HETATM    3  N   UNL     3     -44.776 -55.166  14.300  1.00  0.00    -0.295 N 
ATOM      4  HN  UNL     3     -44.892 -56.028  14.834  1.00  0.00     0.187 HD
HETATM    5  N   UNL     3     -45.712 -54.552  13.583  1.00  0.00    -0.288 N 
ATOM      6  HN  UNL     3     -46.678 -54.856  13.458  1.00  0.00     0.188 HD
HETATM    7  C   UNL     3     -45.143 -53.449  13.052  1.00  0.00     0.103 A 
ENDROOT
BRANCH   1   8
HETATM    8  C   UNL     3     -42.834 -52.365  13.038  1.00  0.00     0.161 C 
BRANCH   8   9
HETATM    9  C   UNL     3     -41.520 -52.979  12.548  1.00  0.00     0.286 C 
BRANCH   9  10
HETATM   10  N   UNL     3     -41.214 -52.568  11.183  1.00  0.00     0.079 N 
HETATM   11  H   UNL     3     -41.593 -53.293  10.529  1.00  0.00     0.312 HD
HETATM   12  H   UNL     3     -41.721 -51.675  10.977  1.00  0.00     0.312 HD
ENDBRANCH   9  10
ENDBRANCH   8   9
ENDBRANCH   1   8
BRANCH   7  13
HETATM   13  C   UNL     3     -45.835 -52.464  12.147  1.00  0.00     0.055 A 
HETATM   14  C   UNL     3     -47.093 -51.561  11.955  1.00  0.00     0.013 A 
HETATM   15  C   UNL     3     -46.487 -51.587  13.263  1.00  0.00     0.013 A 
ENDBRANCH   7  13
TORSDOF 4
ENDMDL
MODEL 4
REMARK VINA RESULT:      -4.5      7.059      8.274
REMARK  4 active torsions:
REMARK  status: ('A' for Active; 'I' for Inactive)
REMARK    1  A    between atoms: N_5  and  C_6 
REMARK    2  A    between atoms: C_6  and  C_7 
REMARK    3  A    between atoms: C_7  and  N_8 
REMARK    4  A    between atoms: C_14  and  C_15 
ROOT
HETATM    1  N   UNL     3     -45.101 -53.301  13.668  1.00  0.00    -0.329 N 
HETATM    2  C   UNL     3     -44.961 -54.602  13.360  1.00  0.00     0.201 A 
HETATM    3  N   UNL     3     -45.994 -55.321  13.838  1.00  0.00    -0.295 N 
ATOM      4  HN  UNL     3     -46.127 -56.328  13.742  1.00  0.00     0.187 HD
HETATM    5  N   UNL     3     -46.810 -54.475  14.460  1.00  0.00    -0.288 N 
ATOM      6  HN  UNL     3     -47.688 -54.708  14.924  1.00  0.00     0.188 HD
HETATM    7  C   UNL     3     -46.256 -53.248  14.361  1.00  0.00     0.103 A 
ENDROOT
BRANCH   1   8
HETATM    8  C   UNL     3     -44.188 -52.217  13.280  1.00  0.00     0.161 C 
BRANCH   8   9
HETATM    9  C   UNL     3     -42.752 -52.685  13.030  1.00  0.00     0.286 C 
BRANCH   9  10
HETATM   10  N   UNL     3     -42.385 -52.557  11.625  1.00  0.00     0.079 N 
HETATM   11  H   UNL     3     -43.083 -53.088  11.053  1.00  0.00     0.312 HD
HETATM   12  H   UNL     3     -42.463 -51.551  11.346  1.00  0.00     0.312 HD
ENDBRANCH   9  10
ENDBRANCH   8   9
ENDBRANCH   1   8
BRANCH   7  13
HETATM   13  C   UNL     3     -46.854 -51.978  14.907  1.00  0.00     0.055 A 
HETATM   14  C   UNL     3     -47.481 -51.289  16.158  1.00  0.00     0.013 A 
HETATM   15  C   UNL     3     -46.318 -52.115  16.368  1.00  0.00     0.013 A 
ENDBRANCH   7  13
TORSDOF 4
ENDMDL
MODEL 5
REMARK VINA RESULT:      -4.4      6.388      7.918
REMARK  4 active torsions:
REMARK  status: ('A' for Active; 'I' for Inactive)
REMARK    1  A    between atoms: N_5  and  C_6 
REMARK    2  A    between atoms: C_6  and  C_7 
REMARK    3  A    between atoms: C_7  and  N_8 
REMARK    4  A    between atoms: C_14  and  C_15 
ROOT
HETATM    1  N   UNL     3     -40.042 -52.251  13.014  1.00  0.00    -0.329 N 
HETATM    2  C   UNL     3     -40.867 -53.048  12.313  1.00  0.00     0.201 A 
HETATM    3  N   UNL     3     -41.341 -52.410  11.225  1.00  0.00    -0.295 N 
ATOM      4  HN  UNL     3     -41.984 -52.791  10.531  1.00  0.00     0.187 HD
HETATM    5  N   UNL     3     -40.814 -51.189  11.224  1.00  0.00    -0.288 N 
ATOM      6  HN  UNL     3     -40.972 -50.461  10.527  1.00  0.00     0.188 HD
HETATM    7  C   UNL     3     -40.033 -51.095  12.320  1.00  0.00     0.103 A 
ENDROOT
BRANCH   1   8
HETATM    8  C   UNL     3     -39.314 -52.620  14.235  1.00  0.00     0.161 C 
BRANCH   8   9
HETATM    9  C   UNL     3     -39.656 -54.020  14.754  1.00  0.00     0.286 C 
BRANCH   9  10
HETATM   10  N   UNL     3     -38.656 -55.000  14.345  1.00  0.00     0.079 N 
HETATM   11  H   UNL     3     -39.022 -55.514  13.510  1.00  0.00     0.312 HD
HETATM   12  H   UNL     3     -37.792 -54.493  14.038  1.00  0.00     0.312 HD
ENDBRANCH   9  10
ENDBRANCH   8   9
ENDBRANCH   1   8
BRANCH   7  13
HETATM   13  C   UNL     3     -39.221 -49.887  12.708  1.00  0.00     0.055 A 
HETATM   14  C   UNL     3     -37.781 -49.321  12.917  1.00  0.00     0.013 A 
HETATM   15  C   UNL     3     -38.008 -50.145  11.756  1.00  0.00     0.013 A 
ENDBRANCH   7  13
TORSDOF 4
ENDMDL
MODEL 6
REMARK VINA RESULT:      -4.4      1.945      2.835
REMARK  4 active torsions:
REMARK  status: ('A' for Active; 'I' for Inactive)
REMARK    1  A    between atoms: N_5  and  C_6 
REMARK    2  A    between atoms: C_6  and  C_7 
REMARK    3  A    between atoms: C_7  and  N_8 
REMARK    4  A    between atoms: C_14  and  C_15 
ROOT
HETATM    1  N   UNL     3     -41.453 -48.016  10.995  1.00  0.00    -0.329 N 
HETATM    2  C   UNL     3     -40.252 -47.413  11.049  1.00  0.00     0.201 A 
HETATM    3  N   UNL     3     -40.275 -46.238  10.390  1.00  0.00    -0.295 N 
ATOM      4  HN  UNL     3     -39.496 -45.589  10.282  1.00  0.00     0.187 HD
HETATM    5  N   UNL     3     -41.504 -46.081   9.908  1.00  0.00    -0.288 N 
ATOM      6  HN  UNL     3     -41.847 -45.287   9.366  1.00  0.00     0.188 HD
HETATM    7  C   UNL     3     -42.213 -47.171  10.271  1.00  0.00     0.103 A 
ENDROOT
BRANCH   1   8
HETATM    8  C   UNL     3     -41.809 -49.291  11.630  1.00  0.00     0.161 C 
BRANCH   8   9
HETATM    9  C   UNL     3     -40.648 -50.287  11.701  1.00  0.00     0.286 C 
BRANCH   9  10
HETATM   10  N   UNL     3     -41.067 -51.626  11.306  1.00  0.00     0.079 N 
HETATM   11  H   UNL     3     -40.226 -52.145  10.959  1.00  0.00     0.312 HD
HETATM   12  H   UNL     3     -41.413 -52.136  12.153  1.00  0.00     0.312 HD
ENDBRANCH   9  10
ENDBRANCH   8   9
ENDBRANCH   1   8
BRANCH   7  13
HETATM   13  C   UNL     3     -43.667 -47.407   9.956  1.00  0.00     0.055 A 
HETATM   14  C   UNL     3     -44.795 -47.229   8.892  1.00  0.00     0.013 A 
HETATM   15  C   UNL     3     -43.502 -47.663   8.423  1.00  0.00     0.013 A 
ENDBRANCH   7  13
TORSDOF 4
ENDMDL
MODEL 7
REMARK VINA RESULT:      -4.3      4.131      6.464
REMARK  4 active torsions:
REMARK  status: ('A' for Active; 'I' for Inactive)
REMARK    1  A    between atoms: N_5  and  C_6 
REMARK    2  A    between atoms: C_6  and  C_7 
REMARK    3  A    between atoms: C_7  and  N_8 
REMARK    4  A    between atoms: C_14  and  C_15 
ROOT
HETATM    1  N   UNL     3     -40.130 -48.211  11.872  1.00  0.00    -0.329 N 
HETATM    2  C   UNL     3     -41.113 -47.977  10.985  1.00  0.00     0.201 A 
HETATM    3  N   UNL     3     -41.258 -49.021  10.145  1.00  0.00    -0.295 N 
ATOM      4  HN  UNL     3     -41.931 -49.095   9.382  1.00  0.00     0.187 HD
HETATM    5  N   UNL     3     -40.360 -49.937  10.496  1.00  0.00    -0.288 N 
ATOM      6  HN  UNL     3     -40.220 -50.848  10.057  1.00  0.00     0.188 HD
HETATM    7  C   UNL     3     -39.670 -49.434  11.541  1.00  0.00     0.103 A 
ENDROOT
BRANCH   1   8
HETATM    8  C   UNL     3     -39.715 -47.314  12.959  1.00  0.00     0.161 C 
BRANCH   8   9
HETATM    9  C   UNL     3     -39.928 -45.830  12.645  1.00  0.00     0.286 C 
BRANCH   9  10
HETATM   10  N   UNL     3     -38.926 -44.997  13.300  1.00  0.00     0.079 N 
HETATM   11  H   UNL     3     -39.333 -44.638  14.195  1.00  0.00     0.312 HD
HETATM   12  H   UNL     3     -38.104 -45.593  13.554  1.00  0.00     0.312 HD
ENDBRANCH   9  10
ENDBRANCH   8   9
ENDBRANCH   1   8
BRANCH   7  13
HETATM   13  C   UNL     3     -38.565 -50.146  12.276  1.00  0.00     0.055 A 
HETATM   14  C   UNL     3     -37.255 -50.981  12.127  1.00  0.00     0.013 A 
HETATM   15  C   UNL     3     -37.418 -49.842  11.259  1.00  0.00     0.013 A 
ENDBRANCH   7  13
TORSDOF 4
ENDMDL
MODEL 8
REMARK VINA RESULT:      -4.3      6.942      7.898
REMARK  4 active torsions:
REMARK  status: ('A' for Active; 'I' for Inactive)
REMARK    1  A    between atoms: N_5  and  C_6 
REMARK    2  A    between atoms: C_6  and  C_7 
REMARK    3  A    between atoms: C_7  and  N_8 
REMARK    4  A    between atoms: C_14  and  C_15 
ROOT
HETATM    1  N   UNL     3     -41.511 -53.475  13.245  1.00  0.00    -0.329 N 
HETATM    2  C   UNL     3     -40.924 -52.719  12.301  1.00  0.00     0.201 A 
HETATM    3  N   UNL     3     -41.822 -52.316  11.382  1.00  0.00    -0.295 N 
ATOM      4  HN  UNL     3     -41.634 -51.735  10.564  1.00  0.00     0.187 HD
HETATM    5  N   UNL     3     -43.001 -52.816  11.738  1.00  0.00    -0.288 N 
ATOM      6  HN  UNL     3     -43.888 -52.686  11.250  1.00  0.00     0.188 HD
HETATM    7  C   UNL     3     -42.804 -53.528  12.867  1.00  0.00     0.103 A 
ENDROOT
BRANCH   1   8
HETATM    8  C   UNL     3     -40.851 -54.057  14.421  1.00  0.00     0.161 C 
BRANCH   8   9
HETATM    9  C   UNL     3     -39.324 -53.958  14.379  1.00  0.00     0.286 C 
BRANCH   9  10
HETATM   10  N   UNL     3     -38.733 -55.099  13.690  1.00  0.00     0.079 N 
HETATM   11  H   UNL     3     -38.132 -54.738  12.913  1.00  0.00     0.312 HD
HETATM   12  H   UNL     3     -38.101 -55.605  14.355  1.00  0.00     0.312 HD
ENDBRANCH   9  10
ENDBRANCH   8   9
ENDBRANCH   1   8
BRANCH   7  13
HETATM   13  C   UNL     3     -43.877 -54.254  13.636  1.00  0.00     0.055 A 
HETATM   14  C   UNL     3     -44.665 -54.328  14.981  1.00  0.00     0.013 A 
HETATM   15  C   UNL     3     -44.434 -53.021  14.417  1.00  0.00     0.013 A 
ENDBRANCH   7  13
TORSDOF 4
ENDMDL
MODEL 9
REMARK VINA RESULT:      -4.2      1.921      3.592
REMARK  4 active torsions:
REMARK  status: ('A' for Active; 'I' for Inactive)
REMARK    1  A    between atoms: N_5  and  C_6 
REMARK    2  A    between atoms: C_6  and  C_7 
REMARK    3  A    between atoms: C_7  and  N_8 
REMARK    4  A    between atoms: C_14  and  C_15 
ROOT
HETATM    1  N   UNL     3     -41.735 -46.492  10.854  1.00  0.00    -0.329 N 
HETATM    2  C   UNL     3     -40.484 -46.919  11.099  1.00  0.00     0.201 A 
HETATM    3  N   UNL     3     -40.346 -48.217  10.764  1.00  0.00    -0.295 N 
ATOM      4  HN  UNL     3     -39.500 -48.779  10.853  1.00  0.00     0.187 HD
HETATM    5  N   UNL     3     -41.521 -48.629  10.297  1.00  0.00    -0.288 N 
ATOM      6  HN  UNL     3     -41.742 -49.564   9.953  1.00  0.00     0.188 HD
HETATM    7  C   UNL     3     -42.364 -47.578  10.363  1.00  0.00     0.103 A 
ENDROOT
BRANCH   1   8
HETATM    8  C   UNL     3     -42.238 -45.127  11.060  1.00  0.00     0.161 C 
BRANCH   8   9
HETATM    9  C   UNL     3     -42.350 -44.731  12.535  1.00  0.00     0.286 C 
BRANCH   9  10
HETATM   10  N   UNL     3     -43.271 -45.604  13.254  1.00  0.00     0.079 N 
HETATM   11  H   UNL     3     -44.007 -45.927  12.584  1.00  0.00     0.312 HD
HETATM   12  H   UNL     3     -42.751 -46.456  13.572  1.00  0.00     0.312 HD
ENDBRANCH   9  10
ENDBRANCH   8   9
ENDBRANCH   1   8
BRANCH   7  13
HETATM   13  C   UNL     3     -43.802 -47.587   9.914  1.00  0.00     0.055 A 
HETATM   14  C   UNL     3     -44.829 -47.020   8.884  1.00  0.00     0.013 A 
HETATM   15  C   UNL     3     -43.536 -47.416   8.383  1.00  0.00     0.013 A 
ENDBRANCH   7  13
TORSDOF 4
ENDMDL
