MODEL 1
REMARK VINA RESULT:      -6.5      0.000      0.000
REMARK  4 active torsions:
REMARK  status: ('A' for Active; 'I' for Inactive)
REMARK    1  A    between atoms: C_2  and  N_3 
REMARK    2  A    between atoms: C_2  and  C_14 
REMARK       I    between atoms: N_3  and  C_4 
REMARK    3  A    between atoms: C_4  and  C_6 
REMARK    4  A    between atoms: C_6  and  N_7 
ROOT
HETATM    1  N   UNL     1     -44.942 -52.309  12.556  1.00  0.00    -0.355 N 
HETATM    2  C   UNL     1     -44.332 -53.550  12.522  1.00  0.00     0.236 C 
HETATM    3  O   UNL     1     -44.931 -54.607  12.718  1.00  0.00    -0.272 OA
HETATM    4  H   UNL     1     -44.334 -51.502  12.685  1.00  0.00     0.162 HD
ENDROOT
BRANCH   1   5
HETATM    5  C   UNL     1     -46.376 -52.153  12.804  1.00  0.00     0.084 C 
HETATM    6  C   UNL     1     -47.028 -51.485  11.599  1.00  0.00     0.032 C 
BRANCH   5   7
HETATM    7  C   UNL     1     -46.639 -51.528  14.189  1.00  0.00     0.012 C 
HETATM    8  C   UNL     1     -45.445 -50.816  14.861  1.00  0.00     0.011 C 
HETATM    9  C   UNL     1     -45.642 -51.153  16.355  1.00  0.00    -0.014 C 
HETATM   10  C   UNL     1     -45.156 -52.587  16.596  1.00  0.00     0.005 C 
HETATM   11  C   UNL     1     -47.159 -51.326  16.472  1.00  0.00     0.010 C 
HETATM   12  C   UNL     1     -46.243 -53.426  15.909  1.00  0.00     0.005 C 
HETATM   13  C   UNL     1     -47.218 -52.376  15.348  1.00  0.00    -0.008 C 
ENDBRANCH   5   7
ENDBRANCH   1   5
BRANCH   2  14
HETATM   14  C   UNL     1     -42.827 -53.514  12.258  1.00  0.00     0.234 C 
BRANCH  14  15
HETATM   15  N   UNL     1     -42.073 -53.952  13.428  1.00  0.00    -0.316 N 
HETATM   16  C   UNL     1     -42.738 -54.535  14.493  1.00  0.00     0.095 A 
HETATM   17  C   UNL     1     -42.075 -54.945  15.582  1.00  0.00     0.017 A 
HETATM   18  C   UNL     1     -40.644 -54.782  15.656  1.00  0.00     0.007 A 
HETATM   19  C   UNL     1     -39.972 -54.206  14.649  1.00  0.00     0.074 A 
HETATM   20  C   UNL     1     -40.699 -53.726  13.444  1.00  0.00     0.247 A 
HETATM   21  O   UNL     1     -40.084 -53.163  12.542  1.00  0.00    -0.268 OA
ENDBRANCH  14  15
ENDBRANCH   2  14
TORSDOF 4
ENDMDL
MODEL 2
REMARK VINA RESULT:      -6.3      2.066      3.381
REMARK  4 active torsions:
REMARK  status: ('A' for Active; 'I' for Inactive)
REMARK    1  A    between atoms: C_2  and  N_3 
REMARK    2  A    between atoms: C_2  and  C_14 
REMARK       I    between atoms: N_3  and  C_4 
REMARK    3  A    between atoms: C_4  and  C_6 
REMARK    4  A    between atoms: C_6  and  N_7 
ROOT
HETATM    1  N   UNL     1     -43.174 -54.254  13.716  1.00  0.00    -0.355 N 
HETATM    2  C   UNL     1     -41.884 -54.421  14.186  1.00  0.00     0.236 C 
HETATM    3  O   UNL     1     -41.619 -54.720  15.350  1.00  0.00    -0.272 OA
HETATM    4  H   UNL     1     -43.284 -53.725  12.853  1.00  0.00     0.162 HD
ENDROOT
BRANCH   1   5
HETATM    5  C   UNL     1     -44.347 -54.449  14.571  1.00  0.00     0.084 C 
HETATM    6  C   UNL     1     -45.427 -55.186  13.787  1.00  0.00     0.032 C 
BRANCH   5   7
HETATM    7  C   UNL     1     -44.751 -53.138  15.274  1.00  0.00     0.012 C 
HETATM    8  C   UNL     1     -46.219 -53.033  15.743  1.00  0.00     0.011 C 
HETATM    9  C   UNL     1     -46.552 -51.546  15.495  1.00  0.00    -0.014 C 
HETATM   10  C   UNL     1     -46.827 -51.355  13.999  1.00  0.00     0.005 C 
HETATM   11  C   UNL     1     -45.192 -50.859  15.641  1.00  0.00     0.010 C 
HETATM   12  C   UNL     1     -45.428 -51.499  13.383  1.00  0.00     0.005 C 
HETATM   13  C   UNL     1     -44.518 -51.766  14.596  1.00  0.00    -0.008 C 
ENDBRANCH   5   7
ENDBRANCH   1   5
BRANCH   2  14
HETATM   14  C   UNL     1     -40.790 -54.166  13.150  1.00  0.00     0.234 C 
BRANCH  14  15
HETATM   15  N   UNL     1     -40.266 -52.809  13.257  1.00  0.00    -0.316 N 
HETATM   16  C   UNL     1     -39.153 -52.563  14.045  1.00  0.00     0.095 A 
HETATM   17  C   UNL     1     -38.650 -51.328  14.165  1.00  0.00     0.017 A 
HETATM   18  C   UNL     1     -39.268 -50.228  13.466  1.00  0.00     0.007 A 
HETATM   19  C   UNL     1     -40.356 -50.429  12.708  1.00  0.00     0.074 A 
HETATM   20  C   UNL     1     -40.938 -51.792  12.585  1.00  0.00     0.247 A 
HETATM   21  O   UNL     1     -41.958 -51.963  11.921  1.00  0.00    -0.268 OA
ENDBRANCH  14  15
ENDBRANCH   2  14
TORSDOF 4
ENDMDL
MODEL 3
REMARK VINA RESULT:      -6.0      3.945      6.089
REMARK  4 active torsions:
REMARK  status: ('A' for Active; 'I' for Inactive)
REMARK    1  A    between atoms: C_2  and  N_3 
REMARK    2  A    between atoms: C_2  and  C_14 
REMARK       I    between atoms: N_3  and  C_4 
REMARK    3  A    between atoms: C_4  and  C_6 
REMARK    4  A    between atoms: C_6  and  N_7 
ROOT
HETATM    1  N   UNL     1     -42.384 -50.898  12.110  1.00  0.00    -0.355 N 
HETATM    2  C   UNL     1     -42.258 -52.259  12.320  1.00  0.00     0.236 C 
HETATM    3  O   UNL     1     -41.176 -52.829  12.447  1.00  0.00    -0.272 OA
HETATM    4  H   UNL     1     -43.267 -50.572  11.723  1.00  0.00     0.162 HD
ENDROOT
BRANCH   1   5
HETATM    5  C   UNL     1     -41.222 -50.008  12.049  1.00  0.00     0.084 C 
HETATM    6  C   UNL     1     -40.763 -49.677  13.465  1.00  0.00     0.032 C 
BRANCH   5   7
HETATM    7  C   UNL     1     -41.472 -48.827  11.090  1.00  0.00     0.012 C 
HETATM    8  C   UNL     1     -40.479 -47.647  11.179  1.00  0.00     0.011 C 
HETATM    9  C   UNL     1     -41.384 -46.420  10.934  1.00  0.00    -0.014 C 
HETATM   10  C   UNL     1     -42.145 -46.114  12.229  1.00  0.00     0.005 C 
HETATM   11  C   UNL     1     -42.502 -46.986  10.056  1.00  0.00     0.010 C 
HETATM   12  C   UNL     1     -43.151 -47.271  12.305  1.00  0.00     0.005 C 
HETATM   13  C   UNL     1     -42.843 -48.109  11.052  1.00  0.00    -0.008 C 
ENDBRANCH   5   7
ENDBRANCH   1   5
BRANCH   2  14
HETATM   14  C   UNL     1     -43.581 -53.025  12.345  1.00  0.00     0.234 C 
BRANCH  14  15
HETATM   15  N   UNL     1     -44.519 -52.432  13.291  1.00  0.00    -0.316 N 
HETATM   16  C   UNL     1     -44.092 -52.110  14.569  1.00  0.00     0.095 A 
HETATM   17  C   UNL     1     -44.930 -51.566  15.461  1.00  0.00     0.017 A 
HETATM   18  C   UNL     1     -46.301 -51.307  15.095  1.00  0.00     0.007 A 
HETATM   19  C   UNL     1     -46.750 -51.622  13.872  1.00  0.00     0.074 A 
HETATM   20  C   UNL     1     -45.836 -52.247  12.880  1.00  0.00     0.247 A 
HETATM   21  O   UNL     1     -46.263 -52.570  11.774  1.00  0.00    -0.268 OA
ENDBRANCH  14  15
ENDBRANCH   2  14
TORSDOF 4
ENDMDL
MODEL 4
REMARK VINA RESULT:      -5.9      2.677      4.278
REMARK  4 active torsions:
REMARK  status: ('A' for Active; 'I' for Inactive)
REMARK    1  A    between atoms: C_2  and  N_3 
REMARK    2  A    between atoms: C_2  and  C_14 
REMARK       I    between atoms: N_3  and  C_4 
REMARK    3  A    between atoms: C_4  and  C_6 
REMARK    4  A    between atoms: C_6  and  N_7 
ROOT
HETATM    1  N   UNL     1     -41.854 -53.527  13.902  1.00  0.00    -0.355 N 
HETATM    2  C   UNL     1     -40.831 -52.944  14.628  1.00  0.00     0.236 C 
HETATM    3  O   UNL     1     -40.991 -52.434  15.736  1.00  0.00    -0.272 OA
HETATM    4  H   UNL     1     -41.699 -53.643  12.902  1.00  0.00     0.162 HD
ENDROOT
BRANCH   1   5
HETATM    5  C   UNL     1     -43.224 -53.607  14.412  1.00  0.00     0.084 C 
HETATM    6  C   UNL     1     -43.514 -55.035  14.860  1.00  0.00     0.032 C 
BRANCH   5   7
HETATM    7  C   UNL     1     -44.223 -52.953  13.437  1.00  0.00     0.012 C 
HETATM    8  C   UNL     1     -44.351 -51.416  13.510  1.00  0.00     0.011 C 
HETATM    9  C   UNL     1     -45.855 -51.185  13.248  1.00  0.00    -0.014 C 
HETATM   10  C   UNL     1     -46.624 -51.492  14.538  1.00  0.00     0.005 C 
HETATM   11  C   UNL     1     -46.241 -52.382  12.376  1.00  0.00     0.010 C 
HETATM   12  C   UNL     1     -46.524 -53.021  14.628  1.00  0.00     0.005 C 
HETATM   13  C   UNL     1     -45.702 -53.409  13.387  1.00  0.00    -0.008 C 
ENDBRANCH   5   7
ENDBRANCH   1   5
BRANCH   2  14
HETATM   14  C   UNL     1     -39.471 -52.946  13.930  1.00  0.00     0.234 C 
BRANCH  14  15
HETATM   15  N   UNL     1     -39.092 -51.603  13.506  1.00  0.00    -0.316 N 
HETATM   16  C   UNL     1     -38.134 -50.903  14.221  1.00  0.00     0.095 A 
HETATM   17  C   UNL     1     -37.767 -49.668  13.859  1.00  0.00     0.017 A 
HETATM   18  C   UNL     1     -38.371 -49.046  12.706  1.00  0.00     0.007 A 
HETATM   19  C   UNL     1     -39.313 -49.690  12.002  1.00  0.00     0.074 A 
HETATM   20  C   UNL     1     -39.746 -51.053  12.407  1.00  0.00     0.247 A 
HETATM   21  O   UNL     1     -40.638 -51.622  11.782  1.00  0.00    -0.268 OA
ENDBRANCH  14  15
ENDBRANCH   2  14
TORSDOF 4
ENDMDL
MODEL 5
REMARK VINA RESULT:      -5.9      4.646      5.856
REMARK  4 active torsions:
REMARK  status: ('A' for Active; 'I' for Inactive)
REMARK    1  A    between atoms: C_2  and  N_3 
REMARK    2  A    between atoms: C_2  and  C_14 
REMARK       I    between atoms: N_3  and  C_4 
REMARK    3  A    between atoms: C_4  and  C_6 
REMARK    4  A    between atoms: C_6  and  N_7 
ROOT
HETATM    1  N   UNL     1     -42.155 -51.216  12.045  1.00  0.00    -0.355 N 
HETATM    2  C   UNL     1     -41.534 -49.999  12.263  1.00  0.00     0.236 C 
HETATM    3  O   UNL     1     -41.576 -49.398  13.336  1.00  0.00    -0.272 OA
HETATM    4  H   UNL     1     -42.320 -51.480  11.076  1.00  0.00     0.162 HD
ENDROOT
BRANCH   1   5
HETATM    5  C   UNL     1     -42.900 -51.909  13.097  1.00  0.00     0.084 C 
HETATM    6  C   UNL     1     -42.588 -53.401  13.038  1.00  0.00     0.032 C 
BRANCH   5   7
HETATM    7  C   UNL     1     -44.385 -51.495  13.096  1.00  0.00     0.012 C 
HETATM    8  C   UNL     1     -44.953 -50.968  14.432  1.00  0.00     0.011 C 
HETATM    9  C   UNL     1     -46.393 -51.522  14.434  1.00  0.00    -0.014 C 
HETATM   10  C   UNL     1     -46.342 -53.002  14.832  1.00  0.00     0.005 C 
HETATM   11  C   UNL     1     -46.727 -51.624  12.944  1.00  0.00     0.010 C 
HETATM   12  C   UNL     1     -45.724 -53.659  13.589  1.00  0.00     0.005 C 
HETATM   13  C   UNL     1     -45.486 -52.479  12.631  1.00  0.00    -0.008 C 
ENDBRANCH   5   7
ENDBRANCH   1   5
BRANCH   2  14
HETATM   14  C   UNL     1     -40.811 -49.424  11.045  1.00  0.00     0.234 C 
BRANCH  14  15
HETATM   15  N   UNL     1     -40.886 -47.968  11.023  1.00  0.00    -0.316 N 
HETATM   16  C   UNL     1     -39.902 -47.220  11.649  1.00  0.00     0.095 A 
HETATM   17  C   UNL     1     -39.945 -45.882  11.648  1.00  0.00     0.017 A 
HETATM   18  C   UNL     1     -41.029 -45.197  10.987  1.00  0.00     0.007 A 
HETATM   19  C   UNL     1     -42.006 -45.891  10.386  1.00  0.00     0.074 A 
HETATM   20  C   UNL     1     -41.982 -47.378  10.399  1.00  0.00     0.247 A 
HETATM   21  O   UNL     1     -42.901 -48.009   9.882  1.00  0.00    -0.268 OA
ENDBRANCH  14  15
ENDBRANCH   2  14
TORSDOF 4
ENDMDL
MODEL 6
REMARK VINA RESULT:      -5.9      2.989      6.447
REMARK  4 active torsions:
REMARK  status: ('A' for Active; 'I' for Inactive)
REMARK    1  A    between atoms: C_2  and  N_3 
REMARK    2  A    between atoms: C_2  and  C_14 
REMARK       I    between atoms: N_3  and  C_4 
REMARK    3  A    between atoms: C_4  and  C_6 
REMARK    4  A    between atoms: C_6  and  N_7 
ROOT
HETATM    1  N   UNL     1     -41.662 -52.014  13.220  1.00  0.00    -0.355 N 
HETATM    2  C   UNL     1     -42.403 -53.170  13.057  1.00  0.00     0.236 C 
HETATM    3  O   UNL     1     -42.023 -54.278  13.434  1.00  0.00    -0.272 OA
HETATM    4  H   UNL     1     -41.907 -51.224  12.625  1.00  0.00     0.162 HD
ENDROOT
BRANCH   1   5
HETATM    5  C   UNL     1     -40.359 -52.010  13.886  1.00  0.00     0.084 C 
HETATM    6  C   UNL     1     -40.515 -51.462  15.301  1.00  0.00     0.032 C 
BRANCH   5   7
HETATM    7  C   UNL     1     -39.276 -51.372  12.995  1.00  0.00     0.012 C 
HETATM    8  C   UNL     1     -38.021 -50.831  13.716  1.00  0.00     0.011 C 
HETATM    9  C   UNL     1     -37.676 -49.567  12.899  1.00  0.00    -0.014 C 
HETATM   10  C   UNL     1     -38.627 -48.442  13.322  1.00  0.00     0.005 C 
HETATM   11  C   UNL     1     -38.209 -49.901  11.504  1.00  0.00     0.010 C 
HETATM   12  C   UNL     1     -39.963 -48.889  12.712  1.00  0.00     0.005 C 
HETATM   13  C   UNL     1     -39.623 -50.221  12.020  1.00  0.00    -0.008 C 
ENDBRANCH   5   7
ENDBRANCH   1   5
BRANCH   2  14
HETATM   14  C   UNL     1     -43.734 -52.979  12.330  1.00  0.00     0.234 C 
BRANCH  14  15
HETATM   15  N   UNL     1     -44.826 -52.765  13.273  1.00  0.00    -0.316 N 
HETATM   16  C   UNL     1     -45.052 -51.497  13.784  1.00  0.00     0.095 A 
HETATM   17  C   UNL     1     -46.045 -51.270  14.654  1.00  0.00     0.017 A 
HETATM   18  C   UNL     1     -46.900 -52.354  15.070  1.00  0.00     0.007 A 
HETATM   19  C   UNL     1     -46.697 -53.596  14.607  1.00  0.00     0.074 A 
HETATM   20  C   UNL     1     -45.584 -53.866  13.659  1.00  0.00     0.247 A 
HETATM   21  O   UNL     1     -45.379 -55.014  13.269  1.00  0.00    -0.268 OA
ENDBRANCH  14  15
ENDBRANCH   2  14
TORSDOF 4
ENDMDL
MODEL 7
REMARK VINA RESULT:      -5.8      2.421      5.205
REMARK  4 active torsions:
REMARK  status: ('A' for Active; 'I' for Inactive)
REMARK    1  A    between atoms: C_2  and  N_3 
REMARK    2  A    between atoms: C_2  and  C_14 
REMARK       I    between atoms: N_3  and  C_4 
REMARK    3  A    between atoms: C_4  and  C_6 
REMARK    4  A    between atoms: C_6  and  N_7 
ROOT
HETATM    1  N   UNL     1     -43.334 -53.766  13.984  1.00  0.00    -0.355 N 
HETATM    2  C   UNL     1     -44.480 -54.268  13.395  1.00  0.00     0.236 C 
HETATM    3  O   UNL     1     -44.640 -54.344  12.178  1.00  0.00    -0.272 OA
HETATM    4  H   UNL     1     -43.410 -53.466  14.955  1.00  0.00     0.162 HD
ENDROOT
BRANCH   1   5
HETATM    5  C   UNL     1     -42.191 -53.302  13.196  1.00  0.00     0.084 C 
HETATM    6  C   UNL     1     -40.899 -53.639  13.932  1.00  0.00     0.032 C 
BRANCH   5   7
HETATM    7  C   UNL     1     -42.385 -51.844  12.735  1.00  0.00     0.012 C 
HETATM    8  C   UNL     1     -41.099 -51.024  12.489  1.00  0.00     0.011 C 
HETATM    9  C   UNL     1     -41.495 -49.613  12.974  1.00  0.00    -0.014 C 
HETATM   10  C   UNL     1     -41.432 -49.593  14.506  1.00  0.00     0.005 C 
HETATM   11  C   UNL     1     -43.007 -49.577  12.736  1.00  0.00     0.010 C 
HETATM   12  C   UNL     1     -42.647 -50.444  14.900  1.00  0.00     0.005 C 
HETATM   13  C   UNL     1     -43.258 -50.860  13.550  1.00  0.00    -0.008 C 
ENDBRANCH   5   7
ENDBRANCH   1   5
BRANCH   2  14
HETATM   14  C   UNL     1     -45.569 -54.695  14.379  1.00  0.00     0.234 C 
BRANCH  14  15
HETATM   15  N   UNL     1     -46.073 -53.557  15.138  1.00  0.00    -0.316 N 
HETATM   16  C   UNL     1     -46.573 -52.452  14.468  1.00  0.00     0.095 A 
HETATM   17  C   UNL     1     -47.040 -51.390  15.137  1.00  0.00     0.017 A 
HETATM   18  C   UNL     1     -47.027 -51.386  16.579  1.00  0.00     0.007 A 
HETATM   19  C   UNL     1     -46.535 -52.432  17.258  1.00  0.00     0.074 A 
HETATM   20  C   UNL     1     -45.993 -53.608  16.527  1.00  0.00     0.247 A 
HETATM   21  O   UNL     1     -45.507 -54.547  17.154  1.00  0.00    -0.268 OA
ENDBRANCH  14  15
ENDBRANCH   2  14
TORSDOF 4
ENDMDL
MODEL 8
REMARK VINA RESULT:      -5.8      2.765      4.356
REMARK  4 active torsions:
REMARK  status: ('A' for Active; 'I' for Inactive)
REMARK    1  A    between atoms: C_2  and  N_3 
REMARK    2  A    between atoms: C_2  and  C_14 
REMARK       I    between atoms: N_3  and  C_4 
REMARK    3  A    between atoms: C_4  and  C_6 
REMARK    4  A    between atoms: C_6  and  N_7 
ROOT
HETATM    1  N   UNL     1     -42.498 -53.517  13.686  1.00  0.00    -0.355 N 
HETATM    2  C   UNL     1     -41.381 -52.701  13.716  1.00  0.00     0.236 C 
HETATM    3  O   UNL     1     -40.940 -52.193  14.745  1.00  0.00    -0.272 OA
HETATM    4  H   UNL     1     -42.955 -53.638  12.784  1.00  0.00     0.162 HD
ENDROOT
BRANCH   1   5
HETATM    5  C   UNL     1     -43.240 -53.867  14.898  1.00  0.00     0.084 C 
HETATM    6  C   UNL     1     -42.839 -55.268  15.349  1.00  0.00     0.032 C 
BRANCH   5   7
HETATM    7  C   UNL     1     -44.745 -53.578  14.737  1.00  0.00     0.012 C 
HETATM    8  C   UNL     1     -45.312 -53.661  13.302  1.00  0.00     0.011 C 
HETATM    9  C   UNL     1     -46.360 -52.528  13.282  1.00  0.00    -0.014 C 
HETATM   10  C   UNL     1     -45.627 -51.193  13.110  1.00  0.00     0.005 C 
HETATM   11  C   UNL     1     -46.802 -52.441  14.746  1.00  0.00     0.010 C 
HETATM   12  C   UNL     1     -44.948 -51.007  14.474  1.00  0.00     0.005 C 
HETATM   13  C   UNL     1     -45.364 -52.261  15.265  1.00  0.00    -0.008 C 
ENDBRANCH   5   7
ENDBRANCH   1   5
BRANCH   2  14
HETATM   14  C   UNL     1     -40.744 -52.441  12.351  1.00  0.00     0.234 C 
BRANCH  14  15
HETATM   15  N   UNL     1     -40.403 -51.033  12.187  1.00  0.00    -0.316 N 
HETATM   16  C   UNL     1     -41.397 -50.115  11.890  1.00  0.00     0.095 A 
HETATM   17  C   UNL     1     -41.114 -48.816  11.730  1.00  0.00     0.017 A 
HETATM   18  C   UNL     1     -39.756 -48.353  11.869  1.00  0.00     0.007 A 
HETATM   19  C   UNL     1     -38.767 -49.217  12.141  1.00  0.00     0.074 A 
HETATM   20  C   UNL     1     -39.064 -50.666  12.298  1.00  0.00     0.247 A 
HETATM   21  O   UNL     1     -38.149 -51.459  12.507  1.00  0.00    -0.268 OA
ENDBRANCH  14  15
ENDBRANCH   2  14
TORSDOF 4
ENDMDL
MODEL 9
REMARK VINA RESULT:      -5.7      3.898      5.158
REMARK  4 active torsions:
REMARK  status: ('A' for Active; 'I' for Inactive)
REMARK    1  A    between atoms: C_2  and  N_3 
REMARK    2  A    between atoms: C_2  and  C_14 
REMARK       I    between atoms: N_3  and  C_4 
REMARK    3  A    between atoms: C_4  and  C_6 
REMARK    4  A    between atoms: C_6  and  N_7 
ROOT
HETATM    1  N   UNL     1     -41.822 -52.065  13.107  1.00  0.00    -0.355 N 
HETATM    2  C   UNL     1     -41.192 -50.917  13.553  1.00  0.00     0.236 C 
HETATM    3  O   UNL     1     -41.545 -50.296  14.555  1.00  0.00    -0.272 OA
HETATM    4  H   UNL     1     -41.664 -52.328  12.136  1.00  0.00     0.162 HD
ENDROOT
BRANCH   1   5
HETATM    5  C   UNL     1     -42.959 -52.656  13.815  1.00  0.00     0.084 C 
HETATM    6  C   UNL     1     -42.774 -54.168  13.896  1.00  0.00     0.032 C 
BRANCH   5   7
HETATM    7  C   UNL     1     -44.298 -52.135  13.259  1.00  0.00     0.012 C 
HETATM    8  C   UNL     1     -45.009 -51.042  14.088  1.00  0.00     0.011 C 
HETATM    9  C   UNL     1     -46.501 -51.398  13.915  1.00  0.00    -0.014 C 
HETATM   10  C   UNL     1     -46.830 -52.572  14.844  1.00  0.00     0.005 C 
HETATM   11  C   UNL     1     -46.537 -52.081  12.545  1.00  0.00     0.010 C 
HETATM   12  C   UNL     1     -46.116 -53.747  14.160  1.00  0.00     0.005 C 
HETATM   13  C   UNL     1     -45.455 -53.108  12.926  1.00  0.00    -0.008 C 
ENDBRANCH   5   7
ENDBRANCH   1   5
BRANCH   2  14
HETATM   14  C   UNL     1     -40.031 -50.445  12.679  1.00  0.00     0.234 C 
BRANCH  14  15
HETATM   15  N   UNL     1     -40.327 -49.161  12.055  1.00  0.00    -0.316 N 
HETATM   16  C   UNL     1     -41.340 -49.072  11.114  1.00  0.00     0.095 A 
HETATM   17  C   UNL     1     -41.633 -47.908  10.522  1.00  0.00     0.017 A 
HETATM   18  C   UNL     1     -40.889 -46.720  10.861  1.00  0.00     0.007 A 
HETATM   19  C   UNL     1     -39.892 -46.775  11.756  1.00  0.00     0.074 A 
HETATM   20  C   UNL     1     -39.541 -48.066  12.404  1.00  0.00     0.247 A 
HETATM   21  O   UNL     1     -38.600 -48.118  13.193  1.00  0.00    -0.268 OA
ENDBRANCH  14  15
ENDBRANCH   2  14
TORSDOF 4
ENDMDL
