MODEL 1
REMARK VINA RESULT:      -6.0      0.000      0.000
REMARK  3 active torsions:
REMARK  status: ('A' for Active; 'I' for Inactive)
REMARK    1  A    between atoms: C_2  and  C_3 
REMARK       I    between atoms: C_2  and  N_12 
REMARK    2  A    between atoms: C_3  and  N_4 
REMARK    3  A    between atoms: N_12  and  C_13 
ROOT
HETATM    1  O   UNL     1     -45.898 -54.650  16.706  1.00  0.00    -0.272 OA
HETATM    2  C   UNL     1     -46.005 -53.989  15.675  1.00  0.00     0.236 C 
HETATM    3  N   UNL     1     -46.278 -52.631  15.664  1.00  0.00    -0.355 N 
HETATM    4  H   UNL     1     -46.653 -52.241  14.807  1.00  0.00     0.162 HD
ENDROOT
BRANCH   2   5
HETATM    5  C   UNL     1     -45.788 -54.598  14.285  1.00  0.00     0.235 C 
BRANCH   5   6
HETATM    6  N   UNL     1     -44.543 -54.167  13.653  1.00  0.00    -0.301 N 
HETATM    7  C   UNL     1     -43.329 -54.542  14.190  1.00  0.00     0.102 A 
HETATM    8  C   UNL     1     -42.173 -54.080  13.701  1.00  0.00     0.092 A 
HETATM    9  C   UNL     1     -42.205 -53.144  12.564  1.00  0.00     0.250 A 
HETATM   10  O   UNL     1     -41.179 -52.618  12.147  1.00  0.00    -0.268 OA
HETATM   11  N   UNL     1     -43.438 -52.901  12.033  1.00  0.00    -0.275 N 
HETATM   12  C   UNL     1     -44.632 -53.345  12.538  1.00  0.00     0.329 A 
HETATM   13  H   UNL     1     -43.483 -52.262  11.255  1.00  0.00     0.173 HD
HETATM   14  O   UNL     1     -45.698 -53.001  12.030  1.00  0.00    -0.246 OA
ENDBRANCH   5   6
ENDBRANCH   2   5
BRANCH   3  15
HETATM   15  C   UNL     1     -46.477 -51.861  16.896  1.00  0.00     0.084 C 
HETATM   16  C   UNL     1     -47.844 -51.160  16.880  1.00  0.00     0.025 C 
HETATM   17  C   UNL     1     -48.278 -50.712  18.276  1.00  0.00     0.002 C 
HETATM   18  C   UNL     1     -47.806 -49.319  18.686  1.00  0.00     0.000 C 
HETATM   19  C   UNL     1     -46.408 -48.906  18.234  1.00  0.00     0.000 C 
HETATM   20  C   UNL     1     -45.352 -50.004  18.323  1.00  0.00     0.002 C 
HETATM   21  C   UNL     1     -45.298 -50.893  17.078  1.00  0.00     0.025 C 
ENDBRANCH   3  15
TORSDOF 3
ENDMDL
MODEL 2
REMARK VINA RESULT:      -5.9      4.573      6.785
REMARK  3 active torsions:
REMARK  status: ('A' for Active; 'I' for Inactive)
REMARK    1  A    between atoms: C_2  and  C_3 
REMARK       I    between atoms: C_2  and  N_12 
REMARK    2  A    between atoms: C_3  and  N_4 
REMARK    3  A    between atoms: N_12  and  C_13 
ROOT
HETATM    1  O   UNL     1     -41.158 -50.367  13.661  1.00  0.00    -0.272 OA
HETATM    2  C   UNL     1     -41.448 -50.594  12.489  1.00  0.00     0.236 C 
HETATM    3  N   UNL     1     -42.543 -51.353  12.107  1.00  0.00    -0.355 N 
HETATM    4  H   UNL     1     -42.531 -51.745  11.172  1.00  0.00     0.162 HD
ENDROOT
BRANCH   2   5
HETATM    5  C   UNL     1     -40.652 -50.006  11.319  1.00  0.00     0.235 C 
BRANCH   5   6
HETATM    6  N   UNL     1     -40.874 -48.573  11.130  1.00  0.00    -0.301 N 
HETATM    7  C   UNL     1     -41.964 -48.131  10.411  1.00  0.00     0.102 A 
HETATM    8  C   UNL     1     -42.141 -46.836  10.130  1.00  0.00     0.092 A 
HETATM    9  C   UNL     1     -41.138 -45.864  10.598  1.00  0.00     0.250 A 
HETATM   10  O   UNL     1     -41.205 -44.681  10.280  1.00  0.00    -0.268 OA
HETATM   11  N   UNL     1     -40.144 -46.371  11.382  1.00  0.00    -0.275 N 
HETATM   12  C   UNL     1     -39.935 -47.697  11.657  1.00  0.00     0.329 A 
HETATM   13  H   UNL     1     -39.446 -45.722  11.712  1.00  0.00     0.173 HD
HETATM   14  O   UNL     1     -38.957 -48.059  12.310  1.00  0.00    -0.246 OA
ENDBRANCH   5   6
ENDBRANCH   2   5
BRANCH   3  15
HETATM   15  C   UNL     1     -43.450 -51.966  13.081  1.00  0.00     0.084 C 
HETATM   16  C   UNL     1     -43.944 -53.331  12.574  1.00  0.00     0.025 C 
HETATM   17  C   UNL     1     -44.529 -54.186  13.699  1.00  0.00     0.002 C 
HETATM   18  C   UNL     1     -46.018 -53.981  13.963  1.00  0.00     0.000 C 
HETATM   19  C   UNL     1     -46.551 -52.556  13.834  1.00  0.00     0.000 C 
HETATM   20  C   UNL     1     -45.635 -51.474  14.398  1.00  0.00     0.002 C 
HETATM   21  C   UNL     1     -44.588 -50.983  13.395  1.00  0.00     0.025 C 
ENDBRANCH   3  15
TORSDOF 3
ENDMDL
MODEL 3
REMARK VINA RESULT:      -5.7      5.138      7.226
REMARK  3 active torsions:
REMARK  status: ('A' for Active; 'I' for Inactive)
REMARK    1  A    between atoms: C_2  and  C_3 
REMARK       I    between atoms: C_2  and  N_12 
REMARK    2  A    between atoms: C_3  and  N_4 
REMARK    3  A    between atoms: N_12  and  C_13 
ROOT
HETATM    1  O   UNL     1     -41.854 -49.057  13.709  1.00  0.00    -0.272 OA
HETATM    2  C   UNL     1     -41.817 -49.423  12.537  1.00  0.00     0.236 C 
HETATM    3  N   UNL     1     -42.436 -50.574  12.077  1.00  0.00    -0.355 N 
HETATM    4  H   UNL     1     -42.104 -50.960  11.200  1.00  0.00     0.162 HD
ENDROOT
BRANCH   2   5
HETATM    5  C   UNL     1     -41.122 -48.604  11.444  1.00  0.00     0.235 C 
BRANCH   5   6
HETATM    6  N   UNL     1     -41.979 -47.571  10.862  1.00  0.00    -0.301 N 
HETATM    7  C   UNL     1     -42.709 -47.839   9.723  1.00  0.00     0.102 A 
HETATM    8  C   UNL     1     -43.419 -46.889   9.106  1.00  0.00     0.092 A 
HETATM    9  C   UNL     1     -43.411 -45.524   9.658  1.00  0.00     0.250 A 
HETATM   10  O   UNL     1     -43.965 -44.600   9.073  1.00  0.00    -0.268 OA
HETATM   11  N   UNL     1     -42.744 -45.367  10.838  1.00  0.00    -0.275 N 
HETATM   12  C   UNL     1     -41.991 -46.323  11.468  1.00  0.00     0.329 A 
HETATM   13  H   UNL     1     -42.726 -44.439  11.233  1.00  0.00     0.173 HD
HETATM   14  O   UNL     1     -41.359 -46.055  12.489  1.00  0.00    -0.246 OA
ENDBRANCH   5   6
ENDBRANCH   2   5
BRANCH   3  15
HETATM   15  C   UNL     1     -43.186 -51.469  12.964  1.00  0.00     0.084 C 
HETATM   16  C   UNL     1     -43.214 -52.896  12.393  1.00  0.00     0.025 C 
HETATM   17  C   UNL     1     -43.595 -53.932  13.451  1.00  0.00     0.002 C 
HETATM   18  C   UNL     1     -45.093 -54.187  13.599  1.00  0.00     0.000 C 
HETATM   19  C   UNL     1     -46.015 -52.980  13.456  1.00  0.00     0.000 C 
HETATM   20  C   UNL     1     -45.505 -51.700  14.111  1.00  0.00     0.002 C 
HETATM   21  C   UNL     1     -44.585 -50.880  13.204  1.00  0.00     0.025 C 
ENDBRANCH   3  15
TORSDOF 3
ENDMDL
MODEL 4
REMARK VINA RESULT:      -5.7      3.232      5.571
REMARK  3 active torsions:
REMARK  status: ('A' for Active; 'I' for Inactive)
REMARK    1  A    between atoms: C_2  and  C_3 
REMARK       I    between atoms: C_2  and  N_12 
REMARK    2  A    between atoms: C_3  and  N_4 
REMARK    3  A    between atoms: N_12  and  C_13 
ROOT
HETATM    1  O   UNL     1     -42.173 -52.570  14.018  1.00  0.00    -0.272 OA
HETATM    2  C   UNL     1     -42.144 -52.614  12.790  1.00  0.00     0.236 C 
HETATM    3  N   UNL     1     -43.264 -52.850  12.009  1.00  0.00    -0.355 N 
HETATM    4  H   UNL     1     -43.107 -53.176  11.062  1.00  0.00     0.162 HD
ENDROOT
BRANCH   2   5
HETATM    5  C   UNL     1     -40.863 -52.352  11.990  1.00  0.00     0.235 C 
BRANCH   5   6
HETATM    6  N   UNL     1     -40.046 -51.274  12.544  1.00  0.00    -0.301 N 
HETATM    7  C   UNL     1     -40.350 -49.959  12.260  1.00  0.00     0.102 A 
HETATM    8  C   UNL     1     -39.564 -48.955  12.662  1.00  0.00     0.092 A 
HETATM    9  C   UNL     1     -38.342 -49.268  13.422  1.00  0.00     0.250 A 
HETATM   10  O   UNL     1     -37.541 -48.390  13.725  1.00  0.00    -0.268 OA
HETATM   11  N   UNL     1     -38.167 -50.582  13.744  1.00  0.00    -0.275 N 
HETATM   12  C   UNL     1     -38.948 -51.625  13.317  1.00  0.00     0.329 A 
HETATM   13  H   UNL     1     -37.335 -50.819  14.262  1.00  0.00     0.173 HD
HETATM   14  O   UNL     1     -38.655 -52.786  13.597  1.00  0.00    -0.246 OA
ENDBRANCH   5   6
ENDBRANCH   2   5
BRANCH   3  15
HETATM   15  C   UNL     1     -44.590 -53.082  12.589  1.00  0.00     0.084 C 
HETATM   16  C   UNL     1     -45.044 -51.862  13.406  1.00  0.00     0.025 C 
HETATM   17  C   UNL     1     -46.550 -51.870  13.666  1.00  0.00     0.002 C 
HETATM   18  C   UNL     1     -46.988 -52.612  14.926  1.00  0.00     0.000 C 
HETATM   19  C   UNL     1     -46.223 -53.886  15.276  1.00  0.00     0.000 C 
HETATM   20  C   UNL     1     -45.874 -54.774  14.085  1.00  0.00     0.002 C 
HETATM   21  C   UNL     1     -44.560 -54.385  13.403  1.00  0.00     0.025 C 
ENDBRANCH   3  15
TORSDOF 3
ENDMDL
MODEL 5
REMARK VINA RESULT:      -5.6      4.250      6.852
REMARK  3 active torsions:
REMARK  status: ('A' for Active; 'I' for Inactive)
REMARK    1  A    between atoms: C_2  and  C_3 
REMARK       I    between atoms: C_2  and  N_12 
REMARK    2  A    between atoms: C_3  and  N_4 
REMARK    3  A    between atoms: N_12  and  C_13 
ROOT
HETATM    1  O   UNL     1     -41.945 -50.551  13.621  1.00  0.00    -0.272 OA
HETATM    2  C   UNL     1     -41.762 -50.958  12.476  1.00  0.00     0.236 C 
HETATM    3  N   UNL     1     -41.556 -50.120  11.392  1.00  0.00    -0.355 N 
HETATM    4  H   UNL     1     -41.726 -50.506  10.470  1.00  0.00     0.162 HD
ENDROOT
BRANCH   2   5
HETATM    5  C   UNL     1     -41.685 -52.451  12.140  1.00  0.00     0.235 C 
BRANCH   5   6
HETATM    6  N   UNL     1     -42.751 -53.239  12.757  1.00  0.00    -0.301 N 
HETATM    7  C   UNL     1     -44.056 -53.084  12.339  1.00  0.00     0.102 A 
HETATM    8  C   UNL     1     -45.068 -53.708  12.951  1.00  0.00     0.092 A 
HETATM    9  C   UNL     1     -44.774 -54.576  14.104  1.00  0.00     0.250 A 
HETATM   10  O   UNL     1     -45.676 -55.090  14.757  1.00  0.00    -0.268 OA
HETATM   11  N   UNL     1     -43.452 -54.751  14.391  1.00  0.00    -0.275 N 
HETATM   12  C   UNL     1     -42.406 -54.098  13.791  1.00  0.00     0.329 A 
HETATM   13  H   UNL     1     -43.229 -55.340  15.178  1.00  0.00     0.173 HD
HETATM   14  O   UNL     1     -41.252 -54.266  14.181  1.00  0.00    -0.246 OA
ENDBRANCH   5   6
ENDBRANCH   2   5
BRANCH   3  15
HETATM   15  C   UNL     1     -41.552 -48.659  11.519  1.00  0.00     0.084 C 
HETATM   16  C   UNL     1     -42.184 -48.008  10.279  1.00  0.00     0.025 C 
HETATM   17  C   UNL     1     -42.591 -46.557  10.535  1.00  0.00     0.002 C 
HETATM   18  C   UNL     1     -41.503 -45.521  10.265  1.00  0.00     0.000 C 
HETATM   19  C   UNL     1     -40.074 -45.909  10.635  1.00  0.00     0.000 C 
HETATM   20  C   UNL     1     -39.935 -46.672  11.949  1.00  0.00     0.002 C 
HETATM   21  C   UNL     1     -40.118 -48.184  11.794  1.00  0.00     0.025 C 
ENDBRANCH   3  15
TORSDOF 3
ENDMDL
MODEL 6
REMARK VINA RESULT:      -5.3      3.121      4.722
REMARK  3 active torsions:
REMARK  status: ('A' for Active; 'I' for Inactive)
REMARK    1  A    between atoms: C_2  and  C_3 
REMARK       I    between atoms: C_2  and  N_12 
REMARK    2  A    between atoms: C_3  and  N_4 
REMARK    3  A    between atoms: N_12  and  C_13 
ROOT
HETATM    1  O   UNL     1     -41.806 -49.247  14.908  1.00  0.00    -0.272 OA
HETATM    2  C   UNL     1     -41.666 -50.315  14.316  1.00  0.00     0.236 C 
HETATM    3  N   UNL     1     -42.715 -51.175  14.038  1.00  0.00    -0.355 N 
HETATM    4  H   UNL     1     -42.481 -52.142  13.841  1.00  0.00     0.162 HD
ENDROOT
BRANCH   2   5
HETATM    5  C   UNL     1     -40.310 -50.779  13.773  1.00  0.00     0.235 C 
BRANCH   5   6
HETATM    6  N   UNL     1     -39.954 -52.135  14.189  1.00  0.00    -0.301 N 
HETATM    7  C   UNL     1     -39.458 -52.362  15.456  1.00  0.00     0.102 A 
HETATM    8  C   UNL     1     -39.024 -53.568  15.834  1.00  0.00     0.092 A 
HETATM    9  C   UNL     1     -39.074 -54.677  14.866  1.00  0.00     0.250 A 
HETATM   10  O   UNL     1     -38.596 -55.774  15.133  1.00  0.00    -0.268 OA
HETATM   11  N   UNL     1     -39.666 -54.392  13.670  1.00  0.00    -0.275 N 
HETATM   12  C   UNL     1     -40.091 -53.156  13.259  1.00  0.00     0.329 A 
HETATM   13  H   UNL     1     -39.709 -55.137  12.992  1.00  0.00     0.173 HD
HETATM   14  O   UNL     1     -40.539 -52.988  12.125  1.00  0.00    -0.246 OA
ENDBRANCH   5   6
ENDBRANCH   2   5
BRANCH   3  15
HETATM   15  C   UNL     1     -44.095 -50.886  14.440  1.00  0.00     0.084 C 
HETATM   16  C   UNL     1     -44.319 -51.265  15.912  1.00  0.00     0.025 C 
HETATM   17  C   UNL     1     -45.570 -50.606  16.493  1.00  0.00     0.002 C 
HETATM   18  C   UNL     1     -46.863 -51.396  16.312  1.00  0.00     0.000 C 
HETATM   19  C   UNL     1     -47.032 -52.150  14.996  1.00  0.00     0.000 C 
HETATM   20  C   UNL     1     -46.549 -51.398  13.759  1.00  0.00     0.002 C 
HETATM   21  C   UNL     1     -45.058 -51.594  13.475  1.00  0.00     0.025 C 
ENDBRANCH   3  15
TORSDOF 3
ENDMDL
MODEL 7
REMARK VINA RESULT:      -5.3      7.133      9.205
REMARK  3 active torsions:
REMARK  status: ('A' for Active; 'I' for Inactive)
REMARK    1  A    between atoms: C_2  and  C_3 
REMARK       I    between atoms: C_2  and  N_12 
REMARK    2  A    between atoms: C_3  and  N_4 
REMARK    3  A    between atoms: N_12  and  C_13 
ROOT
HETATM    1  O   UNL     1     -39.394 -45.591  13.009  1.00  0.00    -0.272 OA
HETATM    2  C   UNL     1     -40.329 -46.271  12.592  1.00  0.00     0.236 C 
HETATM    3  N   UNL     1     -40.228 -47.628  12.332  1.00  0.00    -0.355 N 
HETATM    4  H   UNL     1     -40.922 -48.033  11.713  1.00  0.00     0.162 HD
ENDROOT
BRANCH   2   5
HETATM    5  C   UNL     1     -41.730 -45.690  12.371  1.00  0.00     0.235 C 
BRANCH   5   6
HETATM    6  N   UNL     1     -42.450 -46.321  11.266  1.00  0.00    -0.301 N 
HETATM    7  C   UNL     1     -42.412 -45.762  10.006  1.00  0.00     0.102 A 
HETATM    8  C   UNL     1     -43.142 -46.251   8.999  1.00  0.00     0.092 A 
HETATM    9  C   UNL     1     -44.010 -47.414   9.251  1.00  0.00     0.250 A 
HETATM   10  O   UNL     1     -44.771 -47.836   8.386  1.00  0.00    -0.268 OA
HETATM   11  N   UNL     1     -43.915 -47.966  10.495  1.00  0.00    -0.275 N 
HETATM   12  C   UNL     1     -43.193 -47.460  11.544  1.00  0.00     0.329 A 
HETATM   13  H   UNL     1     -44.502 -48.762  10.688  1.00  0.00     0.173 HD
HETATM   14  O   UNL     1     -43.239 -47.989  12.654  1.00  0.00    -0.246 OA
ENDBRANCH   5   6
ENDBRANCH   2   5
BRANCH   3  15
HETATM   15  C   UNL     1     -38.980 -48.373  12.523  1.00  0.00     0.084 C 
HETATM   16  C   UNL     1     -38.889 -49.537  11.523  1.00  0.00     0.025 C 
HETATM   17  C   UNL     1     -37.462 -50.068  11.386  1.00  0.00     0.002 C 
HETATM   18  C   UNL     1     -37.079 -51.165  12.376  1.00  0.00     0.000 C 
HETATM   19  C   UNL     1     -37.632 -51.038  13.793  1.00  0.00     0.000 C 
HETATM   20  C   UNL     1     -37.631 -49.621  14.359  1.00  0.00     0.002 C 
HETATM   21  C   UNL     1     -38.881 -48.820  13.989  1.00  0.00     0.025 C 
ENDBRANCH   3  15
TORSDOF 3
ENDMDL
MODEL 8
REMARK VINA RESULT:      -5.2      4.351      6.193
REMARK  3 active torsions:
REMARK  status: ('A' for Active; 'I' for Inactive)
REMARK    1  A    between atoms: C_2  and  C_3 
REMARK       I    between atoms: C_2  and  N_12 
REMARK    2  A    between atoms: C_3  and  N_4 
REMARK    3  A    between atoms: N_12  and  C_13 
ROOT
HETATM    1  O   UNL     1     -39.705 -51.020  12.717  1.00  0.00    -0.272 OA
HETATM    2  C   UNL     1     -40.771 -51.364  12.211  1.00  0.00     0.236 C 
HETATM    3  N   UNL     1     -41.748 -50.469  11.808  1.00  0.00    -0.355 N 
HETATM    4  H   UNL     1     -42.690 -50.828  11.701  1.00  0.00     0.162 HD
ENDROOT
BRANCH   2   5
HETATM    5  C   UNL     1     -41.104 -52.832  11.921  1.00  0.00     0.235 C 
BRANCH   5   6
HETATM    6  N   UNL     1     -41.701 -53.525  13.061  1.00  0.00    -0.301 N 
HETATM    7  C   UNL     1     -40.895 -54.064  14.042  1.00  0.00     0.102 A 
HETATM    8  C   UNL     1     -41.400 -54.795  15.041  1.00  0.00     0.092 A 
HETATM    9  C   UNL     1     -42.853 -55.031  15.086  1.00  0.00     0.250 A 
HETATM   10  O   UNL     1     -43.349 -55.775  15.925  1.00  0.00    -0.268 OA
HETATM   11  N   UNL     1     -43.587 -54.384  14.136  1.00  0.00    -0.275 N 
HETATM   12  C   UNL     1     -43.082 -53.654  13.090  1.00  0.00     0.329 A 
HETATM   13  H   UNL     1     -44.584 -54.533  14.147  1.00  0.00     0.173 HD
HETATM   14  O   UNL     1     -43.829 -53.177  12.237  1.00  0.00    -0.246 OA
ENDBRANCH   5   6
ENDBRANCH   2   5
BRANCH   3  15
HETATM   15  C   UNL     1     -41.596 -49.019  11.964  1.00  0.00     0.084 C 
HETATM   16  C   UNL     1     -42.680 -48.460  12.899  1.00  0.00     0.025 C 
HETATM   17  C   UNL     1     -42.324 -47.071  13.429  1.00  0.00     0.002 C 
HETATM   18  C   UNL     1     -42.776 -45.906  12.552  1.00  0.00     0.000 C 
HETATM   19  C   UNL     1     -42.693 -46.108  11.042  1.00  0.00     0.000 C 
HETATM   20  C   UNL     1     -41.444 -46.839  10.559  1.00  0.00     0.002 C 
HETATM   21  C   UNL     1     -41.591 -48.363  10.575  1.00  0.00     0.025 C 
ENDBRANCH   3  15
TORSDOF 3
ENDMDL
MODEL 9
REMARK VINA RESULT:      -5.1      2.865      5.811
REMARK  3 active torsions:
REMARK  status: ('A' for Active; 'I' for Inactive)
REMARK    1  A    between atoms: C_2  and  C_3 
REMARK       I    between atoms: C_2  and  N_12 
REMARK    2  A    between atoms: C_3  and  N_4 
REMARK    3  A    between atoms: N_12  and  C_13 
ROOT
HETATM    1  O   UNL     1     -41.436 -53.834  12.909  1.00  0.00    -0.272 OA
HETATM    2  C   UNL     1     -42.565 -54.081  13.327  1.00  0.00     0.236 C 
HETATM    3  N   UNL     1     -42.816 -54.596  14.588  1.00  0.00    -0.355 N 
HETATM    4  H   UNL     1     -43.710 -55.053  14.731  1.00  0.00     0.162 HD
ENDROOT
BRANCH   2   5
HETATM    5  C   UNL     1     -43.825 -53.785  12.505  1.00  0.00     0.235 C 
BRANCH   5   6
HETATM    6  N   UNL     1     -44.943 -53.303  13.314  1.00  0.00    -0.301 N 
HETATM    7  C   UNL     1     -45.063 -51.958  13.596  1.00  0.00     0.102 A 
HETATM    8  C   UNL     1     -46.011 -51.496  14.418  1.00  0.00     0.092 A 
HETATM    9  C   UNL     1     -46.942 -52.453  15.038  1.00  0.00     0.250 A 
HETATM   10  O   UNL     1     -47.763 -52.089  15.874  1.00  0.00    -0.268 OA
HETATM   11  N   UNL     1     -46.817 -53.749  14.632  1.00  0.00    -0.275 N 
HETATM   12  C   UNL     1     -45.835 -54.242  13.812  1.00  0.00     0.329 A 
HETATM   13  H   UNL     1     -47.443 -54.421  15.046  1.00  0.00     0.173 HD
HETATM   14  O   UNL     1     -45.761 -55.446  13.572  1.00  0.00    -0.246 OA
ENDBRANCH   5   6
ENDBRANCH   2   5
BRANCH   3  15
HETATM   15  C   UNL     1     -41.743 -54.906  15.537  1.00  0.00     0.084 C 
HETATM   16  C   UNL     1     -42.092 -56.158  16.357  1.00  0.00     0.025 C 
HETATM   17  C   UNL     1     -40.863 -56.764  17.035  1.00  0.00     0.002 C 
HETATM   18  C   UNL     1     -40.544 -56.204  18.419  1.00  0.00     0.000 C 
HETATM   19  C   UNL     1     -40.779 -54.711  18.629  1.00  0.00     0.000 C 
HETATM   20  C   UNL     1     -40.368 -53.824  17.457  1.00  0.00     0.002 C 
HETATM   21  C   UNL     1     -41.466 -53.668  16.403  1.00  0.00     0.025 C 
ENDBRANCH   3  15
TORSDOF 3
ENDMDL
