MODEL 1
REMARK VINA RESULT:      -6.7      0.000      0.000
REMARK  6 active torsions:
REMARK  status: ('A' for Active; 'I' for Inactive)
REMARK    1  A    between atoms: O_1  and  C_2 
REMARK    2  A    between atoms: C_2  and  C_3 
REMARK    3  A    between atoms: N_12  and  C_13 
REMARK    4  A    between atoms: C_13  and  C_14 
REMARK    5  A    between atoms: C_14  and  O_15 
REMARK    6  A    between atoms: C_14  and  C_16 
ROOT
HETATM    1  C   UNL     1     -39.118 -49.805  12.050  1.00  0.00     0.108 A 
HETATM    2  N   UNL     1     -39.173 -48.664  11.389  1.00  0.00    -0.342 N 
ATOM      3  HN  UNL     1     -38.391 -48.160  10.971  1.00  0.00     0.167 HD
HETATM    4  C   UNL     1     -40.492 -48.294  11.379  1.00  0.00     0.060 A 
HETATM    5  C   UNL     1     -41.092 -47.166  10.801  1.00  0.00     0.032 A 
HETATM    6  C   UNL     1     -42.476 -47.000  10.914  1.00  0.00     0.002 A 
HETATM    7  C   UNL     1     -43.250 -47.946  11.588  1.00  0.00     0.002 A 
HETATM    8  C   UNL     1     -42.666 -49.083  12.165  1.00  0.00     0.032 A 
HETATM    9  C   UNL     1     -41.280 -49.230  12.044  1.00  0.00     0.062 A 
HETATM   10  N   UNL     1     -40.381 -50.191  12.461  1.00  0.00    -0.330 N 
ENDROOT
BRANCH  10  11
HETATM   11  C   UNL     1     -40.732 -51.456  13.090  1.00  0.00     0.167 C 
BRANCH  11  12
HETATM   12  C   UNL     1     -41.425 -52.462  12.154  1.00  0.00     0.169 C 
BRANCH  12  13
HETATM   13  O   UNL     1     -40.499 -53.428  11.652  1.00  0.00    -0.389 OA
HETATM   14  H   UNL     1     -39.834 -53.594  12.337  1.00  0.00     0.210 HD
ENDBRANCH  12  13
BRANCH  12  15
HETATM   15  C   UNL     1     -42.572 -53.231  12.796  1.00  0.00    -0.028 A 
HETATM   16  C   UNL     1     -43.879 -53.024  12.313  1.00  0.00     0.013 A 
HETATM   17  C   UNL     1     -44.966 -53.712  12.862  1.00  0.00     0.043 A 
HETATM   18  C   UNL     1     -44.753 -54.622  13.888  1.00  0.00     0.116 A 
HETATM   19  F   UNL     1     -45.793 -55.280  14.415  1.00  0.00    -0.206 F 
HETATM   20  C   UNL     1     -43.475 -54.859  14.372  1.00  0.00     0.043 A 
HETATM   21  C   UNL     1     -42.385 -54.175  13.824  1.00  0.00     0.013 A 
ENDBRANCH  12  15
ENDBRANCH  11  12
ENDBRANCH  10  11
BRANCH   1  22
HETATM   22  C   UNL     1     -37.876 -50.597  12.271  1.00  0.00     0.240 C 
BRANCH  22  23
HETATM   23  O   UNL     1     -37.452 -51.119  11.019  1.00  0.00    -0.393 OA
HETATM   24  H   UNL     1     -36.494 -51.265  11.093  1.00  0.00     0.209 HD
ENDBRANCH  22  23
ENDBRANCH   1  22
TORSDOF 6
ENDMDL
MODEL 2
REMARK VINA RESULT:      -6.4      3.413      5.878
REMARK  6 active torsions:
REMARK  status: ('A' for Active; 'I' for Inactive)
REMARK    1  A    between atoms: O_1  and  C_2 
REMARK    2  A    between atoms: C_2  and  C_3 
REMARK    3  A    between atoms: N_12  and  C_13 
REMARK    4  A    between atoms: C_13  and  C_14 
REMARK    5  A    between atoms: C_14  and  O_15 
REMARK    6  A    between atoms: C_14  and  C_16 
ROOT
HETATM    1  C   UNL     1     -42.286 -53.268  12.909  1.00  0.00     0.108 A 
HETATM    2  N   UNL     1     -43.388 -53.481  12.215  1.00  0.00    -0.342 N 
ATOM      3  HN  UNL     1     -43.483 -54.051  11.374  1.00  0.00     0.167 HD
HETATM    4  C   UNL     1     -44.379 -52.782  12.853  1.00  0.00     0.060 A 
HETATM    5  C   UNL     1     -45.740 -52.680  12.530  1.00  0.00     0.032 A 
HETATM    6  C   UNL     1     -46.574 -51.904  13.343  1.00  0.00     0.002 A 
HETATM    7  C   UNL     1     -46.060 -51.247  14.461  1.00  0.00     0.002 A 
HETATM    8  C   UNL     1     -44.703 -51.346  14.802  1.00  0.00     0.032 A 
HETATM    9  C   UNL     1     -43.885 -52.123  13.975  1.00  0.00     0.062 A 
HETATM   10  N   UNL     1     -42.544 -52.452  13.995  1.00  0.00    -0.330 N 
ENDROOT
BRANCH  10  11
HETATM   11  C   UNL     1     -41.610 -52.116  15.059  1.00  0.00     0.167 C 
BRANCH  11  12
HETATM   12  C   UNL     1     -41.014 -50.699  14.958  1.00  0.00     0.169 C 
BRANCH  12  13
HETATM   13  O   UNL     1     -40.391 -50.309  16.184  1.00  0.00    -0.389 OA
HETATM   14  H   UNL     1     -39.930 -51.080  16.549  1.00  0.00     0.210 HD
ENDBRANCH  12  13
BRANCH  12  15
HETATM   15  C   UNL     1     -39.979 -50.530  13.854  1.00  0.00    -0.028 A 
HETATM   16  C   UNL     1     -38.699 -51.089  14.037  1.00  0.00     0.013 A 
HETATM   17  C   UNL     1     -37.714 -50.971  13.051  1.00  0.00     0.043 A 
HETATM   18  C   UNL     1     -38.006 -50.304  11.868  1.00  0.00     0.116 A 
HETATM   19  F   UNL     1     -37.065 -50.189  10.924  1.00  0.00    -0.206 F 
HETATM   20  C   UNL     1     -39.263 -49.758  11.654  1.00  0.00     0.043 A 
HETATM   21  C   UNL     1     -40.251 -49.877  12.637  1.00  0.00     0.013 A 
ENDBRANCH  12  15
ENDBRANCH  11  12
ENDBRANCH  10  11
BRANCH   1  22
HETATM   22  C   UNL     1     -40.960 -53.873  12.598  1.00  0.00     0.240 C 
BRANCH  22  23
HETATM   23  O   UNL     1     -40.466 -53.276  11.407  1.00  0.00    -0.393 OA
HETATM   24  H   UNL     1     -39.879 -53.932  10.995  1.00  0.00     0.209 HD
ENDBRANCH  22  23
ENDBRANCH   1  22
TORSDOF 6
ENDMDL
MODEL 3
REMARK VINA RESULT:      -6.4      2.771      5.886
REMARK  6 active torsions:
REMARK  status: ('A' for Active; 'I' for Inactive)
REMARK    1  A    between atoms: O_1  and  C_2 
REMARK    2  A    between atoms: C_2  and  C_3 
REMARK    3  A    between atoms: N_12  and  C_13 
REMARK    4  A    between atoms: C_13  and  C_14 
REMARK    5  A    between atoms: C_14  and  O_15 
REMARK    6  A    between atoms: C_14  and  C_16 
ROOT
HETATM    1  C   UNL     1     -40.747 -54.154  14.052  1.00  0.00     0.108 A 
HETATM    2  N   UNL     1     -41.578 -54.707  14.915  1.00  0.00    -0.342 N 
ATOM      3  HN  UNL     1     -41.333 -55.186  15.781  1.00  0.00     0.167 HD
HETATM    4  C   UNL     1     -42.836 -54.507  14.412  1.00  0.00     0.060 A 
HETATM    5  C   UNL     1     -44.076 -54.890  14.945  1.00  0.00     0.032 A 
HETATM    6  C   UNL     1     -45.244 -54.564  14.248  1.00  0.00     0.002 A 
HETATM    7  C   UNL     1     -45.178 -53.866  13.041  1.00  0.00     0.002 A 
HETATM    8  C   UNL     1     -43.947 -53.469  12.499  1.00  0.00     0.032 A 
HETATM    9  C   UNL     1     -42.789 -53.806  13.209  1.00  0.00     0.062 A 
HETATM   10  N   UNL     1     -41.442 -53.586  13.001  1.00  0.00    -0.330 N 
ENDROOT
BRANCH  10  11
HETATM   11  C   UNL     1     -40.878 -52.770  11.936  1.00  0.00     0.167 C 
BRANCH  11  12
HETATM   12  C   UNL     1     -40.329 -51.408  12.401  1.00  0.00     0.169 C 
BRANCH  12  13
HETATM   13  O   UNL     1     -39.047 -51.141  11.829  1.00  0.00    -0.389 OA
HETATM   14  H   UNL     1     -38.818 -50.218  12.015  1.00  0.00     0.210 HD
ENDBRANCH  12  13
BRANCH  12  15
HETATM   15  C   UNL     1     -41.225 -50.223  12.066  1.00  0.00    -0.028 A 
HETATM   16  C   UNL     1     -40.839 -49.356  11.024  1.00  0.00     0.013 A 
HETATM   17  C   UNL     1     -41.630 -48.259  10.670  1.00  0.00     0.043 A 
HETATM   18  C   UNL     1     -42.821 -48.027  11.345  1.00  0.00     0.116 A 
HETATM   19  F   UNL     1     -43.578 -46.976  11.008  1.00  0.00    -0.206 F 
HETATM   20  C   UNL     1     -43.234 -48.872  12.364  1.00  0.00     0.043 A 
HETATM   21  C   UNL     1     -42.447 -49.973  12.719  1.00  0.00     0.013 A 
ENDBRANCH  12  15
ENDBRANCH  11  12
ENDBRANCH  10  11
BRANCH   1  22
HETATM   22  C   UNL     1     -39.268 -54.097  14.220  1.00  0.00     0.240 C 
BRANCH  22  23
HETATM   23  O   UNL     1     -38.684 -55.066  13.359  1.00  0.00    -0.393 OA
HETATM   24  H   UNL     1     -38.344 -54.579  12.589  1.00  0.00     0.209 HD
ENDBRANCH  22  23
ENDBRANCH   1  22
TORSDOF 6
ENDMDL
MODEL 4
REMARK VINA RESULT:      -6.3      2.756      5.146
REMARK  6 active torsions:
REMARK  status: ('A' for Active; 'I' for Inactive)
REMARK    1  A    between atoms: O_1  and  C_2 
REMARK    2  A    between atoms: C_2  and  C_3 
REMARK    3  A    between atoms: N_12  and  C_13 
REMARK    4  A    between atoms: C_13  and  C_14 
REMARK    5  A    between atoms: C_14  and  O_15 
REMARK    6  A    between atoms: C_14  and  C_16 
ROOT
HETATM    1  C   UNL     1     -40.249 -52.194  13.800  1.00  0.00     0.108 A 
HETATM    2  N   UNL     1     -39.883 -53.025  14.757  1.00  0.00    -0.342 N 
ATOM      3  HN  UNL     1     -38.986 -53.045  15.243  1.00  0.00     0.167 HD
HETATM    4  C   UNL     1     -40.951 -53.858  14.966  1.00  0.00     0.060 A 
HETATM    5  C   UNL     1     -41.087 -54.913  15.880  1.00  0.00     0.032 A 
HETATM    6  C   UNL     1     -42.290 -55.626  15.919  1.00  0.00     0.002 A 
HETATM    7  C   UNL     1     -43.340 -55.290  15.064  1.00  0.00     0.002 A 
HETATM    8  C   UNL     1     -43.223 -54.233  14.150  1.00  0.00     0.032 A 
HETATM    9  C   UNL     1     -42.011 -53.533  14.124  1.00  0.00     0.062 A 
HETATM   10  N   UNL     1     -41.542 -52.462  13.390  1.00  0.00    -0.330 N 
ENDROOT
BRANCH  10  11
HETATM   11  C   UNL     1     -42.331 -51.670  12.458  1.00  0.00     0.167 C 
BRANCH  11  12
HETATM   12  C   UNL     1     -43.047 -50.464  13.095  1.00  0.00     0.169 C 
BRANCH  12  13
HETATM   13  O   UNL     1     -43.377 -49.479  12.115  1.00  0.00    -0.389 OA
HETATM   14  H   UNL     1     -44.263 -49.139  12.312  1.00  0.00     0.210 HD
ENDBRANCH  12  13
BRANCH  12  15
HETATM   15  C   UNL     1     -44.335 -50.815  13.829  1.00  0.00    -0.028 A 
HETATM   16  C   UNL     1     -44.389 -50.629  15.224  1.00  0.00     0.013 A 
HETATM   17  C   UNL     1     -45.550 -50.926  15.946  1.00  0.00     0.043 A 
HETATM   18  C   UNL     1     -46.670 -51.399  15.275  1.00  0.00     0.116 A 
HETATM   19  F   UNL     1     -47.782 -51.685  15.964  1.00  0.00    -0.206 F 
HETATM   20  C   UNL     1     -46.651 -51.576  13.900  1.00  0.00     0.043 A 
HETATM   21  C   UNL     1     -45.493 -51.277  13.175  1.00  0.00     0.013 A 
ENDBRANCH  12  15
ENDBRANCH  11  12
ENDBRANCH  10  11
BRANCH   1  22
HETATM   22  C   UNL     1     -39.407 -51.082  13.277  1.00  0.00     0.240 C 
BRANCH  22  23
HETATM   23  O   UNL     1     -38.826 -51.502  12.050  1.00  0.00    -0.393 OA
HETATM   24  H   UNL     1     -37.955 -51.073  11.999  1.00  0.00     0.209 HD
ENDBRANCH  22  23
ENDBRANCH   1  22
TORSDOF 6
ENDMDL
MODEL 5
REMARK VINA RESULT:      -6.1      2.411      2.803
REMARK  6 active torsions:
REMARK  status: ('A' for Active; 'I' for Inactive)
REMARK    1  A    between atoms: O_1  and  C_2 
REMARK    2  A    between atoms: C_2  and  C_3 
REMARK    3  A    between atoms: N_12  and  C_13 
REMARK    4  A    between atoms: C_13  and  C_14 
REMARK    5  A    between atoms: C_14  and  O_15 
REMARK    6  A    between atoms: C_14  and  C_16 
ROOT
HETATM    1  C   UNL     1     -39.802 -49.289  12.283  1.00  0.00     0.108 A 
HETATM    2  N   UNL     1     -39.324 -48.367  11.469  1.00  0.00    -0.342 N 
ATOM      3  HN  UNL     1     -38.439 -48.395  10.962  1.00  0.00     0.167 HD
HETATM    4  C   UNL     1     -40.257 -47.364  11.442  1.00  0.00     0.060 A 
HETATM    5  C   UNL     1     -40.243 -46.158  10.725  1.00  0.00     0.032 A 
HETATM    6  C   UNL     1     -41.326 -45.282  10.850  1.00  0.00     0.002 A 
HETATM    7  C   UNL     1     -42.407 -45.604  11.672  1.00  0.00     0.002 A 
HETATM    8  C   UNL     1     -42.440 -46.809  12.389  1.00  0.00     0.032 A 
HETATM    9  C   UNL     1     -41.346 -47.671  12.253  1.00  0.00     0.062 A 
HETATM   10  N   UNL     1     -41.036 -48.910  12.778  1.00  0.00    -0.330 N 
ENDROOT
BRANCH  10  11
HETATM   11  C   UNL     1     -41.926 -49.728  13.589  1.00  0.00     0.167 C 
BRANCH  11  12
HETATM   12  C   UNL     1     -43.046 -50.428  12.797  1.00  0.00     0.169 C 
BRANCH  12  13
HETATM   13  O   UNL     1     -42.582 -51.641  12.202  1.00  0.00    -0.389 OA
HETATM   14  H   UNL     1     -42.765 -52.369  12.816  1.00  0.00     0.210 HD
ENDBRANCH  12  13
BRANCH  12  15
HETATM   15  C   UNL     1     -44.276 -50.776  13.625  1.00  0.00    -0.028 A 
HETATM   16  C   UNL     1     -44.231 -50.580  15.019  1.00  0.00     0.013 A 
HETATM   17  C   UNL     1     -45.336 -50.875  15.823  1.00  0.00     0.043 A 
HETATM   18  C   UNL     1     -46.500 -51.355  15.238  1.00  0.00     0.116 A 
HETATM   19  F   UNL     1     -47.559 -51.639  16.007  1.00  0.00    -0.206 F 
HETATM   20  C   UNL     1     -46.579 -51.542  13.866  1.00  0.00     0.043 A 
HETATM   21  C   UNL     1     -45.477 -51.246  13.058  1.00  0.00     0.013 A 
ENDBRANCH  12  15
ENDBRANCH  11  12
ENDBRANCH  10  11
BRANCH   1  22
HETATM   22  C   UNL     1     -39.130 -50.585  12.580  1.00  0.00     0.240 C 
BRANCH  22  23
HETATM   23  O   UNL     1     -39.676 -51.577  11.722  1.00  0.00    -0.393 OA
HETATM   24  H   UNL     1     -40.609 -51.340  11.587  1.00  0.00     0.209 HD
ENDBRANCH  22  23
ENDBRANCH   1  22
TORSDOF 6
ENDMDL
MODEL 6
REMARK VINA RESULT:      -6.0      4.354      5.665
REMARK  6 active torsions:
REMARK  status: ('A' for Active; 'I' for Inactive)
REMARK    1  A    between atoms: O_1  and  C_2 
REMARK    2  A    between atoms: C_2  and  C_3 
REMARK    3  A    between atoms: N_12  and  C_13 
REMARK    4  A    between atoms: C_13  and  C_14 
REMARK    5  A    between atoms: C_14  and  O_15 
REMARK    6  A    between atoms: C_14  and  C_16 
ROOT
HETATM    1  C   UNL     1     -42.538 -53.391  12.994  1.00  0.00     0.108 A 
HETATM    2  N   UNL     1     -43.459 -53.187  12.071  1.00  0.00    -0.342 N 
ATOM      3  HN  UNL     1     -43.381 -53.381  11.073  1.00  0.00     0.167 HD
HETATM    4  C   UNL     1     -44.541 -52.661  12.726  1.00  0.00     0.060 A 
HETATM    5  C   UNL     1     -45.787 -52.274  12.210  1.00  0.00     0.032 A 
HETATM    6  C   UNL     1     -46.754 -51.764  13.082  1.00  0.00     0.002 A 
HETATM    7  C   UNL     1     -46.486 -51.646  14.447  1.00  0.00     0.002 A 
HETATM    8  C   UNL     1     -45.248 -52.036  14.979  1.00  0.00     0.032 A 
HETATM    9  C   UNL     1     -44.293 -52.541  14.090  1.00  0.00     0.062 A 
HETATM   10  N   UNL     1     -43.006 -53.019  14.241  1.00  0.00    -0.330 N 
ENDROOT
BRANCH  10  11
HETATM   11  C   UNL     1     -42.329 -53.228  15.512  1.00  0.00     0.167 C 
BRANCH  11  12
HETATM   12  C   UNL     1     -42.578 -54.609  16.147  1.00  0.00     0.169 C 
BRANCH  12  13
HETATM   13  O   UNL     1     -43.326 -55.455  15.272  1.00  0.00    -0.389 OA
HETATM   14  H   UNL     1     -42.931 -55.403  14.388  1.00  0.00     0.210 HD
ENDBRANCH  12  13
BRANCH  12  15
HETATM   15  C   UNL     1     -41.311 -55.364  16.526  1.00  0.00    -0.028 A 
HETATM   16  C   UNL     1     -40.070 -54.709  16.398  1.00  0.00     0.013 A 
HETATM   17  C   UNL     1     -38.877 -55.353  16.741  1.00  0.00     0.043 A 
HETATM   18  C   UNL     1     -38.917 -56.653  17.228  1.00  0.00     0.116 A 
HETATM   19  F   UNL     1     -37.776 -57.272  17.555  1.00  0.00    -0.206 F 
HETATM   20  C   UNL     1     -40.125 -57.317  17.380  1.00  0.00     0.043 A 
HETATM   21  C   UNL     1     -41.320 -56.674  17.040  1.00  0.00     0.013 A 
ENDBRANCH  12  15
ENDBRANCH  11  12
ENDBRANCH  10  11
BRANCH   1  22
HETATM   22  C   UNL     1     -41.201 -53.996  12.736  1.00  0.00     0.240 C 
BRANCH  22  23
HETATM   23  O   UNL     1     -40.692 -53.452  11.526  1.00  0.00    -0.393 OA
HETATM   24  H   UNL     1     -39.929 -54.002  11.278  1.00  0.00     0.209 HD
ENDBRANCH  22  23
ENDBRANCH   1  22
TORSDOF 6
ENDMDL
MODEL 7
REMARK VINA RESULT:      -6.0      3.171      6.135
REMARK  6 active torsions:
REMARK  status: ('A' for Active; 'I' for Inactive)
REMARK    1  A    between atoms: O_1  and  C_2 
REMARK    2  A    between atoms: C_2  and  C_3 
REMARK    3  A    between atoms: N_12  and  C_13 
REMARK    4  A    between atoms: C_13  and  C_14 
REMARK    5  A    between atoms: C_14  and  O_15 
REMARK    6  A    between atoms: C_14  and  C_16 
ROOT
HETATM    1  C   UNL     1     -42.321 -53.619  13.666  1.00  0.00     0.108 A 
HETATM    2  N   UNL     1     -43.392 -54.380  13.793  1.00  0.00    -0.342 N 
ATOM      3  HN  UNL     1     -43.421 -55.400  13.808  1.00  0.00     0.167 HD
HETATM    4  C   UNL     1     -44.456 -53.524  13.900  1.00  0.00     0.060 A 
HETATM    5  C   UNL     1     -45.818 -53.819  14.063  1.00  0.00     0.032 A 
HETATM    6  C   UNL     1     -46.733 -52.765  14.158  1.00  0.00     0.002 A 
HETATM    7  C   UNL     1     -46.298 -51.441  14.096  1.00  0.00     0.002 A 
HETATM    8  C   UNL     1     -44.939 -51.130  13.942  1.00  0.00     0.032 A 
HETATM    9  C   UNL     1     -44.039 -52.197  13.846  1.00  0.00     0.062 A 
HETATM   10  N   UNL     1     -42.668 -52.281  13.701  1.00  0.00    -0.330 N 
ENDROOT
BRANCH  10  11
HETATM   11  C   UNL     1     -41.748 -51.154  13.731  1.00  0.00     0.167 C 
BRANCH  11  12
HETATM   12  C   UNL     1     -41.203 -50.740  12.352  1.00  0.00     0.169 C 
BRANCH  12  13
HETATM   13  O   UNL     1     -41.691 -51.601  11.321  1.00  0.00    -0.389 OA
HETATM   14  H   UNL     1     -41.027 -51.636  10.615  1.00  0.00     0.210 HD
ENDBRANCH  12  13
BRANCH  12  15
HETATM   15  C   UNL     1     -41.545 -49.313  11.943  1.00  0.00    -0.028 A 
HETATM   16  C   UNL     1     -42.808 -48.795  12.290  1.00  0.00     0.013 A 
HETATM   17  C   UNL     1     -43.170 -47.489  11.948  1.00  0.00     0.043 A 
HETATM   18  C   UNL     1     -42.265 -46.684  11.268  1.00  0.00     0.116 A 
HETATM   19  F   UNL     1     -42.610 -45.433  10.939  1.00  0.00    -0.206 F 
HETATM   20  C   UNL     1     -41.008 -47.162  10.928  1.00  0.00     0.043 A 
HETATM   21  C   UNL     1     -40.642 -48.467  11.272  1.00  0.00     0.013 A 
ENDBRANCH  12  15
ENDBRANCH  11  12
ENDBRANCH  10  11
BRANCH   1  22
HETATM   22  C   UNL     1     -40.927 -54.131  13.561  1.00  0.00     0.240 C 
BRANCH  22  23
HETATM   23  O   UNL     1     -40.576 -54.192  12.185  1.00  0.00    -0.393 OA
HETATM   24  H   UNL     1     -41.396 -54.035  11.687  1.00  0.00     0.209 HD
ENDBRANCH  22  23
ENDBRANCH   1  22
TORSDOF 6
ENDMDL
MODEL 8
REMARK VINA RESULT:      -5.9      2.640      4.649
REMARK  6 active torsions:
REMARK  status: ('A' for Active; 'I' for Inactive)
REMARK    1  A    between atoms: O_1  and  C_2 
REMARK    2  A    between atoms: C_2  and  C_3 
REMARK    3  A    between atoms: N_12  and  C_13 
REMARK    4  A    between atoms: C_13  and  C_14 
REMARK    5  A    between atoms: C_14  and  O_15 
REMARK    6  A    between atoms: C_14  and  C_16 
ROOT
HETATM    1  C   UNL     1     -39.675 -51.898  13.449  1.00  0.00     0.108 A 
HETATM    2  N   UNL     1     -38.780 -52.783  13.843  1.00  0.00    -0.342 N 
ATOM      3  HN  UNL     1     -37.790 -52.805  13.599  1.00  0.00     0.167 HD
HETATM    4  C   UNL     1     -39.449 -53.667  14.649  1.00  0.00     0.060 A 
HETATM    5  C   UNL     1     -38.959 -54.790  15.332  1.00  0.00     0.032 A 
HETATM    6  C   UNL     1     -39.840 -55.548  16.111  1.00  0.00     0.002 A 
HETATM    7  C   UNL     1     -41.185 -55.188  16.212  1.00  0.00     0.002 A 
HETATM    8  C   UNL     1     -41.688 -54.064  15.542  1.00  0.00     0.032 A 
HETATM    9  C   UNL     1     -40.793 -53.320  14.765  1.00  0.00     0.062 A 
HETATM   10  N   UNL     1     -40.914 -52.182  13.993  1.00  0.00    -0.330 N 
ENDROOT
BRANCH  10  11
HETATM   11  C   UNL     1     -42.107 -51.353  13.897  1.00  0.00     0.167 C 
BRANCH  11  12
HETATM   12  C   UNL     1     -43.117 -51.813  12.830  1.00  0.00     0.169 C 
BRANCH  12  13
HETATM   13  O   UNL     1     -42.464 -52.484  11.750  1.00  0.00    -0.389 OA
HETATM   14  H   UNL     1     -42.714 -53.420  11.779  1.00  0.00     0.210 HD
ENDBRANCH  12  13
BRANCH  12  15
HETATM   15  C   UNL     1     -44.199 -52.750  13.351  1.00  0.00    -0.028 A 
HETATM   16  C   UNL     1     -45.226 -52.217  14.155  1.00  0.00     0.013 A 
HETATM   17  C   UNL     1     -46.248 -53.031  14.652  1.00  0.00     0.043 A 
HETATM   18  C   UNL     1     -46.259 -54.384  14.338  1.00  0.00     0.116 A 
HETATM   19  F   UNL     1     -47.236 -55.165  14.814  1.00  0.00    -0.206 F 
HETATM   20  C   UNL     1     -45.270 -54.933  13.535  1.00  0.00     0.043 A 
HETATM   21  C   UNL     1     -44.248 -54.121  13.035  1.00  0.00     0.013 A 
ENDBRANCH  12  15
ENDBRANCH  11  12
ENDBRANCH  10  11
BRANCH   1  22
HETATM   22  C   UNL     1     -39.378 -50.721  12.585  1.00  0.00     0.240 C 
BRANCH  22  23
HETATM   23  O   UNL     1     -39.957 -50.948  11.307  1.00  0.00    -0.393 OA
HETATM   24  H   UNL     1     -39.689 -50.199  10.748  1.00  0.00     0.209 HD
ENDBRANCH  22  23
ENDBRANCH   1  22
TORSDOF 6
ENDMDL
MODEL 9
REMARK VINA RESULT:      -5.9      2.849      4.279
REMARK  6 active torsions:
REMARK  status: ('A' for Active; 'I' for Inactive)
REMARK    1  A    between atoms: O_1  and  C_2 
REMARK    2  A    between atoms: C_2  and  C_3 
REMARK    3  A    between atoms: N_12  and  C_13 
REMARK    4  A    between atoms: C_13  and  C_14 
REMARK    5  A    between atoms: C_14  and  O_15 
REMARK    6  A    between atoms: C_14  and  C_16 
ROOT
HETATM    1  C   UNL     1     -39.927 -49.299  12.405  1.00  0.00     0.108 A 
HETATM    2  N   UNL     1     -38.856 -48.587  12.698  1.00  0.00    -0.342 N 
ATOM      3  HN  UNL     1     -38.465 -47.816  12.157  1.00  0.00     0.167 HD
HETATM    4  C   UNL     1     -38.374 -49.093  13.876  1.00  0.00     0.060 A 
HETATM    5  C   UNL     1     -37.259 -48.689  14.625  1.00  0.00     0.032 A 
HETATM    6  C   UNL     1     -36.962 -49.358  15.817  1.00  0.00     0.002 A 
HETATM    7  C   UNL     1     -37.767 -50.410  16.257  1.00  0.00     0.002 A 
HETATM    8  C   UNL     1     -38.889 -50.822  15.524  1.00  0.00     0.032 A 
HETATM    9  C   UNL     1     -39.168 -50.142  14.333  1.00  0.00     0.062 A 
HETATM   10  N   UNL     1     -40.160 -50.253  13.379  1.00  0.00    -0.330 N 
ENDROOT
BRANCH  10  11
HETATM   11  C   UNL     1     -41.322 -51.125  13.470  1.00  0.00     0.167 C 
BRANCH  11  12
HETATM   12  C   UNL     1     -41.099 -52.542  12.910  1.00  0.00     0.169 C 
BRANCH  12  13
HETATM   13  O   UNL     1     -40.081 -52.551  11.908  1.00  0.00    -0.389 OA
HETATM   14  H   UNL     1     -39.246 -52.282  12.321  1.00  0.00     0.210 HD
ENDBRANCH  12  13
BRANCH  12  15
HETATM   15  C   UNL     1     -40.706 -53.576  13.958  1.00  0.00    -0.028 A 
HETATM   16  C   UNL     1     -39.379 -54.047  13.978  1.00  0.00     0.013 A 
HETATM   17  C   UNL     1     -38.964 -54.989  14.924  1.00  0.00     0.043 A 
HETATM   18  C   UNL     1     -39.870 -55.458  15.867  1.00  0.00     0.116 A 
HETATM   19  F   UNL     1     -39.474 -56.361  16.772  1.00  0.00    -0.206 F 
HETATM   20  C   UNL     1     -41.179 -55.000  15.881  1.00  0.00     0.043 A 
HETATM   21  C   UNL     1     -41.596 -54.055  14.938  1.00  0.00     0.013 A 
ENDBRANCH  12  15
ENDBRANCH  11  12
ENDBRANCH  10  11
BRANCH   1  22
HETATM   22  C   UNL     1     -40.800 -49.067  11.220  1.00  0.00     0.240 C 
BRANCH  22  23
HETATM   23  O   UNL     1     -40.446 -50.007  10.215  1.00  0.00    -0.393 OA
HETATM   24  H   UNL     1     -39.585 -50.375  10.475  1.00  0.00     0.209 HD
ENDBRANCH  22  23
ENDBRANCH   1  22
TORSDOF 6
ENDMDL
