MODEL 1
REMARK VINA RESULT:      -5.9      0.000      0.000
REMARK  3 active torsions:
REMARK  status: ('A' for Active; 'I' for Inactive)
REMARK    1  A    between atoms: C_2  and  C_3 
REMARK       I    between atoms: C_3  and  N_5 
REMARK    2  A    between atoms: C_8  and  N_10 
REMARK       I    between atoms: N_10  and  C_11 
REMARK       I    between atoms: C_11  and  N_13 
REMARK    3  A    between atoms: N_13  and  C_14 
ROOT
HETATM    1  N   UNL     1     -41.967 -50.957  11.946  1.00  0.00    -0.337 N 
HETATM    2  C   UNL     1     -41.499 -49.659  12.061  1.00  0.00     0.323 C 
HETATM    3  O   UNL     1     -41.128 -49.209  13.141  1.00  0.00    -0.247 OA
HETATM    4  N   UNL     1     -41.560 -48.991  10.872  1.00  0.00    -0.274 N 
HETATM    5  H   UNL     1     -41.737 -51.416  11.075  1.00  0.00     0.164 HD
HETATM    6  H   UNL     1     -42.184 -49.317  10.151  1.00  0.00     0.174 HD
ENDROOT
BRANCH   1   7
HETATM    7  C   UNL     1     -42.033 -51.781  13.156  1.00  0.00     0.105 C 
HETATM    8  C   UNL     1     -42.037 -53.275  12.827  1.00  0.00     0.047 C 
HETATM    9  C   UNL     1     -43.505 -53.609  12.584  1.00  0.00     0.128 C 
HETATM   10  N   UNL     1     -44.261 -52.543  13.214  1.00  0.00    -0.350 N 
HETATM   11  C   UNL     1     -45.613 -52.410  12.981  1.00  0.00     0.219 C 
HETATM   12  C   UNL     1     -43.374 -51.607  13.893  1.00  0.00     0.150 C 
HETATM   13  O   UNL     1     -46.209 -53.175  12.222  1.00  0.00    -0.273 OA
BRANCH  11  14
HETATM   14  C   UNL     1     -46.330 -51.301  13.732  1.00  0.00     0.098 C 
HETATM   15  C   UNL     1     -46.900 -51.785  15.057  1.00  0.00     0.014 C 
ENDBRANCH  11  14
ENDBRANCH   1   7
BRANCH   4  16
HETATM   16  C   UNL     1     -41.169 -47.690  10.755  1.00  0.00     0.231 A 
HETATM   17  N   UNL     1     -39.948 -47.238  10.952  1.00  0.00    -0.330 N 
HETATM   18  C   UNL     1     -40.055 -45.891  10.698  1.00  0.00     0.116 A 
ATOM     19  HN  UNL     1     -39.119 -47.763  11.228  1.00  0.00     0.168 HD
HETATM   20  C   UNL     1     -41.356 -45.577  10.399  1.00  0.00     0.162 A 
HETATM   21  O   UNL     1     -42.082 -46.724  10.441  1.00  0.00    -0.290 OA
ENDBRANCH   4  16
TORSDOF 3
ENDMDL
MODEL 2
REMARK VINA RESULT:      -5.7      2.899      7.015
REMARK  3 active torsions:
REMARK  status: ('A' for Active; 'I' for Inactive)
REMARK    1  A    between atoms: C_2  and  C_3 
REMARK       I    between atoms: C_3  and  N_5 
REMARK    2  A    between atoms: C_8  and  N_10 
REMARK       I    between atoms: N_10  and  C_11 
REMARK       I    between atoms: C_11  and  N_13 
REMARK    3  A    between atoms: N_13  and  C_14 
ROOT
HETATM    1  N   UNL     1     -42.001 -49.061  11.109  1.00  0.00    -0.337 N 
HETATM    2  C   UNL     1     -41.974 -50.176  11.930  1.00  0.00     0.323 C 
HETATM    3  O   UNL     1     -42.695 -50.254  12.920  1.00  0.00    -0.247 OA
HETATM    4  N   UNL     1     -41.045 -51.086  11.517  1.00  0.00    -0.274 N 
HETATM    5  H   UNL     1     -41.856 -49.253  10.127  1.00  0.00     0.164 HD
HETATM    6  H   UNL     1     -40.286 -50.788  10.925  1.00  0.00     0.174 HD
ENDROOT
BRANCH   1   7
HETATM    7  C   UNL     1     -42.900 -47.959  11.464  1.00  0.00     0.105 C 
HETATM    8  C   UNL     1     -43.506 -47.297  10.225  1.00  0.00     0.047 C 
HETATM    9  C   UNL     1     -42.476 -46.253   9.807  1.00  0.00     0.128 C 
HETATM   10  N   UNL     1     -41.652 -46.020  10.978  1.00  0.00    -0.350 N 
HETATM   11  C   UNL     1     -40.479 -45.306  10.879  1.00  0.00     0.219 C 
HETATM   12  C   UNL     1     -42.138 -46.790  12.117  1.00  0.00     0.150 C 
HETATM   13  O   UNL     1     -40.088 -44.865   9.798  1.00  0.00    -0.273 OA
BRANCH  11  14
HETATM   14  C   UNL     1     -39.716 -45.062  12.170  1.00  0.00     0.098 C 
HETATM   15  C   UNL     1     -39.718 -43.593  12.566  1.00  0.00     0.014 C 
ENDBRANCH  11  14
ENDBRANCH   1   7
BRANCH   4  16
HETATM   16  C   UNL     1     -40.831 -52.253  12.190  1.00  0.00     0.231 A 
HETATM   17  N   UNL     1     -41.653 -53.280  12.221  1.00  0.00    -0.330 N 
HETATM   18  C   UNL     1     -40.994 -54.201  13.000  1.00  0.00     0.116 A 
ATOM     19  HN  UNL     1     -42.565 -53.371  11.773  1.00  0.00     0.168 HD
HETATM   20  C   UNL     1     -39.811 -53.671  13.446  1.00  0.00     0.162 A 
HETATM   21  O   UNL     1     -39.700 -52.415  12.940  1.00  0.00    -0.290 OA
ENDBRANCH   4  16
TORSDOF 3
ENDMDL
MODEL 3
REMARK VINA RESULT:      -5.4      3.565      4.654
REMARK  3 active torsions:
REMARK  status: ('A' for Active; 'I' for Inactive)
REMARK    1  A    between atoms: C_2  and  C_3 
REMARK       I    between atoms: C_3  and  N_5 
REMARK    2  A    between atoms: C_8  and  N_10 
REMARK       I    between atoms: N_10  and  C_11 
REMARK       I    between atoms: C_11  and  N_13 
REMARK    3  A    between atoms: N_13  and  C_14 
ROOT
HETATM    1  N   UNL     1     -40.601 -49.296  12.062  1.00  0.00    -0.337 N 
HETATM    2  C   UNL     1     -41.144 -48.271  11.306  1.00  0.00     0.323 C 
HETATM    3  O   UNL     1     -40.605 -47.170  11.246  1.00  0.00    -0.247 OA
HETATM    4  N   UNL     1     -42.320 -48.642  10.719  1.00  0.00    -0.274 N 
HETATM    5  H   UNL     1     -40.724 -50.222  11.673  1.00  0.00     0.164 HD
HETATM    6  H   UNL     1     -42.841 -49.417  11.098  1.00  0.00     0.174 HD
ENDROOT
BRANCH   1   7
HETATM    7  C   UNL     1     -39.372 -49.029  12.814  1.00  0.00     0.105 C 
HETATM    8  C   UNL     1     -38.128 -49.496  12.055  1.00  0.00     0.047 C 
HETATM    9  C   UNL     1     -37.978 -50.965  12.434  1.00  0.00     0.128 C 
HETATM   10  N   UNL     1     -38.742 -51.138  13.655  1.00  0.00    -0.350 N 
HETATM   11  C   UNL     1     -39.011 -52.398  14.141  1.00  0.00     0.219 C 
HETATM   12  C   UNL     1     -39.299 -49.867  14.104  1.00  0.00     0.150 C 
HETATM   13  O   UNL     1     -38.630 -53.408  13.547  1.00  0.00    -0.273 OA
BRANCH  11  14
HETATM   14  C   UNL     1     -39.766 -52.477  15.457  1.00  0.00     0.098 C 
HETATM   15  C   UNL     1     -41.197 -52.955  15.266  1.00  0.00     0.014 C 
ENDBRANCH  11  14
ENDBRANCH   1   7
BRANCH   4  16
HETATM   16  C   UNL     1     -43.041 -47.783   9.944  1.00  0.00     0.231 A 
HETATM   17  N   UNL     1     -42.541 -46.958   9.048  1.00  0.00    -0.330 N 
HETATM   18  C   UNL     1     -43.648 -46.331   8.529  1.00  0.00     0.116 A 
ATOM     19  HN  UNL     1     -41.562 -46.818   8.798  1.00  0.00     0.168 HD
HETATM   20  C   UNL     1     -44.777 -46.775   9.169  1.00  0.00     0.162 A 
HETATM   21  O   UNL     1     -44.397 -47.701  10.088  1.00  0.00    -0.290 OA
ENDBRANCH   4  16
TORSDOF 3
ENDMDL
MODEL 4
REMARK VINA RESULT:      -5.1      2.760      3.164
REMARK  3 active torsions:
REMARK  status: ('A' for Active; 'I' for Inactive)
REMARK    1  A    between atoms: C_2  and  C_3 
REMARK       I    between atoms: C_3  and  N_5 
REMARK    2  A    between atoms: C_8  and  N_10 
REMARK       I    between atoms: N_10  and  C_11 
REMARK       I    between atoms: C_11  and  N_13 
REMARK    3  A    between atoms: N_13  and  C_14 
ROOT
HETATM    1  N   UNL     1     -41.402 -53.269  13.908  1.00  0.00    -0.337 N 
HETATM    2  C   UNL     1     -40.635 -52.117  13.859  1.00  0.00     0.323 C 
HETATM    3  O   UNL     1     -40.564 -51.357  14.819  1.00  0.00    -0.247 OA
HETATM    4  N   UNL     1     -40.052 -51.949  12.635  1.00  0.00    -0.274 N 
HETATM    5  H   UNL     1     -41.023 -54.054  13.396  1.00  0.00     0.164 HD
HETATM    6  H   UNL     1     -40.439 -52.419  11.832  1.00  0.00     0.174 HD
ENDROOT
BRANCH   1   7
HETATM    7  C   UNL     1     -42.151 -53.551  15.136  1.00  0.00     0.105 C 
HETATM    8  C   UNL     1     -42.684 -54.986  15.160  1.00  0.00     0.047 C 
HETATM    9  C   UNL     1     -44.018 -54.911  14.426  1.00  0.00     0.128 C 
HETATM   10  N   UNL     1     -44.406 -53.514  14.455  1.00  0.00    -0.350 N 
HETATM   11  C   UNL     1     -45.449 -53.060  13.676  1.00  0.00     0.219 C 
HETATM   12  C   UNL     1     -43.448 -52.723  15.216  1.00  0.00     0.150 C 
HETATM   13  O   UNL     1     -46.063 -53.818  12.924  1.00  0.00    -0.273 OA
BRANCH  11  14
HETATM   14  C   UNL     1     -45.821 -51.594  13.820  1.00  0.00     0.098 C 
HETATM   15  C   UNL     1     -46.851 -51.372  14.917  1.00  0.00     0.014 C 
ENDBRANCH  11  14
ENDBRANCH   1   7
BRANCH   4  16
HETATM   16  C   UNL     1     -39.268 -50.870  12.353  1.00  0.00     0.231 A 
HETATM   17  N   UNL     1     -39.648 -49.611  12.415  1.00  0.00    -0.330 N 
HETATM   18  C   UNL     1     -38.518 -48.913  12.064  1.00  0.00     0.116 A 
ATOM     19  HN  UNL     1     -40.565 -49.242  12.665  1.00  0.00     0.168 HD
HETATM   20  C   UNL     1     -37.506 -49.788  11.760  1.00  0.00     0.162 A 
HETATM   21  O   UNL     1     -37.981 -51.049  11.932  1.00  0.00    -0.290 OA
ENDBRANCH   4  16
TORSDOF 3
ENDMDL
MODEL 5
REMARK VINA RESULT:      -5.0      2.825      7.029
REMARK  3 active torsions:
REMARK  status: ('A' for Active; 'I' for Inactive)
REMARK    1  A    between atoms: C_2  and  C_3 
REMARK       I    between atoms: C_3  and  N_5 
REMARK    2  A    between atoms: C_8  and  N_10 
REMARK       I    between atoms: N_10  and  C_11 
REMARK       I    between atoms: C_11  and  N_13 
REMARK    3  A    between atoms: N_13  and  C_14 
ROOT
HETATM    1  N   UNL     1     -41.815 -51.286  11.875  1.00  0.00    -0.337 N 
HETATM    2  C   UNL     1     -42.726 -51.800  12.783  1.00  0.00     0.323 C 
HETATM    3  O   UNL     1     -43.096 -51.145  13.752  1.00  0.00    -0.247 OA
HETATM    4  N   UNL     1     -43.080 -53.082  12.474  1.00  0.00    -0.274 N 
HETATM    5  H   UNL     1     -41.963 -51.573  10.917  1.00  0.00     0.164 HD
HETATM    6  H   UNL     1     -42.479 -53.636  11.886  1.00  0.00     0.174 HD
ENDROOT
BRANCH   1   7
HETATM    7  C   UNL     1     -41.282 -49.942  12.111  1.00  0.00     0.105 C 
HETATM    8  C   UNL     1     -40.400 -49.467  10.954  1.00  0.00     0.047 C 
HETATM    9  C   UNL     1     -39.015 -50.016  11.278  1.00  0.00     0.128 C 
HETATM   10  N   UNL     1     -39.030 -50.311  12.698  1.00  0.00    -0.350 N 
HETATM   11  C   UNL     1     -38.013 -51.040  13.274  1.00  0.00     0.219 C 
HETATM   12  C   UNL     1     -40.300 -49.918  13.298  1.00  0.00     0.150 C 
HETATM   13  O   UNL     1     -37.079 -51.477  12.600  1.00  0.00    -0.273 OA
BRANCH  11  14
HETATM   14  C   UNL     1     -38.085 -51.245  14.778  1.00  0.00     0.098 C 
HETATM   15  C   UNL     1     -37.281 -50.199  15.535  1.00  0.00     0.014 C 
ENDBRANCH  11  14
ENDBRANCH   1   7
BRANCH   4  16
HETATM   16  C   UNL     1     -43.952 -53.793  13.245  1.00  0.00     0.231 A 
HETATM   17  N   UNL     1     -43.953 -53.833  14.560  1.00  0.00    -0.330 N 
HETATM   18  C   UNL     1     -45.013 -54.655  14.860  1.00  0.00     0.116 A 
ATOM     19  HN  UNL     1     -43.317 -53.364  15.205  1.00  0.00     0.168 HD
HETATM   20  C   UNL     1     -45.586 -55.116  13.702  1.00  0.00     0.162 A 
HETATM   21  O   UNL     1     -44.905 -54.576  12.658  1.00  0.00    -0.290 OA
ENDBRANCH   4  16
TORSDOF 3
ENDMDL
MODEL 6
REMARK VINA RESULT:      -5.0      2.161      2.855
REMARK  3 active torsions:
REMARK  status: ('A' for Active; 'I' for Inactive)
REMARK    1  A    between atoms: C_2  and  C_3 
REMARK       I    between atoms: C_3  and  N_5 
REMARK    2  A    between atoms: C_8  and  N_10 
REMARK       I    between atoms: N_10  and  C_11 
REMARK       I    between atoms: C_11  and  N_13 
REMARK    3  A    between atoms: N_13  and  C_14 
ROOT
HETATM    1  N   UNL     1     -42.985 -52.534  12.173  1.00  0.00    -0.337 N 
HETATM    2  C   UNL     1     -41.739 -51.968  12.389  1.00  0.00     0.323 C 
HETATM    3  O   UNL     1     -40.991 -52.392  13.263  1.00  0.00    -0.247 OA
HETATM    4  N   UNL     1     -41.517 -50.904  11.562  1.00  0.00    -0.274 N 
HETATM    5  H   UNL     1     -43.283 -52.550  11.207  1.00  0.00     0.164 HD
HETATM    6  H   UNL     1     -42.300 -50.431  11.140  1.00  0.00     0.174 HD
ENDROOT
BRANCH   1   7
HETATM    7  C   UNL     1     -43.401 -53.644  13.034  1.00  0.00     0.105 C 
HETATM    8  C   UNL     1     -44.753 -54.220  12.606  1.00  0.00     0.047 C 
HETATM    9  C   UNL     1     -45.782 -53.350  13.320  1.00  0.00     0.128 C 
HETATM   10  N   UNL     1     -45.070 -52.710  14.409  1.00  0.00    -0.350 N 
HETATM   11  C   UNL     1     -45.649 -51.676  15.112  1.00  0.00     0.219 C 
HETATM   12  C   UNL     1     -43.690 -53.173  14.473  1.00  0.00     0.150 C 
HETATM   13  O   UNL     1     -46.769 -51.254  14.824  1.00  0.00    -0.273 OA
BRANCH  11  14
HETATM   14  C   UNL     1     -44.851 -51.110  16.275  1.00  0.00     0.098 C 
HETATM   15  C   UNL     1     -44.068 -49.867  15.879  1.00  0.00     0.014 C 
ENDBRANCH  11  14
ENDBRANCH   1   7
BRANCH   4  16
HETATM   16  C   UNL     1     -40.362 -50.181  11.614  1.00  0.00     0.231 A 
HETATM   17  N   UNL     1     -39.145 -50.679  11.552  1.00  0.00    -0.330 N 
HETATM   18  C   UNL     1     -38.336 -49.570  11.624  1.00  0.00     0.116 A 
ATOM     19  HN  UNL     1     -38.867 -51.657  11.471  1.00  0.00     0.168 HD
HETATM   20  C   UNL     1     -39.104 -48.443  11.771  1.00  0.00     0.162 A 
HETATM   21  O   UNL     1     -40.407 -48.826  11.775  1.00  0.00    -0.290 OA
ENDBRANCH   4  16
TORSDOF 3
ENDMDL
MODEL 7
REMARK VINA RESULT:      -5.0      1.842      6.750
REMARK  3 active torsions:
REMARK  status: ('A' for Active; 'I' for Inactive)
REMARK    1  A    between atoms: C_2  and  C_3 
REMARK       I    between atoms: C_3  and  N_5 
REMARK    2  A    between atoms: C_8  and  N_10 
REMARK       I    between atoms: N_10  and  C_11 
REMARK       I    between atoms: C_11  and  N_13 
REMARK    3  A    between atoms: N_13  and  C_14 
ROOT
HETATM    1  N   UNL     1     -42.551 -50.012  12.039  1.00  0.00    -0.337 N 
HETATM    2  C   UNL     1     -42.611 -51.304  12.534  1.00  0.00     0.323 C 
HETATM    3  O   UNL     1     -41.604 -51.998  12.626  1.00  0.00    -0.247 OA
HETATM    4  N   UNL     1     -43.891 -51.672  12.835  1.00  0.00    -0.274 N 
HETATM    5  H   UNL     1     -43.196 -49.362  12.468  1.00  0.00     0.164 HD
HETATM    6  H   UNL     1     -44.662 -51.181  12.411  1.00  0.00     0.174 HD
ENDROOT
BRANCH   1   7
HETATM    7  C   UNL     1     -41.251 -49.496  11.602  1.00  0.00     0.105 C 
HETATM    8  C   UNL     1     -40.589 -48.635  12.679  1.00  0.00     0.047 C 
HETATM    9  C   UNL     1     -41.158 -47.239  12.456  1.00  0.00     0.128 C 
HETATM   10  N   UNL     1     -41.669 -47.233  11.099  1.00  0.00    -0.350 N 
HETATM   11  C   UNL     1     -42.462 -46.199  10.653  1.00  0.00     0.219 C 
HETATM   12  C   UNL     1     -41.395 -48.501  10.434  1.00  0.00     0.150 C 
HETATM   13  O   UNL     1     -42.774 -45.266  11.395  1.00  0.00    -0.273 OA
BRANCH  11  14
HETATM   14  C   UNL     1     -42.899 -46.251   9.199  1.00  0.00     0.098 C 
HETATM   15  C   UNL     1     -44.413 -46.310   9.060  1.00  0.00     0.014 C 
ENDBRANCH  11  14
ENDBRANCH   1   7
BRANCH   4  16
HETATM   16  C   UNL     1     -44.190 -52.911  13.319  1.00  0.00     0.231 A 
HETATM   17  N   UNL     1     -43.579 -53.509  14.320  1.00  0.00    -0.330 N 
HETATM   18  C   UNL     1     -44.242 -54.707  14.438  1.00  0.00     0.116 A 
ATOM     19  HN  UNL     1     -42.797 -53.164  14.877  1.00  0.00     0.168 HD
HETATM   20  C   UNL     1     -45.206 -54.802  13.467  1.00  0.00     0.162 A 
HETATM   21  O   UNL     1     -45.174 -53.657  12.736  1.00  0.00    -0.290 OA
ENDBRANCH   4  16
TORSDOF 3
ENDMDL
MODEL 8
REMARK VINA RESULT:      -4.9     19.734     21.955
REMARK  3 active torsions:
REMARK  status: ('A' for Active; 'I' for Inactive)
REMARK    1  A    between atoms: C_2  and  C_3 
REMARK       I    between atoms: C_3  and  N_5 
REMARK    2  A    between atoms: C_8  and  N_10 
REMARK       I    between atoms: N_10  and  C_11 
REMARK       I    between atoms: C_11  and  N_13 
REMARK    3  A    between atoms: N_13  and  C_14 
ROOT
HETATM    1  N   UNL     1     -27.166 -44.421  -0.720  1.00  0.00    -0.337 N 
HETATM    2  C   UNL     1     -28.019 -44.661  -1.785  1.00  0.00     0.323 C 
HETATM    3  O   UNL     1     -27.717 -44.335  -2.928  1.00  0.00    -0.247 OA
HETATM    4  N   UNL     1     -29.189 -45.233  -1.376  1.00  0.00    -0.274 N 
HETATM    5  H   UNL     1     -27.180 -45.128   0.003  1.00  0.00     0.164 HD
HETATM    6  H   UNL     1     -29.479 -45.141  -0.415  1.00  0.00     0.174 HD
ENDROOT
BRANCH   1   7
HETATM    7  C   UNL     1     -25.895 -43.743  -0.989  1.00  0.00     0.105 C 
HETATM    8  C   UNL     1     -24.875 -43.983   0.127  1.00  0.00     0.047 C 
HETATM    9  C   UNL     1     -25.174 -42.900   1.158  1.00  0.00     0.128 C 
HETATM   10  N   UNL     1     -25.922 -41.878   0.451  1.00  0.00    -0.350 N 
HETATM   11  C   UNL     1     -26.553 -40.867   1.142  1.00  0.00     0.219 C 
HETATM   12  C   UNL     1     -26.049 -42.210  -0.963  1.00  0.00     0.150 C 
HETATM   13  O   UNL     1     -26.517 -40.815   2.372  1.00  0.00    -0.273 OA
BRANCH  11  14
HETATM   14  C   UNL     1     -27.260 -39.809   0.312  1.00  0.00     0.098 C 
HETATM   15  C   UNL     1     -26.350 -38.634  -0.009  1.00  0.00     0.014 C 
ENDBRANCH  11  14
ENDBRANCH   1   7
BRANCH   4  16
HETATM   16  C   UNL     1     -30.186 -45.539  -2.254  1.00  0.00     0.231 A 
HETATM   17  N   UNL     1     -30.619 -44.759  -3.222  1.00  0.00    -0.330 N 
HETATM   18  C   UNL     1     -31.599 -45.507  -3.830  1.00  0.00     0.116 A 
ATOM     19  HN  UNL     1     -30.302 -43.820  -3.464  1.00  0.00     0.168 HD
HETATM   20  C   UNL     1     -31.749 -46.700  -3.170  1.00  0.00     0.162 A 
HETATM   21  O   UNL     1     -30.852 -46.727  -2.150  1.00  0.00    -0.290 OA
ENDBRANCH   4  16
TORSDOF 3
ENDMDL
MODEL 9
REMARK VINA RESULT:      -4.7      3.068      3.683
REMARK  3 active torsions:
REMARK  status: ('A' for Active; 'I' for Inactive)
REMARK    1  A    between atoms: C_2  and  C_3 
REMARK       I    between atoms: C_3  and  N_5 
REMARK    2  A    between atoms: C_8  and  N_10 
REMARK       I    between atoms: N_10  and  C_11 
REMARK       I    between atoms: C_11  and  N_13 
REMARK    3  A    between atoms: N_13  and  C_14 
ROOT
HETATM    1  N   UNL     1     -42.408 -52.548  13.289  1.00  0.00    -0.337 N 
HETATM    2  C   UNL     1     -41.165 -52.217  12.776  1.00  0.00     0.323 C 
HETATM    3  O   UNL     1     -40.454 -53.059  12.236  1.00  0.00    -0.247 OA
HETATM    4  N   UNL     1     -40.859 -50.905  12.999  1.00  0.00    -0.274 N 
HETATM    5  H   UNL     1     -43.109 -51.824  13.204  1.00  0.00     0.164 HD
HETATM    6  H   UNL     1     -41.332 -50.402  13.732  1.00  0.00     0.174 HD
ENDROOT
BRANCH   1   7
HETATM    7  C   UNL     1     -42.849 -53.942  13.193  1.00  0.00     0.105 C 
HETATM    8  C   UNL     1     -44.215 -54.061  12.513  1.00  0.00     0.047 C 
HETATM    9  C   UNL     1     -45.222 -53.875  13.643  1.00  0.00     0.128 C 
HETATM   10  N   UNL     1     -44.493 -54.142  14.868  1.00  0.00    -0.350 N 
HETATM   11  C   UNL     1     -45.045 -53.835  16.093  1.00  0.00     0.219 C 
HETATM   12  C   UNL     1     -43.124 -54.551  14.581  1.00  0.00     0.150 C 
HETATM   13  O   UNL     1     -46.156 -53.311  16.180  1.00  0.00    -0.273 OA
BRANCH  11  14
HETATM   14  C   UNL     1     -44.232 -54.207  17.321  1.00  0.00     0.098 C 
HETATM   15  C   UNL     1     -45.017 -54.003  18.608  1.00  0.00     0.014 C 
ENDBRANCH  11  14
ENDBRANCH   1   7
BRANCH   4  16
HETATM   16  C   UNL     1     -39.674 -50.364  12.597  1.00  0.00     0.231 A 
HETATM   17  N   UNL     1     -39.160 -50.458  11.388  1.00  0.00    -0.330 N 
HETATM   18  C   UNL     1     -37.988 -49.745  11.476  1.00  0.00     0.116 A 
ATOM     19  HN  UNL     1     -39.542 -50.945  10.578  1.00  0.00     0.168 HD
HETATM   20  C   UNL     1     -37.820 -49.283  12.756  1.00  0.00     0.162 A 
HETATM   21  O   UNL     1     -38.892 -49.683  13.487  1.00  0.00    -0.290 OA
ENDBRANCH   4  16
TORSDOF 3
ENDMDL
