MODEL 1
REMARK VINA RESULT:      -5.5      0.000      0.000
REMARK  3 active torsions:
REMARK  status: ('A' for Active; 'I' for Inactive)
REMARK    1  A    between atoms: C_8  and  C_9 
REMARK    2  A    between atoms: C_9  and  C_10 
REMARK       I    between atoms: C_10  and  N_12 
REMARK    3  A    between atoms: N_12  and  C_13 
ROOT
HETATM    1  C   UNL     1     -42.346 -48.704  11.494  1.00  0.00     0.222 C 
HETATM    2  O   UNL     1     -42.898 -48.092  12.403  1.00  0.00    -0.273 OA
HETATM    3  N   UNL     1     -41.937 -50.019  11.605  1.00  0.00    -0.356 N 
HETATM    4  H   UNL     1     -41.819 -50.531  10.738  1.00  0.00     0.162 HD
ENDROOT
BRANCH   1   5
HETATM    5  C   UNL     1     -41.998 -48.049  10.172  1.00  0.00     0.146 C 
BRANCH   5   6
HETATM    6  C   UNL     1     -42.723 -46.781   9.886  1.00  0.00     0.006 A 
HETATM    7  C   UNL     1     -44.015 -46.554   9.323  1.00  0.00     0.038 A 
HETATM    8  C   UNL     1     -45.023 -47.528   8.835  1.00  0.00     0.071 C 
HETATM    9  N   UNL     1     -44.298 -45.246   9.267  1.00  0.00    -0.265 N 
HETATM   10  O   UNL     1     -43.217 -44.597   9.820  1.00  0.00    -0.242 OA
ATOM     11  HN  UNL     1     -45.144 -44.817   8.891  1.00  0.00     0.194 HD
HETATM   12  C   UNL     1     -42.285 -45.508  10.195  1.00  0.00     0.081 A 
HETATM   13  C   UNL     1     -41.075 -44.967  10.845  1.00  0.00     0.079 C 
ENDBRANCH   5   6
ENDBRANCH   1   5
BRANCH   3  14
HETATM   14  C   UNL     1     -42.077 -50.789  12.846  1.00  0.00     0.088 C 
HETATM   15  C   UNL     1     -40.845 -50.660  13.753  1.00  0.00     0.051 C 
HETATM   16  C   UNL     1     -39.644 -51.340  13.115  1.00  0.00     0.169 C 
HETATM   17  O   UNL     1     -39.922 -52.722  12.891  1.00  0.00    -0.391 OA
HETATM   18  C   UNL     1     -41.020 -52.922  12.003  1.00  0.00     0.169 C 
HETATM   19  C   UNL     1     -42.295 -52.276  12.539  1.00  0.00     0.051 C 
ENDBRANCH   3  14
TORSDOF 3
ENDMDL
MODEL 2
REMARK VINA RESULT:      -5.5      5.751      8.646
REMARK  3 active torsions:
REMARK  status: ('A' for Active; 'I' for Inactive)
REMARK    1  A    between atoms: C_8  and  C_9 
REMARK    2  A    between atoms: C_9  and  C_10 
REMARK       I    between atoms: C_10  and  N_12 
REMARK    3  A    between atoms: N_12  and  C_13 
ROOT
HETATM    1  C   UNL     1     -43.260 -54.579  15.178  1.00  0.00     0.222 C 
HETATM    2  O   UNL     1     -43.560 -55.764  15.091  1.00  0.00    -0.273 OA
HETATM    3  N   UNL     1     -44.016 -53.562  14.627  1.00  0.00    -0.356 N 
HETATM    4  H   UNL     1     -43.895 -52.638  15.028  1.00  0.00     0.162 HD
ENDROOT
BRANCH   1   5
HETATM    5  C   UNL     1     -41.982 -54.115  15.849  1.00  0.00     0.146 C 
BRANCH   5   6
HETATM    6  C   UNL     1     -40.724 -54.571  15.195  1.00  0.00     0.006 A 
HETATM    7  C   UNL     1     -40.184 -54.273  13.908  1.00  0.00     0.038 A 
HETATM    8  C   UNL     1     -40.731 -53.423  12.821  1.00  0.00     0.071 C 
HETATM    9  N   UNL     1     -39.001 -54.874  13.728  1.00  0.00    -0.265 N 
HETATM   10  O   UNL     1     -38.730 -55.546  14.898  1.00  0.00    -0.242 OA
ATOM     11  HN  UNL     1     -38.418 -54.841  12.891  1.00  0.00     0.194 HD
HETATM   12  C   UNL     1     -39.749 -55.360  15.773  1.00  0.00     0.081 A 
HETATM   13  C   UNL     1     -39.588 -55.989  17.099  1.00  0.00     0.079 C 
ENDBRANCH   5   6
ENDBRANCH   1   5
BRANCH   3  14
HETATM   14  C   UNL     1     -45.226 -53.816  13.836  1.00  0.00     0.088 C 
HETATM   15  C   UNL     1     -45.357 -52.851  12.648  1.00  0.00     0.051 C 
HETATM   16  C   UNL     1     -45.615 -51.436  13.141  1.00  0.00     0.169 C 
HETATM   17  O   UNL     1     -46.813 -51.396  13.917  1.00  0.00    -0.391 OA
HETATM   18  C   UNL     1     -46.742 -52.222  15.076  1.00  0.00     0.169 C 
HETATM   19  C   UNL     1     -46.481 -53.679  14.708  1.00  0.00     0.051 C 
ENDBRANCH   3  14
TORSDOF 3
ENDMDL
MODEL 3
REMARK VINA RESULT:      -5.4      5.296      6.977
REMARK  3 active torsions:
REMARK  status: ('A' for Active; 'I' for Inactive)
REMARK    1  A    between atoms: C_8  and  C_9 
REMARK    2  A    between atoms: C_9  and  C_10 
REMARK       I    between atoms: C_10  and  N_12 
REMARK    3  A    between atoms: N_12  and  C_13 
ROOT
HETATM    1  C   UNL     1     -44.127 -54.863  14.319  1.00  0.00     0.222 C 
HETATM    2  O   UNL     1     -43.816 -55.745  15.112  1.00  0.00    -0.273 OA
HETATM    3  N   UNL     1     -43.213 -54.001  13.745  1.00  0.00    -0.356 N 
HETATM    4  H   UNL     1     -43.491 -53.558  12.876  1.00  0.00     0.162 HD
ENDROOT
BRANCH   1   5
HETATM    5  C   UNL     1     -45.569 -54.590  13.938  1.00  0.00     0.146 C 
BRANCH   5   6
HETATM    6  C   UNL     1     -46.122 -53.303  14.442  1.00  0.00     0.006 A 
HETATM    7  C   UNL     1     -46.295 -52.823  15.775  1.00  0.00     0.038 A 
HETATM    8  C   UNL     1     -45.986 -53.480  17.069  1.00  0.00     0.071 C 
HETATM    9  N   UNL     1     -46.805 -51.585  15.783  1.00  0.00    -0.265 N 
HETATM   10  O   UNL     1     -46.944 -51.219  14.463  1.00  0.00    -0.242 OA
ATOM     11  HN  UNL     1     -47.043 -51.025  16.602  1.00  0.00     0.194 HD
HETATM   12  C   UNL     1     -46.531 -52.235  13.666  1.00  0.00     0.081 A 
HETATM   13  C   UNL     1     -46.582 -51.981  12.213  1.00  0.00     0.079 C 
ENDBRANCH   5   6
ENDBRANCH   1   5
BRANCH   3  14
HETATM   14  C   UNL     1     -41.784 -54.028  14.078  1.00  0.00     0.088 C 
HETATM   15  C   UNL     1     -41.371 -52.843  14.964  1.00  0.00     0.051 C 
HETATM   16  C   UNL     1     -41.471 -51.541  14.186  1.00  0.00     0.169 C 
HETATM   17  O   UNL     1     -40.626 -51.587  13.036  1.00  0.00    -0.391 OA
HETATM   18  C   UNL     1     -40.990 -52.627  12.132  1.00  0.00     0.169 C 
HETATM   19  C   UNL     1     -40.931 -53.996  12.804  1.00  0.00     0.051 C 
ENDBRANCH   3  14
TORSDOF 3
ENDMDL
MODEL 4
REMARK VINA RESULT:      -5.3      5.609      8.453
REMARK  3 active torsions:
REMARK  status: ('A' for Active; 'I' for Inactive)
REMARK    1  A    between atoms: C_8  and  C_9 
REMARK    2  A    between atoms: C_9  and  C_10 
REMARK       I    between atoms: C_10  and  N_12 
REMARK    3  A    between atoms: N_12  and  C_13 
ROOT
HETATM    1  C   UNL     1     -43.248 -54.453  15.164  1.00  0.00     0.222 C 
HETATM    2  O   UNL     1     -43.476 -55.649  15.027  1.00  0.00    -0.273 OA
HETATM    3  N   UNL     1     -44.076 -53.461  14.673  1.00  0.00    -0.356 N 
HETATM    4  H   UNL     1     -44.005 -52.551  15.115  1.00  0.00     0.162 HD
ENDROOT
BRANCH   1   5
HETATM    5  C   UNL     1     -41.990 -53.940  15.837  1.00  0.00     0.146 C 
BRANCH   5   6
HETATM    6  C   UNL     1     -40.724 -54.225  15.108  1.00  0.00     0.006 A 
HETATM    7  C   UNL     1     -39.644 -55.103  15.427  1.00  0.00     0.038 A 
HETATM    8  C   UNL     1     -39.454 -55.987  16.604  1.00  0.00     0.071 C 
HETATM    9  N   UNL     1     -38.703 -55.081  14.475  1.00  0.00    -0.265 N 
HETATM   10  O   UNL     1     -39.162 -54.221  13.503  1.00  0.00    -0.242 OA
ATOM     11  HN  UNL     1     -37.824 -55.598  14.470  1.00  0.00     0.194 HD
HETATM   12  C   UNL     1     -40.365 -53.718  13.874  1.00  0.00     0.081 A 
HETATM   13  C   UNL     1     -41.011 -52.803  12.913  1.00  0.00     0.079 C 
ENDBRANCH   5   6
ENDBRANCH   1   5
BRANCH   3  14
HETATM   14  C   UNL     1     -45.282 -53.754  13.890  1.00  0.00     0.088 C 
HETATM   15  C   UNL     1     -45.419 -52.834  12.667  1.00  0.00     0.051 C 
HETATM   16  C   UNL     1     -45.690 -51.405  13.109  1.00  0.00     0.169 C 
HETATM   17  O   UNL     1     -46.891 -51.347  13.880  1.00  0.00    -0.391 OA
HETATM   18  C   UNL     1     -46.815 -52.130  15.068  1.00  0.00     0.169 C 
HETATM   19  C   UNL     1     -46.540 -53.598  14.753  1.00  0.00     0.051 C 
ENDBRANCH   3  14
TORSDOF 3
ENDMDL
MODEL 5
REMARK VINA RESULT:      -5.3      2.249      2.725
REMARK  3 active torsions:
REMARK  status: ('A' for Active; 'I' for Inactive)
REMARK    1  A    between atoms: C_8  and  C_9 
REMARK    2  A    between atoms: C_9  and  C_10 
REMARK       I    between atoms: C_10  and  N_12 
REMARK    3  A    between atoms: N_12  and  C_13 
ROOT
HETATM    1  C   UNL     1     -42.941 -49.231  12.463  1.00  0.00     0.222 C 
HETATM    2  O   UNL     1     -43.078 -48.471  13.416  1.00  0.00    -0.273 OA
HETATM    3  N   UNL     1     -43.449 -50.516  12.439  1.00  0.00    -0.356 N 
HETATM    4  H   UNL     1     -43.592 -50.929  11.524  1.00  0.00     0.162 HD
ENDROOT
BRANCH   1   5
HETATM    5  C   UNL     1     -42.139 -48.852  11.235  1.00  0.00     0.146 C 
BRANCH   5   6
HETATM    6  C   UNL     1     -42.444 -47.508  10.671  1.00  0.00     0.006 A 
HETATM    7  C   UNL     1     -43.645 -46.991  10.097  1.00  0.00     0.038 A 
HETATM    8  C   UNL     1     -44.954 -47.653   9.875  1.00  0.00     0.071 C 
HETATM    9  N   UNL     1     -43.498 -45.709   9.739  1.00  0.00    -0.265 N 
HETATM   10  O   UNL     1     -42.218 -45.354  10.100  1.00  0.00    -0.242 OA
ATOM     11  HN  UNL     1     -44.195 -45.115   9.290  1.00  0.00     0.194 HD
HETATM   12  C   UNL     1     -41.594 -46.419  10.660  1.00  0.00     0.081 A 
HETATM   13  C   UNL     1     -40.217 -46.187  11.138  1.00  0.00     0.079 C 
ENDBRANCH   5   6
ENDBRANCH   1   5
BRANCH   3  14
HETATM   14  C   UNL     1     -44.155 -51.109  13.580  1.00  0.00     0.088 C 
HETATM   15  C   UNL     1     -43.637 -52.516  13.917  1.00  0.00     0.051 C 
HETATM   16  C   UNL     1     -43.995 -53.490  12.806  1.00  0.00     0.169 C 
HETATM   17  O   UNL     1     -45.411 -53.538  12.630  1.00  0.00    -0.391 OA
HETATM   18  C   UNL     1     -45.958 -52.277  12.253  1.00  0.00     0.169 C 
HETATM   19  C   UNL     1     -45.659 -51.205  13.297  1.00  0.00     0.051 C 
ENDBRANCH   3  14
TORSDOF 3
ENDMDL
MODEL 6
REMARK VINA RESULT:      -5.2      5.234      6.992
REMARK  3 active torsions:
REMARK  status: ('A' for Active; 'I' for Inactive)
REMARK    1  A    between atoms: C_8  and  C_9 
REMARK    2  A    between atoms: C_9  and  C_10 
REMARK       I    between atoms: C_10  and  N_12 
REMARK    3  A    between atoms: N_12  and  C_13 
ROOT
HETATM    1  C   UNL     1     -43.980 -54.926  14.385  1.00  0.00     0.222 C 
HETATM    2  O   UNL     1     -43.633 -55.821  15.148  1.00  0.00    -0.273 OA
HETATM    3  N   UNL     1     -43.096 -54.033  13.811  1.00  0.00    -0.356 N 
HETATM    4  H   UNL     1     -43.404 -53.574  12.960  1.00  0.00     0.162 HD
ENDROOT
BRANCH   1   5
HETATM    5  C   UNL     1     -45.436 -54.670  14.047  1.00  0.00     0.146 C 
BRANCH   5   6
HETATM    6  C   UNL     1     -45.984 -53.380  14.551  1.00  0.00     0.006 A 
HETATM    7  C   UNL     1     -46.477 -52.241  13.847  1.00  0.00     0.038 A 
HETATM    8  C   UNL     1     -46.574 -51.995  12.386  1.00  0.00     0.071 C 
HETATM    9  N   UNL     1     -46.909 -51.297  14.693  1.00  0.00    -0.265 N 
HETATM   10  O   UNL     1     -46.740 -51.811  15.958  1.00  0.00    -0.242 OA
ATOM     11  HN  UNL     1     -47.287 -50.382  14.448  1.00  0.00     0.194 HD
HETATM   12  C   UNL     1     -46.198 -53.051  15.875  1.00  0.00     0.081 A 
HETATM   13  C   UNL     1     -45.990 -53.755  17.155  1.00  0.00     0.079 C 
ENDBRANCH   5   6
ENDBRANCH   1   5
BRANCH   3  14
HETATM   14  C   UNL     1     -41.659 -54.041  14.107  1.00  0.00     0.088 C 
HETATM   15  C   UNL     1     -41.241 -52.859  14.995  1.00  0.00     0.051 C 
HETATM   16  C   UNL     1     -41.381 -51.551  14.234  1.00  0.00     0.169 C 
HETATM   17  O   UNL     1     -40.564 -51.573  13.063  1.00  0.00    -0.391 OA
HETATM   18  C   UNL     1     -40.936 -52.610  12.157  1.00  0.00     0.169 C 
HETATM   19  C   UNL     1     -40.839 -53.985  12.813  1.00  0.00     0.051 C 
ENDBRANCH   3  14
TORSDOF 3
ENDMDL
MODEL 7
REMARK VINA RESULT:      -5.2      3.809      5.887
REMARK  3 active torsions:
REMARK  status: ('A' for Active; 'I' for Inactive)
REMARK    1  A    between atoms: C_8  and  C_9 
REMARK    2  A    between atoms: C_9  and  C_10 
REMARK       I    between atoms: C_10  and  N_12 
REMARK    3  A    between atoms: N_12  and  C_13 
ROOT
HETATM    1  C   UNL     1     -42.805 -51.793  12.956  1.00  0.00     0.222 C 
HETATM    2  O   UNL     1     -42.557 -52.575  12.044  1.00  0.00    -0.273 OA
HETATM    3  N   UNL     1     -44.065 -51.640  13.501  1.00  0.00    -0.356 N 
HETATM    4  H   UNL     1     -44.110 -51.255  14.438  1.00  0.00     0.162 HD
ENDROOT
BRANCH   1   5
HETATM    5  C   UNL     1     -41.756 -50.864  13.534  1.00  0.00     0.146 C 
BRANCH   5   6
HETATM    6  C   UNL     1     -40.518 -50.726  12.719  1.00  0.00     0.006 A 
HETATM    7  C   UNL     1     -40.231 -49.893  11.596  1.00  0.00     0.038 A 
HETATM    8  C   UNL     1     -41.100 -48.920  10.888  1.00  0.00     0.071 C 
HETATM    9  N   UNL     1     -38.970 -50.060  11.177  1.00  0.00    -0.265 N 
HETATM   10  O   UNL     1     -38.400 -50.974  12.034  1.00  0.00    -0.242 OA
ATOM     11  HN  UNL     1     -38.522 -49.601  10.383  1.00  0.00     0.194 HD
HETATM   12  C   UNL     1     -39.315 -51.364  12.955  1.00  0.00     0.081 A 
HETATM   13  C   UNL     1     -38.842 -52.319  13.976  1.00  0.00     0.079 C 
ENDBRANCH   5   6
ENDBRANCH   1   5
BRANCH   3  14
HETATM   14  C   UNL     1     -45.238 -52.364  12.998  1.00  0.00     0.088 C 
HETATM   15  C   UNL     1     -46.541 -51.576  13.204  1.00  0.00     0.051 C 
HETATM   16  C   UNL     1     -46.867 -51.473  14.686  1.00  0.00     0.169 C 
HETATM   17  O   UNL     1     -47.010 -52.777  15.250  1.00  0.00    -0.391 OA
HETATM   18  C   UNL     1     -45.815 -53.548  15.152  1.00  0.00     0.169 C 
HETATM   19  C   UNL     1     -45.380 -53.720  13.699  1.00  0.00     0.051 C 
ENDBRANCH   3  14
TORSDOF 3
ENDMDL
MODEL 8
REMARK VINA RESULT:      -5.2      2.626      6.584
REMARK  3 active torsions:
REMARK  status: ('A' for Active; 'I' for Inactive)
REMARK    1  A    between atoms: C_8  and  C_9 
REMARK    2  A    between atoms: C_9  and  C_10 
REMARK       I    between atoms: C_10  and  N_12 
REMARK    3  A    between atoms: N_12  and  C_13 
ROOT
HETATM    1  C   UNL     1     -42.212 -50.539  12.329  1.00  0.00     0.222 C 
HETATM    2  O   UNL     1     -41.258 -51.209  11.951  1.00  0.00    -0.273 OA
HETATM    3  N   UNL     1     -42.503 -49.283  11.832  1.00  0.00    -0.356 N 
HETATM    4  H   UNL     1     -43.460 -48.965  11.935  1.00  0.00     0.162 HD
ENDROOT
BRANCH   1   5
HETATM    5  C   UNL     1     -43.138 -51.003  13.437  1.00  0.00     0.146 C 
BRANCH   5   6
HETATM    6  C   UNL     1     -43.844 -52.286  13.174  1.00  0.00     0.006 A 
HETATM    7  C   UNL     1     -43.377 -53.634  13.232  1.00  0.00     0.038 A 
HETATM    8  C   UNL     1     -42.028 -54.159  13.559  1.00  0.00     0.071 C 
HETATM    9  N   UNL     1     -44.359 -54.500  12.948  1.00  0.00    -0.265 N 
HETATM   10  O   UNL     1     -45.488 -53.743  12.733  1.00  0.00    -0.242 OA
ATOM     11  HN  UNL     1     -44.284 -55.517  12.901  1.00  0.00     0.194 HD
HETATM   12  C   UNL     1     -45.185 -52.429  12.875  1.00  0.00     0.081 A 
HETATM   13  C   UNL     1     -46.308 -51.484  12.713  1.00  0.00     0.079 C 
ENDBRANCH   5   6
ENDBRANCH   1   5
BRANCH   3  14
HETATM   14  C   UNL     1     -41.657 -48.611  10.839  1.00  0.00     0.088 C 
HETATM   15  C   UNL     1     -40.666 -47.632  11.486  1.00  0.00     0.051 C 
HETATM   16  C   UNL     1     -41.409 -46.452  12.092  1.00  0.00     0.169 C 
HETATM   17  O   UNL     1     -42.157 -45.770  11.085  1.00  0.00    -0.391 OA
HETATM   18  C   UNL     1     -43.144 -46.602  10.480  1.00  0.00     0.169 C 
HETATM   19  C   UNL     1     -42.515 -47.834   9.834  1.00  0.00     0.051 C 
ENDBRANCH   3  14
TORSDOF 3
ENDMDL
MODEL 9
REMARK VINA RESULT:      -5.1      1.667      6.517
REMARK  3 active torsions:
REMARK  status: ('A' for Active; 'I' for Inactive)
REMARK    1  A    between atoms: C_8  and  C_9 
REMARK    2  A    between atoms: C_9  and  C_10 
REMARK       I    between atoms: C_10  and  N_12 
REMARK    3  A    between atoms: N_12  and  C_13 
ROOT
HETATM    1  C   UNL     1     -41.549 -49.149  11.693  1.00  0.00     0.222 C 
HETATM    2  O   UNL     1     -41.697 -48.921  12.889  1.00  0.00    -0.273 OA
HETATM    3  N   UNL     1     -42.318 -48.560  10.707  1.00  0.00    -0.356 N 
HETATM    4  H   UNL     1     -41.918 -48.532   9.776  1.00  0.00     0.162 HD
ENDROOT
BRANCH   1   5
HETATM    5  C   UNL     1     -40.540 -50.157  11.180  1.00  0.00     0.146 C 
BRANCH   5   6
HETATM    6  C   UNL     1     -40.064 -51.143  12.189  1.00  0.00     0.006 A 
HETATM    7  C   UNL     1     -40.715 -52.278  12.761  1.00  0.00     0.038 A 
HETATM    8  C   UNL     1     -42.083 -52.805  12.528  1.00  0.00     0.071 C 
HETATM    9  N   UNL     1     -39.910 -52.919  13.617  1.00  0.00    -0.265 N 
HETATM   10  O   UNL     1     -38.712 -52.241  13.597  1.00  0.00    -0.242 OA
ATOM     11  HN  UNL     1     -40.139 -53.744  14.172  1.00  0.00     0.194 HD
HETATM   12  C   UNL     1     -38.800 -51.192  12.744  1.00  0.00     0.081 A 
HETATM   13  C   UNL     1     -37.575 -50.384  12.581  1.00  0.00     0.079 C 
ENDBRANCH   5   6
ENDBRANCH   1   5
BRANCH   3  14
HETATM   14  C   UNL     1     -43.426 -47.646  11.010  1.00  0.00     0.088 C 
HETATM   15  C   UNL     1     -44.373 -47.464   9.814  1.00  0.00     0.051 C 
HETATM   16  C   UNL     1     -43.669 -46.720   8.690  1.00  0.00     0.169 C 
HETATM   17  O   UNL     1     -43.233 -45.439   9.146  1.00  0.00    -0.391 OA
HETATM   18  C   UNL     1     -42.299 -45.529  10.218  1.00  0.00     0.169 C 
HETATM   19  C   UNL     1     -42.893 -46.266  11.415  1.00  0.00     0.051 C 
ENDBRANCH   3  14
TORSDOF 3
ENDMDL
