MODEL 1
REMARK VINA RESULT:      -5.3      0.000      0.000
REMARK  5 active torsions:
REMARK  status: ('A' for Active; 'I' for Inactive)
REMARK    1  A    between atoms: C_6  and  C_7 
REMARK    2  A    between atoms: C_7  and  N_8 
REMARK    3  A    between atoms: N_8  and  C_9 
REMARK    4  A    between atoms: C_9  and  C_10 
REMARK    5  A    between atoms: C_10  and  C_11 
ROOT
HETATM    1  N   UNL     1     -40.844 -50.738  11.269  1.00  0.00     0.086 N 
HETATM    2  H   UNL     1     -40.873 -50.754  10.245  1.00  0.00     0.315 HD
ENDROOT
BRANCH   1   3
HETATM    3  C   UNL     1     -41.462 -51.988  11.740  1.00  0.00     0.303 C 
BRANCH   3   4
HETATM    4  C   UNL     1     -40.823 -52.449  13.056  1.00  0.00     0.177 C 
HETATM    5  O   UNL     1     -39.390 -52.318  12.961  1.00  0.00    -0.381 OA
HETATM    6  C   UNL     1     -38.777 -52.743  14.185  1.00  0.00     0.198 C 
HETATM    7  C   UNL     1     -39.143 -54.201  14.521  1.00  0.00     0.298 C 
HETATM    8  N   UNL     1     -40.596 -54.476  14.556  1.00  0.00     0.088 N 
HETATM    9  C   UNL     1     -41.226 -53.935  15.760  1.00  0.00     0.310 C 
HETATM   10  C   UNL     1     -41.208 -53.922  13.331  1.00  0.00     0.305 C 
ENDBRANCH   3   4
ENDBRANCH   1   3
BRANCH   1  11
HETATM   11  C   UNL     1     -41.555 -49.551  11.766  1.00  0.00     0.275 C 
BRANCH  11  12
HETATM   12  C   UNL     1     -41.342 -48.335  10.860  1.00  0.00     0.087 C 
BRANCH  12  13
HETATM   13  C   UNL     1     -42.572 -47.974  10.078  1.00  0.00     0.010 A 
HETATM   14  C   UNL     1     -43.766 -47.683  10.730  1.00  0.00     0.025 A 
HETATM   15  C   UNL     1     -44.898 -47.433   9.964  1.00  0.00     0.003 A 
HETATM   16  C   UNL     1     -44.806 -47.473   8.577  1.00  0.00     0.017 A 
HETATM   17  C   UNL     1     -43.575 -47.751   8.009  1.00  0.00     0.088 A 
HETATM   18  N   UNL     1     -42.460 -47.994   8.730  1.00  0.00    -0.369 N 
ATOM     19  HN  UNL     1     -41.567 -48.186   8.274  1.00  0.00     0.165 HD
ENDBRANCH  12  13
ENDBRANCH  11  12
ENDBRANCH   1  11
TORSDOF 5
ENDMDL
MODEL 2
REMARK VINA RESULT:      -5.3      2.576      6.977
REMARK  5 active torsions:
REMARK  status: ('A' for Active; 'I' for Inactive)
REMARK    1  A    between atoms: C_6  and  C_7 
REMARK    2  A    between atoms: C_7  and  N_8 
REMARK    3  A    between atoms: N_8  and  C_9 
REMARK    4  A    between atoms: C_9  and  C_10 
REMARK    5  A    between atoms: C_10  and  C_11 
ROOT
HETATM    1  N   UNL     1     -40.544 -50.461  11.019  1.00  0.00     0.086 N 
HETATM    2  H   UNL     1     -39.743 -51.028  10.724  1.00  0.00     0.315 HD
ENDROOT
BRANCH   1   3
HETATM    3  C   UNL     1     -40.027 -49.130  11.373  1.00  0.00     0.303 C 
BRANCH   3   4
HETATM    4  C   UNL     1     -41.131 -48.071  11.268  1.00  0.00     0.177 C 
HETATM    5  O   UNL     1     -41.951 -48.352  10.115  1.00  0.00    -0.381 OA
HETATM    6  C   UNL     1     -42.991 -47.372  10.003  1.00  0.00     0.198 C 
HETATM    7  C   UNL     1     -42.414 -45.949   9.894  1.00  0.00     0.298 C 
HETATM    8  N   UNL     1     -41.481 -45.580  10.980  1.00  0.00     0.088 N 
HETATM    9  C   UNL     1     -42.184 -45.307  12.234  1.00  0.00     0.310 C 
HETATM   10  C   UNL     1     -40.494 -46.668  11.140  1.00  0.00     0.305 C 
ENDBRANCH   3   4
ENDBRANCH   1   3
BRANCH   1  11
HETATM   11  C   UNL     1     -41.216 -51.110  12.155  1.00  0.00     0.275 C 
BRANCH  11  12
HETATM   12  C   UNL     1     -41.189 -52.637  12.040  1.00  0.00     0.087 C 
BRANCH  12  13
HETATM   13  C   UNL     1     -42.363 -53.288  12.713  1.00  0.00     0.010 A 
HETATM   14  C   UNL     1     -42.192 -54.025  13.879  1.00  0.00     0.025 A 
HETATM   15  C   UNL     1     -43.293 -54.676  14.423  1.00  0.00     0.003 A 
HETATM   16  C   UNL     1     -44.528 -54.568  13.794  1.00  0.00     0.017 A 
HETATM   17  C   UNL     1     -44.615 -53.797  12.648  1.00  0.00     0.088 A 
HETATM   18  N   UNL     1     -43.563 -53.152  12.101  1.00  0.00    -0.369 N 
ATOM     19  HN  UNL     1     -43.668 -52.585  11.260  1.00  0.00     0.165 HD
ENDBRANCH  12  13
ENDBRANCH  11  12
ENDBRANCH   1  11
TORSDOF 5
ENDMDL
MODEL 3
REMARK VINA RESULT:      -5.2      2.677      3.057
REMARK  5 active torsions:
REMARK  status: ('A' for Active; 'I' for Inactive)
REMARK    1  A    between atoms: C_6  and  C_7 
REMARK    2  A    between atoms: C_7  and  N_8 
REMARK    3  A    between atoms: N_8  and  C_9 
REMARK    4  A    between atoms: C_9  and  C_10 
REMARK    5  A    between atoms: C_10  and  C_11 
ROOT
HETATM    1  N   UNL     1     -41.990 -49.920  11.439  1.00  0.00     0.086 N 
HETATM    2  H   UNL     1     -42.866 -49.692  10.961  1.00  0.00     0.315 HD
ENDROOT
BRANCH   1   3
HETATM    3  C   UNL     1     -42.273 -49.927  12.884  1.00  0.00     0.303 C 
BRANCH   3   4
HETATM    4  C   UNL     1     -43.013 -51.208  13.288  1.00  0.00     0.177 C 
HETATM    5  O   UNL     1     -42.785 -52.224  12.291  1.00  0.00    -0.381 OA
HETATM    6  C   UNL     1     -43.469 -53.430  12.655  1.00  0.00     0.198 C 
HETATM    7  C   UNL     1     -44.982 -53.193  12.816  1.00  0.00     0.298 C 
HETATM    8  N   UNL     1     -45.335 -52.103  13.752  1.00  0.00     0.088 N 
HETATM    9  C   UNL     1     -45.147 -52.499  15.148  1.00  0.00     0.310 C 
HETATM   10  C   UNL     1     -44.526 -50.914  13.415  1.00  0.00     0.305 C 
ENDBRANCH   3   4
ENDBRANCH   1   3
BRANCH   1  11
HETATM   11  C   UNL     1     -40.960 -48.932  11.085  1.00  0.00     0.275 C 
BRANCH  11  12
HETATM   12  C   UNL     1     -41.560 -47.545  10.837  1.00  0.00     0.087 C 
BRANCH  12  13
HETATM   13  C   UNL     1     -42.777 -47.589   9.959  1.00  0.00     0.010 A 
HETATM   14  C   UNL     1     -44.046 -47.404  10.496  1.00  0.00     0.025 A 
HETATM   15  C   UNL     1     -45.148 -47.533   9.659  1.00  0.00     0.003 A 
HETATM   16  C   UNL     1     -44.953 -47.835   8.316  1.00  0.00     0.017 A 
HETATM   17  C   UNL     1     -43.656 -47.983   7.859  1.00  0.00     0.088 A 
HETATM   18  N   UNL     1     -42.569 -47.860   8.649  1.00  0.00    -0.369 N 
ATOM     19  HN  UNL     1     -41.626 -47.967   8.272  1.00  0.00     0.165 HD
ENDBRANCH  12  13
ENDBRANCH  11  12
ENDBRANCH   1  11
TORSDOF 5
ENDMDL
MODEL 4
REMARK VINA RESULT:      -5.1      3.154      6.253
REMARK  5 active torsions:
REMARK  status: ('A' for Active; 'I' for Inactive)
REMARK    1  A    between atoms: C_6  and  C_7 
REMARK    2  A    between atoms: C_7  and  N_8 
REMARK    3  A    between atoms: N_8  and  C_9 
REMARK    4  A    between atoms: C_9  and  C_10 
REMARK    5  A    between atoms: C_10  and  C_11 
ROOT
HETATM    1  N   UNL     1     -42.137 -50.895  11.901  1.00  0.00     0.086 N 
HETATM    2  H   UNL     1     -42.631 -50.764  11.013  1.00  0.00     0.315 HD
ENDROOT
BRANCH   1   3
HETATM    3  C   UNL     1     -40.960 -50.012  11.877  1.00  0.00     0.303 C 
BRANCH   3   4
HETATM    4  C   UNL     1     -41.254 -48.733  11.083  1.00  0.00     0.177 C 
HETATM    5  O   UNL     1     -40.365 -47.685  11.522  1.00  0.00    -0.381 OA
HETATM    6  C   UNL     1     -40.626 -46.482  10.788  1.00  0.00     0.198 C 
HETATM    7  C   UNL     1     -42.087 -46.026  10.954  1.00  0.00     0.298 C 
HETATM    8  N   UNL     1     -43.093 -47.056  10.619  1.00  0.00     0.088 N 
HETATM    9  C   UNL     1     -43.214 -47.251   9.174  1.00  0.00     0.310 C 
HETATM   10  C   UNL     1     -42.726 -48.312  11.305  1.00  0.00     0.305 C 
ENDBRANCH   3   4
ENDBRANCH   1   3
BRANCH   1  11
HETATM   11  C   UNL     1     -41.761 -52.308  12.054  1.00  0.00     0.275 C 
BRANCH  11  12
HETATM   12  C   UNL     1     -42.571 -53.000  13.154  1.00  0.00     0.087 C 
BRANCH  12  13
HETATM   13  C   UNL     1     -43.967 -52.460  13.271  1.00  0.00     0.010 A 
HETATM   14  C   UNL     1     -44.343 -51.703  14.375  1.00  0.00     0.025 A 
HETATM   15  C   UNL     1     -45.667 -51.291  14.479  1.00  0.00     0.003 A 
HETATM   16  C   UNL     1     -46.570 -51.639  13.481  1.00  0.00     0.017 A 
HETATM   17  C   UNL     1     -46.108 -52.376  12.407  1.00  0.00     0.088 A 
HETATM   18  N   UNL     1     -44.828 -52.786  12.279  1.00  0.00    -0.369 N 
ATOM     19  HN  UNL     1     -44.522 -53.322  11.466  1.00  0.00     0.165 HD
ENDBRANCH  12  13
ENDBRANCH  11  12
ENDBRANCH   1  11
TORSDOF 5
ENDMDL
MODEL 5
REMARK VINA RESULT:      -5.1      2.577      7.208
REMARK  5 active torsions:
REMARK  status: ('A' for Active; 'I' for Inactive)
REMARK    1  A    between atoms: C_6  and  C_7 
REMARK    2  A    between atoms: C_7  and  N_8 
REMARK    3  A    between atoms: N_8  and  C_9 
REMARK    4  A    between atoms: C_9  and  C_10 
REMARK    5  A    between atoms: C_10  and  C_11 
ROOT
HETATM    1  N   UNL     1     -41.933 -50.213  11.749  1.00  0.00     0.086 N 
HETATM    2  H   UNL     1     -42.090 -50.656  10.839  1.00  0.00     0.315 HD
ENDROOT
BRANCH   1   3
HETATM    3  C   UNL     1     -40.912 -49.171  11.556  1.00  0.00     0.303 C 
BRANCH   3   4
HETATM    4  C   UNL     1     -41.441 -48.051  10.651  1.00  0.00     0.177 C 
HETATM    5  O   UNL     1     -40.829 -46.802  11.034  1.00  0.00    -0.381 OA
HETATM    6  C   UNL     1     -41.311 -45.744  10.196  1.00  0.00     0.198 C 
HETATM    7  C   UNL     1     -42.844 -45.617  10.274  1.00  0.00     0.298 C 
HETATM    8  N   UNL     1     -43.578 -46.868   9.988  1.00  0.00     0.088 N 
HETATM    9  C   UNL     1     -43.578 -47.188   8.561  1.00  0.00     0.310 C 
HETATM   10  C   UNL     1     -42.978 -47.957  10.786  1.00  0.00     0.305 C 
ENDBRANCH   3   4
ENDBRANCH   1   3
BRANCH   1  11
HETATM   11  C   UNL     1     -41.507 -51.226  12.726  1.00  0.00     0.275 C 
BRANCH  11  12
HETATM   12  C   UNL     1     -41.658 -52.649  12.178  1.00  0.00     0.087 C 
BRANCH  12  13
HETATM   13  C   UNL     1     -42.696 -53.445  12.916  1.00  0.00     0.010 A 
HETATM   14  C   UNL     1     -42.378 -54.094  14.104  1.00  0.00     0.025 A 
HETATM   15  C   UNL     1     -43.347 -54.885  14.710  1.00  0.00     0.003 A 
HETATM   16  C   UNL     1     -44.601 -54.998  14.121  1.00  0.00     0.017 A 
HETATM   17  C   UNL     1     -44.841 -54.302  12.950  1.00  0.00     0.088 A 
HETATM   18  N   UNL     1     -43.919 -53.525  12.342  1.00  0.00    -0.369 N 
ATOM     19  HN  UNL     1     -44.137 -53.019  11.483  1.00  0.00     0.165 HD
ENDBRANCH  12  13
ENDBRANCH  11  12
ENDBRANCH   1  11
TORSDOF 5
ENDMDL
MODEL 6
REMARK VINA RESULT:      -5.1      3.595      4.776
REMARK  5 active torsions:
REMARK  status: ('A' for Active; 'I' for Inactive)
REMARK    1  A    between atoms: C_6  and  C_7 
REMARK    2  A    between atoms: C_7  and  N_8 
REMARK    3  A    between atoms: N_8  and  C_9 
REMARK    4  A    between atoms: C_9  and  C_10 
REMARK    5  A    between atoms: C_10  and  C_11 
ROOT
HETATM    1  N   UNL     1     -41.154 -51.391  11.420  1.00  0.00     0.086 N 
HETATM    2  H   UNL     1     -40.314 -51.955  11.578  1.00  0.00     0.315 HD
ENDROOT
BRANCH   1   3
HETATM    3  C   UNL     1     -40.774 -49.982  11.616  1.00  0.00     0.303 C 
BRANCH   3   4
HETATM    4  C   UNL     1     -39.388 -49.877  12.265  1.00  0.00     0.177 C 
HETATM    5  O   UNL     1     -38.746 -51.168  12.227  1.00  0.00    -0.381 OA
HETATM    6  C   UNL     1     -37.448 -51.087  12.829  1.00  0.00     0.198 C 
HETATM    7  C   UNL     1     -37.531 -50.592  14.285  1.00  0.00     0.298 C 
HETATM    8  N   UNL     1     -38.254 -49.313  14.457  1.00  0.00     0.088 N 
HETATM    9  C   UNL     1     -37.457 -48.171  14.009  1.00  0.00     0.310 C 
HETATM   10  C   UNL     1     -39.536 -49.397  13.728  1.00  0.00     0.305 C 
ENDBRANCH   3   4
ENDBRANCH   1   3
BRANCH   1  11
HETATM   11  C   UNL     1     -42.214 -51.809  12.349  1.00  0.00     0.275 C 
BRANCH  11  12
HETATM   12  C   UNL     1     -42.873 -50.612  13.041  1.00  0.00     0.087 C 
BRANCH  12  13
HETATM   13  C   UNL     1     -44.279 -50.901  13.481  1.00  0.00     0.010 A 
HETATM   14  C   UNL     1     -44.625 -50.853  14.827  1.00  0.00     0.025 A 
HETATM   15  C   UNL     1     -45.918 -51.205  15.195  1.00  0.00     0.003 A 
HETATM   16  C   UNL     1     -46.826 -51.588  14.214  1.00  0.00     0.017 A 
HETATM   17  C   UNL     1     -46.406 -51.588  12.896  1.00  0.00     0.088 A 
HETATM   18  N   UNL     1     -45.158 -51.248  12.511  1.00  0.00    -0.369 N 
ATOM     19  HN  UNL     1     -44.888 -51.251  11.527  1.00  0.00     0.165 HD
ENDBRANCH  12  13
ENDBRANCH  11  12
ENDBRANCH   1  11
TORSDOF 5
ENDMDL
MODEL 7
REMARK VINA RESULT:      -5.1      3.650      5.635
REMARK  5 active torsions:
REMARK  status: ('A' for Active; 'I' for Inactive)
REMARK    1  A    between atoms: C_6  and  C_7 
REMARK    2  A    between atoms: C_7  and  N_8 
REMARK    3  A    between atoms: N_8  and  C_9 
REMARK    4  A    between atoms: C_9  and  C_10 
REMARK    5  A    between atoms: C_10  and  C_11 
ROOT
HETATM    1  N   UNL     1     -41.533 -53.382  12.246  1.00  0.00     0.086 N 
HETATM    2  H   UNL     1     -40.618 -53.640  12.627  1.00  0.00     0.315 HD
ENDROOT
BRANCH   1   3
HETATM    3  C   UNL     1     -41.512 -51.929  12.014  1.00  0.00     0.303 C 
BRANCH   3   4
HETATM    4  C   UNL     1     -40.140 -51.340  12.365  1.00  0.00     0.177 C 
HETATM    5  O   UNL     1     -40.062 -51.132  13.790  1.00  0.00    -0.381 OA
HETATM    6  C   UNL     1     -38.783 -50.583  14.135  1.00  0.00     0.198 C 
HETATM    7  C   UNL     1     -38.524 -49.254  13.402  1.00  0.00     0.298 C 
HETATM    8  N   UNL     1     -38.667 -49.328  11.932  1.00  0.00     0.088 N 
HETATM    9  C   UNL     1     -37.534 -50.010  11.305  1.00  0.00     0.310 C 
HETATM   10  C   UNL     1     -39.944 -50.001  11.617  1.00  0.00     0.305 C 
ENDBRANCH   3   4
ENDBRANCH   1   3
BRANCH   1  11
HETATM   11  C   UNL     1     -42.590 -53.773  13.190  1.00  0.00     0.275 C 
BRANCH  11  12
HETATM   12  C   UNL     1     -43.970 -53.794  12.528  1.00  0.00     0.087 C 
BRANCH  12  13
HETATM   13  C   UNL     1     -45.018 -53.107  13.354  1.00  0.00     0.010 A 
HETATM   14  C   UNL     1     -44.874 -51.771  13.715  1.00  0.00     0.025 A 
HETATM   15  C   UNL     1     -45.829 -51.199  14.547  1.00  0.00     0.003 A 
HETATM   16  C   UNL     1     -46.899 -51.970  14.988  1.00  0.00     0.017 A 
HETATM   17  C   UNL     1     -46.978 -53.284  14.565  1.00  0.00     0.088 A 
HETATM   18  N   UNL     1     -46.067 -53.864  13.755  1.00  0.00    -0.369 N 
ATOM     19  HN  UNL     1     -46.165 -54.834  13.457  1.00  0.00     0.165 HD
ENDBRANCH  12  13
ENDBRANCH  11  12
ENDBRANCH   1  11
TORSDOF 5
ENDMDL
MODEL 8
REMARK VINA RESULT:      -5.0      3.363      5.636
REMARK  5 active torsions:
REMARK  status: ('A' for Active; 'I' for Inactive)
REMARK    1  A    between atoms: C_6  and  C_7 
REMARK    2  A    between atoms: C_7  and  N_8 
REMARK    3  A    between atoms: N_8  and  C_9 
REMARK    4  A    between atoms: C_9  and  C_10 
REMARK    5  A    between atoms: C_10  and  C_11 
ROOT
HETATM    1  N   UNL     1     -41.469 -53.723  12.518  1.00  0.00     0.086 N 
HETATM    2  H   UNL     1     -41.004 -54.604  12.281  1.00  0.00     0.315 HD
ENDROOT
BRANCH   1   3
HETATM    3  C   UNL     1     -40.506 -52.917  13.285  1.00  0.00     0.303 C 
BRANCH   3   4
HETATM    4  C   UNL     1     -40.138 -51.637  12.523  1.00  0.00     0.177 C 
HETATM    5  O   UNL     1     -38.708 -51.449  12.573  1.00  0.00    -0.381 OA
HETATM    6  C   UNL     1     -38.347 -50.257  11.863  1.00  0.00     0.198 C 
HETATM    7  C   UNL     1     -39.054 -49.018  12.444  1.00  0.00     0.298 C 
HETATM    8  N   UNL     1     -40.526 -49.135  12.528  1.00  0.00     0.088 N 
HETATM    9  C   UNL     1     -41.159 -49.005  11.215  1.00  0.00     0.310 C 
HETATM   10  C   UNL     1     -40.859 -50.427  13.162  1.00  0.00     0.305 C 
ENDBRANCH   3   4
ENDBRANCH   1   3
BRANCH   1  11
HETATM   11  C   UNL     1     -42.691 -53.999  13.288  1.00  0.00     0.275 C 
BRANCH  11  12
HETATM   12  C   UNL     1     -43.953 -53.577  12.529  1.00  0.00     0.087 C 
BRANCH  12  13
HETATM   13  C   UNL     1     -44.989 -52.966  13.427  1.00  0.00     0.010 A 
HETATM   14  C   UNL     1     -45.852 -51.986  12.949  1.00  0.00     0.025 A 
HETATM   15  C   UNL     1     -46.742 -51.392  13.836  1.00  0.00     0.003 A 
HETATM   16  C   UNL     1     -46.750 -51.796  15.167  1.00  0.00     0.017 A 
HETATM   17  C   UNL     1     -45.873 -52.792  15.555  1.00  0.00     0.088 A 
HETATM   18  N   UNL     1     -45.001 -53.387  14.714  1.00  0.00    -0.369 N 
ATOM     19  HN  UNL     1     -44.375 -54.126  15.036  1.00  0.00     0.165 HD
ENDBRANCH  12  13
ENDBRANCH  11  12
ENDBRANCH   1  11
TORSDOF 5
ENDMDL
MODEL 9
REMARK VINA RESULT:      -4.9      4.214      7.020
REMARK  5 active torsions:
REMARK  status: ('A' for Active; 'I' for Inactive)
REMARK    1  A    between atoms: C_6  and  C_7 
REMARK    2  A    between atoms: C_7  and  N_8 
REMARK    3  A    between atoms: N_8  and  C_9 
REMARK    4  A    between atoms: C_9  and  C_10 
REMARK    5  A    between atoms: C_10  and  C_11 
ROOT
HETATM    1  N   UNL     1     -43.057 -48.617  11.250  1.00  0.00     0.086 N 
HETATM    2  H   UNL     1     -43.234 -49.502  10.765  1.00  0.00     0.315 HD
ENDROOT
BRANCH   1   3
HETATM    3  C   UNL     1     -41.884 -47.999  10.612  1.00  0.00     0.303 C 
BRANCH   3   4
HETATM    4  C   UNL     1     -41.549 -46.655  11.272  1.00  0.00     0.177 C 
HETATM    5  O   UNL     1     -42.518 -45.669  10.860  1.00  0.00    -0.381 OA
HETATM    6  C   UNL     1     -42.220 -44.406  11.470  1.00  0.00     0.198 C 
HETATM    7  C   UNL     1     -40.803 -43.925  11.107  1.00  0.00     0.298 C 
HETATM    8  N   UNL     1     -39.731 -44.899  11.403  1.00  0.00     0.088 N 
HETATM    9  C   UNL     1     -39.445 -44.979  12.836  1.00  0.00     0.310 C 
HETATM   10  C   UNL     1     -40.127 -46.213  10.857  1.00  0.00     0.305 C 
ENDBRANCH   3   4
ENDBRANCH   1   3
BRANCH   1  11
HETATM   11  C   UNL     1     -42.834 -48.873  12.681  1.00  0.00     0.275 C 
BRANCH  11  12
HETATM   12  C   UNL     1     -42.932 -50.363  13.018  1.00  0.00     0.087 C 
BRANCH  12  13
HETATM   13  C   UNL     1     -44.280 -50.746  13.557  1.00  0.00     0.010 A 
HETATM   14  C   UNL     1     -44.534 -50.706  14.924  1.00  0.00     0.025 A 
HETATM   15  C   UNL     1     -45.770 -51.145  15.385  1.00  0.00     0.003 A 
HETATM   16  C   UNL     1     -46.715 -51.602  14.472  1.00  0.00     0.017 A 
HETATM   17  C   UNL     1     -46.388 -51.589  13.128  1.00  0.00     0.088 A 
HETATM   18  N   UNL     1     -45.197 -51.165  12.654  1.00  0.00    -0.369 N 
ATOM     19  HN  UNL     1     -44.997 -51.161  11.654  1.00  0.00     0.165 HD
ENDBRANCH  12  13
ENDBRANCH  11  12
ENDBRANCH   1  11
TORSDOF 5
ENDMDL
