MODEL 1
REMARK VINA RESULT:      -5.9      0.000      0.000
REMARK  4 active torsions:
REMARK  status: ('A' for Active; 'I' for Inactive)
REMARK    1  A    between atoms: C_2  and  C_3 
REMARK       I    between atoms: N_6  and  C_10 
REMARK       I    between atoms: C_10  and  N_12 
REMARK    2  A    between atoms: N_12  and  C_13 
REMARK    3  A    between atoms: C_13  and  C_15 
REMARK    4  A    between atoms: C_15  and  N_16 
ROOT
HETATM    1  C   UNL     1     -38.790 -50.424  12.401  1.00  0.00     0.073 C 
HETATM    2  C   UNL     1     -37.407 -50.599  11.757  1.00  0.00     0.047 C 
HETATM    3  C   UNL     1     -39.707 -49.678  11.399  1.00  0.00     0.165 C 
HETATM    4  N   UNL     1     -41.105 -49.700  11.842  1.00  0.00    -0.329 N 
HETATM    5  C   UNL     1     -41.596 -51.055  12.103  1.00  0.00     0.153 C 
HETATM    6  C   UNL     1     -40.658 -51.822  13.038  1.00  0.00     0.189 C 
HETATM    7  O   UNL     1     -39.289 -51.771  12.606  1.00  0.00    -0.377 OA
HETATM    8  C   UNL     1     -42.023 -48.677  11.758  1.00  0.00     0.318 C 
HETATM    9  O   UNL     1     -43.214 -48.826  12.023  1.00  0.00    -0.247 OA
HETATM   10  N   UNL     1     -41.536 -47.467  11.343  1.00  0.00    -0.337 N 
HETATM   11  H   UNL     1     -40.547 -47.304  11.413  1.00  0.00     0.164 HD
ENDROOT
BRANCH  10  12
HETATM   12  C   UNL     1     -42.386 -46.282  11.251  1.00  0.00     0.102 C 
HETATM   13  C   UNL     1     -41.675 -45.097  11.902  1.00  0.00     0.034 C 
BRANCH  12  14
HETATM   14  C   UNL     1     -42.742 -45.956   9.796  1.00  0.00     0.174 C 
BRANCH  14  15
HETATM   15  N   UNL     1     -43.811 -46.775   9.268  1.00  0.00    -0.285 N 
HETATM   16  C   UNL     1     -43.811 -47.524   8.132  1.00  0.00     0.201 A 
HETATM   17  N   UNL     1     -44.945 -48.178   8.038  1.00  0.00    -0.346 N 
HETATM   18  C   UNL     1     -45.616 -47.788   9.161  1.00  0.00     0.198 A 
ATOM     19  HN  UNL     1     -45.250 -48.819   7.306  1.00  0.00     0.167 HD
HETATM   20  N   UNL     1     -44.960 -46.936   9.953  1.00  0.00    -0.293 N 
ATOM     21  HN  UNL     1     -45.250 -46.520  10.837  1.00  0.00     0.188 HD
ENDBRANCH  14  15
ENDBRANCH  12  14
ENDBRANCH  10  12
BRANCH   1  22
HETATM   22  C   UNL     1     -38.658 -49.706  13.771  1.00  0.00     0.035 C 
HETATM   23  C   UNL     1     -38.346 -48.217  13.722  1.00  0.00     0.008 C 
ENDBRANCH   1  22
TORSDOF 4
ENDMDL
MODEL 2
REMARK VINA RESULT:      -5.8      3.125      6.093
REMARK  4 active torsions:
REMARK  status: ('A' for Active; 'I' for Inactive)
REMARK    1  A    between atoms: C_2  and  C_3 
REMARK       I    between atoms: N_6  and  C_10 
REMARK       I    between atoms: C_10  and  N_12 
REMARK    2  A    between atoms: N_12  and  C_13 
REMARK    3  A    between atoms: C_13  and  C_15 
REMARK    4  A    between atoms: C_15  and  N_16 
ROOT
HETATM    1  C   UNL     1     -45.364 -52.064  13.561  1.00  0.00     0.073 C 
HETATM    2  C   UNL     1     -46.496 -51.498  14.431  1.00  0.00     0.047 C 
HETATM    3  C   UNL     1     -44.166 -51.082  13.618  1.00  0.00     0.165 C 
HETATM    4  N   UNL     1     -42.966 -51.676  13.020  1.00  0.00    -0.329 N 
HETATM    5  C   UNL     1     -42.619 -52.970  13.610  1.00  0.00     0.153 C 
HETATM    6  C   UNL     1     -43.817 -53.922  13.622  1.00  0.00     0.189 C 
HETATM    7  O   UNL     1     -44.992 -53.319  14.186  1.00  0.00    -0.377 OA
HETATM    8  C   UNL     1     -42.032 -51.049  12.225  1.00  0.00     0.318 C 
HETATM    9  O   UNL     1     -40.980 -51.584  11.882  1.00  0.00    -0.247 OA
HETATM   10  N   UNL     1     -42.333 -49.770  11.840  1.00  0.00    -0.337 N 
HETATM   11  H   UNL     1     -43.293 -49.474  11.888  1.00  0.00     0.164 HD
ENDROOT
BRANCH  10  12
HETATM   12  C   UNL     1     -41.458 -49.001  10.960  1.00  0.00     0.102 C 
HETATM   13  C   UNL     1     -42.301 -48.054  10.107  1.00  0.00     0.034 C 
BRANCH  12  14
HETATM   14  C   UNL     1     -40.411 -48.212  11.755  1.00  0.00     0.174 C 
BRANCH  14  15
HETATM   15  N   UNL     1     -39.164 -48.926  11.931  1.00  0.00    -0.285 N 
HETATM   16  C   UNL     1     -38.386 -48.993  13.045  1.00  0.00     0.201 A 
HETATM   17  N   UNL     1     -37.374 -49.798  12.824  1.00  0.00    -0.346 N 
HETATM   18  C   UNL     1     -37.582 -50.205  11.538  1.00  0.00     0.198 A 
ATOM     19  HN  UNL     1     -36.617 -50.056  13.458  1.00  0.00     0.167 HD
HETATM   20  N   UNL     1     -38.672 -49.706  10.949  1.00  0.00    -0.293 N 
ATOM     21  HN  UNL     1     -39.033 -49.871  10.010  1.00  0.00     0.188 HD
ENDBRANCH  14  15
ENDBRANCH  12  14
ENDBRANCH  10  12
BRANCH   1  22
HETATM   22  C   UNL     1     -45.876 -52.333  12.121  1.00  0.00     0.035 C 
HETATM   23  C   UNL     1     -47.125 -51.572  11.699  1.00  0.00     0.008 C 
ENDBRANCH   1  22
TORSDOF 4
ENDMDL
MODEL 3
REMARK VINA RESULT:      -5.6      2.645      6.472
REMARK  4 active torsions:
REMARK  status: ('A' for Active; 'I' for Inactive)
REMARK    1  A    between atoms: C_2  and  C_3 
REMARK       I    between atoms: N_6  and  C_10 
REMARK       I    between atoms: C_10  and  N_12 
REMARK    2  A    between atoms: N_12  and  C_13 
REMARK    3  A    between atoms: C_13  and  C_15 
REMARK    4  A    between atoms: C_15  and  N_16 
ROOT
HETATM    1  C   UNL     1     -43.647 -47.185   8.851  1.00  0.00     0.073 C 
HETATM    2  C   UNL     1     -43.399 -47.766   7.451  1.00  0.00     0.047 C 
HETATM    3  C   UNL     1     -42.803 -47.990   9.873  1.00  0.00     0.165 C 
HETATM    4  N   UNL     1     -42.793 -47.335  11.184  1.00  0.00    -0.329 N 
HETATM    5  C   UNL     1     -42.356 -45.939  11.119  1.00  0.00     0.153 C 
HETATM    6  C   UNL     1     -43.138 -45.155  10.063  1.00  0.00     0.189 C 
HETATM    7  O   UNL     1     -43.161 -45.820   8.790  1.00  0.00    -0.377 OA
HETATM    8  C   UNL     1     -42.863 -47.941  12.419  1.00  0.00     0.318 C 
HETATM    9  O   UNL     1     -42.705 -47.328  13.473  1.00  0.00    -0.247 OA
HETATM   10  N   UNL     1     -43.108 -49.288  12.415  1.00  0.00    -0.337 N 
HETATM   11  H   UNL     1     -43.508 -49.694  11.587  1.00  0.00     0.164 HD
ENDROOT
BRANCH  10  12
HETATM   12  C   UNL     1     -43.253 -50.052  13.650  1.00  0.00     0.102 C 
HETATM   13  C   UNL     1     -44.342 -51.109  13.469  1.00  0.00     0.034 C 
BRANCH  12  14
HETATM   14  C   UNL     1     -41.932 -50.713  14.063  1.00  0.00     0.174 C 
BRANCH  14  15
HETATM   15  N   UNL     1     -41.598 -51.875  13.269  1.00  0.00    -0.285 N 
HETATM   16  C   UNL     1     -41.163 -51.914  11.981  1.00  0.00     0.201 A 
HETATM   17  N   UNL     1     -40.901 -53.155  11.644  1.00  0.00    -0.346 N 
HETATM   18  C   UNL     1     -41.198 -53.849  12.781  1.00  0.00     0.198 A 
ATOM     19  HN  UNL     1     -40.561 -53.513  10.751  1.00  0.00     0.167 HD
HETATM   20  N   UNL     1     -41.620 -53.109  13.809  1.00  0.00    -0.293 N 
ATOM     21  HN  UNL     1     -41.887 -53.400  14.750  1.00  0.00     0.188 HD
ENDBRANCH  14  15
ENDBRANCH  12  14
ENDBRANCH  10  12
BRANCH   1  22
HETATM   22  C   UNL     1     -45.166 -47.181   9.171  1.00  0.00     0.035 C 
HETATM   23  C   UNL     1     -46.003 -48.240   8.467  1.00  0.00     0.008 C 
ENDBRANCH   1  22
TORSDOF 4
ENDMDL
MODEL 4
REMARK VINA RESULT:      -5.6      4.739      8.159
REMARK  4 active torsions:
REMARK  status: ('A' for Active; 'I' for Inactive)
REMARK    1  A    between atoms: C_2  and  C_3 
REMARK       I    between atoms: N_6  and  C_10 
REMARK       I    between atoms: C_10  and  N_12 
REMARK    2  A    between atoms: N_12  and  C_13 
REMARK    3  A    between atoms: C_13  and  C_15 
REMARK    4  A    between atoms: C_15  and  N_16 
ROOT
HETATM    1  C   UNL     1     -45.890 -52.533  13.904  1.00  0.00     0.073 C 
HETATM    2  C   UNL     1     -46.748 -51.453  14.580  1.00  0.00     0.047 C 
HETATM    3  C   UNL     1     -44.435 -52.396  14.419  1.00  0.00     0.165 C 
HETATM    4  N   UNL     1     -43.619 -53.544  14.013  1.00  0.00    -0.329 N 
HETATM    5  C   UNL     1     -44.204 -54.826  14.412  1.00  0.00     0.153 C 
HETATM    6  C   UNL     1     -45.664 -54.939  13.967  1.00  0.00     0.189 C 
HETATM    7  O   UNL     1     -46.445 -53.796  14.349  1.00  0.00    -0.377 OA
HETATM    8  C   UNL     1     -42.309 -53.529  13.587  1.00  0.00     0.318 C 
HETATM    9  O   UNL     1     -41.655 -54.553  13.402  1.00  0.00    -0.247 OA
HETATM   10  N   UNL     1     -41.756 -52.292  13.391  1.00  0.00    -0.337 N 
HETATM   11  H   UNL     1     -42.376 -51.509  13.272  1.00  0.00     0.164 HD
ENDROOT
BRANCH  10  12
HETATM   12  C   UNL     1     -40.392 -52.123  12.898  1.00  0.00     0.102 C 
HETATM   13  C   UNL     1     -40.346 -50.946  11.925  1.00  0.00     0.034 C 
BRANCH  12  14
HETATM   14  C   UNL     1     -39.400 -51.903  14.047  1.00  0.00     0.174 C 
BRANCH  14  15
HETATM   15  N   UNL     1     -39.133 -53.101  14.814  1.00  0.00    -0.285 N 
HETATM   16  C   UNL     1     -39.245 -53.278  16.158  1.00  0.00     0.201 A 
HETATM   17  N   UNL     1     -38.980 -54.528  16.458  1.00  0.00    -0.346 N 
HETATM   18  C   UNL     1     -38.707 -55.084  15.241  1.00  0.00     0.198 A 
ATOM     19  HN  UNL     1     -38.978 -54.975  17.375  1.00  0.00     0.167 HD
HETATM   20  N   UNL     1     -38.796 -54.252  14.200  1.00  0.00    -0.293 N 
ATOM     21  HN  UNL     1     -38.650 -54.438  13.208  1.00  0.00     0.188 HD
ENDBRANCH  14  15
ENDBRANCH  12  14
ENDBRANCH  10  12
BRANCH   1  22
HETATM   22  C   UNL     1     -46.012 -52.428  12.360  1.00  0.00     0.035 C 
HETATM   23  C   UNL     1     -47.115 -51.519  11.833  1.00  0.00     0.008 C 
ENDBRANCH   1  22
TORSDOF 4
ENDMDL
MODEL 5
REMARK VINA RESULT:      -5.2      4.239      6.679
REMARK  4 active torsions:
REMARK  status: ('A' for Active; 'I' for Inactive)
REMARK    1  A    between atoms: C_2  and  C_3 
REMARK       I    between atoms: N_6  and  C_10 
REMARK       I    between atoms: C_10  and  N_12 
REMARK    2  A    between atoms: N_12  and  C_13 
REMARK    3  A    between atoms: C_13  and  C_15 
REMARK    4  A    between atoms: C_15  and  N_16 
ROOT
HETATM    1  C   UNL     1     -45.728 -53.540  15.598  1.00  0.00     0.073 C 
HETATM    2  C   UNL     1     -46.029 -53.625  17.101  1.00  0.00     0.047 C 
HETATM    3  C   UNL     1     -44.293 -52.982  15.416  1.00  0.00     0.165 C 
HETATM    4  N   UNL     1     -43.846 -53.111  14.026  1.00  0.00    -0.329 N 
HETATM    5  C   UNL     1     -43.950 -54.481  13.521  1.00  0.00     0.153 C 
HETATM    6  C   UNL     1     -45.345 -55.064  13.760  1.00  0.00     0.189 C 
HETATM    7  O   UNL     1     -45.780 -54.909  15.120  1.00  0.00    -0.377 OA
HETATM    8  C   UNL     1     -43.116 -52.199  13.296  1.00  0.00     0.318 C 
HETATM    9  O   UNL     1     -42.661 -52.447  12.181  1.00  0.00    -0.247 OA
HETATM   10  N   UNL     1     -42.904 -50.985  13.892  1.00  0.00    -0.337 N 
HETATM   11  H   UNL     1     -43.510 -50.716  14.648  1.00  0.00     0.164 HD
ENDROOT
BRANCH  10  12
HETATM   12  C   UNL     1     -42.186 -49.907  13.218  1.00  0.00     0.102 C 
HETATM   13  C   UNL     1     -42.964 -48.601  13.378  1.00  0.00     0.034 C 
BRANCH  12  14
HETATM   14  C   UNL     1     -40.762 -49.750  13.765  1.00  0.00     0.174 C 
BRANCH  14  15
HETATM   15  N   UNL     1     -39.737 -49.909  12.757  1.00  0.00    -0.285 N 
HETATM   16  C   UNL     1     -39.859 -49.774  11.408  1.00  0.00     0.201 A 
HETATM   17  N   UNL     1     -38.684 -49.929  10.845  1.00  0.00    -0.346 N 
HETATM   18  C   UNL     1     -37.862 -50.162  11.910  1.00  0.00     0.198 A 
ATOM     19  HN  UNL     1     -38.444 -49.887   9.854  1.00  0.00     0.167 HD
HETATM   20  N   UNL     1     -38.459 -50.150  13.105  1.00  0.00    -0.293 N 
ATOM     21  HN  UNL     1     -38.054 -50.287  14.031  1.00  0.00     0.188 HD
ENDBRANCH  14  15
ENDBRANCH  12  14
ENDBRANCH  10  12
BRANCH   1  22
HETATM   22  C   UNL     1     -46.814 -52.698  14.879  1.00  0.00     0.035 C 
HETATM   23  C   UNL     1     -46.655 -51.186  14.957  1.00  0.00     0.008 C 
ENDBRANCH   1  22
TORSDOF 4
ENDMDL
MODEL 6
REMARK VINA RESULT:      -5.0      3.995      6.986
REMARK  4 active torsions:
REMARK  status: ('A' for Active; 'I' for Inactive)
REMARK    1  A    between atoms: C_2  and  C_3 
REMARK       I    between atoms: N_6  and  C_10 
REMARK       I    between atoms: C_10  and  N_12 
REMARK    2  A    between atoms: N_12  and  C_13 
REMARK    3  A    between atoms: C_13  and  C_15 
REMARK    4  A    between atoms: C_15  and  N_16 
ROOT
HETATM    1  C   UNL     1     -41.874 -40.897  13.333  1.00  0.00     0.073 C 
HETATM    2  C   UNL     1     -41.564 -40.732  14.829  1.00  0.00     0.047 C 
HETATM    3  C   UNL     1     -42.459 -42.314  13.107  1.00  0.00     0.165 C 
HETATM    4  N   UNL     1     -43.009 -42.450  11.755  1.00  0.00    -0.329 N 
HETATM    5  C   UNL     1     -43.993 -41.414  11.436  1.00  0.00     0.153 C 
HETATM    6  C   UNL     1     -43.447 -40.013  11.723  1.00  0.00     0.189 C 
HETATM    7  O   UNL     1     -42.887 -39.901  13.041  1.00  0.00    -0.377 OA
HETATM    8  C   UNL     1     -42.921 -43.546  10.925  1.00  0.00     0.318 C 
HETATM    9  O   UNL     1     -43.533 -43.629   9.862  1.00  0.00    -0.247 OA
HETATM   10  N   UNL     1     -42.114 -44.563  11.358  1.00  0.00    -0.337 N 
HETATM   11  H   UNL     1     -41.424 -44.356  12.058  1.00  0.00     0.164 HD
ENDROOT
BRANCH  10  12
HETATM   12  C   UNL     1     -41.891 -45.766  10.560  1.00  0.00     0.102 C 
HETATM   13  C   UNL     1     -40.461 -46.259  10.774  1.00  0.00     0.034 C 
BRANCH  12  14
HETATM   14  C   UNL     1     -42.894 -46.871  10.913  1.00  0.00     0.174 C 
BRANCH  14  15
HETATM   15  N   UNL     1     -43.782 -47.212   9.823  1.00  0.00    -0.285 N 
HETATM   16  C   UNL     1     -43.451 -47.581   8.556  1.00  0.00     0.201 A 
HETATM   17  N   UNL     1     -44.541 -47.876   7.887  1.00  0.00    -0.346 N 
HETATM   18  C   UNL     1     -45.529 -47.669   8.806  1.00  0.00     0.198 A 
ATOM     19  HN  UNL     1     -44.628 -48.185   6.918  1.00  0.00     0.167 HD
HETATM   20  N   UNL     1     -45.114 -47.270  10.011  1.00  0.00    -0.293 N 
ATOM     21  HN  UNL     1     -45.660 -47.065  10.848  1.00  0.00     0.188 HD
ENDBRANCH  14  15
ENDBRANCH  12  14
ENDBRANCH  10  12
BRANCH   1  22
HETATM   22  C   UNL     1     -40.605 -40.609  12.487  1.00  0.00     0.035 C 
HETATM   23  C   UNL     1     -39.319 -40.367  13.265  1.00  0.00     0.008 C 
ENDBRANCH   1  22
TORSDOF 4
ENDMDL
MODEL 7
REMARK VINA RESULT:      -5.0      2.799      4.818
REMARK  4 active torsions:
REMARK  status: ('A' for Active; 'I' for Inactive)
REMARK    1  A    between atoms: C_2  and  C_3 
REMARK       I    between atoms: N_6  and  C_10 
REMARK       I    between atoms: C_10  and  N_12 
REMARK    2  A    between atoms: N_12  and  C_13 
REMARK    3  A    between atoms: C_13  and  C_15 
REMARK    4  A    between atoms: C_15  and  N_16 
ROOT
HETATM    1  C   UNL     1     -43.277 -53.210  13.795  1.00  0.00     0.073 C 
HETATM    2  C   UNL     1     -44.119 -53.429  15.061  1.00  0.00     0.047 C 
HETATM    3  C   UNL     1     -42.618 -51.809  13.881  1.00  0.00     0.165 C 
HETATM    4  N   UNL     1     -41.605 -51.635  12.836  1.00  0.00    -0.329 N 
HETATM    5  C   UNL     1     -40.597 -52.697  12.840  1.00  0.00     0.153 C 
HETATM    6  C   UNL     1     -41.242 -54.085  12.825  1.00  0.00     0.189 C 
HETATM    7  O   UNL     1     -42.250 -54.232  13.838  1.00  0.00    -0.377 OA
HETATM    8  C   UNL     1     -41.357 -50.500  12.096  1.00  0.00     0.318 C 
HETATM    9  O   UNL     1     -40.394 -50.395  11.338  1.00  0.00    -0.247 OA
HETATM   10  N   UNL     1     -42.243 -49.470  12.261  1.00  0.00    -0.337 N 
HETATM   11  H   UNL     1     -43.147 -49.679  12.647  1.00  0.00     0.164 HD
ENDROOT
BRANCH  10  12
HETATM   12  C   UNL     1     -42.129 -48.224  11.508  1.00  0.00     0.102 C 
HETATM   13  C   UNL     1     -43.518 -47.781  11.049  1.00  0.00     0.034 C 
BRANCH  12  14
HETATM   14  C   UNL     1     -41.466 -47.120  12.340  1.00  0.00     0.174 C 
BRANCH  14  15
HETATM   15  N   UNL     1     -40.866 -46.076  11.538  1.00  0.00    -0.285 N 
HETATM   16  C   UNL     1     -40.932 -44.731  11.728  1.00  0.00     0.201 A 
HETATM   17  N   UNL     1     -40.198 -44.124  10.825  1.00  0.00    -0.346 N 
HETATM   18  C   UNL     1     -39.694 -45.162  10.094  1.00  0.00     0.198 A 
ATOM     19  HN  UNL     1     -40.041 -43.124  10.700  1.00  0.00     0.167 HD
HETATM   20  N   UNL     1     -40.067 -46.379  10.497  1.00  0.00    -0.293 N 
ATOM     21  HN  UNL     1     -39.814 -47.292  10.119  1.00  0.00     0.188 HD
ENDBRANCH  14  15
ENDBRANCH  12  14
ENDBRANCH  10  12
BRANCH   1  22
HETATM   22  C   UNL     1     -44.151 -53.405  12.528  1.00  0.00     0.035 C 
HETATM   23  C   UNL     1     -45.494 -52.687  12.520  1.00  0.00     0.008 C 
ENDBRANCH   1  22
TORSDOF 4
ENDMDL
MODEL 8
REMARK VINA RESULT:      -4.8      3.616      6.607
REMARK  4 active torsions:
REMARK  status: ('A' for Active; 'I' for Inactive)
REMARK    1  A    between atoms: C_2  and  C_3 
REMARK       I    between atoms: N_6  and  C_10 
REMARK       I    between atoms: C_10  and  N_12 
REMARK    2  A    between atoms: N_12  and  C_13 
REMARK    3  A    between atoms: C_13  and  C_15 
REMARK    4  A    between atoms: C_15  and  N_16 
ROOT
HETATM    1  C   UNL     1     -46.031 -52.002  13.453  1.00  0.00     0.073 C 
HETATM    2  C   UNL     1     -46.801 -51.782  12.142  1.00  0.00     0.047 C 
HETATM    3  C   UNL     1     -44.638 -51.335  13.321  1.00  0.00     0.165 C 
HETATM    4  N   UNL     1     -43.949 -51.287  14.614  1.00  0.00    -0.329 N 
HETATM    5  C   UNL     1     -44.749 -50.643  15.659  1.00  0.00     0.153 C 
HETATM    6  C   UNL     1     -46.151 -51.251  15.748  1.00  0.00     0.189 C 
HETATM    7  O   UNL     1     -46.803 -51.315  14.470  1.00  0.00    -0.377 OA
HETATM    8  C   UNL     1     -42.611 -51.502  14.855  1.00  0.00     0.318 C 
HETATM    9  O   UNL     1     -42.089 -51.302  15.950  1.00  0.00    -0.247 OA
HETATM   10  N   UNL     1     -41.873 -51.945  13.791  1.00  0.00    -0.337 N 
HETATM   11  H   UNL     1     -42.360 -52.364  13.018  1.00  0.00     0.164 HD
ENDROOT
BRANCH  10  12
HETATM   12  C   UNL     1     -40.452 -52.259  13.911  1.00  0.00     0.102 C 
HETATM   13  C   UNL     1     -40.267 -53.775  13.937  1.00  0.00     0.034 C 
BRANCH  12  14
HETATM   14  C   UNL     1     -39.639 -51.642  12.767  1.00  0.00     0.174 C 
BRANCH  14  15
HETATM   15  N   UNL     1     -40.186 -50.394  12.280  1.00  0.00    -0.285 N 
HETATM   16  C   UNL     1     -40.199 -49.184  12.903  1.00  0.00     0.201 A 
HETATM   17  N   UNL     1     -40.723 -48.286  12.103  1.00  0.00    -0.346 N 
HETATM   18  C   UNL     1     -41.020 -49.009  10.984  1.00  0.00     0.198 A 
ATOM     19  HN  UNL     1     -40.873 -47.292  12.275  1.00  0.00     0.167 HD
HETATM   20  N   UNL     1     -40.702 -50.304  11.039  1.00  0.00    -0.293 N 
ATOM     21  HN  UNL     1     -40.817 -51.030  10.331  1.00  0.00     0.188 HD
ENDBRANCH  14  15
ENDBRANCH  12  14
ENDBRANCH  10  12
BRANCH   1  22
HETATM   22  C   UNL     1     -45.963 -53.516  13.787  1.00  0.00     0.035 C 
HETATM   23  C   UNL     1     -44.818 -54.294  13.152  1.00  0.00     0.008 C 
ENDBRANCH   1  22
TORSDOF 4
ENDMDL
MODEL 9
REMARK VINA RESULT:      -4.8      2.973      4.764
REMARK  4 active torsions:
REMARK  status: ('A' for Active; 'I' for Inactive)
REMARK    1  A    between atoms: C_2  and  C_3 
REMARK       I    between atoms: N_6  and  C_10 
REMARK       I    between atoms: C_10  and  N_12 
REMARK    2  A    between atoms: N_12  and  C_13 
REMARK    3  A    between atoms: C_13  and  C_15 
REMARK    4  A    between atoms: C_15  and  N_16 
ROOT
HETATM    1  C   UNL     1     -44.195 -53.379  13.994  1.00  0.00     0.073 C 
HETATM    2  C   UNL     1     -44.894 -54.515  13.232  1.00  0.00     0.047 C 
HETATM    3  C   UNL     1     -44.195 -52.115  13.097  1.00  0.00     0.165 C 
HETATM    4  N   UNL     1     -43.773 -50.930  13.851  1.00  0.00    -0.329 N 
HETATM    5  C   UNL     1     -44.564 -50.719  15.065  1.00  0.00     0.153 C 
HETATM    6  C   UNL     1     -44.627 -51.985  15.922  1.00  0.00     0.189 C 
HETATM    7  O   UNL     1     -45.016 -53.142  15.165  1.00  0.00    -0.377 OA
HETATM    8  C   UNL     1     -42.964 -49.906  13.411  1.00  0.00     0.318 C 
HETATM    9  O   UNL     1     -42.776 -48.879  14.060  1.00  0.00    -0.247 OA
HETATM   10  N   UNL     1     -42.381 -50.085  12.186  1.00  0.00    -0.337 N 
HETATM   11  H   UNL     1     -42.319 -51.020  11.822  1.00  0.00     0.164 HD
ENDROOT
BRANCH  10  12
HETATM   12  C   UNL     1     -41.464 -49.103  11.614  1.00  0.00     0.102 C 
HETATM   13  C   UNL     1     -40.247 -49.822  11.034  1.00  0.00     0.034 C 
BRANCH  12  14
HETATM   14  C   UNL     1     -42.147 -48.256  10.533  1.00  0.00     0.174 C 
BRANCH  14  15
HETATM   15  N   UNL     1     -42.315 -46.869  10.910  1.00  0.00    -0.285 N 
HETATM   16  C   UNL     1     -42.849 -45.858  10.172  1.00  0.00     0.201 A 
HETATM   17  N   UNL     1     -42.889 -44.763  10.893  1.00  0.00    -0.346 N 
HETATM   18  C   UNL     1     -42.357 -45.163  12.086  1.00  0.00     0.198 A 
ATOM     19  HN  UNL     1     -43.231 -43.839  10.628  1.00  0.00     0.167 HD
HETATM   20  N   UNL     1     -41.998 -46.447  12.149  1.00  0.00    -0.293 N 
ATOM     21  HN  UNL     1     -41.594 -46.969  12.927  1.00  0.00     0.188 HD
ENDBRANCH  14  15
ENDBRANCH  12  14
ENDBRANCH  10  12
BRANCH   1  22
HETATM   22  C   UNL     1     -42.775 -53.823  14.437  1.00  0.00     0.035 C 
HETATM   23  C   UNL     1     -41.769 -54.068  13.321  1.00  0.00     0.008 C 
ENDBRANCH   1  22
TORSDOF 4
ENDMDL
