MODEL 1
REMARK VINA RESULT:      -6.2      0.000      0.000
REMARK  6 active torsions:
REMARK  status: ('A' for Active; 'I' for Inactive)
REMARK    1  A    between atoms: O_2  and  C_3 
REMARK    2  A    between atoms: C_3  and  C_4 
REMARK    3  A    between atoms: C_4  and  N_5 
REMARK    4  A    between atoms: C_6  and  C_7 
REMARK    5  A    between atoms: C_7  and  N_8 
REMARK       I    between atoms: N_8  and  C_9 
REMARK    6  A    between atoms: C_9  and  C_11 
ROOT
HETATM    1  N   UNL     1     -41.284 -51.869  13.576  1.00  0.00    -0.331 N 
HETATM    2  C   UNL     1     -41.736 -51.166  12.472  1.00  0.00     0.102 A 
HETATM    3  N   UNL     1     -42.895 -51.646  12.061  1.00  0.00    -0.343 N 
ATOM      4  HN  UNL     1     -43.468 -51.293  11.294  1.00  0.00     0.167 HD
HETATM    5  C   UNL     1     -43.175 -52.716  12.875  1.00  0.00     0.060 A 
HETATM    6  C   UNL     1     -44.289 -53.567  12.864  1.00  0.00     0.032 A 
HETATM    7  C   UNL     1     -44.328 -54.637  13.764  1.00  0.00     0.002 A 
HETATM    8  C   UNL     1     -43.273 -54.857  14.650  1.00  0.00     0.002 A 
HETATM    9  C   UNL     1     -42.168 -53.998  14.693  1.00  0.00     0.032 A 
HETATM   10  C   UNL     1     -42.154 -52.920  13.794  1.00  0.00     0.062 A 
ENDROOT
BRANCH   2  11
HETATM   11  C   UNL     1     -41.040 -50.004  11.842  1.00  0.00     0.199 C 
BRANCH  11  12
HETATM   12  N   UNL     1     -41.946 -49.289  10.979  1.00  0.00    -0.348 N 
HETATM   13  C   UNL     1     -41.720 -47.962  10.675  1.00  0.00     0.275 C 
HETATM   14  O   UNL     1     -40.655 -47.407  10.937  1.00  0.00    -0.265 OA
HETATM   15  H   UNL     1     -42.896 -49.631  10.889  1.00  0.00     0.163 HD
BRANCH  13  16
HETATM   16  C   UNL     1     -42.827 -47.287  10.029  1.00  0.00     0.142 A 
HETATM   17  C   UNL     1     -44.167 -47.625   9.948  1.00  0.00     0.045 A 
HETATM   18  C   UNL     1     -44.797 -46.611   9.192  1.00  0.00     0.027 A 
HETATM   19  C   UNL     1     -43.810 -45.719   8.847  1.00  0.00     0.143 A 
HETATM   20  O   UNL     1     -42.610 -46.117   9.348  1.00  0.00    -0.317 OA
ENDBRANCH  13  16
ENDBRANCH  11  12
ENDBRANCH   2  11
BRANCH   1  21
HETATM   21  C   UNL     1     -40.112 -51.574  14.378  1.00  0.00     0.156 C 
BRANCH  21  22
HETATM   22  C   UNL     1     -38.917 -52.478  14.077  1.00  0.00     0.187 C 
BRANCH  22  23
HETATM   23  O   UNL     1     -38.091 -51.849  13.094  1.00  0.00    -0.394 OA
HETATM   24  C   UNL     1     -37.665 -50.559  13.522  1.00  0.00     0.201 C 
ENDBRANCH  22  23
ENDBRANCH  21  22
ENDBRANCH   1  21
TORSDOF 6
ENDMDL
MODEL 2
REMARK VINA RESULT:      -6.1      1.628      2.157
REMARK  6 active torsions:
REMARK  status: ('A' for Active; 'I' for Inactive)
REMARK    1  A    between atoms: O_2  and  C_3 
REMARK    2  A    between atoms: C_3  and  C_4 
REMARK    3  A    between atoms: C_4  and  N_5 
REMARK    4  A    between atoms: C_6  and  C_7 
REMARK    5  A    between atoms: C_7  and  N_8 
REMARK       I    between atoms: N_8  and  C_9 
REMARK    6  A    between atoms: C_9  and  C_11 
ROOT
HETATM    1  N   UNL     1     -41.188 -52.973  13.519  1.00  0.00    -0.331 N 
HETATM    2  C   UNL     1     -41.282 -52.231  12.354  1.00  0.00     0.102 A 
HETATM    3  N   UNL     1     -42.494 -52.331  11.839  1.00  0.00    -0.343 N 
ATOM      4  HN  UNL     1     -42.847 -51.860  11.007  1.00  0.00     0.167 HD
HETATM    5  C   UNL     1     -43.183 -53.198  12.651  1.00  0.00     0.060 A 
HETATM    6  C   UNL     1     -44.510 -53.637  12.550  1.00  0.00     0.032 A 
HETATM    7  C   UNL     1     -44.981 -54.577  13.473  1.00  0.00     0.002 A 
HETATM    8  C   UNL     1     -44.142 -55.074  14.470  1.00  0.00     0.002 A 
HETATM    9  C   UNL     1     -42.822 -54.622  14.602  1.00  0.00     0.032 A 
HETATM   10  C   UNL     1     -42.373 -53.666  13.678  1.00  0.00     0.062 A 
ENDROOT
BRANCH   2  11
HETATM   11  C   UNL     1     -40.188 -51.403  11.765  1.00  0.00     0.199 C 
BRANCH  11  12
HETATM   12  N   UNL     1     -40.741 -50.269  11.068  1.00  0.00    -0.348 N 
HETATM   13  C   UNL     1     -40.383 -48.986  11.427  1.00  0.00     0.275 C 
HETATM   14  O   UNL     1     -39.441 -48.761  12.184  1.00  0.00    -0.265 OA
HETATM   15  H   UNL     1     -41.623 -50.387  10.582  1.00  0.00     0.163 HD
BRANCH  13  16
HETATM   16  C   UNL     1     -41.198 -47.940  10.844  1.00  0.00     0.142 A 
HETATM   17  C   UNL     1     -41.040 -46.565  10.846  1.00  0.00     0.045 A 
HETATM   18  C   UNL     1     -42.133 -46.028  10.130  1.00  0.00     0.027 A 
HETATM   19  C   UNL     1     -42.901 -47.100   9.741  1.00  0.00     0.143 A 
HETATM   20  O   UNL     1     -42.345 -48.266  10.166  1.00  0.00    -0.317 OA
ENDBRANCH  13  16
ENDBRANCH  11  12
ENDBRANCH   2  11
BRANCH   1  21
HETATM   21  C   UNL     1     -40.060 -53.027  14.430  1.00  0.00     0.156 C 
BRANCH  21  22
HETATM   22  C   UNL     1     -39.094 -54.176  14.145  1.00  0.00     0.187 C 
BRANCH  22  23
HETATM   23  O   UNL     1     -39.263 -55.188  15.141  1.00  0.00    -0.394 OA
HETATM   24  C   UNL     1     -39.433 -54.618  16.435  1.00  0.00     0.201 C 
ENDBRANCH  22  23
ENDBRANCH  21  22
ENDBRANCH   1  21
TORSDOF 6
ENDMDL
MODEL 3
REMARK VINA RESULT:      -6.1      3.955      6.174
REMARK  6 active torsions:
REMARK  status: ('A' for Active; 'I' for Inactive)
REMARK    1  A    between atoms: O_2  and  C_3 
REMARK    2  A    between atoms: C_3  and  C_4 
REMARK    3  A    between atoms: C_4  and  N_5 
REMARK    4  A    between atoms: C_6  and  C_7 
REMARK    5  A    between atoms: C_7  and  N_8 
REMARK       I    between atoms: N_8  and  C_9 
REMARK    6  A    between atoms: C_9  and  C_11 
ROOT
HETATM    1  N   UNL     1     -40.588 -52.574  12.985  1.00  0.00    -0.331 N 
HETATM    2  C   UNL     1     -41.687 -52.113  12.280  1.00  0.00     0.102 A 
HETATM    3  N   UNL     1     -41.403 -50.976  11.671  1.00  0.00    -0.343 N 
ATOM      4  HN  UNL     1     -42.015 -50.440  11.057  1.00  0.00     0.167 HD
HETATM    5  C   UNL     1     -40.116 -50.662  12.033  1.00  0.00     0.060 A 
HETATM    6  C   UNL     1     -39.336 -49.560  11.655  1.00  0.00     0.032 A 
HETATM    7  C   UNL     1     -38.056 -49.421  12.202  1.00  0.00     0.002 A 
HETATM    8  C   UNL     1     -37.569 -50.359  13.114  1.00  0.00     0.002 A 
HETATM    9  C   UNL     1     -38.325 -51.480  13.477  1.00  0.00     0.032 A 
HETATM   10  C   UNL     1     -39.600 -51.612  12.905  1.00  0.00     0.062 A 
ENDROOT
BRANCH   2  11
HETATM   11  C   UNL     1     -43.006 -52.807  12.183  1.00  0.00     0.199 C 
BRANCH  11  12
HETATM   12  N   UNL     1     -43.808 -52.520  13.346  1.00  0.00    -0.348 N 
HETATM   13  C   UNL     1     -45.034 -53.129  13.517  1.00  0.00     0.275 C 
HETATM   14  O   UNL     1     -45.391 -54.079  12.824  1.00  0.00    -0.265 OA
HETATM   15  H   UNL     1     -43.652 -51.644  13.833  1.00  0.00     0.163 HD
BRANCH  13  16
HETATM   16  C   UNL     1     -45.854 -52.565  14.570  1.00  0.00     0.142 A 
HETATM   17  C   UNL     1     -46.728 -51.491  14.556  1.00  0.00     0.045 A 
HETATM   18  C   UNL     1     -47.256 -51.381  15.862  1.00  0.00     0.027 A 
HETATM   19  C   UNL     1     -46.672 -52.382  16.599  1.00  0.00     0.143 A 
HETATM   20  O   UNL     1     -45.819 -53.109  15.828  1.00  0.00    -0.317 OA
ENDBRANCH  13  16
ENDBRANCH  11  12
ENDBRANCH   2  11
BRANCH   1  21
HETATM   21  C   UNL     1     -40.470 -53.838  13.687  1.00  0.00     0.156 C 
BRANCH  21  22
HETATM   22  C   UNL     1     -40.710 -53.731  15.192  1.00  0.00     0.187 C 
BRANCH  22  23
HETATM   23  O   UNL     1     -42.114 -53.807  15.449  1.00  0.00    -0.394 OA
HETATM   24  C   UNL     1     -42.561 -55.159  15.485  1.00  0.00     0.201 C 
ENDBRANCH  22  23
ENDBRANCH  21  22
ENDBRANCH   1  21
TORSDOF 6
ENDMDL
MODEL 4
REMARK VINA RESULT:      -6.0      1.731      2.103
REMARK  6 active torsions:
REMARK  status: ('A' for Active; 'I' for Inactive)
REMARK    1  A    between atoms: O_2  and  C_3 
REMARK    2  A    between atoms: C_3  and  C_4 
REMARK    3  A    between atoms: C_4  and  N_5 
REMARK    4  A    between atoms: C_6  and  C_7 
REMARK    5  A    between atoms: C_7  and  N_8 
REMARK       I    between atoms: N_8  and  C_9 
REMARK    6  A    between atoms: C_9  and  C_11 
ROOT
HETATM    1  N   UNL     1     -42.919 -52.142  13.885  1.00  0.00    -0.331 N 
HETATM    2  C   UNL     1     -43.034 -51.012  13.093  1.00  0.00     0.102 A 
HETATM    3  N   UNL     1     -44.288 -50.601  13.053  1.00  0.00    -0.343 N 
ATOM      4  HN  UNL     1     -44.648 -49.775  12.575  1.00  0.00     0.167 HD
HETATM    5  C   UNL     1     -45.011 -51.512  13.784  1.00  0.00     0.060 A 
HETATM    6  C   UNL     1     -46.386 -51.533  14.058  1.00  0.00     0.032 A 
HETATM    7  C   UNL     1     -46.911 -52.606  14.787  1.00  0.00     0.002 A 
HETATM    8  C   UNL     1     -46.081 -53.639  15.225  1.00  0.00     0.002 A 
HETATM    9  C   UNL     1     -44.701 -53.616  14.984  1.00  0.00     0.032 A 
HETATM   10  C   UNL     1     -44.190 -52.523  14.267  1.00  0.00     0.062 A 
ENDROOT
BRANCH   2  11
HETATM   11  C   UNL     1     -41.905 -50.321  12.401  1.00  0.00     0.199 C 
BRANCH  11  12
HETATM   12  N   UNL     1     -42.408 -49.476  11.348  1.00  0.00    -0.348 N 
HETATM   13  C   UNL     1     -41.736 -48.323  10.996  1.00  0.00     0.275 C 
HETATM   14  O   UNL     1     -40.599 -48.085  11.397  1.00  0.00    -0.265 OA
HETATM   15  H   UNL     1     -43.395 -49.525  11.121  1.00  0.00     0.163 HD
BRANCH  13  16
HETATM   16  C   UNL     1     -42.472 -47.429  10.125  1.00  0.00     0.142 A 
HETATM   17  C   UNL     1     -42.838 -46.105  10.291  1.00  0.00     0.045 A 
HETATM   18  C   UNL     1     -43.548 -45.730   9.128  1.00  0.00     0.027 A 
HETATM   19  C   UNL     1     -43.584 -46.845   8.324  1.00  0.00     0.143 A 
HETATM   20  O   UNL     1     -42.934 -47.882   8.916  1.00  0.00    -0.317 OA
ENDBRANCH  13  16
ENDBRANCH  11  12
ENDBRANCH   2  11
BRANCH   1  21
HETATM   21  C   UNL     1     -41.693 -52.819  14.264  1.00  0.00     0.156 C 
BRANCH  21  22
HETATM   22  C   UNL     1     -41.207 -53.834  13.231  1.00  0.00     0.187 C 
BRANCH  22  23
HETATM   23  O   UNL     1     -39.780 -53.778  13.157  1.00  0.00    -0.394 OA
HETATM   24  C   UNL     1     -39.259 -52.735  13.974  1.00  0.00     0.201 C 
ENDBRANCH  22  23
ENDBRANCH  21  22
ENDBRANCH   1  21
TORSDOF 6
ENDMDL
MODEL 5
REMARK VINA RESULT:      -5.8      2.092      3.242
REMARK  6 active torsions:
REMARK  status: ('A' for Active; 'I' for Inactive)
REMARK    1  A    between atoms: O_2  and  C_3 
REMARK    2  A    between atoms: C_3  and  C_4 
REMARK    3  A    between atoms: C_4  and  N_5 
REMARK    4  A    between atoms: C_6  and  C_7 
REMARK    5  A    between atoms: C_7  and  N_8 
REMARK       I    between atoms: N_8  and  C_9 
REMARK    6  A    between atoms: C_9  and  C_11 
ROOT
HETATM    1  N   UNL     1     -42.940 -53.426  13.586  1.00  0.00    -0.331 N 
HETATM    2  C   UNL     1     -42.656 -52.457  12.639  1.00  0.00     0.102 A 
HETATM    3  N   UNL     1     -43.656 -51.599  12.541  1.00  0.00    -0.343 N 
ATOM      4  HN  UNL     1     -43.696 -50.769  11.950  1.00  0.00     0.167 HD
HETATM    5  C   UNL     1     -44.630 -52.050  13.396  1.00  0.00     0.060 A 
HETATM    6  C   UNL     1     -45.889 -51.498  13.672  1.00  0.00     0.032 A 
HETATM    7  C   UNL     1     -46.744 -52.174  14.548  1.00  0.00     0.002 A 
HETATM    8  C   UNL     1     -46.354 -53.380  15.131  1.00  0.00     0.002 A 
HETATM    9  C   UNL     1     -45.088 -53.929  14.888  1.00  0.00     0.032 A 
HETATM   10  C   UNL     1     -44.237 -53.228  14.019  1.00  0.00     0.062 A 
ENDROOT
BRANCH   2  11
HETATM   11  C   UNL     1     -41.389 -52.359  11.853  1.00  0.00     0.199 C 
BRANCH  11  12
HETATM   12  N   UNL     1     -41.202 -51.012  11.376  1.00  0.00    -0.348 N 
HETATM   13  C   UNL     1     -40.212 -50.213  11.912  1.00  0.00     0.275 C 
HETATM   14  O   UNL     1     -39.332 -50.667  12.640  1.00  0.00    -0.265 OA
HETATM   15  H   UNL     1     -41.983 -50.547  10.928  1.00  0.00     0.163 HD
BRANCH  13  16
HETATM   16  C   UNL     1     -40.296 -48.813  11.548  1.00  0.00     0.142 A 
HETATM   17  C   UNL     1     -39.465 -47.749  11.856  1.00  0.00     0.045 A 
HETATM   18  C   UNL     1     -40.025 -46.606  11.242  1.00  0.00     0.027 A 
HETATM   19  C   UNL     1     -41.166 -47.032  10.605  1.00  0.00     0.143 A 
HETATM   20  O   UNL     1     -41.342 -48.368  10.781  1.00  0.00    -0.317 OA
ENDBRANCH  13  16
ENDBRANCH  11  12
ENDBRANCH   2  11
BRANCH   1  21
HETATM   21  C   UNL     1     -42.051 -54.471  14.058  1.00  0.00     0.156 C 
BRANCH  21  22
HETATM   22  C   UNL     1     -41.311 -54.113  15.346  1.00  0.00     0.187 C 
BRANCH  22  23
HETATM   23  O   UNL     1     -40.015 -54.715  15.322  1.00  0.00    -0.394 OA
HETATM   24  C   UNL     1     -39.324 -54.413  14.114  1.00  0.00     0.201 C 
ENDBRANCH  22  23
ENDBRANCH  21  22
ENDBRANCH   1  21
TORSDOF 6
ENDMDL
MODEL 6
REMARK VINA RESULT:      -5.7      3.039      6.377
REMARK  6 active torsions:
REMARK  status: ('A' for Active; 'I' for Inactive)
REMARK    1  A    between atoms: O_2  and  C_3 
REMARK    2  A    between atoms: C_3  and  C_4 
REMARK    3  A    between atoms: C_4  and  N_5 
REMARK    4  A    between atoms: C_6  and  C_7 
REMARK    5  A    between atoms: C_7  and  N_8 
REMARK       I    between atoms: N_8  and  C_9 
REMARK    6  A    between atoms: C_9  and  C_11 
ROOT
HETATM    1  N   UNL     1     -39.810 -47.914  12.587  1.00  0.00    -0.331 N 
HETATM    2  C   UNL     1     -40.411 -48.517  11.495  1.00  0.00     0.102 A 
HETATM    3  N   UNL     1     -40.677 -47.621  10.561  1.00  0.00    -0.343 N 
ATOM      4  HN  UNL     1     -41.083 -47.796   9.642  1.00  0.00     0.167 HD
HETATM    5  C   UNL     1     -40.297 -46.407  11.078  1.00  0.00     0.060 A 
HETATM    6  C   UNL     1     -40.361 -45.137  10.488  1.00  0.00     0.032 A 
HETATM    7  C   UNL     1     -39.963 -44.025  11.238  1.00  0.00     0.002 A 
HETATM    8  C   UNL     1     -39.518 -44.178  12.552  1.00  0.00     0.002 A 
HETATM    9  C   UNL     1     -39.420 -45.444  13.143  1.00  0.00     0.032 A 
HETATM   10  C   UNL     1     -39.807 -46.549  12.370  1.00  0.00     0.062 A 
ENDROOT
BRANCH   2  11
HETATM   11  C   UNL     1     -40.694 -49.977  11.360  1.00  0.00     0.199 C 
BRANCH  11  12
HETATM   12  N   UNL     1     -42.035 -50.267  11.801  1.00  0.00    -0.348 N 
HETATM   13  C   UNL     1     -42.252 -51.142  12.847  1.00  0.00     0.275 C 
HETATM   14  O   UNL     1     -41.338 -51.531  13.570  1.00  0.00    -0.265 OA
HETATM   15  H   UNL     1     -42.799 -50.124  11.150  1.00  0.00     0.163 HD
BRANCH  13  16
HETATM   16  C   UNL     1     -43.630 -51.556  13.019  1.00  0.00     0.142 A 
HETATM   17  C   UNL     1     -44.696 -50.915  13.627  1.00  0.00     0.045 A 
HETATM   18  C   UNL     1     -45.809 -51.778  13.510  1.00  0.00     0.027 A 
HETATM   19  C   UNL     1     -45.360 -52.896  12.850  1.00  0.00     0.143 A 
HETATM   20  O   UNL     1     -44.041 -52.775  12.545  1.00  0.00    -0.317 OA
ENDBRANCH  13  16
ENDBRANCH  11  12
ENDBRANCH   2  11
BRANCH   1  21
HETATM   21  C   UNL     1     -39.270 -48.575  13.760  1.00  0.00     0.156 C 
BRANCH  21  22
HETATM   22  C   UNL     1     -37.751 -48.737  13.730  1.00  0.00     0.187 C 
BRANCH  22  23
HETATM   23  O   UNL     1     -37.415 -50.065  14.138  1.00  0.00    -0.394 OA
HETATM   24  C   UNL     1     -37.559 -50.990  13.064  1.00  0.00     0.201 C 
ENDBRANCH  22  23
ENDBRANCH  21  22
ENDBRANCH   1  21
TORSDOF 6
ENDMDL
MODEL 7
REMARK VINA RESULT:      -5.7      2.494      6.423
REMARK  6 active torsions:
REMARK  status: ('A' for Active; 'I' for Inactive)
REMARK    1  A    between atoms: O_2  and  C_3 
REMARK    2  A    between atoms: C_3  and  C_4 
REMARK    3  A    between atoms: C_4  and  N_5 
REMARK    4  A    between atoms: C_6  and  C_7 
REMARK    5  A    between atoms: C_7  and  N_8 
REMARK       I    between atoms: N_8  and  C_9 
REMARK    6  A    between atoms: C_9  and  C_11 
ROOT
HETATM    1  N   UNL     1     -39.799 -49.127  11.735  1.00  0.00    -0.331 N 
HETATM    2  C   UNL     1     -40.698 -50.176  11.832  1.00  0.00     0.102 A 
HETATM    3  N   UNL     1     -41.884 -49.812  11.378  1.00  0.00    -0.343 N 
ATOM      4  HN  UNL     1     -42.716 -50.396  11.299  1.00  0.00     0.167 HD
HETATM    5  C   UNL     1     -41.770 -48.487  11.034  1.00  0.00     0.060 A 
HETATM    6  C   UNL     1     -42.738 -47.628  10.495  1.00  0.00     0.032 A 
HETATM    7  C   UNL     1     -42.402 -46.287  10.277  1.00  0.00     0.002 A 
HETATM    8  C   UNL     1     -41.129 -45.814  10.597  1.00  0.00     0.002 A 
HETATM    9  C   UNL     1     -40.143 -46.668  11.108  1.00  0.00     0.032 A 
HETATM   10  C   UNL     1     -40.492 -48.013  11.304  1.00  0.00     0.062 A 
ENDROOT
BRANCH   2  11
HETATM   11  C   UNL     1     -40.381 -51.543  12.344  1.00  0.00     0.199 C 
BRANCH  11  12
HETATM   12  N   UNL     1     -41.555 -52.140  12.929  1.00  0.00    -0.348 N 
HETATM   13  C   UNL     1     -41.649 -53.510  13.062  1.00  0.00     0.275 C 
HETATM   14  O   UNL     1     -40.679 -54.248  12.899  1.00  0.00    -0.265 OA
HETATM   15  H   UNL     1     -42.422 -51.615  12.911  1.00  0.00     0.163 HD
BRANCH  13  16
HETATM   16  C   UNL     1     -42.967 -54.001  13.409  1.00  0.00     0.142 A 
HETATM   17  C   UNL     1     -43.393 -54.767  14.480  1.00  0.00     0.045 A 
HETATM   18  C   UNL     1     -44.784 -54.955  14.319  1.00  0.00     0.027 A 
HETATM   19  C   UNL     1     -45.127 -54.304  13.158  1.00  0.00     0.143 A 
HETATM   20  O   UNL     1     -44.036 -53.720  12.596  1.00  0.00    -0.317 OA
ENDBRANCH  13  16
ENDBRANCH  11  12
ENDBRANCH   2  11
BRANCH   1  21
HETATM   21  C   UNL     1     -38.378 -49.167  12.025  1.00  0.00     0.156 C 
BRANCH  21  22
HETATM   22  C   UNL     1     -38.034 -48.802  13.468  1.00  0.00     0.187 C 
BRANCH  22  23
HETATM   23  O   UNL     1     -37.385 -49.913  14.090  1.00  0.00    -0.394 OA
HETATM   24  C   UNL     1     -38.175 -50.451  15.146  1.00  0.00     0.201 C 
ENDBRANCH  22  23
ENDBRANCH  21  22
ENDBRANCH   1  21
TORSDOF 6
ENDMDL
MODEL 8
REMARK VINA RESULT:      -5.6      3.615      7.066
REMARK  6 active torsions:
REMARK  status: ('A' for Active; 'I' for Inactive)
REMARK    1  A    between atoms: O_2  and  C_3 
REMARK    2  A    between atoms: C_3  and  C_4 
REMARK    3  A    between atoms: C_4  and  N_5 
REMARK    4  A    between atoms: C_6  and  C_7 
REMARK    5  A    between atoms: C_7  and  N_8 
REMARK       I    between atoms: N_8  and  C_9 
REMARK    6  A    between atoms: C_9  and  C_11 
ROOT
HETATM    1  N   UNL     1     -43.281 -52.386  13.487  1.00  0.00    -0.331 N 
HETATM    2  C   UNL     1     -42.886 -53.705  13.636  1.00  0.00     0.102 A 
HETATM    3  N   UNL     1     -43.894 -54.443  14.066  1.00  0.00    -0.343 N 
ATOM      4  HN  UNL     1     -43.892 -55.450  14.225  1.00  0.00     0.167 HD
HETATM    5  C   UNL     1     -44.945 -53.580  14.253  1.00  0.00     0.060 A 
HETATM    6  C   UNL     1     -46.248 -53.857  14.693  1.00  0.00     0.032 A 
HETATM    7  C   UNL     1     -47.141 -52.794  14.863  1.00  0.00     0.002 A 
HETATM    8  C   UNL     1     -46.740 -51.482  14.608  1.00  0.00     0.002 A 
HETATM    9  C   UNL     1     -45.451 -51.194  14.141  1.00  0.00     0.032 A 
HETATM   10  C   UNL     1     -44.574 -52.275  13.959  1.00  0.00     0.062 A 
ENDROOT
BRANCH   2  11
HETATM   11  C   UNL     1     -41.527 -54.242  13.329  1.00  0.00     0.199 C 
BRANCH  11  12
HETATM   12  N   UNL     1     -40.750 -54.352  14.538  1.00  0.00    -0.348 N 
HETATM   13  C   UNL     1     -39.371 -54.397  14.480  1.00  0.00     0.275 C 
HETATM   14  O   UNL     1     -38.754 -54.132  13.452  1.00  0.00    -0.265 OA
HETATM   15  H   UNL     1     -41.193 -54.743  15.362  1.00  0.00     0.163 HD
BRANCH  13  16
HETATM   16  C   UNL     1     -38.721 -54.776  15.719  1.00  0.00     0.142 A 
HETATM   17  C   UNL     1     -38.658 -54.127  16.940  1.00  0.00     0.045 A 
HETATM   18  C   UNL     1     -37.888 -54.947  17.796  1.00  0.00     0.027 A 
HETATM   19  C   UNL     1     -37.518 -56.041  17.050  1.00  0.00     0.143 A 
HETATM   20  O   UNL     1     -38.017 -55.950  15.789  1.00  0.00    -0.317 OA
ENDBRANCH  13  16
ENDBRANCH  11  12
ENDBRANCH   2  11
BRANCH   1  21
HETATM   21  C   UNL     1     -42.496 -51.299  12.934  1.00  0.00     0.156 C 
BRANCH  21  22
HETATM   22  C   UNL     1     -41.618 -50.587  13.963  1.00  0.00     0.187 C 
BRANCH  22  23
HETATM   23  O   UNL     1     -40.277 -51.068  13.845  1.00  0.00    -0.394 OA
HETATM   24  C   UNL     1     -39.805 -50.966  12.505  1.00  0.00     0.201 C 
ENDBRANCH  22  23
ENDBRANCH  21  22
ENDBRANCH   1  21
TORSDOF 6
ENDMDL
MODEL 9
REMARK VINA RESULT:      -5.5      1.982      2.334
REMARK  6 active torsions:
REMARK  status: ('A' for Active; 'I' for Inactive)
REMARK    1  A    between atoms: O_2  and  C_3 
REMARK    2  A    between atoms: C_3  and  C_4 
REMARK    3  A    between atoms: C_4  and  N_5 
REMARK    4  A    between atoms: C_6  and  C_7 
REMARK    5  A    between atoms: C_7  and  N_8 
REMARK       I    between atoms: N_8  and  C_9 
REMARK    6  A    between atoms: C_9  and  C_11 
ROOT
HETATM    1  N   UNL     1     -39.995 -51.512  12.917  1.00  0.00    -0.331 N 
HETATM    2  C   UNL     1     -40.477 -50.783  11.843  1.00  0.00     0.102 A 
HETATM    3  N   UNL     1     -41.711 -51.152  11.550  1.00  0.00    -0.343 N 
ATOM      4  HN  UNL     1     -42.314 -50.756  10.830  1.00  0.00     0.167 HD
HETATM    5  C   UNL     1     -42.017 -52.177  12.410  1.00  0.00     0.060 A 
HETATM    6  C   UNL     1     -43.204 -52.914  12.520  1.00  0.00     0.032 A 
HETATM    7  C   UNL     1     -43.264 -53.962  13.445  1.00  0.00     0.002 A 
HETATM    8  C   UNL     1     -42.158 -54.273  14.237  1.00  0.00     0.002 A 
HETATM    9  C   UNL     1     -40.975 -53.526  14.159  1.00  0.00     0.032 A 
HETATM   10  C   UNL     1     -40.940 -52.468  13.238  1.00  0.00     0.062 A 
ENDROOT
BRANCH   2  11
HETATM   11  C   UNL     1     -39.733 -49.705  11.125  1.00  0.00     0.199 C 
BRANCH  11  12
HETATM   12  N   UNL     1     -40.188 -48.410  11.562  1.00  0.00    -0.348 N 
HETATM   13  C   UNL     1     -41.171 -47.742  10.859  1.00  0.00     0.275 C 
HETATM   14  O   UNL     1     -41.837 -48.295   9.987  1.00  0.00    -0.265 OA
HETATM   15  H   UNL     1     -39.570 -47.852  12.140  1.00  0.00     0.163 HD
BRANCH  13  16
HETATM   16  C   UNL     1     -41.349 -46.353  11.232  1.00  0.00     0.142 A 
HETATM   17  C   UNL     1     -40.644 -45.221  10.863  1.00  0.00     0.045 A 
HETATM   18  C   UNL     1     -41.248 -44.131  11.527  1.00  0.00     0.027 A 
HETATM   19  C   UNL     1     -42.278 -44.656  12.270  1.00  0.00     0.143 A 
HETATM   20  O   UNL     1     -42.352 -46.003  12.099  1.00  0.00    -0.317 OA
ENDBRANCH  13  16
ENDBRANCH  11  12
ENDBRANCH   2  11
BRANCH   1  21
HETATM   21  C   UNL     1     -38.731 -51.322  13.603  1.00  0.00     0.156 C 
BRANCH  21  22
HETATM   22  C   UNL     1     -38.831 -50.434  14.842  1.00  0.00     0.187 C 
BRANCH  22  23
HETATM   23  O   UNL     1     -38.917 -49.068  14.432  1.00  0.00    -0.394 OA
HETATM   24  C   UNL     1     -37.627 -48.518  14.182  1.00  0.00     0.201 C 
ENDBRANCH  22  23
ENDBRANCH  21  22
ENDBRANCH   1  21
TORSDOF 6
ENDMDL
