MODEL 1
REMARK VINA RESULT:      -6.8      0.000      0.000
REMARK  4 active torsions:
REMARK  status: ('A' for Active; 'I' for Inactive)
REMARK    1  A    between atoms: C_8  and  N_9 
REMARK       I    between atoms: N_9  and  C_10 
REMARK       I    between atoms: C_10  and  N_12 
REMARK    2  A    between atoms: N_12  and  C_13 
REMARK    3  A    between atoms: C_15  and  C_16 
REMARK    4  A    between atoms: C_16  and  O_17 
ROOT
HETATM    1  N   UNL     1     -40.582 -49.505  10.862  1.00  0.00    -0.295 N 
HETATM    2  C   UNL     1     -40.997 -50.493  11.715  1.00  0.00     0.322 C 
HETATM    3  O   UNL     1     -40.252 -51.435  11.982  1.00  0.00    -0.247 OA
HETATM    4  N   UNL     1     -42.254 -50.370  12.207  1.00  0.00    -0.335 N 
HETATM    5  H   UNL     1     -39.658 -49.657  10.489  1.00  0.00     0.172 HD
HETATM    6  H   UNL     1     -42.721 -49.501  11.961  1.00  0.00     0.164 HD
ENDROOT
BRANCH   1   7
HETATM    7  C   UNL     1     -41.279 -48.348  10.479  1.00  0.00     0.109 A 
HETATM    8  N   UNL     1     -42.321 -48.463   9.627  1.00  0.00    -0.346 N 
HETATM    9  C   UNL     1     -43.004 -47.354   9.270  1.00  0.00     0.007 A 
ATOM     10  HN  UNL     1     -42.589 -49.376   9.258  1.00  0.00     0.167 HD
HETATM   11  C   UNL     1     -42.672 -46.096   9.747  1.00  0.00     0.031 A 
HETATM   12  C   UNL     1     -44.156 -47.568   8.337  1.00  0.00     0.068 C 
HETATM   13  C   UNL     1     -41.589 -45.971  10.623  1.00  0.00    -0.057 A 
HETATM   14  C   UNL     1     -41.195 -44.629  11.164  1.00  0.00     0.048 C 
HETATM   15  C   UNL     1     -40.885 -47.122  10.996  1.00  0.00     0.055 A 
ENDBRANCH   1   7
BRANCH   4  16
HETATM   16  C   UNL     1     -42.908 -51.274  13.109  1.00  0.00     0.109 C 
HETATM   17  C   UNL     1     -44.366 -50.884  13.402  1.00  0.00     0.040 C 
HETATM   18  C   UNL     1     -45.187 -52.184  13.298  1.00  0.00     0.034 C 
HETATM   19  C   UNL     1     -44.304 -53.058  12.453  1.00  0.00    -0.022 C 
HETATM   20  C   UNL     1     -43.062 -52.570  12.379  1.00  0.00    -0.005 C 
BRANCH  18  21
HETATM   21  C   UNL     1     -46.580 -51.939  12.713  1.00  0.00     0.172 C 
BRANCH  21  22
HETATM   22  O   UNL     1     -46.700 -52.519  11.417  1.00  0.00    -0.400 OA
HETATM   23  H   UNL     1     -46.427 -53.450  11.492  1.00  0.00     0.209 HD
ENDBRANCH  21  22
ENDBRANCH  18  21
ENDBRANCH   4  16
TORSDOF 4
ENDMDL
MODEL 2
REMARK VINA RESULT:      -6.6      2.182      6.007
REMARK  4 active torsions:
REMARK  status: ('A' for Active; 'I' for Inactive)
REMARK    1  A    between atoms: C_8  and  N_9 
REMARK       I    between atoms: N_9  and  C_10 
REMARK       I    between atoms: C_10  and  N_12 
REMARK    2  A    between atoms: N_12  and  C_13 
REMARK    3  A    between atoms: C_15  and  C_16 
REMARK    4  A    between atoms: C_16  and  O_17 
ROOT
HETATM    1  N   UNL     1     -42.863 -52.876  12.664  1.00  0.00    -0.295 N 
HETATM    2  C   UNL     1     -41.789 -52.187  12.166  1.00  0.00     0.322 C 
HETATM    3  O   UNL     1     -40.758 -52.783  11.858  1.00  0.00    -0.247 OA
HETATM    4  N   UNL     1     -41.935 -50.843  12.066  1.00  0.00    -0.335 N 
HETATM    5  H   UNL     1     -42.697 -53.866  12.760  1.00  0.00     0.172 HD
HETATM    6  H   UNL     1     -42.868 -50.502  12.284  1.00  0.00     0.164 HD
ENDROOT
BRANCH   1   7
HETATM    7  C   UNL     1     -44.120 -52.368  13.029  1.00  0.00     0.109 A 
HETATM    8  N   UNL     1     -45.096 -52.304  12.096  1.00  0.00    -0.346 N 
HETATM    9  C   UNL     1     -46.311 -51.832  12.449  1.00  0.00     0.007 A 
ATOM     10  HN  UNL     1     -44.918 -52.608  11.139  1.00  0.00     0.167 HD
HETATM   11  C   UNL     1     -46.595 -51.407  13.737  1.00  0.00     0.031 A 
HETATM   12  C   UNL     1     -47.344 -51.809  11.363  1.00  0.00     0.068 C 
HETATM   13  C   UNL     1     -45.585 -51.464  14.703  1.00  0.00    -0.057 A 
HETATM   14  C   UNL     1     -45.847 -51.016  16.109  1.00  0.00     0.048 C 
HETATM   15  C   UNL     1     -44.327 -51.959  14.338  1.00  0.00     0.055 A 
ENDBRANCH   1   7
BRANCH   4  16
HETATM   16  C   UNL     1     -40.956 -49.913  11.580  1.00  0.00     0.109 C 
HETATM   17  C   UNL     1     -41.531 -48.902  10.575  1.00  0.00     0.040 C 
HETATM   18  C   UNL     1     -40.980 -47.524  10.990  1.00  0.00     0.034 C 
HETATM   19  C   UNL     1     -40.622 -47.740  12.433  1.00  0.00    -0.022 C 
HETATM   20  C   UNL     1     -40.585 -49.041  12.737  1.00  0.00    -0.005 C 
BRANCH  18  21
HETATM   21  C   UNL     1     -41.995 -46.404  10.752  1.00  0.00     0.172 C 
BRANCH  21  22
HETATM   22  O   UNL     1     -41.589 -45.564   9.675  1.00  0.00    -0.400 OA
HETATM   23  H   UNL     1     -42.398 -45.257   9.229  1.00  0.00     0.209 HD
ENDBRANCH  21  22
ENDBRANCH  18  21
ENDBRANCH   4  16
TORSDOF 4
ENDMDL
MODEL 3
REMARK VINA RESULT:      -6.1      3.140      6.447
REMARK  4 active torsions:
REMARK  status: ('A' for Active; 'I' for Inactive)
REMARK    1  A    between atoms: C_8  and  N_9 
REMARK       I    between atoms: N_9  and  C_10 
REMARK       I    between atoms: C_10  and  N_12 
REMARK    2  A    between atoms: N_12  and  C_13 
REMARK    3  A    between atoms: C_15  and  C_16 
REMARK    4  A    between atoms: C_16  and  O_17 
ROOT
HETATM    1  N   UNL     1     -43.221 -53.871  13.553  1.00  0.00    -0.295 N 
HETATM    2  C   UNL     1     -41.962 -53.537  13.130  1.00  0.00     0.322 C 
HETATM    3  O   UNL     1     -41.083 -54.395  13.063  1.00  0.00    -0.247 OA
HETATM    4  N   UNL     1     -41.760 -52.232  12.825  1.00  0.00    -0.335 N 
HETATM    5  H   UNL     1     -43.317 -54.842  13.807  1.00  0.00     0.172 HD
HETATM    6  H   UNL     1     -42.598 -51.657  12.854  1.00  0.00     0.164 HD
ENDROOT
BRANCH   1   7
HETATM    7  C   UNL     1     -44.346 -53.037  13.654  1.00  0.00     0.109 A 
HETATM    8  N   UNL     1     -44.607 -52.429  14.833  1.00  0.00    -0.346 N 
HETATM    9  C   UNL     1     -45.678 -51.613  14.928  1.00  0.00     0.007 A 
ATOM     10  HN  UNL     1     -44.002 -52.584  15.639  1.00  0.00     0.167 HD
HETATM   11  C   UNL     1     -46.526 -51.377  13.858  1.00  0.00     0.031 A 
HETATM   12  C   UNL     1     -45.888 -50.963  16.261  1.00  0.00     0.068 C 
HETATM   13  C   UNL     1     -46.265 -52.010  12.639  1.00  0.00    -0.057 A 
HETATM   14  C   UNL     1     -47.156 -51.784  11.454  1.00  0.00     0.048 C 
HETATM   15  C   UNL     1     -45.151 -52.852  12.539  1.00  0.00     0.055 A 
ENDBRANCH   1   7
BRANCH   4  16
HETATM   16  C   UNL     1     -40.534 -51.644  12.367  1.00  0.00     0.109 C 
HETATM   17  C   UNL     1     -40.751 -50.377  11.523  1.00  0.00     0.040 C 
HETATM   18  C   UNL     1     -39.736 -49.339  12.039  1.00  0.00     0.034 C 
HETATM   19  C   UNL     1     -39.425 -49.847  13.419  1.00  0.00    -0.022 C 
HETATM   20  C   UNL     1     -39.838 -51.108  13.578  1.00  0.00    -0.005 C 
BRANCH  18  21
HETATM   21  C   UNL     1     -40.299 -47.917  12.002  1.00  0.00     0.172 C 
BRANCH  21  22
HETATM   22  O   UNL     1     -39.844 -47.215  10.848  1.00  0.00    -0.400 OA
HETATM   23  H   UNL     1     -40.531 -46.565  10.618  1.00  0.00     0.209 HD
ENDBRANCH  21  22
ENDBRANCH  18  21
ENDBRANCH   4  16
TORSDOF 4
ENDMDL
MODEL 4
REMARK VINA RESULT:      -6.1      3.428      5.730
REMARK  4 active torsions:
REMARK  status: ('A' for Active; 'I' for Inactive)
REMARK    1  A    between atoms: C_8  and  N_9 
REMARK       I    between atoms: N_9  and  C_10 
REMARK       I    between atoms: C_10  and  N_12 
REMARK    2  A    between atoms: N_12  and  C_13 
REMARK    3  A    between atoms: C_15  and  C_16 
REMARK    4  A    between atoms: C_16  and  O_17 
ROOT
HETATM    1  N   UNL     1     -43.824 -53.014  11.891  1.00  0.00    -0.295 N 
HETATM    2  C   UNL     1     -44.973 -52.726  12.579  1.00  0.00     0.322 C 
HETATM    3  O   UNL     1     -46.067 -53.058  12.125  1.00  0.00    -0.247 OA
HETATM    4  N   UNL     1     -44.819 -52.050  13.744  1.00  0.00    -0.335 N 
HETATM    5  H   UNL     1     -43.987 -53.481  11.012  1.00  0.00     0.172 HD
HETATM    6  H   UNL     1     -43.853 -51.913  14.028  1.00  0.00     0.164 HD
ENDROOT
BRANCH   1   7
HETATM    7  C   UNL     1     -42.500 -52.746  12.273  1.00  0.00     0.109 A 
HETATM    8  N   UNL     1     -41.925 -51.589  11.877  1.00  0.00    -0.346 N 
HETATM    9  C   UNL     1     -40.658 -51.321  12.258  1.00  0.00     0.007 A 
ATOM     10  HN  UNL     1     -42.442 -50.927  11.298  1.00  0.00     0.167 HD
HETATM   11  C   UNL     1     -39.921 -52.194  13.042  1.00  0.00     0.031 A 
HETATM   12  C   UNL     1     -40.099 -50.011  11.792  1.00  0.00     0.068 C 
HETATM   13  C   UNL     1     -40.508 -53.396  13.448  1.00  0.00    -0.057 A 
HETATM   14  C   UNL     1     -39.748 -54.370  14.297  1.00  0.00     0.048 C 
HETATM   15  C   UNL     1     -41.825 -53.671  13.057  1.00  0.00     0.055 A 
ENDBRANCH   1   7
BRANCH   4  16
HETATM   16  C   UNL     1     -45.866 -51.635  14.633  1.00  0.00     0.109 C 
HETATM   17  C   UNL     1     -46.432 -52.788  15.478  1.00  0.00     0.040 C 
HETATM   18  C   UNL     1     -46.543 -52.249  16.918  1.00  0.00     0.034 C 
HETATM   19  C   UNL     1     -45.569 -51.105  16.911  1.00  0.00    -0.022 C 
HETATM   20  C   UNL     1     -45.228 -50.761  15.666  1.00  0.00    -0.005 C 
BRANCH  18  21
HETATM   21  C   UNL     1     -46.242 -53.328  17.960  1.00  0.00     0.172 C 
BRANCH  21  22
HETATM   22  O   UNL     1     -45.865 -54.553  17.336  1.00  0.00    -0.400 OA
HETATM   23  H   UNL     1     -46.043 -54.457  16.384  1.00  0.00     0.209 HD
ENDBRANCH  21  22
ENDBRANCH  18  21
ENDBRANCH   4  16
TORSDOF 4
ENDMDL
MODEL 5
REMARK VINA RESULT:      -6.0      5.219      7.208
REMARK  4 active torsions:
REMARK  status: ('A' for Active; 'I' for Inactive)
REMARK    1  A    between atoms: C_8  and  N_9 
REMARK       I    between atoms: N_9  and  C_10 
REMARK       I    between atoms: C_10  and  N_12 
REMARK    2  A    between atoms: N_12  and  C_13 
REMARK    3  A    between atoms: C_15  and  C_16 
REMARK    4  A    between atoms: C_16  and  O_17 
ROOT
HETATM    1  N   UNL     1     -46.410 -51.772  13.815  1.00  0.00    -0.295 N 
HETATM    2  C   UNL     1     -45.604 -52.691  13.199  1.00  0.00     0.322 C 
HETATM    3  O   UNL     1     -45.795 -52.994  12.022  1.00  0.00    -0.247 OA
HETATM    4  N   UNL     1     -44.629 -53.241  13.964  1.00  0.00    -0.335 N 
HETATM    5  H   UNL     1     -47.146 -51.419  13.221  1.00  0.00     0.172 HD
HETATM    6  H   UNL     1     -44.544 -52.836  14.893  1.00  0.00     0.164 HD
ENDROOT
BRANCH   1   7
HETATM    7  C   UNL     1     -46.316 -51.284  15.128  1.00  0.00     0.109 A 
HETATM    8  N   UNL     1     -45.197 -50.625  15.503  1.00  0.00    -0.346 N 
HETATM    9  C   UNL     1     -45.111 -50.139  16.760  1.00  0.00     0.007 A 
ATOM     10  HN  UNL     1     -44.429 -50.496  14.845  1.00  0.00     0.167 HD
HETATM   11  C   UNL     1     -46.132 -50.295  17.684  1.00  0.00     0.031 A 
HETATM   12  C   UNL     1     -43.848 -49.406  17.092  1.00  0.00     0.068 C 
HETATM   13  C   UNL     1     -47.287 -50.983  17.303  1.00  0.00    -0.057 A 
HETATM   14  C   UNL     1     -48.417 -51.175  18.271  1.00  0.00     0.048 C 
HETATM   15  C   UNL     1     -47.379 -51.482  15.998  1.00  0.00     0.055 A 
ENDBRANCH   1   7
BRANCH   4  16
HETATM   16  C   UNL     1     -43.669 -54.222  13.548  1.00  0.00     0.109 C 
HETATM   17  C   UNL     1     -42.422 -53.606  12.893  1.00  0.00     0.040 C 
HETATM   18  C   UNL     1     -41.212 -54.333  13.510  1.00  0.00     0.034 C 
HETATM   19  C   UNL     1     -41.776 -54.870  14.795  1.00  0.00    -0.022 C 
HETATM   20  C   UNL     1     -43.111 -54.831  14.795  1.00  0.00    -0.005 C 
BRANCH  18  21
HETATM   21  C   UNL     1     -40.011 -53.400  13.688  1.00  0.00     0.172 C 
BRANCH  21  22
HETATM   22  O   UNL     1     -38.786 -54.091  13.456  1.00  0.00    -0.400 OA
HETATM   23  H   UNL     1     -38.148 -53.774  14.118  1.00  0.00     0.209 HD
ENDBRANCH  21  22
ENDBRANCH  18  21
ENDBRANCH   4  16
TORSDOF 4
ENDMDL
MODEL 6
REMARK VINA RESULT:      -5.8      2.821      4.671
REMARK  4 active torsions:
REMARK  status: ('A' for Active; 'I' for Inactive)
REMARK    1  A    between atoms: C_8  and  N_9 
REMARK       I    between atoms: N_9  and  C_10 
REMARK       I    between atoms: C_10  and  N_12 
REMARK    2  A    between atoms: N_12  and  C_13 
REMARK    3  A    between atoms: C_15  and  C_16 
REMARK    4  A    between atoms: C_16  and  O_17 
ROOT
HETATM    1  N   UNL     1     -42.789 -52.769  11.836  1.00  0.00    -0.295 N 
HETATM    2  C   UNL     1     -43.850 -53.207  12.581  1.00  0.00     0.322 C 
HETATM    3  O   UNL     1     -44.536 -54.150  12.188  1.00  0.00    -0.247 OA
HETATM    4  N   UNL     1     -44.094 -52.531  13.730  1.00  0.00    -0.335 N 
HETATM    5  H   UNL     1     -42.668 -53.272  10.970  1.00  0.00     0.172 HD
HETATM    6  H   UNL     1     -43.397 -51.827  13.962  1.00  0.00     0.164 HD
ENDROOT
BRANCH   1   7
HETATM    7  C   UNL     1     -41.884 -51.741  12.145  1.00  0.00     0.109 A 
HETATM    8  N   UNL     1     -42.232 -50.461  11.884  1.00  0.00    -0.346 N 
HETATM    9  C   UNL     1     -41.370 -49.469  12.197  1.00  0.00     0.007 A 
ATOM     10  HN  UNL     1     -43.133 -50.247  11.458  1.00  0.00     0.167 HD
HETATM   11  C   UNL     1     -40.136 -49.717  12.775  1.00  0.00     0.031 A 
HETATM   12  C   UNL     1     -41.837 -48.079  11.894  1.00  0.00     0.068 C 
HETATM   13  C   UNL     1     -39.767 -51.040  13.039  1.00  0.00    -0.057 A 
HETATM   14  C   UNL     1     -38.442 -51.354  13.664  1.00  0.00     0.048 C 
HETATM   15  C   UNL     1     -40.663 -52.068  12.719  1.00  0.00     0.055 A 
ENDBRANCH   1   7
BRANCH   4  16
HETATM   16  C   UNL     1     -45.145 -52.799  14.670  1.00  0.00     0.109 C 
HETATM   17  C   UNL     1     -44.865 -52.222  16.068  1.00  0.00     0.040 C 
HETATM   18  C   UNL     1     -46.173 -51.545  16.521  1.00  0.00     0.034 C 
HETATM   19  C   UNL     1     -46.878 -51.297  15.218  1.00  0.00    -0.022 C 
HETATM   20  C   UNL     1     -46.330 -52.003  14.224  1.00  0.00    -0.005 C 
BRANCH  18  21
HETATM   21  C   UNL     1     -45.910 -50.284  17.347  1.00  0.00     0.172 C 
BRANCH  21  22
HETATM   22  O   UNL     1     -47.096 -49.845  18.004  1.00  0.00    -0.400 OA
HETATM   23  H   UNL     1     -46.973 -50.003  18.956  1.00  0.00     0.209 HD
ENDBRANCH  21  22
ENDBRANCH  18  21
ENDBRANCH   4  16
TORSDOF 4
ENDMDL
MODEL 7
REMARK VINA RESULT:      -5.8      4.046      6.863
REMARK  4 active torsions:
REMARK  status: ('A' for Active; 'I' for Inactive)
REMARK    1  A    between atoms: C_8  and  N_9 
REMARK       I    between atoms: N_9  and  C_10 
REMARK       I    between atoms: C_10  and  N_12 
REMARK    2  A    between atoms: N_12  and  C_13 
REMARK    3  A    between atoms: C_15  and  C_16 
REMARK    4  A    between atoms: C_16  and  O_17 
ROOT
HETATM    1  N   UNL     1     -43.760 -51.202  12.788  1.00  0.00    -0.295 N 
HETATM    2  C   UNL     1     -42.397 -51.253  12.910  1.00  0.00     0.322 C 
HETATM    3  O   UNL     1     -41.686 -50.517  12.227  1.00  0.00    -0.247 OA
HETATM    4  N   UNL     1     -41.908 -52.160  13.790  1.00  0.00    -0.335 N 
HETATM    5  H   UNL     1     -44.079 -50.544  12.094  1.00  0.00     0.172 HD
HETATM    6  H   UNL     1     -42.617 -52.641  14.338  1.00  0.00     0.164 HD
ENDROOT
BRANCH   1   7
HETATM    7  C   UNL     1     -44.718 -51.935  13.507  1.00  0.00     0.109 A 
HETATM    8  N   UNL     1     -44.785 -53.274  13.333  1.00  0.00    -0.346 N 
HETATM    9  C   UNL     1     -45.693 -53.983  14.037  1.00  0.00     0.007 A 
ATOM     10  HN  UNL     1     -44.157 -53.742  12.679  1.00  0.00     0.167 HD
HETATM   11  C   UNL     1     -46.565 -53.386  14.933  1.00  0.00     0.031 A 
HETATM   12  C   UNL     1     -45.693 -55.462  13.800  1.00  0.00     0.068 C 
HETATM   13  C   UNL     1     -46.504 -52.000  15.111  1.00  0.00    -0.057 A 
HETATM   14  C   UNL     1     -47.428 -51.312  16.071  1.00  0.00     0.048 C 
HETATM   15  C   UNL     1     -45.559 -51.265  14.385  1.00  0.00     0.055 A 
ENDBRANCH   1   7
BRANCH   4  16
HETATM   16  C   UNL     1     -40.525 -52.400  14.087  1.00  0.00     0.109 C 
HETATM   17  C   UNL     1     -40.294 -52.910  15.519  1.00  0.00     0.040 C 
HETATM   18  C   UNL     1     -39.302 -54.083  15.401  1.00  0.00     0.034 C 
HETATM   19  C   UNL     1     -39.466 -54.504  13.968  1.00  0.00    -0.022 C 
HETATM   20  C   UNL     1     -40.107 -53.571  13.256  1.00  0.00    -0.005 C 
BRANCH  18  21
HETATM   21  C   UNL     1     -39.595 -55.187  16.420  1.00  0.00     0.172 C 
BRANCH  21  22
HETATM   22  O   UNL     1     -38.822 -56.353  16.148  1.00  0.00    -0.400 OA
HETATM   23  H   UNL     1     -38.394 -56.220  15.284  1.00  0.00     0.209 HD
ENDBRANCH  21  22
ENDBRANCH  18  21
ENDBRANCH   4  16
TORSDOF 4
ENDMDL
MODEL 8
REMARK VINA RESULT:      -5.7      1.012      2.046
REMARK  4 active torsions:
REMARK  status: ('A' for Active; 'I' for Inactive)
REMARK    1  A    between atoms: C_8  and  N_9 
REMARK       I    between atoms: N_9  and  C_10 
REMARK       I    between atoms: C_10  and  N_12 
REMARK    2  A    between atoms: N_12  and  C_13 
REMARK    3  A    between atoms: C_15  and  C_16 
REMARK    4  A    between atoms: C_16  and  O_17 
ROOT
HETATM    1  N   UNL     1     -40.186 -49.787  11.089  1.00  0.00    -0.295 N 
HETATM    2  C   UNL     1     -40.674 -50.801  11.869  1.00  0.00     0.322 C 
HETATM    3  O   UNL     1     -40.026 -51.836  12.017  1.00  0.00    -0.247 OA
HETATM    4  N   UNL     1     -41.893 -50.594  12.426  1.00  0.00    -0.335 N 
HETATM    5  H   UNL     1     -39.297 -49.998  10.662  1.00  0.00     0.172 HD
HETATM    6  H   UNL     1     -42.271 -49.661  12.279  1.00  0.00     0.164 HD
ENDROOT
BRANCH   1   7
HETATM    7  C   UNL     1     -40.767 -48.533  10.841  1.00  0.00     0.109 A 
HETATM    8  N   UNL     1     -40.030 -47.418  11.042  1.00  0.00    -0.346 N 
HETATM    9  C   UNL     1     -40.581 -46.212  10.788  1.00  0.00     0.007 A 
ATOM     10  HN  UNL     1     -39.071 -47.487  11.381  1.00  0.00     0.167 HD
HETATM   11  C   UNL     1     -41.881 -46.074  10.328  1.00  0.00     0.031 A 
HETATM   12  C   UNL     1     -39.694 -45.027  11.018  1.00  0.00     0.068 C 
HETATM   13  C   UNL     1     -42.651 -47.224  10.127  1.00  0.00    -0.057 A 
HETATM   14  C   UNL     1     -44.062 -47.123   9.631  1.00  0.00     0.048 C 
HETATM   15  C   UNL     1     -42.077 -48.475  10.386  1.00  0.00     0.055 A 
ENDBRANCH   1   7
BRANCH   4  16
HETATM   16  C   UNL     1     -42.608 -51.504  13.273  1.00  0.00     0.109 C 
HETATM   17  C   UNL     1     -43.972 -50.960  13.728  1.00  0.00     0.040 C 
HETATM   18  C   UNL     1     -44.976 -52.115  13.549  1.00  0.00     0.034 C 
HETATM   19  C   UNL     1     -44.286 -52.991  12.541  1.00  0.00    -0.022 C 
HETATM   20  C   UNL     1     -42.995 -52.669  12.418  1.00  0.00    -0.005 C 
BRANCH  18  21
HETATM   21  C   UNL     1     -46.355 -51.616  13.112  1.00  0.00     0.172 C 
BRANCH  21  22
HETATM   22  O   UNL     1     -46.386 -51.354  11.712  1.00  0.00    -0.400 OA
HETATM   23  H   UNL     1     -45.617 -51.803  11.319  1.00  0.00     0.209 HD
ENDBRANCH  21  22
ENDBRANCH  18  21
ENDBRANCH   4  16
TORSDOF 4
ENDMDL
MODEL 9
REMARK VINA RESULT:      -5.7      4.145      6.440
REMARK  4 active torsions:
REMARK  status: ('A' for Active; 'I' for Inactive)
REMARK    1  A    between atoms: C_8  and  N_9 
REMARK       I    between atoms: N_9  and  C_10 
REMARK       I    between atoms: C_10  and  N_12 
REMARK    2  A    between atoms: N_12  and  C_13 
REMARK    3  A    between atoms: C_15  and  C_16 
REMARK    4  A    between atoms: C_16  and  O_17 
ROOT
HETATM    1  N   UNL     1     -42.730 -49.594  14.363  1.00  0.00    -0.295 N 
HETATM    2  C   UNL     1     -41.528 -50.122  13.972  1.00  0.00     0.322 C 
HETATM    3  O   UNL     1     -40.528 -49.408  13.911  1.00  0.00    -0.247 OA
HETATM    4  N   UNL     1     -41.530 -51.437  13.645  1.00  0.00    -0.335 N 
HETATM    5  H   UNL     1     -42.692 -48.605  14.557  1.00  0.00     0.172 HD
HETATM    6  H   UNL     1     -42.411 -51.914  13.819  1.00  0.00     0.164 HD
ENDROOT
BRANCH   1   7
HETATM    7  C   UNL     1     -43.954 -50.263  14.523  1.00  0.00     0.109 A 
HETATM    8  N   UNL     1     -44.464 -50.406  15.766  1.00  0.00    -0.346 N 
HETATM    9  C   UNL     1     -45.650 -51.033  15.922  1.00  0.00     0.007 A 
ATOM     10  HN  UNL     1     -43.961 -50.044  16.576  1.00  0.00     0.167 HD
HETATM   11  C   UNL     1     -46.365 -51.540  14.849  1.00  0.00     0.031 A 
HETATM   12  C   UNL     1     -46.156 -51.135  17.328  1.00  0.00     0.068 C 
HETATM   13  C   UNL     1     -45.837 -51.402  13.561  1.00  0.00    -0.057 A 
HETATM   14  C   UNL     1     -46.576 -51.935  12.371  1.00  0.00     0.048 C 
HETATM   15  C   UNL     1     -44.610 -50.747  13.400  1.00  0.00     0.055 A 
ENDBRANCH   1   7
BRANCH   4  16
HETATM   16  C   UNL     1     -40.402 -52.208  13.206  1.00  0.00     0.109 C 
HETATM   17  C   UNL     1     -39.476 -52.631  14.357  1.00  0.00     0.040 C 
HETATM   18  C   UNL     1     -39.149 -54.118  14.120  1.00  0.00     0.034 C 
HETATM   19  C   UNL     1     -40.283 -54.563  13.240  1.00  0.00    -0.022 C 
HETATM   20  C   UNL     1     -40.941 -53.519  12.727  1.00  0.00    -0.005 C 
BRANCH  18  21
HETATM   21  C   UNL     1     -39.025 -54.896  15.432  1.00  0.00     0.172 C 
BRANCH  21  22
HETATM   22  O   UNL     1     -37.989 -55.871  15.354  1.00  0.00    -0.400 OA
HETATM   23  H   UNL     1     -37.631 -55.838  14.449  1.00  0.00     0.209 HD
ENDBRANCH  21  22
ENDBRANCH  18  21
ENDBRANCH   4  16
TORSDOF 4
ENDMDL
