MODEL 1
REMARK VINA RESULT:      -6.1      0.000      0.000
REMARK  10 active torsions:
REMARK  status: ('A' for Active; 'I' for Inactive)
REMARK    1  A    between atoms: N_2  and  C_13 
REMARK    2  A    between atoms: C_6  and  N_8 
REMARK    3  A    between atoms: N_8  and  C_16 
REMARK    4  A    between atoms: C_13  and  C_15 
REMARK    5  A    between atoms: C_14  and  C_16 
REMARK    6  A    between atoms: C_14  and  C_22 
REMARK    7  A    between atoms: C_14  and  C_23 
REMARK    8  A    between atoms: C_15  and  O_20 
REMARK    9  A    between atoms: C_22  and  O_26 
REMARK   10  A    between atoms: C_23  and  O_27 
ROOT
HETATM    1  C   UNL     1     -40.418 -49.323  13.381  1.00  0.00     0.122 A 
HETATM    2  N   UNL     1     -41.181 -47.582  12.302  1.00  0.00    -0.324 N 
HETATM    3  C   UNL     1     -40.265 -48.592  12.210  1.00  0.00     0.140 A 
HETATM    4  N   UNL     1     -41.366 -48.726  14.193  1.00  0.00    -0.346 N 
ATOM      5  HN  UNL     1     -41.651 -49.019  15.128  1.00  0.00     0.167 HD
HETATM    6  C   UNL     1     -39.604 -50.470  13.551  1.00  0.00     0.135 A 
HETATM    7  C   UNL     1     -41.819 -47.705  13.506  1.00  0.00     0.185 A 
HETATM    8  N   UNL     1     -39.406 -48.827  11.206  1.00  0.00    -0.336 N 
ATOM      9  HN  UNL     1     -39.320 -48.252  10.367  1.00  0.00     0.168 HD
HETATM   10  N   UNL     1     -38.719 -50.738  12.544  1.00  0.00    -0.337 N 
ATOM     11  HN  UNL     1     -38.096 -51.544  12.609  1.00  0.00     0.168 HD
HETATM   12  C   UNL     1     -38.673 -49.931  11.462  1.00  0.00     0.183 A 
ENDROOT
BRANCH   6  13
HETATM   13  N   UNL     1     -39.616 -51.256  14.692  1.00  0.00    -0.369 N 
HETATM   14  C   UNL     1     -38.756 -50.908  15.817  1.00  0.00     0.151 C 
BRANCH  13  15
HETATM   15  C   UNL     1     -40.741 -52.151  14.962  1.00  0.00     0.137 C 
BRANCH  15  16
HETATM   16  C   UNL     1     -40.641 -53.521  14.227  1.00  0.00     0.015 C 
HETATM   17  C   UNL     1     -41.319 -54.675  14.992  1.00  0.00     0.021 C 
BRANCH  16  18
HETATM   18  C   UNL     1     -41.320 -53.437  12.843  1.00  0.00     0.177 C 
BRANCH  18  19
HETATM   19  O   UNL     1     -40.373 -53.369  11.782  1.00  0.00    -0.400 OA
HETATM   20  H   UNL     1     -39.646 -52.803  12.102  1.00  0.00     0.209 HD
ENDBRANCH  18  19
ENDBRANCH  16  18
BRANCH  16  21
HETATM   21  C   UNL     1     -39.127 -53.829  14.111  1.00  0.00     0.177 C 
BRANCH  21  22
HETATM   22  O   UNL     1     -38.858 -55.004  13.357  1.00  0.00    -0.400 OA
HETATM   23  H   UNL     1     -37.968 -55.318  13.614  1.00  0.00     0.209 HD
ENDBRANCH  21  22
ENDBRANCH  16  21
ENDBRANCH  15  16
ENDBRANCH  13  15
ENDBRANCH   6  13
BRANCH   2  24
HETATM   24  C   UNL     1     -41.530 -46.622  11.273  1.00  0.00     0.171 C 
BRANCH  24  25
HETATM   25  C   UNL     1     -42.493 -47.154  10.203  1.00  0.00     0.097 C 
HETATM   26  C   UNL     1     -43.057 -46.127   9.238  1.00  0.00     0.068 C 
HETATM   27  C   UNL     1     -44.382 -46.736   8.814  1.00  0.00     0.170 C 
HETATM   28  O   UNL     1     -44.821 -47.597   9.870  1.00  0.00    -0.388 OA
HETATM   29  C   UNL     1     -43.779 -47.673  10.855  1.00  0.00     0.207 C 
BRANCH  25  30
HETATM   30  O   UNL     1     -41.894 -48.221   9.456  1.00  0.00    -0.386 OA
HETATM   31  H   UNL     1     -42.547 -48.932   9.314  1.00  0.00     0.210 HD
ENDBRANCH  25  30
ENDBRANCH  24  25
ENDBRANCH   2  24
TORSDOF 10
ENDMDL
MODEL 2
REMARK VINA RESULT:      -6.0      2.444      7.031
REMARK  10 active torsions:
REMARK  status: ('A' for Active; 'I' for Inactive)
REMARK    1  A    between atoms: N_2  and  C_13 
REMARK    2  A    between atoms: C_6  and  N_8 
REMARK    3  A    between atoms: N_8  and  C_16 
REMARK    4  A    between atoms: C_13  and  C_15 
REMARK    5  A    between atoms: C_14  and  C_16 
REMARK    6  A    between atoms: C_14  and  C_22 
REMARK    7  A    between atoms: C_14  and  C_23 
REMARK    8  A    between atoms: C_15  and  O_20 
REMARK    9  A    between atoms: C_22  and  O_26 
REMARK   10  A    between atoms: C_23  and  O_27 
ROOT
HETATM    1  C   UNL     1     -42.465 -49.246  12.495  1.00  0.00     0.122 A 
HETATM    2  N   UNL     1     -42.631 -51.082  13.668  1.00  0.00    -0.324 N 
HETATM    3  C   UNL     1     -41.971 -50.539  12.601  1.00  0.00     0.140 A 
HETATM    4  N   UNL     1     -43.451 -49.034  13.441  1.00  0.00    -0.346 N 
ATOM      5  HN  UNL     1     -44.016 -48.194  13.568  1.00  0.00     0.167 HD
HETATM    6  C   UNL     1     -41.930 -48.420  11.474  1.00  0.00     0.135 A 
HETATM    7  C   UNL     1     -43.504 -50.142  14.141  1.00  0.00     0.185 A 
HETATM    8  N   UNL     1     -41.046 -51.128  11.827  1.00  0.00    -0.336 N 
ATOM      9  HN  UNL     1     -40.723 -52.089  11.935  1.00  0.00     0.168 HD
HETATM   10  N   UNL     1     -40.984 -48.990  10.669  1.00  0.00    -0.337 N 
ATOM     11  HN  UNL     1     -40.566 -48.453   9.909  1.00  0.00     0.168 HD
HETATM   12  C   UNL     1     -40.604 -50.269  10.884  1.00  0.00     0.183 A 
ENDROOT
BRANCH   6  13
HETATM   13  N   UNL     1     -42.370 -47.131  11.224  1.00  0.00    -0.369 N 
HETATM   14  C   UNL     1     -42.362 -46.144  12.298  1.00  0.00     0.151 C 
BRANCH  13  15
HETATM   15  C   UNL     1     -42.442 -46.626   9.853  1.00  0.00     0.137 C 
BRANCH  15  16
HETATM   16  C   UNL     1     -43.823 -46.859   9.171  1.00  0.00     0.015 C 
HETATM   17  C   UNL     1     -44.814 -47.645  10.051  1.00  0.00     0.021 C 
BRANCH  16  18
HETATM   18  C   UNL     1     -44.491 -45.506   8.838  1.00  0.00     0.177 C 
BRANCH  18  19
HETATM   19  O   UNL     1     -43.856 -44.416   9.499  1.00  0.00    -0.400 OA
HETATM   20  H   UNL     1     -43.169 -44.091   8.890  1.00  0.00     0.209 HD
ENDBRANCH  18  19
ENDBRANCH  16  18
BRANCH  16  21
HETATM   21  C   UNL     1     -43.530 -47.688   7.896  1.00  0.00     0.177 C 
BRANCH  21  22
HETATM   22  O   UNL     1     -44.692 -48.313   7.363  1.00  0.00    -0.400 OA
HETATM   23  H   UNL     1     -44.446 -49.229   7.125  1.00  0.00     0.209 HD
ENDBRANCH  21  22
ENDBRANCH  16  21
ENDBRANCH  15  16
ENDBRANCH  13  15
ENDBRANCH   6  13
BRANCH   2  24
HETATM   24  C   UNL     1     -42.376 -52.366  14.292  1.00  0.00     0.171 C 
BRANCH  24  25
HETATM   25  C   UNL     1     -43.198 -53.529  13.719  1.00  0.00     0.097 C 
HETATM   26  C   UNL     1     -44.694 -53.301  13.605  1.00  0.00     0.068 C 
HETATM   27  C   UNL     1     -45.270 -54.704  13.693  1.00  0.00     0.170 C 
HETATM   28  O   UNL     1     -44.341 -55.507  14.430  1.00  0.00    -0.388 OA
HETATM   29  C   UNL     1     -43.161 -54.728  14.674  1.00  0.00     0.207 C 
BRANCH  25  30
HETATM   30  O   UNL     1     -42.688 -53.942  12.445  1.00  0.00    -0.386 OA
HETATM   31  H   UNL     1     -43.423 -54.043  11.811  1.00  0.00     0.210 HD
ENDBRANCH  25  30
ENDBRANCH  24  25
ENDBRANCH   2  24
TORSDOF 10
ENDMDL
MODEL 3
REMARK VINA RESULT:      -6.0      4.772      7.221
REMARK  10 active torsions:
REMARK  status: ('A' for Active; 'I' for Inactive)
REMARK    1  A    between atoms: N_2  and  C_13 
REMARK    2  A    between atoms: C_6  and  N_8 
REMARK    3  A    between atoms: N_8  and  C_16 
REMARK    4  A    between atoms: C_13  and  C_15 
REMARK    5  A    between atoms: C_14  and  C_16 
REMARK    6  A    between atoms: C_14  and  C_22 
REMARK    7  A    between atoms: C_14  and  C_23 
REMARK    8  A    between atoms: C_15  and  O_20 
REMARK    9  A    between atoms: C_22  and  O_26 
REMARK   10  A    between atoms: C_23  and  O_27 
ROOT
HETATM    1  C   UNL     1     -41.918 -45.163  11.602  1.00  0.00     0.122 A 
HETATM    2  N   UNL     1     -41.599 -43.174  12.450  1.00  0.00    -0.324 N 
HETATM    3  C   UNL     1     -41.052 -44.078  11.583  1.00  0.00     0.140 A 
HETATM    4  N   UNL     1     -42.936 -44.942  12.513  1.00  0.00    -0.346 N 
ATOM      5  HN  UNL     1     -43.688 -45.583  12.767  1.00  0.00     0.167 HD
HETATM    6  C   UNL     1     -41.615 -46.261  10.759  1.00  0.00     0.135 A 
HETATM    7  C   UNL     1     -42.728 -43.735  12.981  1.00  0.00     0.185 A 
HETATM    8  N   UNL     1     -39.924 -43.945  10.867  1.00  0.00    -0.336 N 
ATOM      9  HN  UNL     1     -39.309 -43.131  10.896  1.00  0.00     0.168 HD
HETATM   10  N   UNL     1     -40.473 -46.156  10.016  1.00  0.00    -0.337 N 
ATOM     11  HN  UNL     1     -40.193 -46.916   9.396  1.00  0.00     0.168 HD
HETATM   12  C   UNL     1     -39.717 -45.040  10.105  1.00  0.00     0.183 A 
ENDROOT
BRANCH   6  13
HETATM   13  N   UNL     1     -42.365 -47.426  10.721  1.00  0.00    -0.369 N 
HETATM   14  C   UNL     1     -41.762 -48.685  11.143  1.00  0.00     0.151 C 
BRANCH  13  15
HETATM   15  C   UNL     1     -43.825 -47.366  10.673  1.00  0.00     0.137 C 
BRANCH  15  16
HETATM   16  C   UNL     1     -44.392 -46.999   9.270  1.00  0.00     0.015 C 
HETATM   17  C   UNL     1     -44.644 -45.490   9.088  1.00  0.00     0.021 C 
BRANCH  16  18
HETATM   18  C   UNL     1     -43.403 -47.428   8.163  1.00  0.00     0.177 C 
BRANCH  18  19
HETATM   19  O   UNL     1     -42.757 -46.313   7.558  1.00  0.00    -0.400 OA
HETATM   20  H   UNL     1     -42.251 -46.667   6.804  1.00  0.00     0.209 HD
ENDBRANCH  18  19
ENDBRANCH  16  18
BRANCH  16  21
HETATM   21  C   UNL     1     -45.746 -47.742   9.154  1.00  0.00     0.177 C 
BRANCH  21  22
HETATM   22  O   UNL     1     -46.083 -48.072   7.812  1.00  0.00    -0.400 OA
HETATM   23  H   UNL     1     -46.817 -48.718   7.846  1.00  0.00     0.209 HD
ENDBRANCH  21  22
ENDBRANCH  16  21
ENDBRANCH  15  16
ENDBRANCH  13  15
ENDBRANCH   6  13
BRANCH   2  24
HETATM   24  C   UNL     1     -41.160 -41.812  12.684  1.00  0.00     0.171 C 
BRANCH  24  25
HETATM   25  C   UNL     1     -41.600 -40.806  11.611  1.00  0.00     0.097 C 
HETATM   26  C   UNL     1     -40.806 -39.515  11.535  1.00  0.00     0.068 C 
HETATM   27  C   UNL     1     -41.801 -38.524  10.959  1.00  0.00     0.170 C 
HETATM   28  O   UNL     1     -43.115 -38.978  11.306  1.00  0.00    -0.388 OA
HETATM   29  C   UNL     1     -42.999 -40.264  11.932  1.00  0.00     0.207 C 
BRANCH  25  30
HETATM   30  O   UNL     1     -41.631 -41.415  10.315  1.00  0.00    -0.386 OA
HETATM   31  H   UNL     1     -41.515 -40.734   9.626  1.00  0.00     0.210 HD
ENDBRANCH  25  30
ENDBRANCH  24  25
ENDBRANCH   2  24
TORSDOF 10
ENDMDL
MODEL 4
REMARK VINA RESULT:      -5.9      1.972      3.111
REMARK  10 active torsions:
REMARK  status: ('A' for Active; 'I' for Inactive)
REMARK    1  A    between atoms: N_2  and  C_13 
REMARK    2  A    between atoms: C_6  and  N_8 
REMARK    3  A    between atoms: N_8  and  C_16 
REMARK    4  A    between atoms: C_13  and  C_15 
REMARK    5  A    between atoms: C_14  and  C_16 
REMARK    6  A    between atoms: C_14  and  C_22 
REMARK    7  A    between atoms: C_14  and  C_23 
REMARK    8  A    between atoms: C_15  and  O_20 
REMARK    9  A    between atoms: C_22  and  O_26 
REMARK   10  A    between atoms: C_23  and  O_27 
ROOT
HETATM    1  C   UNL     1     -41.848 -50.863  12.472  1.00  0.00     0.122 A 
HETATM    2  N   UNL     1     -41.449 -48.898  11.604  1.00  0.00    -0.324 N 
HETATM    3  C   UNL     1     -42.195 -49.522  12.564  1.00  0.00     0.140 A 
HETATM    4  N   UNL     1     -40.955 -51.053  11.432  1.00  0.00    -0.346 N 
ATOM      5  HN  UNL     1     -40.564 -51.937  11.108  1.00  0.00     0.167 HD
HETATM    6  C   UNL     1     -42.454 -51.763  13.384  1.00  0.00     0.135 A 
HETATM    7  C   UNL     1     -40.719 -49.855  10.954  1.00  0.00     0.185 A 
HETATM    8  N   UNL     1     -43.071 -48.960  13.412  1.00  0.00    -0.336 N 
ATOM      9  HN  UNL     1     -43.305 -47.967  13.433  1.00  0.00     0.168 HD
HETATM   10  N   UNL     1     -43.351 -51.221  14.262  1.00  0.00    -0.337 N 
ATOM     11  HN  UNL     1     -43.831 -51.816  14.938  1.00  0.00     0.168 HD
HETATM   12  C   UNL     1     -43.599 -49.894  14.231  1.00  0.00     0.183 A 
ENDROOT
BRANCH   6  13
HETATM   13  N   UNL     1     -42.238 -53.131  13.367  1.00  0.00    -0.369 N 
HETATM   14  C   UNL     1     -43.348 -54.033  13.079  1.00  0.00     0.151 C 
BRANCH  13  15
HETATM   15  C   UNL     1     -40.886 -53.665  13.215  1.00  0.00     0.137 C 
BRANCH  15  16
HETATM   16  C   UNL     1     -40.059 -53.664  14.535  1.00  0.00     0.015 C 
HETATM   17  C   UNL     1     -40.932 -53.616  15.803  1.00  0.00     0.021 C 
BRANCH  16  18
HETATM   18  C   UNL     1     -39.197 -54.942  14.629  1.00  0.00     0.177 C 
BRANCH  18  19
HETATM   19  O   UNL     1     -38.693 -55.345  13.360  1.00  0.00    -0.400 OA
HETATM   20  H   UNL     1     -39.457 -55.682  12.857  1.00  0.00     0.209 HD
ENDBRANCH  18  19
ENDBRANCH  16  18
BRANCH  16  21
HETATM   21  C   UNL     1     -39.189 -52.383  14.486  1.00  0.00     0.177 C 
BRANCH  21  22
HETATM   22  O   UNL     1     -38.609 -52.156  13.207  1.00  0.00    -0.400 OA
HETATM   23  H   UNL     1     -39.013 -52.795  12.587  1.00  0.00     0.209 HD
ENDBRANCH  21  22
ENDBRANCH  16  21
ENDBRANCH  15  16
ENDBRANCH  13  15
ENDBRANCH   6  13
BRANCH   2  24
HETATM   24  C   UNL     1     -41.329 -47.470  11.381  1.00  0.00     0.171 C 
BRANCH  24  25
HETATM   25  C   UNL     1     -42.560 -46.817  10.737  1.00  0.00     0.097 C 
HETATM   26  C   UNL     1     -43.204 -47.581   9.594  1.00  0.00     0.068 C 
HETATM   27  C   UNL     1     -43.862 -46.489   8.770  1.00  0.00     0.170 C 
HETATM   28  O   UNL     1     -43.135 -45.276   8.999  1.00  0.00    -0.388 OA
HETATM   29  C   UNL     1     -42.163 -45.518  10.027  1.00  0.00     0.207 C 
BRANCH  25  30
HETATM   30  O   UNL     1     -43.558 -46.516  11.721  1.00  0.00    -0.386 OA
HETATM   31  H   UNL     1     -44.443 -46.528  11.310  1.00  0.00     0.210 HD
ENDBRANCH  25  30
ENDBRANCH  24  25
ENDBRANCH   2  24
TORSDOF 10
ENDMDL
MODEL 5
REMARK VINA RESULT:      -5.9      1.298      1.611
REMARK  10 active torsions:
REMARK  status: ('A' for Active; 'I' for Inactive)
REMARK    1  A    between atoms: N_2  and  C_13 
REMARK    2  A    between atoms: C_6  and  N_8 
REMARK    3  A    between atoms: N_8  and  C_16 
REMARK    4  A    between atoms: C_13  and  C_15 
REMARK    5  A    between atoms: C_14  and  C_16 
REMARK    6  A    between atoms: C_14  and  C_22 
REMARK    7  A    between atoms: C_14  and  C_23 
REMARK    8  A    between atoms: C_15  and  O_20 
REMARK    9  A    between atoms: C_22  and  O_26 
REMARK   10  A    between atoms: C_23  and  O_27 
ROOT
HETATM    1  C   UNL     1     -41.188 -49.917  12.985  1.00  0.00     0.122 A 
HETATM    2  N   UNL     1     -42.337 -48.617  11.655  1.00  0.00    -0.324 N 
HETATM    3  C   UNL     1     -41.113 -49.211  11.791  1.00  0.00     0.140 A 
HETATM    4  N   UNL     1     -42.413 -49.699  13.589  1.00  0.00    -0.346 N 
ATOM      5  HN  UNL     1     -42.729 -50.055  14.492  1.00  0.00     0.167 HD
HETATM    6  C   UNL     1     -40.053 -50.670  13.375  1.00  0.00     0.135 A 
HETATM    7  C   UNL     1     -43.083 -48.941  12.755  1.00  0.00     0.185 A 
HETATM    8  N   UNL     1     -40.069 -49.132  10.952  1.00  0.00    -0.336 N 
ATOM      9  HN  UNL     1     -40.056 -48.588  10.089  1.00  0.00     0.168 HD
HETATM   10  N   UNL     1     -38.972 -50.611  12.540  1.00  0.00    -0.337 N 
ATOM     11  HN  UNL     1     -38.119 -51.122  12.769  1.00  0.00     0.168 HD
HETATM   12  C   UNL     1     -39.038 -49.873  11.411  1.00  0.00     0.183 A 
ENDROOT
BRANCH   6  13
HETATM   13  N   UNL     1     -39.974 -51.374  14.566  1.00  0.00    -0.369 N 
HETATM   14  C   UNL     1     -39.156 -50.857  15.657  1.00  0.00     0.151 C 
BRANCH  13  15
HETATM   15  C   UNL     1     -40.989 -52.371  14.904  1.00  0.00     0.137 C 
BRANCH  15  16
HETATM   16  C   UNL     1     -40.731 -53.770  14.269  1.00  0.00     0.015 C 
HETATM   17  C   UNL     1     -41.315 -54.933  15.094  1.00  0.00     0.021 C 
BRANCH  16  18
HETATM   18  C   UNL     1     -41.371 -53.846  12.865  1.00  0.00     0.177 C 
BRANCH  18  19
HETATM   19  O   UNL     1     -40.455 -53.487  11.836  1.00  0.00    -0.400 OA
HETATM   20  H   UNL     1     -39.683 -53.096  12.282  1.00  0.00     0.209 HD
ENDBRANCH  18  19
ENDBRANCH  16  18
BRANCH  16  21
HETATM   21  C   UNL     1     -39.191 -53.930  14.211  1.00  0.00     0.177 C 
BRANCH  21  22
HETATM   22  O   UNL     1     -38.777 -54.991  13.359  1.00  0.00    -0.400 OA
HETATM   23  H   UNL     1     -38.757 -54.640  12.446  1.00  0.00     0.209 HD
ENDBRANCH  21  22
ENDBRANCH  16  21
ENDBRANCH  15  16
ENDBRANCH  13  15
ENDBRANCH   6  13
BRANCH   2  24
HETATM   24  C   UNL     1     -42.830 -47.884  10.505  1.00  0.00     0.171 C 
BRANCH  24  25
HETATM   25  C   UNL     1     -42.333 -46.435  10.410  1.00  0.00     0.097 C 
HETATM   26  C   UNL     1     -42.371 -45.627  11.694  1.00  0.00     0.068 C 
HETATM   27  C   UNL     1     -42.505 -44.196  11.203  1.00  0.00     0.170 C 
HETATM   28  O   UNL     1     -43.141 -44.236   9.920  1.00  0.00    -0.388 OA
HETATM   29  C   UNL     1     -43.271 -45.609   9.522  1.00  0.00     0.207 C 
BRANCH  25  30
HETATM   30  O   UNL     1     -41.012 -46.378   9.857  1.00  0.00    -0.386 OA
HETATM   31  H   UNL     1     -40.866 -45.509   9.438  1.00  0.00     0.210 HD
ENDBRANCH  25  30
ENDBRANCH  24  25
ENDBRANCH   2  24
TORSDOF 10
ENDMDL
MODEL 6
REMARK VINA RESULT:      -5.9      1.893      2.791
REMARK  10 active torsions:
REMARK  status: ('A' for Active; 'I' for Inactive)
REMARK    1  A    between atoms: N_2  and  C_13 
REMARK    2  A    between atoms: C_6  and  N_8 
REMARK    3  A    between atoms: N_8  and  C_16 
REMARK    4  A    between atoms: C_13  and  C_15 
REMARK    5  A    between atoms: C_14  and  C_16 
REMARK    6  A    between atoms: C_14  and  C_22 
REMARK    7  A    between atoms: C_14  and  C_23 
REMARK    8  A    between atoms: C_15  and  O_20 
REMARK    9  A    between atoms: C_22  and  O_26 
REMARK   10  A    between atoms: C_23  and  O_27 
ROOT
HETATM    1  C   UNL     1     -40.376 -49.169  12.288  1.00  0.00     0.122 A 
HETATM    2  N   UNL     1     -41.797 -47.680  11.556  1.00  0.00    -0.324 N 
HETATM    3  C   UNL     1     -41.126 -48.068  12.681  1.00  0.00     0.140 A 
HETATM    4  N   UNL     1     -40.640 -49.476  10.965  1.00  0.00    -0.346 N 
ATOM      5  HN  UNL     1     -40.265 -50.257  10.426  1.00  0.00     0.167 HD
HETATM    6  C   UNL     1     -39.540 -49.775  13.259  1.00  0.00     0.135 A 
HETATM    7  C   UNL     1     -41.472 -48.551  10.553  1.00  0.00     0.185 A 
HETATM    8  N   UNL     1     -41.178 -47.507  13.899  1.00  0.00    -0.336 N 
ATOM      9  HN  UNL     1     -41.757 -46.704  14.145  1.00  0.00     0.168 HD
HETATM   10  N   UNL     1     -39.570 -49.225  14.511  1.00  0.00    -0.337 N 
ATOM     11  HN  UNL     1     -38.999 -49.621  15.258  1.00  0.00     0.168 HD
HETATM   12  C   UNL     1     -40.358 -48.155  14.752  1.00  0.00     0.183 A 
ENDROOT
BRANCH   6  13
HETATM   13  N   UNL     1     -38.782 -50.909  13.016  1.00  0.00    -0.369 N 
HETATM   14  C   UNL     1     -37.599 -50.817  12.167  1.00  0.00     0.151 C 
BRANCH  13  15
HETATM   15  C   UNL     1     -38.884 -52.071  13.898  1.00  0.00     0.137 C 
BRANCH  15  16
HETATM   16  C   UNL     1     -40.213 -52.868  13.733  1.00  0.00     0.015 C 
HETATM   17  C   UNL     1     -41.302 -52.455  14.742  1.00  0.00     0.021 C 
BRANCH  16  18
HETATM   18  C   UNL     1     -40.798 -52.647  12.321  1.00  0.00     0.177 C 
BRANCH  18  19
HETATM   19  O   UNL     1     -40.606 -53.777  11.476  1.00  0.00    -0.400 OA
HETATM   20  H   UNL     1     -41.494 -54.127  11.283  1.00  0.00     0.209 HD
ENDBRANCH  18  19
ENDBRANCH  16  18
BRANCH  16  21
HETATM   21  C   UNL     1     -39.848 -54.353  13.982  1.00  0.00     0.177 C 
BRANCH  21  22
HETATM   22  O   UNL     1     -38.658 -54.749  13.310  1.00  0.00    -0.400 OA
HETATM   23  H   UNL     1     -38.854 -55.581  12.835  1.00  0.00     0.209 HD
ENDBRANCH  21  22
ENDBRANCH  16  21
ENDBRANCH  15  16
ENDBRANCH  13  15
ENDBRANCH   6  13
BRANCH   2  24
HETATM   24  C   UNL     1     -42.607 -46.488  11.389  1.00  0.00     0.171 C 
BRANCH  24  25
HETATM   25  C   UNL     1     -41.886 -45.315  10.711  1.00  0.00     0.097 C 
HETATM   26  C   UNL     1     -40.519 -44.957  11.265  1.00  0.00     0.068 C 
HETATM   27  C   UNL     1     -40.383 -43.481  10.934  1.00  0.00     0.170 C 
HETATM   28  O   UNL     1     -41.703 -42.933  10.849  1.00  0.00    -0.388 OA
HETATM   29  C   UNL     1     -42.648 -44.008  10.958  1.00  0.00     0.207 C 
BRANCH  25  30
HETATM   30  O   UNL     1     -41.780 -45.523   9.297  1.00  0.00    -0.386 OA
HETATM   31  H   UNL     1     -42.666 -45.480   8.889  1.00  0.00     0.210 HD
ENDBRANCH  25  30
ENDBRANCH  24  25
ENDBRANCH   2  24
TORSDOF 10
ENDMDL
MODEL 7
REMARK VINA RESULT:      -5.9      2.365      7.283
REMARK  10 active torsions:
REMARK  status: ('A' for Active; 'I' for Inactive)
REMARK    1  A    between atoms: N_2  and  C_13 
REMARK    2  A    between atoms: C_6  and  N_8 
REMARK    3  A    between atoms: N_8  and  C_16 
REMARK    4  A    between atoms: C_13  and  C_15 
REMARK    5  A    between atoms: C_14  and  C_16 
REMARK    6  A    between atoms: C_14  and  C_22 
REMARK    7  A    between atoms: C_14  and  C_23 
REMARK    8  A    between atoms: C_15  and  O_20 
REMARK    9  A    between atoms: C_22  and  O_26 
REMARK   10  A    between atoms: C_23  and  O_27 
ROOT
HETATM    1  C   UNL     1     -41.406 -48.339  11.760  1.00  0.00     0.122 A 
HETATM    2  N   UNL     1     -40.535 -50.233  12.414  1.00  0.00    -0.324 N 
HETATM    3  C   UNL     1     -41.371 -49.232  12.823  1.00  0.00     0.140 A 
HETATM    4  N   UNL     1     -40.557 -48.763  10.754  1.00  0.00    -0.346 N 
ATOM      5  HN  UNL     1     -40.350 -48.285   9.877  1.00  0.00     0.167 HD
HETATM    6  C   UNL     1     -42.233 -47.195  11.890  1.00  0.00     0.135 A 
HETATM    7  C   UNL     1     -40.075 -49.910  11.167  1.00  0.00     0.185 A 
HETATM    8  N   UNL     1     -42.018 -49.134  13.995  1.00  0.00    -0.336 N 
ATOM      9  HN  UNL     1     -41.950 -49.811  14.755  1.00  0.00     0.168 HD
HETATM   10  N   UNL     1     -42.907 -47.067  13.073  1.00  0.00    -0.337 N 
ATOM     11  HN  UNL     1     -43.510 -46.260  13.234  1.00  0.00     0.168 HD
HETATM   12  C   UNL     1     -42.769 -48.013  14.027  1.00  0.00     0.183 A 
ENDROOT
BRANCH   6  13
HETATM   13  N   UNL     1     -42.319 -46.199  10.930  1.00  0.00    -0.369 N 
HETATM   14  C   UNL     1     -43.035 -46.458   9.686  1.00  0.00     0.151 C 
BRANCH  13  15
HETATM   15  C   UNL     1     -42.085 -44.801  11.290  1.00  0.00     0.137 C 
BRANCH  15  16
HETATM   16  C   UNL     1     -40.578 -44.423  11.392  1.00  0.00     0.015 C 
HETATM   17  C   UNL     1     -39.907 -44.928  12.684  1.00  0.00     0.021 C 
BRANCH  16  18
HETATM   18  C   UNL     1     -39.792 -45.031  10.209  1.00  0.00     0.177 C 
BRANCH  18  19
HETATM   19  O   UNL     1     -39.433 -44.050   9.242  1.00  0.00    -0.400 OA
HETATM   20  H   UNL     1     -40.245 -43.547   9.049  1.00  0.00     0.209 HD
ENDBRANCH  18  19
ENDBRANCH  16  18
BRANCH  16  21
HETATM   21  C   UNL     1     -40.529 -42.875  11.383  1.00  0.00     0.177 C 
BRANCH  21  22
HETATM   22  O   UNL     1     -41.413 -42.300  10.428  1.00  0.00    -0.400 OA
HETATM   23  H   UNL     1     -41.411 -41.332  10.575  1.00  0.00     0.209 HD
ENDBRANCH  21  22
ENDBRANCH  16  21
ENDBRANCH  15  16
ENDBRANCH  13  15
ENDBRANCH   6  13
BRANCH   2  24
HETATM   24  C   UNL     1     -40.273 -51.485  13.097  1.00  0.00     0.171 C 
BRANCH  24  25
HETATM   25  C   UNL     1     -41.163 -52.654  12.655  1.00  0.00     0.097 C 
HETATM   26  C   UNL     1     -42.629 -52.333  12.429  1.00  0.00     0.068 C 
HETATM   27  C   UNL     1     -43.322 -53.660  12.687  1.00  0.00     0.170 C 
HETATM   28  O   UNL     1     -42.494 -54.414  13.581  1.00  0.00    -0.388 OA
HETATM   29  C   UNL     1     -41.265 -53.698  13.773  1.00  0.00     0.207 C 
BRANCH  25  30
HETATM   30  O   UNL     1     -40.635 -53.288  11.482  1.00  0.00    -0.386 OA
HETATM   31  H   UNL     1     -41.035 -52.893  10.684  1.00  0.00     0.210 HD
ENDBRANCH  25  30
ENDBRANCH  24  25
ENDBRANCH   2  24
TORSDOF 10
ENDMDL
MODEL 8
REMARK VINA RESULT:      -5.8      3.169      3.756
REMARK  10 active torsions:
REMARK  status: ('A' for Active; 'I' for Inactive)
REMARK    1  A    between atoms: N_2  and  C_13 
REMARK    2  A    between atoms: C_6  and  N_8 
REMARK    3  A    between atoms: N_8  and  C_16 
REMARK    4  A    between atoms: C_13  and  C_15 
REMARK    5  A    between atoms: C_14  and  C_16 
REMARK    6  A    between atoms: C_14  and  C_22 
REMARK    7  A    between atoms: C_14  and  C_23 
REMARK    8  A    between atoms: C_15  and  O_20 
REMARK    9  A    between atoms: C_22  and  O_26 
REMARK   10  A    between atoms: C_23  and  O_27 
ROOT
HETATM    1  C   UNL     1     -42.582 -50.445  13.526  1.00  0.00     0.122 A 
HETATM    2  N   UNL     1     -42.050 -48.514  12.651  1.00  0.00    -0.324 N 
HETATM    3  C   UNL     1     -41.851 -49.858  12.502  1.00  0.00     0.140 A 
HETATM    4  N   UNL     1     -43.161 -49.468  14.316  1.00  0.00    -0.346 N 
ATOM      5  HN  UNL     1     -43.717 -49.605  15.161  1.00  0.00     0.167 HD
HETATM    6  C   UNL     1     -42.587 -51.860  13.603  1.00  0.00     0.135 A 
HETATM    7  C   UNL     1     -42.845 -48.329  13.749  1.00  0.00     0.185 A 
HETATM    8  N   UNL     1     -41.110 -50.476  11.568  1.00  0.00    -0.336 N 
ATOM      9  HN  UNL     1     -40.577 -50.000  10.840  1.00  0.00     0.168 HD
HETATM   10  N   UNL     1     -41.843 -52.519  12.665  1.00  0.00    -0.337 N 
ATOM     11  HN  UNL     1     -41.795 -53.538  12.672  1.00  0.00     0.168 HD
HETATM   12  C   UNL     1     -41.171 -51.815  11.729  1.00  0.00     0.183 A 
ENDROOT
BRANCH   6  13
HETATM   13  N   UNL     1     -43.230 -52.570  14.605  1.00  0.00    -0.369 N 
HETATM   14  C   UNL     1     -42.444 -53.212  15.652  1.00  0.00     0.151 C 
BRANCH  13  15
HETATM   15  C   UNL     1     -44.650 -52.348  14.874  1.00  0.00     0.137 C 
BRANCH  15  16
HETATM   16  C   UNL     1     -45.596 -53.272  14.052  1.00  0.00     0.015 C 
HETATM   17  C   UNL     1     -44.847 -54.339  13.230  1.00  0.00     0.021 C 
BRANCH  16  18
HETATM   18  C   UNL     1     -46.562 -54.024  14.994  1.00  0.00     0.177 C 
BRANCH  18  19
HETATM   19  O   UNL     1     -46.884 -55.324  14.508  1.00  0.00    -0.400 OA
HETATM   20  H   UNL     1     -47.803 -55.497  14.780  1.00  0.00     0.209 HD
ENDBRANCH  18  19
ENDBRANCH  16  18
BRANCH  16  21
HETATM   21  C   UNL     1     -46.353 -52.338  13.074  1.00  0.00     0.177 C 
BRANCH  21  22
HETATM   22  O   UNL     1     -46.241 -52.750  11.717  1.00  0.00    -0.400 OA
HETATM   23  H   UNL     1     -46.603 -52.029  11.163  1.00  0.00     0.209 HD
ENDBRANCH  21  22
ENDBRANCH  16  21
ENDBRANCH  15  16
ENDBRANCH  13  15
ENDBRANCH   6  13
BRANCH   2  24
HETATM   24  C   UNL     1     -41.624 -47.462  11.749  1.00  0.00     0.171 C 
BRANCH  24  25
HETATM   25  C   UNL     1     -42.390 -47.411  10.419  1.00  0.00     0.097 C 
HETATM   26  C   UNL     1     -42.467 -46.054   9.742  1.00  0.00     0.068 C 
HETATM   27  C   UNL     1     -43.749 -46.140   8.932  1.00  0.00     0.170 C 
HETATM   28  O   UNL     1     -44.607 -47.088   9.578  1.00  0.00    -0.388 OA
HETATM   29  C   UNL     1     -43.877 -47.702  10.651  1.00  0.00     0.207 C 
BRANCH  25  30
HETATM   30  O   UNL     1     -41.873 -48.371   9.490  1.00  0.00    -0.386 OA
HETATM   31  H   UNL     1     -40.900 -48.304   9.451  1.00  0.00     0.210 HD
ENDBRANCH  25  30
ENDBRANCH  24  25
ENDBRANCH   2  24
TORSDOF 10
ENDMDL
MODEL 9
REMARK VINA RESULT:      -5.7      1.534      2.356
REMARK  10 active torsions:
REMARK  status: ('A' for Active; 'I' for Inactive)
REMARK    1  A    between atoms: N_2  and  C_13 
REMARK    2  A    between atoms: C_6  and  N_8 
REMARK    3  A    between atoms: N_8  and  C_16 
REMARK    4  A    between atoms: C_13  and  C_15 
REMARK    5  A    between atoms: C_14  and  C_16 
REMARK    6  A    between atoms: C_14  and  C_22 
REMARK    7  A    between atoms: C_14  and  C_23 
REMARK    8  A    between atoms: C_15  and  O_20 
REMARK    9  A    between atoms: C_22  and  O_26 
REMARK   10  A    between atoms: C_23  and  O_27 
ROOT
HETATM    1  C   UNL     1     -40.662 -49.873  12.991  1.00  0.00     0.122 A 
HETATM    2  N   UNL     1     -40.972 -48.249  11.561  1.00  0.00    -0.324 N 
HETATM    3  C   UNL     1     -41.097 -48.558  12.887  1.00  0.00     0.140 A 
HETATM    4  N   UNL     1     -40.341 -50.367  11.739  1.00  0.00    -0.346 N 
ATOM      5  HN  UNL     1     -40.034 -51.312  11.508  1.00  0.00     0.167 HD
HETATM    6  C   UNL     1     -40.652 -50.461  14.280  1.00  0.00     0.135 A 
HETATM    7  C   UNL     1     -40.512 -49.362  10.914  1.00  0.00     0.185 A 
HETATM    8  N   UNL     1     -41.542 -47.764  13.873  1.00  0.00    -0.336 N 
ATOM      9  HN  UNL     1     -41.865 -46.804  13.746  1.00  0.00     0.168 HD
HETATM   10  N   UNL     1     -41.098 -49.677  15.307  1.00  0.00    -0.337 N 
ATOM     11  HN  UNL     1     -41.125 -50.045  16.258  1.00  0.00     0.168 HD
HETATM   12  C   UNL     1     -41.502 -48.413  15.056  1.00  0.00     0.183 A 
ENDROOT
BRANCH   6  13
HETATM   13  N   UNL     1     -40.293 -51.779  14.516  1.00  0.00    -0.369 N 
HETATM   14  C   UNL     1     -38.895 -52.112  14.765  1.00  0.00     0.151 C 
BRANCH  13  15
HETATM   15  C   UNL     1     -41.298 -52.756  14.931  1.00  0.00     0.137 C 
BRANCH  15  16
HETATM   16  C   UNL     1     -41.978 -53.500  13.743  1.00  0.00     0.015 C 
HETATM   17  C   UNL     1     -42.856 -54.686  14.186  1.00  0.00     0.021 C 
BRANCH  16  18
HETATM   18  C   UNL     1     -42.890 -52.532  12.957  1.00  0.00     0.177 C 
BRANCH  18  19
HETATM   19  O   UNL     1     -43.512 -53.165  11.844  1.00  0.00    -0.400 OA
HETATM   20  H   UNL     1     -43.019 -52.875  11.055  1.00  0.00     0.209 HD
ENDBRANCH  18  19
ENDBRANCH  16  18
BRANCH  16  21
HETATM   21  C   UNL     1     -40.821 -54.043  12.868  1.00  0.00     0.177 C 
BRANCH  21  22
HETATM   22  O   UNL     1     -40.701 -53.361  11.625  1.00  0.00    -0.400 OA
HETATM   23  H   UNL     1     -41.592 -53.333  11.221  1.00  0.00     0.209 HD
ENDBRANCH  21  22
ENDBRANCH  16  21
ENDBRANCH  15  16
ENDBRANCH  13  15
ENDBRANCH   6  13
BRANCH   2  24
HETATM   24  C   UNL     1     -41.156 -46.948  10.947  1.00  0.00     0.171 C 
BRANCH  24  25
HETATM   25  C   UNL     1     -42.598 -46.640  10.521  1.00  0.00     0.097 C 
HETATM   26  C   UNL     1     -43.117 -47.396   9.311  1.00  0.00     0.068 C 
HETATM   27  C   UNL     1     -44.175 -46.466   8.744  1.00  0.00     0.170 C 
HETATM   28  O   UNL     1     -43.830 -45.131   9.131  1.00  0.00    -0.388 OA
HETATM   29  C   UNL     1     -42.709 -45.194  10.026  1.00  0.00     0.207 C 
BRANCH  25  30
HETATM   30  O   UNL     1     -43.508 -46.822  11.614  1.00  0.00    -0.386 OA
HETATM   31  H   UNL     1     -43.079 -46.554  12.449  1.00  0.00     0.210 HD
ENDBRANCH  25  30
ENDBRANCH  24  25
ENDBRANCH   2  24
TORSDOF 10
ENDMDL
