MODEL 1
REMARK VINA RESULT:      -5.7      0.000      0.000
REMARK  7 active torsions:
REMARK  status: ('A' for Active; 'I' for Inactive)
REMARK    1  A    between atoms: C_2  and  C_3 
REMARK       I    between atoms: C_2  and  N_14 
REMARK    2  A    between atoms: C_3  and  C_4 
REMARK    3  A    between atoms: C_4  and  N_5 
REMARK    4  A    between atoms: N_5  and  C_6 
REMARK    5  A    between atoms: C_6  and  C_7 
REMARK    6  A    between atoms: C_7  and  N_8 
REMARK    7  A    between atoms: N_14  and  C_15 
ROOT
HETATM    1  C   UNL     1     -41.269 -48.915  11.347  1.00  0.00     0.278 C 
ENDROOT
BRANCH   1   2
HETATM    2  C   UNL     1     -40.621 -50.296  11.373  1.00  0.00     0.132 C 
BRANCH   2   3
HETATM    3  C   UNL     1     -41.356 -51.209  12.336  1.00  0.00     0.219 C 
HETATM    4  O   UNL     1     -40.803 -52.038  13.046  1.00  0.00    -0.274 OA
HETATM    5  N   UNL     1     -42.720 -51.012  12.316  1.00  0.00    -0.356 N 
HETATM    6  H   UNL     1     -43.082 -50.198  11.837  1.00  0.00     0.162 HD
BRANCH   5   7
HETATM    7  C   UNL     1     -43.610 -51.756  13.181  1.00  0.00     0.084 C 
HETATM    8  C   UNL     1     -44.186 -52.989  12.484  1.00  0.00     0.025 C 
HETATM    9  C   UNL     1     -45.602 -53.165  13.033  1.00  0.00     0.002 C 
HETATM   10  C   UNL     1     -45.814 -52.034  14.034  1.00  0.00     0.002 C 
HETATM   11  C   UNL     1     -44.838 -50.954  13.598  1.00  0.00     0.025 C 
ENDBRANCH   5   7
ENDBRANCH   2   3
ENDBRANCH   1   2
BRANCH   1  12
HETATM   12  N   UNL     1     -41.549 -48.489   9.967  1.00  0.00     0.085 N 
HETATM   13  H   UNL     1     -41.779 -49.315   9.410  1.00  0.00     0.315 HD
BRANCH  12  14
HETATM   14  C   UNL     1     -42.703 -47.569   9.915  1.00  0.00     0.291 C 
BRANCH  14  15
HETATM   15  C   UNL     1     -43.318 -47.413   8.521  1.00  0.00     0.178 C 
BRANCH  15  16
HETATM   16  N   UNL     1     -44.712 -47.813   8.504  1.00  0.00    -0.302 N 
HETATM   17  C   UNL     1     -45.658 -47.530   9.446  1.00  0.00     0.111 A 
HETATM   18  C   UNL     1     -46.805 -48.164   9.032  1.00  0.00     0.037 A 
HETATM   19  C   UNL     1     -46.450 -48.800   7.828  1.00  0.00     0.108 A 
HETATM   20  N   UNL     1     -45.176 -48.578   7.497  1.00  0.00    -0.310 N 
ATOM     21  HN  UNL     1     -44.673 -48.909   6.674  1.00  0.00     0.186 HD
ENDBRANCH  15  16
ENDBRANCH  14  15
ENDBRANCH  12  14
ENDBRANCH   1  12
TORSDOF 7
ENDMDL
MODEL 2
REMARK VINA RESULT:      -5.6      1.895      2.389
REMARK  7 active torsions:
REMARK  status: ('A' for Active; 'I' for Inactive)
REMARK    1  A    between atoms: C_2  and  C_3 
REMARK       I    between atoms: C_2  and  N_14 
REMARK    2  A    between atoms: C_3  and  C_4 
REMARK    3  A    between atoms: C_4  and  N_5 
REMARK    4  A    between atoms: N_5  and  C_6 
REMARK    5  A    between atoms: C_6  and  C_7 
REMARK    6  A    between atoms: C_7  and  N_8 
REMARK    7  A    between atoms: N_14  and  C_15 
ROOT
HETATM    1  C   UNL     1     -41.137 -50.867  12.053  1.00  0.00     0.278 C 
ENDROOT
BRANCH   1   2
HETATM    2  C   UNL     1     -41.286 -52.370  11.840  1.00  0.00     0.132 C 
BRANCH   2   3
HETATM    3  C   UNL     1     -42.438 -52.911  12.664  1.00  0.00     0.219 C 
HETATM    4  O   UNL     1     -42.449 -54.025  13.172  1.00  0.00    -0.274 OA
HETATM    5  N   UNL     1     -43.480 -52.016  12.771  1.00  0.00    -0.356 N 
HETATM    6  H   UNL     1     -43.326 -51.061  12.476  1.00  0.00     0.162 HD
BRANCH   5   7
HETATM    7  C   UNL     1     -44.667 -52.318  13.542  1.00  0.00     0.084 C 
HETATM    8  C   UNL     1     -45.929 -51.739  12.899  1.00  0.00     0.025 C 
HETATM    9  C   UNL     1     -46.851 -51.345  14.052  1.00  0.00     0.002 C 
HETATM   10  C   UNL     1     -46.108 -51.704  15.334  1.00  0.00     0.002 C 
HETATM   11  C   UNL     1     -44.642 -51.700  14.936  1.00  0.00     0.025 C 
ENDBRANCH   5   7
ENDBRANCH   2   3
ENDBRANCH   1   2
BRANCH   1  12
HETATM   12  N   UNL     1     -40.594 -50.214  10.852  1.00  0.00     0.085 N 
HETATM   13  H   UNL     1     -41.094 -50.568  10.033  1.00  0.00     0.315 HD
BRANCH  12  14
HETATM   14  C   UNL     1     -40.785 -48.751  10.905  1.00  0.00     0.291 C 
BRANCH  14  15
HETATM   15  C   UNL     1     -42.232 -48.317  11.160  1.00  0.00     0.178 C 
BRANCH  15  16
HETATM   16  N   UNL     1     -42.793 -47.625  10.015  1.00  0.00    -0.302 N 
HETATM   17  C   UNL     1     -43.385 -46.396  10.009  1.00  0.00     0.111 A 
HETATM   18  C   UNL     1     -43.810 -46.188   8.718  1.00  0.00     0.037 A 
HETATM   19  C   UNL     1     -43.424 -47.348   8.022  1.00  0.00     0.108 A 
HETATM   20  N   UNL     1     -42.792 -48.222   8.808  1.00  0.00    -0.310 N 
ATOM     21  HN  UNL     1     -42.401 -49.129   8.554  1.00  0.00     0.186 HD
ENDBRANCH  15  16
ENDBRANCH  14  15
ENDBRANCH  12  14
ENDBRANCH   1  12
TORSDOF 7
ENDMDL
MODEL 3
REMARK VINA RESULT:      -5.5      1.904      2.453
REMARK  7 active torsions:
REMARK  status: ('A' for Active; 'I' for Inactive)
REMARK    1  A    between atoms: C_2  and  C_3 
REMARK       I    between atoms: C_2  and  N_14 
REMARK    2  A    between atoms: C_3  and  C_4 
REMARK    3  A    between atoms: C_4  and  N_5 
REMARK    4  A    between atoms: N_5  and  C_6 
REMARK    5  A    between atoms: C_6  and  C_7 
REMARK    6  A    between atoms: C_7  and  N_8 
REMARK    7  A    between atoms: N_14  and  C_15 
ROOT
HETATM    1  C   UNL     1     -39.470 -50.297  11.651  1.00  0.00     0.278 C 
ENDROOT
BRANCH   1   2
HETATM    2  C   UNL     1     -40.247 -50.625  12.922  1.00  0.00     0.132 C 
BRANCH   2   3
HETATM    3  C   UNL     1     -40.699 -52.073  12.909  1.00  0.00     0.219 C 
HETATM    4  O   UNL     1     -39.947 -53.020  12.722  1.00  0.00    -0.274 OA
HETATM    5  N   UNL     1     -42.054 -52.207  13.119  1.00  0.00    -0.356 N 
HETATM    6  H   UNL     1     -42.574 -51.399  13.436  1.00  0.00     0.162 HD
BRANCH   5   7
HETATM    7  C   UNL     1     -42.691 -53.504  13.177  1.00  0.00     0.084 C 
HETATM    8  C   UNL     1     -44.081 -53.488  12.538  1.00  0.00     0.025 C 
HETATM    9  C   UNL     1     -44.930 -54.473  13.342  1.00  0.00     0.002 C 
HETATM   10  C   UNL     1     -44.017 -55.037  14.425  1.00  0.00     0.002 C 
HETATM   11  C   UNL     1     -42.943 -53.978  14.605  1.00  0.00     0.025 C 
ENDBRANCH   5   7
ENDBRANCH   2   3
ENDBRANCH   1   2
BRANCH   1  12
HETATM   12  N   UNL     1     -40.370 -49.821  10.589  1.00  0.00     0.085 N 
HETATM   13  H   UNL     1     -40.814 -50.630  10.150  1.00  0.00     0.315 HD
BRANCH  12  14
HETATM   14  C   UNL     1     -41.436 -48.958  11.138  1.00  0.00     0.291 C 
BRANCH  14  15
HETATM   15  C   UNL     1     -41.340 -47.492  10.705  1.00  0.00     0.178 C 
BRANCH  15  16
HETATM   16  N   UNL     1     -42.456 -47.111   9.860  1.00  0.00    -0.302 N 
HETATM   17  C   UNL     1     -43.037 -45.879   9.775  1.00  0.00     0.111 A 
HETATM   18  C   UNL     1     -44.086 -46.016   8.895  1.00  0.00     0.037 A 
HETATM   19  C   UNL     1     -44.051 -47.367   8.503  1.00  0.00     0.108 A 
HETATM   20  N   UNL     1     -43.050 -48.035   9.080  1.00  0.00    -0.310 N 
ATOM     21  HN  UNL     1     -42.795 -49.015   8.960  1.00  0.00     0.186 HD
ENDBRANCH  15  16
ENDBRANCH  14  15
ENDBRANCH  12  14
ENDBRANCH   1  12
TORSDOF 7
ENDMDL
MODEL 4
REMARK VINA RESULT:      -5.2      2.879      3.777
REMARK  7 active torsions:
REMARK  status: ('A' for Active; 'I' for Inactive)
REMARK    1  A    between atoms: C_2  and  C_3 
REMARK       I    between atoms: C_2  and  N_14 
REMARK    2  A    between atoms: C_3  and  C_4 
REMARK    3  A    between atoms: C_4  and  N_5 
REMARK    4  A    between atoms: N_5  and  C_6 
REMARK    5  A    between atoms: C_6  and  C_7 
REMARK    6  A    between atoms: C_7  and  N_8 
REMARK    7  A    between atoms: N_14  and  C_15 
ROOT
HETATM    1  C   UNL     1     -39.552 -50.118  11.602  1.00  0.00     0.278 C 
ENDROOT
BRANCH   1   2
HETATM    2  C   UNL     1     -40.245 -50.500  12.906  1.00  0.00     0.132 C 
BRANCH   2   3
HETATM    3  C   UNL     1     -40.670 -51.955  12.874  1.00  0.00     0.219 C 
HETATM    4  O   UNL     1     -39.904 -52.885  12.659  1.00  0.00    -0.274 OA
HETATM    5  N   UNL     1     -42.019 -52.118  13.102  1.00  0.00    -0.356 N 
HETATM    6  H   UNL     1     -42.549 -51.326  13.441  1.00  0.00     0.162 HD
BRANCH   5   7
HETATM    7  C   UNL     1     -42.632 -53.429  13.146  1.00  0.00     0.084 C 
HETATM    8  C   UNL     1     -44.038 -53.423  12.546  1.00  0.00     0.025 C 
HETATM    9  C   UNL     1     -44.847 -54.441  13.349  1.00  0.00     0.002 C 
HETATM   10  C   UNL     1     -43.895 -55.013  14.393  1.00  0.00     0.002 C 
HETATM   11  C   UNL     1     -42.835 -53.939  14.569  1.00  0.00     0.025 C 
ENDBRANCH   5   7
ENDBRANCH   2   3
ENDBRANCH   1   2
BRANCH   1  12
HETATM   12  N   UNL     1     -40.532 -49.710  10.583  1.00  0.00     0.085 N 
HETATM   13  H   UNL     1     -41.023 -50.542  10.250  1.00  0.00     0.315 HD
BRANCH  12  14
HETATM   14  C   UNL     1     -41.535 -48.783  11.146  1.00  0.00     0.291 C 
BRANCH  14  15
HETATM   15  C   UNL     1     -41.950 -47.656  10.195  1.00  0.00     0.178 C 
BRANCH  15  16
HETATM   16  N   UNL     1     -41.324 -46.398  10.553  1.00  0.00    -0.302 N 
HETATM   17  C   UNL     1     -41.905 -45.348  11.204  1.00  0.00     0.111 A 
HETATM   18  C   UNL     1     -40.947 -44.364  11.264  1.00  0.00     0.037 A 
HETATM   19  C   UNL     1     -39.823 -44.918  10.625  1.00  0.00     0.108 A 
HETATM   20  N   UNL     1     -40.045 -46.164  10.201  1.00  0.00    -0.310 N 
ATOM     21  HN  UNL     1     -39.399 -46.790   9.722  1.00  0.00     0.186 HD
ENDBRANCH  15  16
ENDBRANCH  14  15
ENDBRANCH  12  14
ENDBRANCH   1  12
TORSDOF 7
ENDMDL
MODEL 5
REMARK VINA RESULT:      -5.1      2.856      4.574
REMARK  7 active torsions:
REMARK  status: ('A' for Active; 'I' for Inactive)
REMARK    1  A    between atoms: C_2  and  C_3 
REMARK       I    between atoms: C_2  and  N_14 
REMARK    2  A    between atoms: C_3  and  C_4 
REMARK    3  A    between atoms: C_4  and  N_5 
REMARK    4  A    between atoms: N_5  and  C_6 
REMARK    5  A    between atoms: C_6  and  C_7 
REMARK    6  A    between atoms: C_7  and  N_8 
REMARK    7  A    between atoms: N_14  and  C_15 
ROOT
HETATM    1  C   UNL     1     -43.406 -52.531  12.567  1.00  0.00     0.278 C 
ENDROOT
BRANCH   1   2
HETATM    2  C   UNL     1     -44.017 -53.927  12.494  1.00  0.00     0.132 C 
BRANCH   2   3
HETATM    3  C   UNL     1     -45.095 -54.091  13.548  1.00  0.00     0.219 C 
HETATM    4  O   UNL     1     -45.655 -55.152  13.792  1.00  0.00    -0.274 OA
HETATM    5  N   UNL     1     -45.386 -52.911  14.197  1.00  0.00    -0.356 N 
HETATM    6  H   UNL     1     -44.765 -52.123  14.063  1.00  0.00     0.162 HD
BRANCH   5   7
HETATM    7  C   UNL     1     -46.363 -52.847  15.262  1.00  0.00     0.084 C 
HETATM    8  C   UNL     1     -47.114 -51.514  15.271  1.00  0.00     0.025 C 
HETATM    9  C   UNL     1     -47.402 -51.199  16.738  1.00  0.00     0.002 C 
HETATM   10  C   UNL     1     -46.816 -52.352  17.545  1.00  0.00     0.002 C 
HETATM   11  C   UNL     1     -45.734 -52.931  16.649  1.00  0.00     0.025 C 
ENDBRANCH   5   7
ENDBRANCH   2   3
ENDBRANCH   1   2
BRANCH   1  12
HETATM   12  N   UNL     1     -42.183 -52.446  11.754  1.00  0.00     0.085 N 
HETATM   13  H   UNL     1     -42.408 -51.980  10.873  1.00  0.00     0.315 HD
BRANCH  12  14
HETATM   14  C   UNL     1     -41.141 -51.653  12.437  1.00  0.00     0.291 C 
BRANCH  14  15
HETATM   15  C   UNL     1     -40.516 -50.558  11.567  1.00  0.00     0.178 C 
BRANCH  15  16
HETATM   16  N   UNL     1     -41.431 -49.451  11.364  1.00  0.00    -0.302 N 
HETATM   17  C   UNL     1     -42.379 -49.000  12.236  1.00  0.00     0.111 A 
HETATM   18  C   UNL     1     -43.035 -47.980  11.587  1.00  0.00     0.037 A 
HETATM   19  C   UNL     1     -42.406 -47.891  10.331  1.00  0.00     0.108 A 
HETATM   20  N   UNL     1     -41.419 -48.779  10.197  1.00  0.00    -0.310 N 
ATOM     21  HN  UNL     1     -40.801 -48.917   9.397  1.00  0.00     0.186 HD
ENDBRANCH  15  16
ENDBRANCH  14  15
ENDBRANCH  12  14
ENDBRANCH   1  12
TORSDOF 7
ENDMDL
MODEL 6
REMARK VINA RESULT:      -5.1      2.910      3.640
REMARK  7 active torsions:
REMARK  status: ('A' for Active; 'I' for Inactive)
REMARK    1  A    between atoms: C_2  and  C_3 
REMARK       I    between atoms: C_2  and  N_14 
REMARK    2  A    between atoms: C_3  and  C_4 
REMARK    3  A    between atoms: C_4  and  N_5 
REMARK    4  A    between atoms: N_5  and  C_6 
REMARK    5  A    between atoms: C_6  and  C_7 
REMARK    6  A    between atoms: C_7  and  N_8 
REMARK    7  A    between atoms: N_14  and  C_15 
ROOT
HETATM    1  C   UNL     1     -40.408 -51.478  12.552  1.00  0.00     0.278 C 
ENDROOT
BRANCH   1   2
HETATM    2  C   UNL     1     -41.037 -52.763  12.024  1.00  0.00     0.132 C 
BRANCH   2   3
HETATM    3  C   UNL     1     -42.265 -53.126  12.836  1.00  0.00     0.219 C 
HETATM    4  O   UNL     1     -42.321 -54.083  13.598  1.00  0.00    -0.274 OA
HETATM    5  N   UNL     1     -43.319 -52.267  12.616  1.00  0.00    -0.356 N 
HETATM    6  H   UNL     1     -43.143 -51.408  12.112  1.00  0.00     0.162 HD
BRANCH   5   7
HETATM    7  C   UNL     1     -44.579 -52.412  13.313  1.00  0.00     0.084 C 
HETATM    8  C   UNL     1     -45.768 -52.419  12.351  1.00  0.00     0.025 C 
HETATM    9  C   UNL     1     -46.917 -51.736  13.091  1.00  0.00     0.002 C 
HETATM   10  C   UNL     1     -46.372 -51.349  14.461  1.00  0.00     0.002 C 
HETATM   11  C   UNL     1     -44.870 -51.250  14.258  1.00  0.00     0.025 C 
ENDBRANCH   5   7
ENDBRANCH   2   3
ENDBRANCH   1   2
BRANCH   1  12
HETATM   12  N   UNL     1     -39.803 -50.699  11.461  1.00  0.00     0.085 N 
HETATM   13  H   UNL     1     -40.244 -50.971  10.580  1.00  0.00     0.315 HD
BRANCH  12  14
HETATM   14  C   UNL     1     -40.023 -49.250  11.652  1.00  0.00     0.291 C 
BRANCH  14  15
HETATM   15  C   UNL     1     -41.252 -48.702  10.920  1.00  0.00     0.178 C 
BRANCH  15  16
HETATM   16  N   UNL     1     -41.216 -47.255  10.825  1.00  0.00    -0.302 N 
HETATM   17  C   UNL     1     -42.264 -46.396  10.982  1.00  0.00     0.111 A 
HETATM   18  C   UNL     1     -41.761 -45.138  10.743  1.00  0.00     0.037 A 
HETATM   19  C   UNL     1     -40.400 -45.345  10.454  1.00  0.00     0.108 A 
HETATM   20  N   UNL     1     -40.061 -46.634  10.515  1.00  0.00    -0.310 N 
ATOM     21  HN  UNL     1     -39.143 -47.052  10.362  1.00  0.00     0.186 HD
ENDBRANCH  15  16
ENDBRANCH  14  15
ENDBRANCH  12  14
ENDBRANCH   1  12
TORSDOF 7
ENDMDL
MODEL 7
REMARK VINA RESULT:      -5.0      4.236      6.040
REMARK  7 active torsions:
REMARK  status: ('A' for Active; 'I' for Inactive)
REMARK    1  A    between atoms: C_2  and  C_3 
REMARK       I    between atoms: C_2  and  N_14 
REMARK    2  A    between atoms: C_3  and  C_4 
REMARK    3  A    between atoms: C_4  and  N_5 
REMARK    4  A    between atoms: N_5  and  C_6 
REMARK    5  A    between atoms: C_6  and  C_7 
REMARK    6  A    between atoms: C_7  and  N_8 
REMARK    7  A    between atoms: N_14  and  C_15 
ROOT
HETATM    1  C   UNL     1     -43.528 -53.375  12.422  1.00  0.00     0.278 C 
ENDROOT
BRANCH   1   2
HETATM    2  C   UNL     1     -43.159 -53.465  13.899  1.00  0.00     0.132 C 
BRANCH   2   3
HETATM    3  C   UNL     1     -44.392 -53.743  14.738  1.00  0.00     0.219 C 
HETATM    4  O   UNL     1     -44.802 -54.868  14.995  1.00  0.00    -0.274 OA
HETATM    5  N   UNL     1     -45.009 -52.591  15.171  1.00  0.00    -0.356 N 
HETATM    6  H   UNL     1     -44.517 -51.713  15.067  1.00  0.00     0.162 HD
BRANCH   5   7
HETATM    7  C   UNL     1     -46.186 -52.626  16.013  1.00  0.00     0.084 C 
HETATM    8  C   UNL     1     -47.206 -51.559  15.615  1.00  0.00     0.025 C 
HETATM    9  C   UNL     1     -47.877 -51.108  16.913  1.00  0.00     0.002 C 
HETATM   10  C   UNL     1     -47.234 -51.922  18.030  1.00  0.00     0.002 C 
HETATM   11  C   UNL     1     -45.877 -52.322  17.476  1.00  0.00     0.025 C 
ENDBRANCH   5   7
ENDBRANCH   2   3
ENDBRANCH   1   2
BRANCH   1  12
HETATM   12  N   UNL     1     -42.510 -52.626  11.668  1.00  0.00     0.085 N 
HETATM   13  H   UNL     1     -42.983 -51.967  11.047  1.00  0.00     0.315 HD
BRANCH  12  14
HETATM   14  C   UNL     1     -41.635 -51.854  12.573  1.00  0.00     0.291 C 
BRANCH  14  15
HETATM   15  C   UNL     1     -41.049 -50.585  11.946  1.00  0.00     0.178 C 
BRANCH  15  16
HETATM   16  N   UNL     1     -39.600 -50.577  12.011  1.00  0.00    -0.302 N 
HETATM   17  C   UNL     1     -38.820 -51.115  12.993  1.00  0.00     0.111 A 
HETATM   18  C   UNL     1     -37.522 -50.809  12.655  1.00  0.00     0.037 A 
HETATM   19  C   UNL     1     -37.625 -50.089  11.451  1.00  0.00     0.108 A 
HETATM   20  N   UNL     1     -38.891 -49.956  11.048  1.00  0.00    -0.310 N 
ATOM     21  HN  UNL     1     -39.240 -49.492  10.210  1.00  0.00     0.186 HD
ENDBRANCH  15  16
ENDBRANCH  14  15
ENDBRANCH  12  14
ENDBRANCH   1  12
TORSDOF 7
ENDMDL
MODEL 8
REMARK VINA RESULT:      -5.0      3.278      4.628
REMARK  7 active torsions:
REMARK  status: ('A' for Active; 'I' for Inactive)
REMARK    1  A    between atoms: C_2  and  C_3 
REMARK       I    between atoms: C_2  and  N_14 
REMARK    2  A    between atoms: C_3  and  C_4 
REMARK    3  A    between atoms: C_4  and  N_5 
REMARK    4  A    between atoms: N_5  and  C_6 
REMARK    5  A    between atoms: C_6  and  C_7 
REMARK    6  A    between atoms: C_7  and  N_8 
REMARK    7  A    between atoms: N_14  and  C_15 
ROOT
HETATM    1  C   UNL     1     -42.018 -47.645  12.856  1.00  0.00     0.278 C 
ENDROOT
BRANCH   1   2
HETATM    2  C   UNL     1     -42.870 -48.748  12.236  1.00  0.00     0.132 C 
BRANCH   2   3
HETATM    3  C   UNL     1     -43.243 -49.780  13.282  1.00  0.00     0.219 C 
HETATM    4  O   UNL     1     -42.610 -49.967  14.313  1.00  0.00    -0.274 OA
HETATM    5  N   UNL     1     -44.369 -50.497  12.941  1.00  0.00    -0.356 N 
HETATM    6  H   UNL     1     -44.931 -50.170  12.166  1.00  0.00     0.162 HD
BRANCH   5   7
HETATM    7  C   UNL     1     -44.920 -51.513  13.813  1.00  0.00     0.084 C 
HETATM    8  C   UNL     1     -44.596 -52.925  13.323  1.00  0.00     0.025 C 
HETATM    9  C   UNL     1     -45.800 -53.790  13.694  1.00  0.00     0.002 C 
HETATM   10  C   UNL     1     -46.791 -52.864  14.390  1.00  0.00     0.002 C 
HETATM   11  C   UNL     1     -46.444 -51.479  13.873  1.00  0.00     0.025 C 
ENDBRANCH   5   7
ENDBRANCH   2   3
ENDBRANCH   1   2
BRANCH   1  12
HETATM   12  N   UNL     1     -40.622 -48.082  13.016  1.00  0.00     0.085 N 
HETATM   13  H   UNL     1     -40.604 -48.905  13.622  1.00  0.00     0.315 HD
BRANCH  12  14
HETATM   14  C   UNL     1     -40.027 -48.460  11.717  1.00  0.00     0.291 C 
BRANCH  14  15
HETATM   15  C   UNL     1     -39.109 -49.684  11.781  1.00  0.00     0.178 C 
BRANCH  15  16
HETATM   16  N   UNL     1     -39.840 -50.883  12.144  1.00  0.00    -0.302 N 
HETATM   17  C   UNL     1     -39.698 -51.617  13.285  1.00  0.00     0.111 A 
HETATM   18  C   UNL     1     -40.553 -52.686  13.156  1.00  0.00     0.037 A 
HETATM   19  C   UNL     1     -41.168 -52.505  11.903  1.00  0.00     0.108 A 
HETATM   20  N   UNL     1     -40.744 -51.399  11.288  1.00  0.00    -0.310 N 
ATOM     21  HN  UNL     1     -41.036 -51.030  10.383  1.00  0.00     0.186 HD
ENDBRANCH  15  16
ENDBRANCH  14  15
ENDBRANCH  12  14
ENDBRANCH   1  12
TORSDOF 7
ENDMDL
MODEL 9
REMARK VINA RESULT:      -4.9      3.961      7.718
REMARK  7 active torsions:
REMARK  status: ('A' for Active; 'I' for Inactive)
REMARK    1  A    between atoms: C_2  and  C_3 
REMARK       I    between atoms: C_2  and  N_14 
REMARK    2  A    between atoms: C_3  and  C_4 
REMARK    3  A    between atoms: C_4  and  N_5 
REMARK    4  A    between atoms: N_5  and  C_6 
REMARK    5  A    between atoms: C_6  and  C_7 
REMARK    6  A    between atoms: C_7  and  N_8 
REMARK    7  A    between atoms: N_14  and  C_15 
ROOT
HETATM    1  C   UNL     1     -42.067 -47.870  10.202  1.00  0.00     0.278 C 
ENDROOT
BRANCH   1   2
HETATM    2  C   UNL     1     -43.164 -47.147   9.428  1.00  0.00     0.132 C 
BRANCH   2   3
HETATM    3  C   UNL     1     -43.116 -45.657   9.705  1.00  0.00     0.219 C 
HETATM    4  O   UNL     1     -43.767 -44.826   9.085  1.00  0.00    -0.274 OA
HETATM    5  N   UNL     1     -42.249 -45.335  10.727  1.00  0.00    -0.356 N 
HETATM    6  H   UNL     1     -41.884 -46.084  11.301  1.00  0.00     0.162 HD
BRANCH   5   7
HETATM    7  C   UNL     1     -42.074 -43.972  11.177  1.00  0.00     0.084 C 
HETATM    8  C   UNL     1     -40.610 -43.533  11.116  1.00  0.00     0.025 C 
HETATM    9  C   UNL     1     -40.402 -42.581  12.293  1.00  0.00     0.002 C 
HETATM   10  C   UNL     1     -41.746 -42.487  13.008  1.00  0.00     0.002 C 
HETATM   11  C   UNL     1     -42.462 -43.776  12.639  1.00  0.00     0.025 C 
ENDBRANCH   5   7
ENDBRANCH   2   3
ENDBRANCH   1   2
BRANCH   1  12
HETATM   12  N   UNL     1     -42.638 -48.871  11.117  1.00  0.00     0.085 N 
HETATM   13  H   UNL     1     -43.237 -49.501  10.579  1.00  0.00     0.315 HD
BRANCH  12  14
HETATM   14  C   UNL     1     -41.579 -49.680  11.753  1.00  0.00     0.291 C 
BRANCH  14  15
HETATM   15  C   UNL     1     -40.368 -48.868  12.225  1.00  0.00     0.178 C 
BRANCH  15  16
HETATM   16  N   UNL     1     -39.139 -49.630  12.116  1.00  0.00    -0.302 N 
HETATM   17  C   UNL     1     -38.536 -50.360  13.099  1.00  0.00     0.111 A 
HETATM   18  C   UNL     1     -37.375 -50.849  12.549  1.00  0.00     0.037 A 
HETATM   19  C   UNL     1     -37.370 -50.361  11.229  1.00  0.00     0.108 A 
HETATM   20  N   UNL     1     -38.451 -49.627  10.958  1.00  0.00    -0.310 N 
ATOM     21  HN  UNL     1     -38.698 -49.170  10.080  1.00  0.00     0.186 HD
ENDBRANCH  15  16
ENDBRANCH  14  15
ENDBRANCH  12  14
ENDBRANCH   1  12
TORSDOF 7
ENDMDL
