MODEL 1
REMARK VINA RESULT:      -5.8      0.000      0.000
REMARK  5 active torsions:
REMARK  status: ('A' for Active; 'I' for Inactive)
REMARK    1  A    between atoms: N_6  and  C_7 
REMARK    2  A    between atoms: C_7  and  C_8 
REMARK    3  A    between atoms: C_8  and  N_9 
REMARK       I    between atoms: N_9  and  C_10 
REMARK    4  A    between atoms: C_10  and  C_12 
REMARK    5  A    between atoms: C_12  and  N_13 
ROOT
HETATM    1  N   UNL     1     -42.324 -50.333  12.013  1.00  0.00    -0.358 N 
HETATM    2  C   UNL     1     -41.606 -49.330  11.402  1.00  0.00     0.237 C 
HETATM    3  O   UNL     1     -40.490 -49.507  10.913  1.00  0.00    -0.272 OA
HETATM    4  H   UNL     1     -43.186 -50.106  12.499  1.00  0.00     0.162 HD
ENDROOT
BRANCH   1   5
HETATM    5  C   UNL     1     -41.823 -51.694  12.095  1.00  0.00     0.152 C 
BRANCH   5   6
HETATM    6  C   UNL     1     -42.614 -52.581  13.078  1.00  0.00     0.292 C 
BRANCH   6   7
HETATM    7  N   UNL     1     -43.986 -52.098  13.342  1.00  0.00     0.090 N 
HETATM    8  C   UNL     1     -44.185 -51.709  14.746  1.00  0.00     0.272 C 
HETATM    9  C   UNL     1     -45.594 -51.173  14.999  1.00  0.00     0.031 C 
HETATM   10  C   UNL     1     -46.660 -52.162  14.545  1.00  0.00     0.007 C 
HETATM   11  C   UNL     1     -46.422 -52.620  13.102  1.00  0.00     0.010 C 
HETATM   12  C   UNL     1     -46.756 -51.514  12.095  1.00  0.00     0.011 C 
HETATM   13  C   UNL     1     -44.973 -53.117  12.939  1.00  0.00     0.276 C 
ENDBRANCH   6   7
ENDBRANCH   5   6
ENDBRANCH   1   5
BRANCH   2  14
HETATM   14  C   UNL     1     -42.291 -47.987  11.357  1.00  0.00     0.250 C 
BRANCH  14  15
HETATM   15  N   UNL     1     -43.100 -47.849  10.166  1.00  0.00    -0.295 N 
HETATM   16  C   UNL     1     -44.390 -47.402  10.093  1.00  0.00     0.112 A 
HETATM   17  C   UNL     1     -44.706 -47.365   8.757  1.00  0.00     0.037 A 
HETATM   18  C   UNL     1     -43.542 -47.803   8.102  1.00  0.00     0.108 A 
HETATM   19  N   UNL     1     -42.560 -48.108   8.956  1.00  0.00    -0.310 N 
ATOM     20  HN  UNL     1     -41.625 -48.455   8.743  1.00  0.00     0.186 HD
ENDBRANCH  14  15
ENDBRANCH   2  14
TORSDOF 5
ENDMDL
MODEL 2
REMARK VINA RESULT:      -5.6      1.504      2.100
REMARK  5 active torsions:
REMARK  status: ('A' for Active; 'I' for Inactive)
REMARK    1  A    between atoms: N_6  and  C_7 
REMARK    2  A    between atoms: C_7  and  C_8 
REMARK    3  A    between atoms: C_8  and  N_9 
REMARK       I    between atoms: N_9  and  C_10 
REMARK    4  A    between atoms: C_10  and  C_12 
REMARK    5  A    between atoms: C_12  and  N_13 
ROOT
HETATM    1  N   UNL     1     -41.674 -50.022  11.443  1.00  0.00    -0.358 N 
HETATM    2  C   UNL     1     -42.250 -48.772  11.499  1.00  0.00     0.237 C 
HETATM    3  O   UNL     1     -42.853 -48.356  12.488  1.00  0.00    -0.272 OA
HETATM    4  H   UNL     1     -41.290 -50.356  10.565  1.00  0.00     0.162 HD
ENDROOT
BRANCH   1   5
HETATM    5  C   UNL     1     -41.709 -50.934  12.574  1.00  0.00     0.152 C 
BRANCH   5   6
HETATM    6  C   UNL     1     -42.107 -52.374  12.189  1.00  0.00     0.292 C 
BRANCH   6   7
HETATM    7  N   UNL     1     -43.104 -52.977  13.098  1.00  0.00     0.090 N 
HETATM    8  C   UNL     1     -42.620 -54.218  13.721  1.00  0.00     0.272 C 
HETATM    9  C   UNL     1     -43.643 -54.811  14.689  1.00  0.00     0.031 C 
HETATM   10  C   UNL     1     -44.994 -55.022  14.017  1.00  0.00     0.007 C 
HETATM   11  C   UNL     1     -45.476 -53.749  13.313  1.00  0.00     0.010 C 
HETATM   12  C   UNL     1     -45.932 -52.686  14.317  1.00  0.00     0.011 C 
HETATM   13  C   UNL     1     -44.371 -53.213  12.382  1.00  0.00     0.276 C 
ENDBRANCH   6   7
ENDBRANCH   5   6
ENDBRANCH   1   5
BRANCH   2  14
HETATM   14  C   UNL     1     -42.078 -47.932  10.259  1.00  0.00     0.250 C 
BRANCH  14  15
HETATM   15  N   UNL     1     -43.339 -47.374   9.822  1.00  0.00    -0.295 N 
HETATM   16  C   UNL     1     -43.529 -46.233   9.095  1.00  0.00     0.112 A 
HETATM   17  C   UNL     1     -44.878 -46.154   8.851  1.00  0.00     0.037 A 
HETATM   18  C   UNL     1     -45.419 -47.297   9.466  1.00  0.00     0.108 A 
HETATM   19  N   UNL     1     -44.487 -48.042  10.068  1.00  0.00    -0.310 N 
ATOM     20  HN  UNL     1     -44.613 -48.910  10.589  1.00  0.00     0.186 HD
ENDBRANCH  14  15
ENDBRANCH   2  14
TORSDOF 5
ENDMDL
MODEL 3
REMARK VINA RESULT:      -5.4      3.436      4.596
REMARK  5 active torsions:
REMARK  status: ('A' for Active; 'I' for Inactive)
REMARK    1  A    between atoms: N_6  and  C_7 
REMARK    2  A    between atoms: C_7  and  C_8 
REMARK    3  A    between atoms: C_8  and  N_9 
REMARK       I    between atoms: N_9  and  C_10 
REMARK    4  A    between atoms: C_10  and  C_12 
REMARK    5  A    between atoms: C_12  and  N_13 
ROOT
HETATM    1  N   UNL     1     -41.197 -53.515  14.298  1.00  0.00    -0.358 N 
HETATM    2  C   UNL     1     -40.313 -52.962  13.398  1.00  0.00     0.237 C 
HETATM    3  O   UNL     1     -40.396 -53.140  12.183  1.00  0.00    -0.272 OA
HETATM    4  H   UNL     1     -41.016 -53.430  15.292  1.00  0.00     0.162 HD
ENDROOT
BRANCH   1   5
HETATM    5  C   UNL     1     -42.321 -54.329  13.867  1.00  0.00     0.152 C 
BRANCH   5   6
HETATM    6  C   UNL     1     -43.487 -54.348  14.877  1.00  0.00     0.292 C 
BRANCH   6   7
HETATM    7  N   UNL     1     -44.652 -53.543  14.452  1.00  0.00     0.090 N 
HETATM    8  C   UNL     1     -44.779 -53.466  12.988  1.00  0.00     0.272 C 
HETATM    9  C   UNL     1     -46.010 -52.666  12.561  1.00  0.00     0.031 C 
HETATM   10  C   UNL     1     -46.022 -51.278  13.189  1.00  0.00     0.007 C 
HETATM   11  C   UNL     1     -45.827 -51.348  14.707  1.00  0.00     0.010 C 
HETATM   12  C   UNL     1     -47.078 -51.881  15.413  1.00  0.00     0.011 C 
HETATM   13  C   UNL     1     -44.583 -52.193  15.040  1.00  0.00     0.276 C 
ENDBRANCH   6   7
ENDBRANCH   5   6
ENDBRANCH   1   5
BRANCH   2  14
HETATM   14  C   UNL     1     -39.235 -52.101  14.005  1.00  0.00     0.250 C 
BRANCH  14  15
HETATM   15  N   UNL     1     -38.740 -51.129  13.056  1.00  0.00    -0.295 N 
HETATM   16  C   UNL     1     -37.449 -50.965  12.640  1.00  0.00     0.112 A 
HETATM   17  C   UNL     1     -37.478 -49.984  11.680  1.00  0.00     0.037 A 
HETATM   18  C   UNL     1     -38.832 -49.620  11.582  1.00  0.00     0.108 A 
HETATM   19  N   UNL     1     -39.608 -50.308  12.424  1.00  0.00    -0.310 N 
ATOM     20  HN  UNL     1     -40.616 -50.232  12.559  1.00  0.00     0.186 HD
ENDBRANCH  14  15
ENDBRANCH   2  14
TORSDOF 5
ENDMDL
MODEL 4
REMARK VINA RESULT:      -5.4      2.007      2.678
REMARK  5 active torsions:
REMARK  status: ('A' for Active; 'I' for Inactive)
REMARK    1  A    between atoms: N_6  and  C_7 
REMARK    2  A    between atoms: C_7  and  C_8 
REMARK    3  A    between atoms: C_8  and  N_9 
REMARK       I    between atoms: N_9  and  C_10 
REMARK    4  A    between atoms: C_10  and  C_12 
REMARK    5  A    between atoms: C_12  and  N_13 
ROOT
HETATM    1  N   UNL     1     -41.972 -50.082  11.668  1.00  0.00    -0.358 N 
HETATM    2  C   UNL     1     -41.237 -48.952  11.387  1.00  0.00     0.237 C 
HETATM    3  O   UNL     1     -40.168 -48.693  11.940  1.00  0.00    -0.272 OA
HETATM    4  H   UNL     1     -42.898 -50.188  11.268  1.00  0.00     0.162 HD
ENDROOT
BRANCH   1   5
HETATM    5  C   UNL     1     -41.513 -51.078  12.622  1.00  0.00     0.152 C 
BRANCH   5   6
HETATM    6  C   UNL     1     -41.941 -52.515  12.262  1.00  0.00     0.292 C 
BRANCH   6   7
HETATM    7  N   UNL     1     -43.014 -53.050  13.127  1.00  0.00     0.090 N 
HETATM    8  C   UNL     1     -42.626 -54.302  13.795  1.00  0.00     0.272 C 
HETATM    9  C   UNL     1     -43.728 -54.824  14.718  1.00  0.00     0.031 C 
HETATM   10  C   UNL     1     -45.051 -54.979  13.980  1.00  0.00     0.007 C 
HETATM   11  C   UNL     1     -45.429 -53.697  13.231  1.00  0.00     0.010 C 
HETATM   12  C   UNL     1     -45.882 -52.593  14.192  1.00  0.00     0.011 C 
HETATM   13  C   UNL     1     -44.253 -53.235  12.349  1.00  0.00     0.276 C 
ENDBRANCH   6   7
ENDBRANCH   5   6
ENDBRANCH   1   5
BRANCH   2  14
HETATM   14  C   UNL     1     -41.829 -48.048  10.335  1.00  0.00     0.250 C 
BRANCH  14  15
HETATM   15  N   UNL     1     -41.430 -46.673  10.539  1.00  0.00    -0.295 N 
HETATM   16  C   UNL     1     -42.203 -45.653  11.020  1.00  0.00     0.112 A 
HETATM   17  C   UNL     1     -41.376 -44.560  11.115  1.00  0.00     0.037 A 
HETATM   18  C   UNL     1     -40.124 -45.020  10.673  1.00  0.00     0.108 A 
HETATM   19  N   UNL     1     -40.150 -46.306  10.312  1.00  0.00    -0.310 N 
ATOM     20  HN  UNL     1     -39.385 -46.875   9.950  1.00  0.00     0.186 HD
ENDBRANCH  14  15
ENDBRANCH   2  14
TORSDOF 5
ENDMDL
MODEL 5
REMARK VINA RESULT:      -5.4      1.437      2.140
REMARK  5 active torsions:
REMARK  status: ('A' for Active; 'I' for Inactive)
REMARK    1  A    between atoms: N_6  and  C_7 
REMARK    2  A    between atoms: C_7  and  C_8 
REMARK    3  A    between atoms: C_8  and  N_9 
REMARK       I    between atoms: N_9  and  C_10 
REMARK    4  A    between atoms: C_10  and  C_12 
REMARK    5  A    between atoms: C_12  and  N_13 
ROOT
HETATM    1  N   UNL     1     -41.830 -51.533  11.801  1.00  0.00    -0.358 N 
HETATM    2  C   UNL     1     -40.860 -50.666  12.253  1.00  0.00     0.237 C 
HETATM    3  O   UNL     1     -40.313 -50.786  13.349  1.00  0.00    -0.272 OA
HETATM    4  H   UNL     1     -42.327 -51.322  10.942  1.00  0.00     0.162 HD
ENDROOT
BRANCH   1   5
HETATM    5  C   UNL     1     -42.254 -52.683  12.580  1.00  0.00     0.152 C 
BRANCH   5   6
HETATM    6  C   UNL     1     -43.710 -53.110  12.301  1.00  0.00     0.292 C 
BRANCH   6   7
HETATM    7  N   UNL     1     -44.611 -52.940  13.461  1.00  0.00     0.090 N 
HETATM    8  C   UNL     1     -45.481 -54.106  13.674  1.00  0.00     0.272 C 
HETATM    9  C   UNL     1     -46.380 -53.936  14.899  1.00  0.00     0.031 C 
HETATM   10  C   UNL     1     -47.192 -52.649  14.824  1.00  0.00     0.007 C 
HETATM   11  C   UNL     1     -46.298 -51.437  14.540  1.00  0.00     0.010 C 
HETATM   12  C   UNL     1     -45.458 -51.055  15.763  1.00  0.00     0.011 C 
HETATM   13  C   UNL     1     -45.414 -51.712  13.308  1.00  0.00     0.276 C 
ENDBRANCH   6   7
ENDBRANCH   5   6
ENDBRANCH   1   5
BRANCH   2  14
HETATM   14  C   UNL     1     -40.499 -49.555  11.300  1.00  0.00     0.250 C 
BRANCH  14  15
HETATM   15  N   UNL     1     -41.658 -48.765  10.948  1.00  0.00    -0.295 N 
HETATM   16  C   UNL     1     -42.595 -48.251  11.799  1.00  0.00     0.112 A 
HETATM   17  C   UNL     1     -43.451 -47.509  11.023  1.00  0.00     0.037 A 
HETATM   18  C   UNL     1     -42.946 -47.633   9.717  1.00  0.00     0.108 A 
HETATM   19  N   UNL     1     -41.856 -48.404   9.662  1.00  0.00    -0.310 N 
ATOM     20  HN  UNL     1     -41.305 -48.660   8.842  1.00  0.00     0.186 HD
ENDBRANCH  14  15
ENDBRANCH   2  14
TORSDOF 5
ENDMDL
MODEL 6
REMARK VINA RESULT:      -5.3      2.961      3.990
REMARK  5 active torsions:
REMARK  status: ('A' for Active; 'I' for Inactive)
REMARK    1  A    between atoms: N_6  and  C_7 
REMARK    2  A    between atoms: C_7  and  C_8 
REMARK    3  A    between atoms: C_8  and  N_9 
REMARK       I    between atoms: N_9  and  C_10 
REMARK    4  A    between atoms: C_10  and  C_12 
REMARK    5  A    between atoms: C_12  and  N_13 
ROOT
HETATM    1  N   UNL     1     -42.227 -48.951  10.959  1.00  0.00    -0.358 N 
HETATM    2  C   UNL     1     -42.850 -47.724  11.010  1.00  0.00     0.237 C 
HETATM    3  O   UNL     1     -43.186 -47.186  12.065  1.00  0.00    -0.272 OA
HETATM    4  H   UNL     1     -42.077 -49.399  10.061  1.00  0.00     0.162 HD
ENDROOT
BRANCH   1   5
HETATM    5  C   UNL     1     -41.887 -49.689  12.164  1.00  0.00     0.152 C 
BRANCH   5   6
HETATM    6  C   UNL     1     -40.597 -50.524  12.029  1.00  0.00     0.292 C 
BRANCH   6   7
HETATM    7  N   UNL     1     -40.561 -51.707  12.916  1.00  0.00     0.090 N 
HETATM    8  C   UNL     1     -39.262 -51.866  13.588  1.00  0.00     0.272 C 
HETATM    9  C   UNL     1     -39.249 -53.068  14.532  1.00  0.00     0.031 C 
HETATM   10  C   UNL     1     -39.660 -54.348  13.817  1.00  0.00     0.007 C 
HETATM   11  C   UNL     1     -40.982 -54.170  13.062  1.00  0.00     0.010 C 
HETATM   12  C   UNL     1     -42.175 -54.103  14.021  1.00  0.00     0.011 C 
HETATM   13  C   UNL     1     -40.909 -52.924  12.159  1.00  0.00     0.276 C 
ENDBRANCH   6   7
ENDBRANCH   5   6
ENDBRANCH   1   5
BRANCH   2  14
HETATM   14  C   UNL     1     -43.084 -47.069   9.672  1.00  0.00     0.250 C 
BRANCH  14  15
HETATM   15  N   UNL     1     -44.371 -47.436   9.124  1.00  0.00    -0.295 N 
HETATM   16  C   UNL     1     -44.609 -48.166   7.993  1.00  0.00     0.112 A 
HETATM   17  C   UNL     1     -45.971 -48.328   7.922  1.00  0.00     0.037 A 
HETATM   18  C   UNL     1     -46.469 -47.666   9.058  1.00  0.00     0.108 A 
HETATM   19  N   UNL     1     -45.500 -47.112   9.792  1.00  0.00    -0.310 N 
ATOM     20  HN  UNL     1     -45.591 -46.572  10.653  1.00  0.00     0.186 HD
ENDBRANCH  14  15
ENDBRANCH   2  14
TORSDOF 5
ENDMDL
MODEL 7
REMARK VINA RESULT:      -5.2      2.864      4.053
REMARK  5 active torsions:
REMARK  status: ('A' for Active; 'I' for Inactive)
REMARK    1  A    between atoms: N_6  and  C_7 
REMARK    2  A    between atoms: C_7  and  C_8 
REMARK    3  A    between atoms: C_8  and  N_9 
REMARK       I    between atoms: N_9  and  C_10 
REMARK    4  A    between atoms: C_10  and  C_12 
REMARK    5  A    between atoms: C_12  and  N_13 
ROOT
HETATM    1  N   UNL     1     -42.562 -51.756  12.128  1.00  0.00    -0.358 N 
HETATM    2  C   UNL     1     -41.214 -51.556  11.929  1.00  0.00     0.237 C 
HETATM    3  O   UNL     1     -40.368 -52.420  12.158  1.00  0.00    -0.272 OA
HETATM    4  H   UNL     1     -43.203 -50.975  12.032  1.00  0.00     0.162 HD
ENDROOT
BRANCH   1   5
HETATM    5  C   UNL     1     -43.088 -53.028  12.595  1.00  0.00     0.152 C 
BRANCH   5   6
HETATM    6  C   UNL     1     -44.622 -53.139  12.475  1.00  0.00     0.292 C 
BRANCH   6   7
HETATM    7  N   UNL     1     -45.338 -52.864  13.739  1.00  0.00     0.090 N 
HETATM    8  C   UNL     1     -46.166 -51.651  13.663  1.00  0.00     0.272 C 
HETATM    9  C   UNL     1     -46.932 -51.398  14.962  1.00  0.00     0.031 C 
HETATM   10  C   UNL     1     -45.999 -51.355  16.165  1.00  0.00     0.007 C 
HETATM   11  C   UNL     1     -45.089 -52.587  16.214  1.00  0.00     0.010 C 
HETATM   12  C   UNL     1     -45.863 -53.844  16.625  1.00  0.00     0.011 C 
HETATM   13  C   UNL     1     -44.382 -52.774  14.858  1.00  0.00     0.276 C 
ENDBRANCH   6   7
ENDBRANCH   5   6
ENDBRANCH   1   5
BRANCH   2  14
HETATM   14  C   UNL     1     -40.841 -50.197  11.392  1.00  0.00     0.250 C 
BRANCH  14  15
HETATM   15  N   UNL     1     -39.473 -49.860  11.718  1.00  0.00    -0.295 N 
HETATM   16  C   UNL     1     -39.019 -49.276  12.867  1.00  0.00     0.112 A 
HETATM   17  C   UNL     1     -37.650 -49.231  12.757  1.00  0.00     0.037 A 
HETATM   18  C   UNL     1     -37.373 -49.815  11.510  1.00  0.00     0.108 A 
HETATM   19  N   UNL     1     -38.480 -50.195  10.866  1.00  0.00    -0.310 N 
ATOM     20  HN  UNL     1     -38.557 -50.633   9.948  1.00  0.00     0.186 HD
ENDBRANCH  14  15
ENDBRANCH   2  14
TORSDOF 5
ENDMDL
MODEL 8
REMARK VINA RESULT:      -5.2      3.684      6.667
REMARK  5 active torsions:
REMARK  status: ('A' for Active; 'I' for Inactive)
REMARK    1  A    between atoms: N_6  and  C_7 
REMARK    2  A    between atoms: C_7  and  C_8 
REMARK    3  A    between atoms: C_8  and  N_9 
REMARK       I    between atoms: N_9  and  C_10 
REMARK    4  A    between atoms: C_10  and  C_12 
REMARK    5  A    between atoms: C_12  and  N_13 
ROOT
HETATM    1  N   UNL     1     -42.515 -52.583  11.867  1.00  0.00    -0.358 N 
HETATM    2  C   UNL     1     -43.480 -53.273  12.566  1.00  0.00     0.237 C 
HETATM    3  O   UNL     1     -43.213 -54.091  13.446  1.00  0.00    -0.272 OA
HETATM    4  H   UNL     1     -42.786 -52.008  11.076  1.00  0.00     0.162 HD
ENDROOT
BRANCH   1   5
HETATM    5  C   UNL     1     -41.099 -52.749  12.147  1.00  0.00     0.152 C 
BRANCH   5   6
HETATM    6  C   UNL     1     -40.639 -52.032  13.433  1.00  0.00     0.292 C 
BRANCH   6   7
HETATM    7  N   UNL     1     -39.411 -51.227  13.258  1.00  0.00     0.090 N 
HETATM    8  C   UNL     1     -38.849 -50.772  14.538  1.00  0.00     0.272 C 
HETATM    9  C   UNL     1     -37.558 -49.976  14.347  1.00  0.00     0.031 C 
HETATM   10  C   UNL     1     -37.755 -48.811  13.386  1.00  0.00     0.007 C 
HETATM   11  C   UNL     1     -38.398 -49.269  12.073  1.00  0.00     0.010 C 
HETATM   12  C   UNL     1     -37.413 -50.059  11.206  1.00  0.00     0.011 C 
HETATM   13  C   UNL     1     -39.674 -50.082  12.367  1.00  0.00     0.276 C 
ENDBRANCH   6   7
ENDBRANCH   5   6
ENDBRANCH   1   5
BRANCH   2  14
HETATM   14  C   UNL     1     -44.902 -52.946  12.187  1.00  0.00     0.250 C 
BRANCH  14  15
HETATM   15  N   UNL     1     -45.696 -52.623  13.352  1.00  0.00    -0.295 N 
HETATM   16  C   UNL     1     -45.948 -51.379  13.859  1.00  0.00     0.112 A 
HETATM   17  C   UNL     1     -46.811 -51.563  14.912  1.00  0.00     0.037 A 
HETATM   18  C   UNL     1     -47.025 -52.951  14.959  1.00  0.00     0.108 A 
HETATM   19  N   UNL     1     -46.342 -53.606  14.015  1.00  0.00    -0.310 N 
ATOM     20  HN  UNL     1     -46.315 -54.610  13.838  1.00  0.00     0.186 HD
ENDBRANCH  14  15
ENDBRANCH   2  14
TORSDOF 5
ENDMDL
MODEL 9
REMARK VINA RESULT:      -5.0      2.187      3.149
REMARK  5 active torsions:
REMARK  status: ('A' for Active; 'I' for Inactive)
REMARK    1  A    between atoms: N_6  and  C_7 
REMARK    2  A    between atoms: C_7  and  C_8 
REMARK    3  A    between atoms: C_8  and  N_9 
REMARK       I    between atoms: N_9  and  C_10 
REMARK    4  A    between atoms: C_10  and  C_12 
REMARK    5  A    between atoms: C_12  and  N_13 
ROOT
HETATM    1  N   UNL     1     -41.660 -50.268  11.575  1.00  0.00    -0.358 N 
HETATM    2  C   UNL     1     -41.131 -48.999  11.487  1.00  0.00     0.237 C 
HETATM    3  O   UNL     1     -40.241 -48.591  12.233  1.00  0.00    -0.272 OA
HETATM    4  H   UNL     1     -42.468 -50.513  11.012  1.00  0.00     0.162 HD
ENDROOT
BRANCH   1   5
HETATM    5  C   UNL     1     -41.173 -51.236  12.543  1.00  0.00     0.152 C 
BRANCH   5   6
HETATM    6  C   UNL     1     -41.375 -52.700  12.101  1.00  0.00     0.292 C 
BRANCH   6   7
HETATM    7  N   UNL     1     -42.383 -53.428  12.901  1.00  0.00     0.090 N 
HETATM    8  C   UNL     1     -43.748 -53.243  12.386  1.00  0.00     0.272 C 
HETATM    9  C   UNL     1     -44.778 -54.033  13.196  1.00  0.00     0.031 C 
HETATM   10  C   UNL     1     -44.698 -53.700  14.681  1.00  0.00     0.007 C 
HETATM   11  C   UNL     1     -43.265 -53.831  15.208  1.00  0.00     0.010 C 
HETATM   12  C   UNL     1     -42.836 -55.297  15.323  1.00  0.00     0.011 C 
HETATM   13  C   UNL     1     -42.300 -53.025  14.317  1.00  0.00     0.276 C 
ENDBRANCH   6   7
ENDBRANCH   5   6
ENDBRANCH   1   5
BRANCH   2  14
HETATM   14  C   UNL     1     -41.712 -48.138  10.394  1.00  0.00     0.250 C 
BRANCH  14  15
HETATM   15  N   UNL     1     -41.365 -46.746  10.581  1.00  0.00    -0.295 N 
HETATM   16  C   UNL     1     -42.172 -45.753  11.062  1.00  0.00     0.112 A 
HETATM   17  C   UNL     1     -41.388 -44.628  11.139  1.00  0.00     0.037 A 
HETATM   18  C   UNL     1     -40.123 -45.042  10.687  1.00  0.00     0.108 A 
HETATM   19  N   UNL     1     -40.103 -46.332  10.337  1.00  0.00    -0.310 N 
ATOM     20  HN  UNL     1     -39.320 -46.874   9.972  1.00  0.00     0.186 HD
ENDBRANCH  14  15
ENDBRANCH   2  14
TORSDOF 5
ENDMDL
