MODEL 1
REMARK VINA RESULT:      -7.4      0.000      0.000
REMARK  7 active torsions:
REMARK  status: ('A' for Active; 'I' for Inactive)
REMARK    1  A    between atoms: N_2  and  C_14 
REMARK    2  A    between atoms: C_6  and  N_9 
REMARK       I    between atoms: N_8  and  C_15 
REMARK    3  A    between atoms: N_9  and  C_20 
REMARK    4  A    between atoms: C_14  and  C_16 
REMARK    5  A    between atoms: C_16  and  C_23 
REMARK    6  A    between atoms: C_16  and  O_26 
REMARK    7  A    between atoms: C_19  and  C_20 
ROOT
HETATM    1  C   UNL     1     -41.444 -49.818  11.746  1.00  0.00     0.122 C 
HETATM    2  N   UNL     1     -40.918 -47.774  11.139  1.00  0.00    -0.325 N 
HETATM    3  C   UNL     1     -40.370 -49.003  11.422  1.00  0.00     0.140 C 
HETATM    4  N   UNL     1     -42.621 -49.171  11.434  1.00  0.00    -0.346 N 
ATOM      5  HN  UNL     1     -43.563 -49.562  11.444  1.00  0.00     0.167 HD
HETATM    6  C   UNL     1     -41.147 -51.067  12.371  1.00  0.00     0.135 C 
HETATM    7  C   UNL     1     -42.274 -47.944  11.120  1.00  0.00     0.185 C 
HETATM    8  N   UNL     1     -39.066 -49.312  11.456  1.00  0.00    -0.336 N 
ATOM      9  HN  UNL     1     -38.308 -48.663  11.245  1.00  0.00     0.168 HD
HETATM   10  N   UNL     1     -39.827 -51.446  12.279  1.00  0.00    -0.337 N 
ATOM     11  HN  UNL     1     -39.548 -52.383  12.572  1.00  0.00     0.168 HD
HETATM   12  C   UNL     1     -38.901 -50.590  11.807  1.00  0.00     0.183 C 
ENDROOT
BRANCH   6  13
HETATM   13  N   UNL     1     -41.995 -51.847  13.191  1.00  0.00    -0.369 N 
HETATM   14  C   UNL     1     -42.309 -51.202  14.471  1.00  0.00     0.151 C 
BRANCH  13  15
HETATM   15  C   UNL     1     -41.899 -53.316  13.221  1.00  0.00     0.130 C 
BRANCH  15  16
HETATM   16  C   UNL     1     -43.227 -54.111  13.142  1.00  0.00     0.023 C 
HETATM   17  C   UNL     1     -44.379 -53.373  12.464  1.00  0.00     0.132 C 
HETATM   18  N   UNL     1     -45.242 -52.981  13.552  1.00  0.00    -0.352 N 
HETATM   19  C   UNL     1     -46.121 -51.927  13.468  1.00  0.00     0.215 C 
HETATM   20  C   UNL     1     -45.245 -54.045  14.526  1.00  0.00     0.126 C 
HETATM   21  O   UNL     1     -46.331 -51.299  12.429  1.00  0.00    -0.274 OA
HETATM   22  C   UNL     1     -46.792 -51.498  14.749  1.00  0.00     0.117 C 
HETATM   23  C   UNL     1     -43.828 -54.605  14.477  1.00  0.00     0.028 C 
ENDBRANCH  15  16
ENDBRANCH  13  15
ENDBRANCH   6  13
BRANCH   2  24
HETATM   24  C   UNL     1     -40.207 -46.503  11.123  1.00  0.00     0.165 C 
BRANCH  24  25
HETATM   25  C   UNL     1     -40.914 -45.407  10.312  1.00  0.00     0.165 C 
BRANCH  25  26
HETATM   26  C   UNL     1     -41.443 -44.241  11.157  1.00  0.00     0.151 C 
HETATM   27  O   UNL     1     -42.670 -43.696  10.616  1.00  0.00    -0.383 OA
HETATM   28  C   UNL     1     -42.765 -42.325  11.051  1.00  0.00     0.168 C 
HETATM   29  C   UNL     1     -41.526 -42.024  11.873  1.00  0.00     0.029 C 
HETATM   30  C   UNL     1     -40.537 -43.034  11.331  1.00  0.00     0.036 C 
ENDBRANCH  25  26
BRANCH  25  31
HETATM   31  O   UNL     1     -40.018 -44.815   9.362  1.00  0.00    -0.391 OA
HETATM   32  H   UNL     1     -40.321 -45.091   8.475  1.00  0.00     0.210 HD
ENDBRANCH  25  31
ENDBRANCH  24  25
ENDBRANCH   2  24
TORSDOF 7
ENDMDL
MODEL 2
REMARK VINA RESULT:      -7.3      1.205      1.236
REMARK  7 active torsions:
REMARK  status: ('A' for Active; 'I' for Inactive)
REMARK    1  A    between atoms: N_2  and  C_14 
REMARK    2  A    between atoms: C_6  and  N_9 
REMARK       I    between atoms: N_8  and  C_15 
REMARK    3  A    between atoms: N_9  and  C_20 
REMARK    4  A    between atoms: C_14  and  C_16 
REMARK    5  A    between atoms: C_16  and  C_23 
REMARK    6  A    between atoms: C_16  and  O_26 
REMARK    7  A    between atoms: C_19  and  C_20 
ROOT
HETATM    1  C   UNL     1     -40.727 -50.115  11.846  1.00  0.00     0.122 C 
HETATM    2  N   UNL     1     -40.916 -48.057  11.103  1.00  0.00    -0.325 N 
HETATM    3  C   UNL     1     -39.993 -49.040  11.369  1.00  0.00     0.140 C 
HETATM    4  N   UNL     1     -42.071 -49.876  11.648  1.00  0.00    -0.346 N 
ATOM      5  HN  UNL     1     -42.841 -50.530  11.783  1.00  0.00     0.167 HD
HETATM    6  C   UNL     1     -40.002 -51.168  12.482  1.00  0.00     0.135 C 
HETATM    7  C   UNL     1     -42.150 -48.627  11.248  1.00  0.00     0.185 C 
HETATM    8  N   UNL     1     -38.660 -48.939  11.264  1.00  0.00    -0.336 N 
ATOM      9  HN  UNL     1     -38.162 -48.109  10.941  1.00  0.00     0.168 HD
HETATM   10  N   UNL     1     -38.645 -51.138  12.253  1.00  0.00    -0.337 N 
ATOM     11  HN  UNL     1     -38.065 -51.923  12.548  1.00  0.00     0.168 HD
HETATM   12  C   UNL     1     -38.077 -50.080  11.643  1.00  0.00     0.183 C 
ENDROOT
BRANCH   6  13
HETATM   13  N   UNL     1     -40.485 -52.105  13.425  1.00  0.00    -0.369 N 
HETATM   14  C   UNL     1     -39.992 -51.857  14.785  1.00  0.00     0.151 C 
BRANCH  13  15
HETATM   15  C   UNL     1     -40.696 -53.517  13.068  1.00  0.00     0.130 C 
BRANCH  15  16
HETATM   16  C   UNL     1     -42.145 -54.060  13.167  1.00  0.00     0.023 C 
HETATM   17  C   UNL     1     -43.229 -53.086  12.709  1.00  0.00     0.132 C 
HETATM   18  N   UNL     1     -43.835 -52.624  13.935  1.00  0.00    -0.352 N 
HETATM   19  C   UNL     1     -44.508 -51.429  14.033  1.00  0.00     0.215 C 
HETATM   20  C   UNL     1     -43.890 -53.735  14.853  1.00  0.00     0.126 C 
HETATM   21  O   UNL     1     -44.750 -50.705  13.066  1.00  0.00    -0.274 OA
HETATM   22  C   UNL     1     -44.892 -50.977  15.420  1.00  0.00     0.117 C 
HETATM   23  C   UNL     1     -42.623 -54.531  14.559  1.00  0.00     0.028 C 
ENDBRANCH  15  16
ENDBRANCH  13  15
ENDBRANCH   6  13
BRANCH   2  24
HETATM   24  C   UNL     1     -40.635 -46.635  10.954  1.00  0.00     0.165 C 
BRANCH  24  25
HETATM   25  C   UNL     1     -41.881 -45.783  10.675  1.00  0.00     0.165 C 
BRANCH  25  26
HETATM   26  C   UNL     1     -41.841 -44.385  11.306  1.00  0.00     0.151 C 
HETATM   27  O   UNL     1     -42.747 -43.469  10.645  1.00  0.00    -0.383 OA
HETATM   28  C   UNL     1     -42.243 -42.134  10.853  1.00  0.00     0.168 C 
HETATM   29  C   UNL     1     -40.963 -42.254  11.658  1.00  0.00     0.029 C 
HETATM   30  C   UNL     1     -40.508 -43.657  11.316  1.00  0.00     0.036 C 
ENDBRANCH  25  26
BRANCH  25  31
HETATM   31  O   UNL     1     -42.044 -45.561   9.268  1.00  0.00    -0.391 OA
HETATM   32  H   UNL     1     -42.983 -45.332   9.123  1.00  0.00     0.210 HD
ENDBRANCH  25  31
ENDBRANCH  24  25
ENDBRANCH   2  24
TORSDOF 7
ENDMDL
MODEL 3
REMARK VINA RESULT:      -7.1      2.082      2.779
REMARK  7 active torsions:
REMARK  status: ('A' for Active; 'I' for Inactive)
REMARK    1  A    between atoms: N_2  and  C_14 
REMARK    2  A    between atoms: C_6  and  N_9 
REMARK       I    between atoms: N_8  and  C_15 
REMARK    3  A    between atoms: N_9  and  C_20 
REMARK    4  A    between atoms: C_14  and  C_16 
REMARK    5  A    between atoms: C_16  and  C_23 
REMARK    6  A    between atoms: C_16  and  O_26 
REMARK    7  A    between atoms: C_19  and  C_20 
ROOT
HETATM    1  C   UNL     1     -40.335 -50.540  12.678  1.00  0.00     0.122 C 
HETATM    2  N   UNL     1     -40.819 -48.571  11.835  1.00  0.00    -0.325 N 
HETATM    3  C   UNL     1     -40.465 -49.199  13.005  1.00  0.00     0.140 C 
HETATM    4  N   UNL     1     -40.371 -50.682  11.306  1.00  0.00    -0.346 N 
ATOM      5  HN  UNL     1     -40.179 -51.527  10.768  1.00  0.00     0.167 HD
HETATM    6  C   UNL     1     -40.267 -51.470  13.758  1.00  0.00     0.135 C 
HETATM    7  C   UNL     1     -40.706 -49.501  10.840  1.00  0.00     0.185 C 
HETATM    8  N   UNL     1     -40.356 -48.636  14.217  1.00  0.00    -0.336 N 
ATOM      9  HN  UNL     1     -40.498 -47.645  14.414  1.00  0.00     0.168 HD
HETATM   10  N   UNL     1     -40.014 -50.896  14.984  1.00  0.00    -0.337 N 
ATOM     11  HN  UNL     1     -39.810 -51.489  15.788  1.00  0.00     0.168 HD
HETATM   12  C   UNL     1     -40.033 -49.557  15.129  1.00  0.00     0.183 C 
ENDROOT
BRANCH   6  13
HETATM   13  N   UNL     1     -40.590 -52.847  13.737  1.00  0.00    -0.369 N 
HETATM   14  C   UNL     1     -39.427 -53.713  13.961  1.00  0.00     0.151 C 
BRANCH  13  15
HETATM   15  C   UNL     1     -41.623 -53.382  12.835  1.00  0.00     0.130 C 
BRANCH  15  16
HETATM   16  C   UNL     1     -42.790 -54.166  13.486  1.00  0.00     0.023 C 
HETATM   17  C   UNL     1     -44.119 -54.080  12.739  1.00  0.00     0.132 C 
HETATM   18  N   UNL     1     -44.920 -53.181  13.535  1.00  0.00    -0.352 N 
HETATM   19  C   UNL     1     -45.975 -52.465  13.022  1.00  0.00     0.215 C 
HETATM   20  C   UNL     1     -44.633 -53.439  14.926  1.00  0.00     0.126 C 
HETATM   21  O   UNL     1     -46.400 -52.610  11.875  1.00  0.00    -0.274 OA
HETATM   22  C   UNL     1     -46.574 -51.405  13.913  1.00  0.00     0.117 C 
HETATM   23  C   UNL     1     -43.152 -53.801  14.944  1.00  0.00     0.028 C 
ENDBRANCH  15  16
ENDBRANCH  13  15
ENDBRANCH   6  13
BRANCH   2  24
HETATM   24  C   UNL     1     -41.437 -47.256  11.720  1.00  0.00     0.165 C 
BRANCH  24  25
HETATM   25  C   UNL     1     -41.834 -46.880  10.286  1.00  0.00     0.165 C 
BRANCH  25  26
HETATM   26  C   UNL     1     -43.326 -46.568  10.107  1.00  0.00     0.151 C 
HETATM   27  O   UNL     1     -44.150 -47.741  10.306  1.00  0.00    -0.383 OA
HETATM   28  C   UNL     1     -45.373 -47.543   9.568  1.00  0.00     0.168 C 
HETATM   29  C   UNL     1     -45.270 -46.196   8.875  1.00  0.00     0.029 C 
HETATM   30  C   UNL     1     -43.770 -46.015   8.765  1.00  0.00     0.036 C 
ENDBRANCH  25  26
BRANCH  25  31
HETATM   31  O   UNL     1     -41.143 -45.700   9.857  1.00  0.00    -0.391 OA
HETATM   32  H   UNL     1     -41.702 -45.273   9.179  1.00  0.00     0.210 HD
ENDBRANCH  25  31
ENDBRANCH  24  25
ENDBRANCH   2  24
TORSDOF 7
ENDMDL
MODEL 4
REMARK VINA RESULT:      -7.1      3.369      7.352
REMARK  7 active torsions:
REMARK  status: ('A' for Active; 'I' for Inactive)
REMARK    1  A    between atoms: N_2  and  C_14 
REMARK    2  A    between atoms: C_6  and  N_9 
REMARK       I    between atoms: N_8  and  C_15 
REMARK    3  A    between atoms: N_9  and  C_20 
REMARK    4  A    between atoms: C_14  and  C_16 
REMARK    5  A    between atoms: C_16  and  C_23 
REMARK    6  A    between atoms: C_16  and  O_26 
REMARK    7  A    between atoms: C_19  and  C_20 
ROOT
HETATM    1  C   UNL     1     -41.422 -50.535  12.149  1.00  0.00     0.122 C 
HETATM    2  N   UNL     1     -42.269 -52.431  12.865  1.00  0.00    -0.325 N 
HETATM    3  C   UNL     1     -42.414 -51.067  12.959  1.00  0.00     0.140 C 
HETATM    4  N   UNL     1     -40.851 -51.544  11.401  1.00  0.00    -0.346 N 
ATOM      5  HN  UNL     1     -40.187 -51.444  10.635  1.00  0.00     0.167 HD
HETATM    6  C   UNL     1     -41.144 -49.142  12.290  1.00  0.00     0.135 C 
HETATM    7  C   UNL     1     -41.346 -52.661  11.884  1.00  0.00     0.185 C 
HETATM    8  N   UNL     1     -43.280 -50.403  13.738  1.00  0.00    -0.336 N 
ATOM      9  HN  UNL     1     -43.970 -50.843  14.347  1.00  0.00     0.168 HD
HETATM   10  N   UNL     1     -42.111 -48.439  12.973  1.00  0.00    -0.337 N 
ATOM     11  HN  UNL     1     -42.070 -47.420  13.002  1.00  0.00     0.168 HD
HETATM   12  C   UNL     1     -43.111 -49.085  13.602  1.00  0.00     0.183 C 
ENDROOT
BRANCH   6  13
HETATM   13  N   UNL     1     -39.948 -48.460  11.966  1.00  0.00    -0.369 N 
HETATM   14  C   UNL     1     -40.183 -47.164  11.320  1.00  0.00     0.151 C 
BRANCH  13  15
HETATM   15  C   UNL     1     -38.744 -49.185  11.529  1.00  0.00     0.130 C 
BRANCH  15  16
HETATM   16  C   UNL     1     -37.730 -49.594  12.628  1.00  0.00     0.023 C 
HETATM   17  C   UNL     1     -37.620 -51.097  12.873  1.00  0.00     0.132 C 
HETATM   18  N   UNL     1     -38.318 -51.308  14.119  1.00  0.00    -0.352 N 
HETATM   19  C   UNL     1     -38.862 -52.519  14.476  1.00  0.00     0.215 C 
HETATM   20  C   UNL     1     -38.039 -50.187  14.983  1.00  0.00     0.126 C 
HETATM   21  O   UNL     1     -38.708 -53.552  13.823  1.00  0.00    -0.274 OA
HETATM   22  C   UNL     1     -39.749 -52.532  15.697  1.00  0.00     0.117 C 
HETATM   23  C   UNL     1     -37.945 -48.996  14.037  1.00  0.00     0.028 C 
ENDBRANCH  15  16
ENDBRANCH  13  15
ENDBRANCH   6  13
BRANCH   2  24
HETATM   24  C   UNL     1     -42.800 -53.415  13.798  1.00  0.00     0.165 C 
BRANCH  24  25
HETATM   25  C   UNL     1     -44.103 -54.076  13.328  1.00  0.00     0.165 C 
BRANCH  25  26
HETATM   26  C   UNL     1     -45.375 -53.432  13.896  1.00  0.00     0.151 C 
HETATM   27  O   UNL     1     -45.804 -52.298  13.105  1.00  0.00    -0.383 OA
HETATM   28  C   UNL     1     -46.565 -51.430  13.969  1.00  0.00     0.168 C 
HETATM   29  C   UNL     1     -46.577 -52.061  15.349  1.00  0.00     0.029 C 
HETATM   30  C   UNL     1     -45.319 -52.903  15.318  1.00  0.00     0.036 C 
ENDBRANCH  25  26
BRANCH  25  31
HETATM   31  O   UNL     1     -44.236 -53.990  11.903  1.00  0.00    -0.391 OA
HETATM   32  H   UNL     1     -44.944 -54.611  11.645  1.00  0.00     0.210 HD
ENDBRANCH  25  31
ENDBRANCH  24  25
ENDBRANCH   2  24
TORSDOF 7
ENDMDL
MODEL 5
REMARK VINA RESULT:      -7.1      2.548      3.814
REMARK  7 active torsions:
REMARK  status: ('A' for Active; 'I' for Inactive)
REMARK    1  A    between atoms: N_2  and  C_14 
REMARK    2  A    between atoms: C_6  and  N_9 
REMARK       I    between atoms: N_8  and  C_15 
REMARK    3  A    between atoms: N_9  and  C_20 
REMARK    4  A    between atoms: C_14  and  C_16 
REMARK    5  A    between atoms: C_16  and  C_23 
REMARK    6  A    between atoms: C_16  and  O_26 
REMARK    7  A    between atoms: C_19  and  C_20 
ROOT
HETATM    1  C   UNL     1     -42.350 -51.169  13.359  1.00  0.00     0.122 C 
HETATM    2  N   UNL     1     -42.020 -49.625  11.833  1.00  0.00    -0.325 N 
HETATM    3  C   UNL     1     -41.737 -50.935  12.138  1.00  0.00     0.140 C 
HETATM    4  N   UNL     1     -43.179 -50.110  13.666  1.00  0.00    -0.346 N 
ATOM      5  HN  UNL     1     -43.849 -50.052  14.433  1.00  0.00     0.167 HD
HETATM    6  C   UNL     1     -41.973 -52.355  14.060  1.00  0.00     0.135 C 
HETATM    7  C   UNL     1     -42.924 -49.192  12.763  1.00  0.00     0.185 C 
HETATM    8  N   UNL     1     -40.961 -51.773  11.436  1.00  0.00    -0.336 N 
ATOM      9  HN  UNL     1     -40.499 -51.540  10.556  1.00  0.00     0.168 HD
HETATM   10  N   UNL     1     -41.296 -53.275  13.291  1.00  0.00    -0.337 N 
ATOM     11  HN  UNL     1     -41.109 -54.206  13.664  1.00  0.00     0.168 HD
HETATM   12  C   UNL     1     -40.878 -52.955  12.052  1.00  0.00     0.183 C 
ENDROOT
BRANCH   6  13
HETATM   13  N   UNL     1     -42.066 -52.606  15.449  1.00  0.00    -0.369 N 
HETATM   14  C   UNL     1     -41.162 -51.769  16.245  1.00  0.00     0.151 C 
BRANCH  13  15
HETATM   15  C   UNL     1     -42.312 -53.960  15.971  1.00  0.00     0.130 C 
BRANCH  15  16
HETATM   16  C   UNL     1     -43.783 -54.448  15.999  1.00  0.00     0.023 C 
HETATM   17  C   UNL     1     -44.450 -54.559  14.630  1.00  0.00     0.132 C 
HETATM   18  N   UNL     1     -45.337 -53.421  14.571  1.00  0.00    -0.352 N 
HETATM   19  C   UNL     1     -45.770 -52.871  13.388  1.00  0.00     0.215 C 
HETATM   20  C   UNL     1     -45.902 -53.227  15.884  1.00  0.00     0.126 C 
HETATM   21  O   UNL     1     -45.535 -53.363  12.284  1.00  0.00    -0.274 OA
HETATM   22  C   UNL     1     -46.509 -51.559  13.480  1.00  0.00     0.117 C 
HETATM   23  C   UNL     1     -44.780 -53.618  16.839  1.00  0.00     0.028 C 
ENDBRANCH  15  16
ENDBRANCH  13  15
ENDBRANCH   6  13
BRANCH   2  24
HETATM   24  C   UNL     1     -41.306 -48.795  10.873  1.00  0.00     0.165 C 
BRANCH  24  25
HETATM   25  C   UNL     1     -40.375 -47.759  11.520  1.00  0.00     0.165 C 
BRANCH  25  26
HETATM   26  C   UNL     1     -39.067 -48.345  12.068  1.00  0.00     0.151 C 
HETATM   27  O   UNL     1     -38.674 -49.544  11.358  1.00  0.00    -0.383 OA
HETATM   28  C   UNL     1     -37.856 -50.328  12.250  1.00  0.00     0.168 C 
HETATM   29  C   UNL     1     -37.772 -49.577  13.565  1.00  0.00     0.029 C 
HETATM   30  C   UNL     1     -39.037 -48.745  13.533  1.00  0.00     0.036 C 
ENDBRANCH  25  26
BRANCH  25  31
HETATM   31  O   UNL     1     -39.978 -46.763  10.568  1.00  0.00    -0.391 OA
HETATM   32  H   UNL     1     -40.029 -47.177   9.685  1.00  0.00     0.210 HD
ENDBRANCH  25  31
ENDBRANCH  24  25
ENDBRANCH   2  24
TORSDOF 7
ENDMDL
MODEL 6
REMARK VINA RESULT:      -6.9      2.286      3.263
REMARK  7 active torsions:
REMARK  status: ('A' for Active; 'I' for Inactive)
REMARK    1  A    between atoms: N_2  and  C_14 
REMARK    2  A    between atoms: C_6  and  N_9 
REMARK       I    between atoms: N_8  and  C_15 
REMARK    3  A    between atoms: N_9  and  C_20 
REMARK    4  A    between atoms: C_14  and  C_16 
REMARK    5  A    between atoms: C_16  and  C_23 
REMARK    6  A    between atoms: C_16  and  O_26 
REMARK    7  A    between atoms: C_19  and  C_20 
ROOT
HETATM    1  C   UNL     1     -42.039 -49.975  12.336  1.00  0.00     0.122 C 
HETATM    2  N   UNL     1     -42.578 -48.076  11.374  1.00  0.00    -0.325 N 
HETATM    3  C   UNL     1     -41.603 -49.045  11.404  1.00  0.00     0.140 C 
HETATM    4  N   UNL     1     -43.347 -49.702  12.679  1.00  0.00    -0.346 N 
ATOM      5  HN  UNL     1     -43.970 -50.278  13.243  1.00  0.00     0.167 HD
HETATM    6  C   UNL     1     -41.086 -50.935  12.791  1.00  0.00     0.135 C 
HETATM    7  C   UNL     1     -43.619 -48.542  12.125  1.00  0.00     0.185 C 
HETATM    8  N   UNL     1     -40.443 -49.038  10.733  1.00  0.00    -0.336 N 
ATOM      9  HN  UNL     1     -40.150 -48.308  10.083  1.00  0.00     0.168 HD
HETATM   10  N   UNL     1     -39.953 -51.021  12.013  1.00  0.00    -0.337 N 
ATOM     11  HN  UNL     1     -39.283 -51.772  12.177  1.00  0.00     0.168 HD
HETATM   12  C   UNL     1     -39.724 -50.122  11.037  1.00  0.00     0.183 C 
ENDROOT
BRANCH   6  13
HETATM   13  N   UNL     1     -41.100 -51.661  14.005  1.00  0.00    -0.369 N 
HETATM   14  C   UNL     1     -40.358 -50.994  15.081  1.00  0.00     0.151 C 
BRANCH  13  15
HETATM   15  C   UNL     1     -41.071 -53.132  14.023  1.00  0.00     0.130 C 
BRANCH  15  16
HETATM   16  C   UNL     1     -42.295 -53.854  14.642  1.00  0.00     0.023 C 
HETATM   17  C   UNL     1     -43.457 -54.089  13.680  1.00  0.00     0.132 C 
HETATM   18  N   UNL     1     -44.447 -53.113  14.069  1.00  0.00    -0.352 N 
HETATM   19  C   UNL     1     -45.423 -52.656  13.215  1.00  0.00     0.215 C 
HETATM   20  C   UNL     1     -44.420 -52.998  15.507  1.00  0.00     0.126 C 
HETATM   21  O   UNL     1     -45.609 -53.116  12.088  1.00  0.00    -0.274 OA
HETATM   22  C   UNL     1     -46.243 -51.482  13.688  1.00  0.00     0.117 C 
HETATM   23  C   UNL     1     -42.952 -53.188  15.873  1.00  0.00     0.028 C 
ENDBRANCH  15  16
ENDBRANCH  13  15
ENDBRANCH   6  13
BRANCH   2  24
HETATM   24  C   UNL     1     -42.424 -46.721  10.860  1.00  0.00     0.165 C 
BRANCH  24  25
HETATM   25  C   UNL     1     -43.122 -46.486   9.513  1.00  0.00     0.165 C 
BRANCH  25  26
HETATM   26  C   UNL     1     -44.194 -47.528   9.169  1.00  0.00     0.151 C 
HETATM   27  O   UNL     1     -44.035 -48.041   7.825  1.00  0.00    -0.383 OA
HETATM   28  C   UNL     1     -45.328 -48.501   7.380  1.00  0.00     0.168 C 
HETATM   29  C   UNL     1     -46.314 -48.232   8.502  1.00  0.00     0.029 C 
HETATM   30  C   UNL     1     -45.646 -47.090   9.239  1.00  0.00     0.036 C 
ENDBRANCH  25  26
BRANCH  25  31
HETATM   31  O   UNL     1     -43.801 -45.223   9.503  1.00  0.00    -0.391 OA
HETATM   32  H   UNL     1     -43.343 -44.649  10.147  1.00  0.00     0.210 HD
ENDBRANCH  25  31
ENDBRANCH  24  25
ENDBRANCH   2  24
TORSDOF 7
ENDMDL
MODEL 7
REMARK VINA RESULT:      -6.8      1.489      1.798
REMARK  7 active torsions:
REMARK  status: ('A' for Active; 'I' for Inactive)
REMARK    1  A    between atoms: N_2  and  C_14 
REMARK    2  A    between atoms: C_6  and  N_9 
REMARK       I    between atoms: N_8  and  C_15 
REMARK    3  A    between atoms: N_9  and  C_20 
REMARK    4  A    between atoms: C_14  and  C_16 
REMARK    5  A    between atoms: C_16  and  C_23 
REMARK    6  A    between atoms: C_16  and  O_26 
REMARK    7  A    between atoms: C_19  and  C_20 
ROOT
HETATM    1  C   UNL     1     -41.483 -49.692  11.646  1.00  0.00     0.122 C 
HETATM    2  N   UNL     1     -41.044 -47.656  10.950  1.00  0.00    -0.325 N 
HETATM    3  C   UNL     1     -40.446 -48.850  11.274  1.00  0.00     0.140 C 
HETATM    4  N   UNL     1     -42.689 -49.103  11.325  1.00  0.00    -0.346 N 
ATOM      5  HN  UNL     1     -43.614 -49.529  11.366  1.00  0.00     0.167 HD
HETATM    6  C   UNL     1     -41.131 -50.902  12.317  1.00  0.00     0.135 C 
HETATM    7  C   UNL     1     -42.393 -47.878  10.957  1.00  0.00     0.185 C 
HETATM    8  N   UNL     1     -39.131 -49.107  11.302  1.00  0.00    -0.336 N 
ATOM      9  HN  UNL     1     -38.401 -48.439  11.053  1.00  0.00     0.168 HD
HETATM   10  N   UNL     1     -39.798 -51.233  12.222  1.00  0.00    -0.337 N 
ATOM     11  HN  UNL     1     -39.479 -52.146  12.549  1.00  0.00     0.168 HD
HETATM   12  C   UNL     1     -38.911 -50.363  11.702  1.00  0.00     0.183 C 
ENDROOT
BRANCH   6  13
HETATM   13  N   UNL     1     -41.937 -51.679  13.181  1.00  0.00    -0.369 N 
HETATM   14  C   UNL     1     -42.257 -50.995  14.439  1.00  0.00     0.151 C 
BRANCH  13  15
HETATM   15  C   UNL     1     -41.785 -53.141  13.267  1.00  0.00     0.130 C 
BRANCH  15  16
HETATM   16  C   UNL     1     -43.076 -53.991  13.159  1.00  0.00     0.023 C 
HETATM   17  C   UNL     1     -44.250 -53.294  12.475  1.00  0.00     0.132 C 
HETATM   18  N   UNL     1     -45.144 -52.954  13.556  1.00  0.00    -0.352 N 
HETATM   19  C   UNL     1     -46.066 -51.938  13.472  1.00  0.00     0.215 C 
HETATM   20  C   UNL     1     -45.114 -54.031  14.516  1.00  0.00     0.126 C 
HETATM   21  O   UNL     1     -46.289 -51.307  12.438  1.00  0.00    -0.274 OA
HETATM   22  C   UNL     1     -46.773 -51.556  14.749  1.00  0.00     0.117 C 
HETATM   23  C   UNL     1     -43.674 -54.529  14.479  1.00  0.00     0.028 C 
ENDBRANCH  15  16
ENDBRANCH  13  15
ENDBRANCH   6  13
BRANCH   2  24
HETATM   24  C   UNL     1     -40.384 -46.360  10.871  1.00  0.00     0.165 C 
BRANCH  24  25
HETATM   25  C   UNL     1     -41.241 -45.194  11.385  1.00  0.00     0.165 C 
BRANCH  25  26
HETATM   26  C   UNL     1     -40.876 -44.720  12.798  1.00  0.00     0.151 C 
HETATM   27  O   UNL     1     -39.488 -44.983  13.113  1.00  0.00    -0.383 OA
HETATM   28  C   UNL     1     -39.380 -45.084  14.547  1.00  0.00     0.168 C 
HETATM   29  C   UNL     1     -40.773 -44.895  15.120  1.00  0.00     0.029 C 
HETATM   30  C   UNL     1     -41.649 -45.318  13.960  1.00  0.00     0.036 C 
ENDBRANCH  25  26
BRANCH  25  31
HETATM   31  O   UNL     1     -41.093 -44.042  10.545  1.00  0.00    -0.391 OA
HETATM   32  H   UNL     1     -41.827 -43.435  10.763  1.00  0.00     0.210 HD
ENDBRANCH  25  31
ENDBRANCH  24  25
ENDBRANCH   2  24
TORSDOF 7
ENDMDL
MODEL 8
REMARK VINA RESULT:      -6.8      3.278      7.587
REMARK  7 active torsions:
REMARK  status: ('A' for Active; 'I' for Inactive)
REMARK    1  A    between atoms: N_2  and  C_14 
REMARK    2  A    between atoms: C_6  and  N_9 
REMARK       I    between atoms: N_8  and  C_15 
REMARK    3  A    between atoms: N_9  and  C_20 
REMARK    4  A    between atoms: C_14  and  C_16 
REMARK    5  A    between atoms: C_16  and  C_23 
REMARK    6  A    between atoms: C_16  and  O_26 
REMARK    7  A    between atoms: C_19  and  C_20 
ROOT
HETATM    1  C   UNL     1     -40.516 -47.818  11.254  1.00  0.00     0.122 C 
HETATM    2  N   UNL     1     -40.877 -49.964  11.547  1.00  0.00    -0.325 N 
HETATM    3  C   UNL     1     -41.485 -48.802  11.134  1.00  0.00     0.140 C 
HETATM    4  N   UNL     1     -39.293 -48.406  11.499  1.00  0.00    -0.346 N 
ATOM      5  HN  UNL     1     -38.381 -47.951  11.512  1.00  0.00     0.167 HD
HETATM    6  C   UNL     1     -40.955 -46.461  11.179  1.00  0.00     0.135 C 
HETATM    7  C   UNL     1     -39.551 -49.676  11.713  1.00  0.00     0.185 C 
HETATM    8  N   UNL     1     -42.768 -48.652  10.776  1.00  0.00    -0.336 N 
ATOM      9  HN  UNL     1     -43.455 -49.405  10.739  1.00  0.00     0.168 HD
HETATM   10  N   UNL     1     -42.227 -46.305  10.676  1.00  0.00    -0.337 N 
ATOM     11  HN  UNL     1     -42.572 -45.370  10.455  1.00  0.00     0.168 HD
HETATM   12  C   UNL     1     -43.019 -47.375  10.473  1.00  0.00     0.183 C 
ENDROOT
BRANCH   6  13
HETATM   13  N   UNL     1     -40.315 -45.314  11.704  1.00  0.00    -0.369 N 
HETATM   14  C   UNL     1     -39.971 -44.326  10.676  1.00  0.00     0.151 C 
BRANCH  13  15
HETATM   15  C   UNL     1     -39.386 -45.405  12.842  1.00  0.00     0.130 C 
BRANCH  15  16
HETATM   16  C   UNL     1     -40.011 -45.482  14.259  1.00  0.00     0.023 C 
HETATM   17  C   UNL     1     -39.986 -46.868  14.898  1.00  0.00     0.132 C 
HETATM   18  N   UNL     1     -41.350 -47.332  14.799  1.00  0.00    -0.352 N 
HETATM   19  C   UNL     1     -41.690 -48.664  14.814  1.00  0.00     0.215 C 
HETATM   20  C   UNL     1     -42.223 -46.204  15.022  1.00  0.00     0.126 C 
HETATM   21  O   UNL     1     -40.882 -49.569  15.025  1.00  0.00    -0.274 OA
HETATM   22  C   UNL     1     -43.122 -49.003  14.481  1.00  0.00     0.117 C 
HETATM   23  C   UNL     1     -41.481 -45.026  14.401  1.00  0.00     0.028 C 
ENDBRANCH  15  16
ENDBRANCH  13  15
ENDBRANCH   6  13
BRANCH   2  24
HETATM   24  C   UNL     1     -41.554 -51.182  11.970  1.00  0.00     0.165 C 
BRANCH  24  25
HETATM   25  C   UNL     1     -40.603 -52.280  12.467  1.00  0.00     0.165 C 
BRANCH  25  26
HETATM   26  C   UNL     1     -41.049 -52.957  13.770  1.00  0.00     0.151 C 
HETATM   27  O   UNL     1     -39.943 -53.595  14.452  1.00  0.00    -0.383 OA
HETATM   28  C   UNL     1     -40.487 -54.655  15.264  1.00  0.00     0.168 C 
HETATM   29  C   UNL     1     -41.989 -54.669  15.043  1.00  0.00     0.029 C 
HETATM   30  C   UNL     1     -42.109 -54.039  13.671  1.00  0.00     0.036 C 
ENDBRANCH  25  26
BRANCH  25  31
HETATM   31  O   UNL     1     -40.496 -53.338  11.506  1.00  0.00    -0.391 OA
HETATM   32  H   UNL     1     -39.591 -53.698  11.579  1.00  0.00     0.210 HD
ENDBRANCH  25  31
ENDBRANCH  24  25
ENDBRANCH   2  24
TORSDOF 7
ENDMDL
MODEL 9
REMARK VINA RESULT:      -6.7      4.155      5.681
REMARK  7 active torsions:
REMARK  status: ('A' for Active; 'I' for Inactive)
REMARK    1  A    between atoms: N_2  and  C_14 
REMARK    2  A    between atoms: C_6  and  N_9 
REMARK       I    between atoms: N_8  and  C_15 
REMARK    3  A    between atoms: N_9  and  C_20 
REMARK    4  A    between atoms: C_14  and  C_16 
REMARK    5  A    between atoms: C_16  and  C_23 
REMARK    6  A    between atoms: C_16  and  O_26 
REMARK    7  A    between atoms: C_19  and  C_20 
ROOT
HETATM    1  C   UNL     1     -42.307 -53.790  13.386  1.00  0.00     0.122 C 
HETATM    2  N   UNL     1     -40.270 -52.971  13.341  1.00  0.00    -0.325 N 
HETATM    3  C   UNL     1     -41.104 -53.780  14.075  1.00  0.00     0.140 C 
HETATM    4  N   UNL     1     -42.132 -53.203  12.150  1.00  0.00    -0.346 N 
ATOM      5  HN  UNL     1     -42.799 -53.175  11.380  1.00  0.00     0.167 HD
HETATM    6  C   UNL     1     -43.447 -54.307  14.073  1.00  0.00     0.135 C 
HETATM    7  C   UNL     1     -40.925 -52.688  12.175  1.00  0.00     0.185 C 
HETATM    8  N   UNL     1     -40.828 -54.362  15.251  1.00  0.00    -0.336 N 
ATOM      9  HN  UNL     1     -39.934 -54.295  15.738  1.00  0.00     0.168 HD
HETATM   10  N   UNL     1     -43.145 -55.026  15.209  1.00  0.00    -0.337 N 
ATOM     11  HN  UNL     1     -43.879 -55.548  15.686  1.00  0.00     0.168 HD
HETATM   12  C   UNL     1     -41.888 -55.044  15.693  1.00  0.00     0.183 C 
ENDROOT
BRANCH   6  13
HETATM   13  N   UNL     1     -44.810 -54.028  13.821  1.00  0.00    -0.369 N 
HETATM   14  C   UNL     1     -45.647 -55.233  13.790  1.00  0.00     0.151 C 
BRANCH  13  15
HETATM   15  C   UNL     1     -45.219 -52.941  12.916  1.00  0.00     0.130 C 
BRANCH  15  16
HETATM   16  C   UNL     1     -45.420 -51.539  13.546  1.00  0.00     0.023 C 
HETATM   17  C   UNL     1     -44.242 -50.582  13.374  1.00  0.00     0.132 C 
HETATM   18  N   UNL     1     -43.620 -50.543  14.676  1.00  0.00    -0.352 N 
HETATM   19  C   UNL     1     -42.302 -50.200  14.866  1.00  0.00     0.215 C 
HETATM   20  C   UNL     1     -44.663 -50.588  15.672  1.00  0.00     0.126 C 
HETATM   21  O   UNL     1     -41.571 -49.789  13.964  1.00  0.00    -0.274 OA
HETATM   22  C   UNL     1     -41.736 -50.418  16.247  1.00  0.00     0.117 C 
HETATM   23  C   UNL     1     -45.731 -51.488  15.059  1.00  0.00     0.028 C 
ENDBRANCH  15  16
ENDBRANCH  13  15
ENDBRANCH   6  13
BRANCH   2  24
HETATM   24  C   UNL     1     -39.050 -52.337  13.821  1.00  0.00     0.165 C 
BRANCH  24  25
HETATM   25  C   UNL     1     -38.633 -51.101  13.011  1.00  0.00     0.165 C 
BRANCH  25  26
HETATM   26  C   UNL     1     -37.909 -50.026  13.832  1.00  0.00     0.151 C 
HETATM   27  O   UNL     1     -38.417 -49.948  15.186  1.00  0.00    -0.383 OA
HETATM   28  C   UNL     1     -38.161 -48.614  15.670  1.00  0.00     0.168 C 
HETATM   29  C   UNL     1     -37.486 -47.847  14.547  1.00  0.00     0.029 C 
HETATM   30  C   UNL     1     -37.968 -48.597  13.323  1.00  0.00     0.036 C 
ENDBRANCH  25  26
BRANCH  25  31
HETATM   31  O   UNL     1     -37.721 -51.460  11.965  1.00  0.00    -0.391 OA
HETATM   32  H   UNL     1     -36.970 -51.921  12.387  1.00  0.00     0.210 HD
ENDBRANCH  25  31
ENDBRANCH  24  25
ENDBRANCH   2  24
TORSDOF 7
ENDMDL
