MODEL 1
REMARK VINA RESULT:      -5.8      0.000      0.000
REMARK  6 active torsions:
REMARK  status: ('A' for Active; 'I' for Inactive)
REMARK    1  A    between atoms: N_1  and  C_2 
REMARK    2  A    between atoms: N_9  and  C_10 
REMARK    3  A    between atoms: C_10  and  C_11 
REMARK    4  A    between atoms: C_11  and  O_12 
REMARK    5  A    between atoms: O_12  and  C_13 
REMARK    6  A    between atoms: C_13  and  C_14 
ROOT
HETATM    1  C   UNL     1     -40.805 -53.353  12.724  1.00  0.00     0.109 A 
HETATM    2  N   UNL     1     -42.054 -53.852  12.865  1.00  0.00    -0.341 N 
ATOM      3  HN  UNL     1     -42.202 -54.828  13.122  1.00  0.00     0.167 HD
HETATM    4  C   UNL     1     -43.100 -53.023  12.656  1.00  0.00     0.183 A 
HETATM    5  N   UNL     1     -43.081 -51.720  12.311  1.00  0.00    -0.336 N 
ATOM      6  HN  UNL     1     -43.913 -51.143  12.183  1.00  0.00     0.168 HD
HETATM    7  C   UNL     1     -41.821 -51.284  12.157  1.00  0.00     0.140 A 
HETATM    8  N   UNL     1     -41.400 -50.029  11.809  1.00  0.00    -0.325 N 
HETATM    9  C   UNL     1     -40.030 -50.043  11.793  1.00  0.00     0.185 A 
HETATM   10  N   UNL     1     -39.543 -51.229  12.093  1.00  0.00    -0.346 N 
ATOM     11  HN  UNL     1     -38.564 -51.509  12.134  1.00  0.00     0.167 HD
HETATM   12  C   UNL     1     -40.656 -52.011  12.337  1.00  0.00     0.116 A 
ENDROOT
BRANCH   8  13
HETATM   13  C   UNL     1     -42.248 -48.877  11.585  1.00  0.00     0.157 C 
BRANCH  13  14
HETATM   14  C   UNL     1     -41.719 -47.916  10.522  1.00  0.00     0.188 C 
BRANCH  14  15
HETATM   15  O   UNL     1     -42.721 -47.668   9.536  1.00  0.00    -0.381 OA
BRANCH  15  16
HETATM   16  C   UNL     1     -44.013 -47.445  10.126  1.00  0.00     0.285 C 
BRANCH  16  17
HETATM   17  C   UNL     1     -45.167 -47.531   9.122  1.00  0.00     0.408 C 
HETATM   18  F   UNL     1     -46.189 -48.300   9.552  1.00  0.00    -0.169 F 
HETATM   19  F   UNL     1     -45.665 -46.298   8.863  1.00  0.00    -0.169 F 
HETATM   20  F   UNL     1     -44.736 -48.043   7.945  1.00  0.00    -0.169 F 
ENDBRANCH  16  17
ENDBRANCH  15  16
ENDBRANCH  14  15
ENDBRANCH  13  14
ENDBRANCH   8  13
BRANCH   1  21
HETATM   21  N   UNL     1     -39.730 -54.203  12.958  1.00  0.00    -0.287 NA
HETATM   22  H   UNL     1     -39.983 -55.174  12.830  1.00  0.00     0.125 HD
HETATM   23  H   UNL     1     -38.867 -53.880  12.532  1.00  0.00     0.125 HD
ENDBRANCH   1  21
TORSDOF 6
ENDMDL
MODEL 2
REMARK VINA RESULT:      -5.7      4.711      6.098
REMARK  6 active torsions:
REMARK  status: ('A' for Active; 'I' for Inactive)
REMARK    1  A    between atoms: N_1  and  C_2 
REMARK    2  A    between atoms: N_9  and  C_10 
REMARK    3  A    between atoms: C_10  and  C_11 
REMARK    4  A    between atoms: C_11  and  O_12 
REMARK    5  A    between atoms: O_12  and  C_13 
REMARK    6  A    between atoms: C_13  and  C_14 
ROOT
HETATM    1  C   UNL     1     -45.130 -53.376  12.668  1.00  0.00     0.109 A 
HETATM    2  N   UNL     1     -45.611 -54.252  13.579  1.00  0.00    -0.341 N 
ATOM      3  HN  UNL     1     -46.615 -54.397  13.687  1.00  0.00     0.167 HD
HETATM    4  C   UNL     1     -44.726 -54.930  14.342  1.00  0.00     0.183 A 
HETATM    5  N   UNL     1     -43.380 -54.856  14.332  1.00  0.00    -0.336 N 
ATOM      6  HN  UNL     1     -42.765 -55.411  14.927  1.00  0.00     0.168 HD
HETATM    7  C   UNL     1     -42.957 -53.955  13.431  1.00  0.00     0.140 A 
HETATM    8  N   UNL     1     -41.670 -53.600  13.135  1.00  0.00    -0.325 N 
HETATM    9  C   UNL     1     -41.719 -52.658  12.140  1.00  0.00     0.185 A 
HETATM   10  N   UNL     1     -42.956 -52.373  11.790  1.00  0.00    -0.346 N 
ATOM     11  HN  UNL     1     -43.266 -51.699  11.090  1.00  0.00     0.167 HD
HETATM   12  C   UNL     1     -43.740 -53.190  12.581  1.00  0.00     0.116 A 
ENDROOT
BRANCH   8  13
HETATM   13  C   UNL     1     -40.472 -54.179  13.707  1.00  0.00     0.157 C 
BRANCH  13  14
HETATM   14  C   UNL     1     -39.593 -53.175  14.450  1.00  0.00     0.188 C 
BRANCH  14  15
HETATM   15  O   UNL     1     -38.613 -52.628  13.568  1.00  0.00    -0.381 OA
BRANCH  15  16
HETATM   16  C   UNL     1     -38.522 -51.198  13.687  1.00  0.00     0.285 C 
BRANCH  16  17
HETATM   17  C   UNL     1     -37.926 -50.518  12.449  1.00  0.00     0.408 C 
HETATM   18  F   UNL     1     -38.823 -50.342  11.457  1.00  0.00    -0.169 F 
HETATM   19  F   UNL     1     -37.426 -49.301  12.769  1.00  0.00    -0.169 F 
HETATM   20  F   UNL     1     -36.902 -51.252  11.950  1.00  0.00    -0.169 F 
ENDBRANCH  16  17
ENDBRANCH  15  16
ENDBRANCH  14  15
ENDBRANCH  13  14
ENDBRANCH   8  13
BRANCH   1  21
HETATM   21  N   UNL     1     -46.041 -52.694  11.870  1.00  0.00    -0.287 NA
HETATM   22  H   UNL     1     -45.973 -51.693  11.992  1.00  0.00     0.125 HD
HETATM   23  H   UNL     1     -46.085 -53.052  10.921  1.00  0.00     0.125 HD
ENDBRANCH   1  21
TORSDOF 6
ENDMDL
MODEL 3
REMARK VINA RESULT:      -5.6      4.983      7.224
REMARK  6 active torsions:
REMARK  status: ('A' for Active; 'I' for Inactive)
REMARK    1  A    between atoms: N_1  and  C_2 
REMARK    2  A    between atoms: N_9  and  C_10 
REMARK    3  A    between atoms: C_10  and  C_11 
REMARK    4  A    between atoms: C_11  and  O_12 
REMARK    5  A    between atoms: O_12  and  C_13 
REMARK    6  A    between atoms: C_13  and  C_14 
ROOT
HETATM    1  C   UNL     1     -43.578 -45.580   9.412  1.00  0.00     0.109 A 
HETATM    2  N   UNL     1     -44.060 -46.336   8.400  1.00  0.00    -0.341 N 
ATOM      3  HN  UNL     1     -44.761 -45.967   7.758  1.00  0.00     0.167 HD
HETATM    4  C   UNL     1     -43.588 -47.595   8.263  1.00  0.00     0.183 A 
HETATM    5  N   UNL     1     -42.673 -48.235   9.019  1.00  0.00    -0.336 N 
ATOM      6  HN  UNL     1     -42.347 -49.186   8.851  1.00  0.00     0.168 HD
HETATM    7  C   UNL     1     -42.249 -47.450  10.022  1.00  0.00     0.140 A 
HETATM    8  N   UNL     1     -41.332 -47.747  10.993  1.00  0.00    -0.325 N 
HETATM    9  C   UNL     1     -41.200 -46.639  11.789  1.00  0.00     0.185 A 
HETATM   10  N   UNL     1     -41.986 -45.655  11.402  1.00  0.00    -0.346 N 
ATOM     11  HN  UNL     1     -42.091 -44.736  11.830  1.00  0.00     0.167 HD
HETATM   12  C   UNL     1     -42.637 -46.147  10.287  1.00  0.00     0.116 A 
ENDROOT
BRANCH   8  13
HETATM   13  C   UNL     1     -40.574 -48.976  11.105  1.00  0.00     0.157 C 
BRANCH  13  14
HETATM   14  C   UNL     1     -41.000 -49.862  12.273  1.00  0.00     0.188 C 
BRANCH  14  15
HETATM   15  O   UNL     1     -39.936 -49.982  13.217  1.00  0.00    -0.381 OA
BRANCH  15  16
HETATM   16  C   UNL     1     -39.023 -51.036  12.867  1.00  0.00     0.285 C 
BRANCH  16  17
HETATM   17  C   UNL     1     -37.557 -50.593  12.841  1.00  0.00     0.408 C 
HETATM   18  F   UNL     1     -36.739 -51.492  12.256  1.00  0.00    -0.169 F 
HETATM   19  F   UNL     1     -37.425 -49.423  12.170  1.00  0.00    -0.169 F 
HETATM   20  F   UNL     1     -37.101 -50.383  14.100  1.00  0.00    -0.169 F 
ENDBRANCH  16  17
ENDBRANCH  15  16
ENDBRANCH  14  15
ENDBRANCH  13  14
ENDBRANCH   8  13
BRANCH   1  21
HETATM   21  N   UNL     1     -44.049 -44.278   9.539  1.00  0.00    -0.287 NA
HETATM   22  H   UNL     1     -44.312 -43.885   8.645  1.00  0.00     0.125 HD
HETATM   23  H   UNL     1     -44.695 -44.163  10.313  1.00  0.00     0.125 HD
ENDBRANCH   1  21
TORSDOF 6
ENDMDL
MODEL 4
REMARK VINA RESULT:      -5.6      2.706      3.508
REMARK  6 active torsions:
REMARK  status: ('A' for Active; 'I' for Inactive)
REMARK    1  A    between atoms: N_1  and  C_2 
REMARK    2  A    between atoms: N_9  and  C_10 
REMARK    3  A    between atoms: C_10  and  C_11 
REMARK    4  A    between atoms: C_11  and  O_12 
REMARK    5  A    between atoms: O_12  and  C_13 
REMARK    6  A    between atoms: C_13  and  C_14 
ROOT
HETATM    1  C   UNL     1     -38.445 -49.980  12.188  1.00  0.00     0.109 A 
HETATM    2  N   UNL     1     -37.817 -49.342  13.203  1.00  0.00    -0.341 N 
ATOM      3  HN  UNL     1     -37.000 -49.752  13.653  1.00  0.00     0.167 HD
HETATM    4  C   UNL     1     -38.305 -48.147  13.603  1.00  0.00     0.183 A 
HETATM    5  N   UNL     1     -39.368 -47.471  13.124  1.00  0.00    -0.336 N 
ATOM      6  HN  UNL     1     -39.676 -46.560  13.463  1.00  0.00     0.168 HD
HETATM    7  C   UNL     1     -39.969 -48.160  12.140  1.00  0.00     0.140 A 
HETATM    8  N   UNL     1     -41.073 -47.804  11.416  1.00  0.00    -0.325 N 
HETATM    9  C   UNL     1     -41.312 -48.803  10.509  1.00  0.00     0.185 A 
HETATM   10  N   UNL     1     -40.442 -49.786  10.615  1.00  0.00    -0.346 N 
ATOM     11  HN  UNL     1     -40.407 -50.649  10.073  1.00  0.00     0.167 HD
HETATM   12  C   UNL     1     -39.586 -49.387  11.623  1.00  0.00     0.116 A 
ENDROOT
BRANCH   8  13
HETATM   13  C   UNL     1     -41.803 -46.558  11.529  1.00  0.00     0.157 C 
BRANCH  13  14
HETATM   14  C   UNL     1     -41.720 -45.677  10.285  1.00  0.00     0.188 C 
BRANCH  14  15
HETATM   15  O   UNL     1     -43.030 -45.373   9.806  1.00  0.00    -0.381 OA
BRANCH  15  16
HETATM   16  C   UNL     1     -43.423 -46.238   8.727  1.00  0.00     0.285 C 
BRANCH  16  17
HETATM   17  C   UNL     1     -44.716 -47.012   9.005  1.00  0.00     0.408 C 
HETATM   18  F   UNL     1     -45.828 -46.264   8.848  1.00  0.00    -0.169 F 
HETATM   19  F   UNL     1     -44.821 -48.078   8.175  1.00  0.00    -0.169 F 
HETATM   20  F   UNL     1     -44.721 -47.492  10.272  1.00  0.00    -0.169 F 
ENDBRANCH  16  17
ENDBRANCH  15  16
ENDBRANCH  14  15
ENDBRANCH  13  14
ENDBRANCH   8  13
BRANCH   1  21
HETATM   21  N   UNL     1     -37.930 -51.200  11.764  1.00  0.00    -0.287 NA
HETATM   22  H   UNL     1     -37.062 -51.086  11.259  1.00  0.00     0.125 HD
HETATM   23  H   UNL     1     -37.970 -51.918  12.479  1.00  0.00     0.125 HD
ENDBRANCH   1  21
TORSDOF 6
ENDMDL
MODEL 5
REMARK VINA RESULT:      -5.6      4.847      6.129
REMARK  6 active torsions:
REMARK  status: ('A' for Active; 'I' for Inactive)
REMARK    1  A    between atoms: N_1  and  C_2 
REMARK    2  A    between atoms: N_9  and  C_10 
REMARK    3  A    between atoms: C_10  and  C_11 
REMARK    4  A    between atoms: C_11  and  O_12 
REMARK    5  A    between atoms: O_12  and  C_13 
REMARK    6  A    between atoms: C_13  and  C_14 
ROOT
HETATM    1  C   UNL     1     -45.748 -54.166  14.208  1.00  0.00     0.109 A 
HETATM    2  N   UNL     1     -46.467 -53.374  13.381  1.00  0.00    -0.341 N 
ATOM      3  HN  UNL     1     -47.484 -53.334  13.447  1.00  0.00     0.167 HD
HETATM    4  C   UNL     1     -45.802 -52.638  12.463  1.00  0.00     0.183 A 
HETATM    5  N   UNL     1     -44.474 -52.576  12.241  1.00  0.00    -0.336 N 
ATOM      6  HN  UNL     1     -44.032 -51.984  11.538  1.00  0.00     0.168 HD
HETATM    7  C   UNL     1     -43.811 -53.399  13.069  1.00  0.00     0.140 A 
HETATM    8  N   UNL     1     -42.462 -53.613  13.142  1.00  0.00    -0.325 N 
HETATM    9  C   UNL     1     -42.241 -54.520  14.145  1.00  0.00     0.185 A 
HETATM   10  N   UNL     1     -43.363 -54.915  14.711  1.00  0.00    -0.346 N 
ATOM     11  HN  UNL     1     -43.477 -55.592  15.465  1.00  0.00     0.167 HD
HETATM   12  C   UNL     1     -44.352 -54.208  14.055  1.00  0.00     0.116 A 
ENDROOT
BRANCH   8  13
HETATM   13  C   UNL     1     -41.447 -52.937  12.360  1.00  0.00     0.157 C 
BRANCH  13  14
HETATM   14  C   UNL     1     -40.496 -52.078  13.191  1.00  0.00     0.188 C 
BRANCH  14  15
HETATM   15  O   UNL     1     -39.287 -51.841  12.471  1.00  0.00    -0.381 OA
BRANCH  15  16
HETATM   16  C   UNL     1     -39.101 -50.446  12.174  1.00  0.00     0.285 C 
BRANCH  16  17
HETATM   17  C   UNL     1     -37.631 -50.044  12.020  1.00  0.00     0.408 C 
HETATM   18  F   UNL     1     -37.287 -49.763  10.746  1.00  0.00    -0.169 F 
HETATM   19  F   UNL     1     -37.356 -48.948  12.768  1.00  0.00    -0.169 F 
HETATM   20  F   UNL     1     -36.818 -51.037  12.455  1.00  0.00    -0.169 F 
ENDBRANCH  16  17
ENDBRANCH  15  16
ENDBRANCH  14  15
ENDBRANCH  13  14
ENDBRANCH   8  13
BRANCH   1  21
HETATM   21  N   UNL     1     -46.432 -54.907  15.164  1.00  0.00    -0.287 NA
HETATM   22  H   UNL     1     -46.115 -54.698  16.101  1.00  0.00     0.125 HD
HETATM   23  H   UNL     1     -47.434 -54.939  15.001  1.00  0.00     0.125 HD
ENDBRANCH   1  21
TORSDOF 6
ENDMDL
MODEL 6
REMARK VINA RESULT:      -5.6      3.706      5.129
REMARK  6 active torsions:
REMARK  status: ('A' for Active; 'I' for Inactive)
REMARK    1  A    between atoms: N_1  and  C_2 
REMARK    2  A    between atoms: N_9  and  C_10 
REMARK    3  A    between atoms: C_10  and  C_11 
REMARK    4  A    between atoms: C_11  and  O_12 
REMARK    5  A    between atoms: O_12  and  C_13 
REMARK    6  A    between atoms: C_13  and  C_14 
ROOT
HETATM    1  C   UNL     1     -40.949 -50.501  11.701  1.00  0.00     0.109 A 
HETATM    2  N   UNL     1     -41.400 -49.495  12.485  1.00  0.00    -0.341 N 
ATOM      3  HN  UNL     1     -41.273 -48.521  12.212  1.00  0.00     0.167 HD
HETATM    4  C   UNL     1     -42.022 -49.817  13.641  1.00  0.00     0.183 A 
HETATM    5  N   UNL     1     -42.267 -51.041  14.149  1.00  0.00    -0.336 N 
ATOM      6  HN  UNL     1     -42.759 -51.216  15.025  1.00  0.00     0.168 HD
HETATM    7  C   UNL     1     -41.777 -51.999  13.347  1.00  0.00     0.140 A 
HETATM    8  N   UNL     1     -41.826 -53.355  13.526  1.00  0.00    -0.325 N 
HETATM    9  C   UNL     1     -41.216 -53.936  12.446  1.00  0.00     0.185 A 
HETATM   10  N   UNL     1     -40.763 -53.042  11.592  1.00  0.00    -0.346 N 
ATOM     11  HN  UNL     1     -40.259 -53.209  10.722  1.00  0.00     0.167 HD
HETATM   12  C   UNL     1     -41.121 -51.825  12.139  1.00  0.00     0.116 A 
ENDROOT
BRANCH   8  13
HETATM   13  C   UNL     1     -42.482 -54.048  14.615  1.00  0.00     0.157 C 
BRANCH  13  14
HETATM   14  C   UNL     1     -43.985 -54.233  14.415  1.00  0.00     0.188 C 
BRANCH  14  15
HETATM   15  O   UNL     1     -44.681 -53.035  14.757  1.00  0.00    -0.381 OA
BRANCH  15  16
HETATM   16  C   UNL     1     -46.006 -53.005  14.200  1.00  0.00     0.285 C 
BRANCH  16  17
HETATM   17  C   UNL     1     -46.352 -51.679  13.514  1.00  0.00     0.408 C 
HETATM   18  F   UNL     1     -45.275 -50.895  13.300  1.00  0.00    -0.169 F 
HETATM   19  F   UNL     1     -46.939 -51.903  12.314  1.00  0.00    -0.169 F 
HETATM   20  F   UNL     1     -47.231 -50.971  14.263  1.00  0.00    -0.169 F 
ENDBRANCH  16  17
ENDBRANCH  15  16
ENDBRANCH  14  15
ENDBRANCH  13  14
ENDBRANCH   8  13
BRANCH   1  21
HETATM   21  N   UNL     1     -40.327 -50.169  10.503  1.00  0.00    -0.287 NA
HETATM   22  H   UNL     1     -39.437 -50.637  10.399  1.00  0.00     0.125 HD
HETATM   23  H   UNL     1     -40.960 -50.178   9.710  1.00  0.00     0.125 HD
ENDBRANCH   1  21
TORSDOF 6
ENDMDL
MODEL 7
REMARK VINA RESULT:      -5.5      4.346      5.265
REMARK  6 active torsions:
REMARK  status: ('A' for Active; 'I' for Inactive)
REMARK    1  A    between atoms: N_1  and  C_2 
REMARK    2  A    between atoms: N_9  and  C_10 
REMARK    3  A    between atoms: C_10  and  C_11 
REMARK    4  A    between atoms: C_11  and  O_12 
REMARK    5  A    between atoms: O_12  and  C_13 
REMARK    6  A    between atoms: C_13  and  C_14 
ROOT
HETATM    1  C   UNL     1     -39.689 -54.242  14.003  1.00  0.00     0.109 A 
HETATM    2  N   UNL     1     -39.719 -54.162  15.353  1.00  0.00    -0.341 N 
ATOM      3  HN  UNL     1     -39.122 -54.757  15.927  1.00  0.00     0.167 HD
HETATM    4  C   UNL     1     -40.562 -53.271  15.921  1.00  0.00     0.183 A 
HETATM    5  N   UNL     1     -41.414 -52.419  15.316  1.00  0.00    -0.336 N 
ATOM      6  HN  UNL     1     -42.015 -51.757  15.806  1.00  0.00     0.168 HD
HETATM    7  C   UNL     1     -41.364 -52.559  13.982  1.00  0.00     0.140 A 
HETATM    8  N   UNL     1     -42.079 -51.877  13.036  1.00  0.00    -0.325 N 
HETATM    9  C   UNL     1     -41.685 -52.340  11.807  1.00  0.00     0.185 A 
HETATM   10  N   UNL     1     -40.775 -53.286  11.903  1.00  0.00    -0.346 N 
ATOM     11  HN  UNL     1     -40.331 -53.804  11.145  1.00  0.00     0.167 HD
HETATM   12  C   UNL     1     -40.554 -53.422  13.261  1.00  0.00     0.116 A 
ENDROOT
BRANCH   8  13
HETATM   13  C   UNL     1     -43.016 -50.802  13.286  1.00  0.00     0.157 C 
BRANCH  13  14
HETATM   14  C   UNL     1     -44.336 -51.261  13.901  1.00  0.00     0.188 C 
BRANCH  14  15
HETATM   15  O   UNL     1     -45.075 -52.042  12.962  1.00  0.00    -0.381 OA
BRANCH  15  16
HETATM   16  C   UNL     1     -45.676 -53.195  13.575  1.00  0.00     0.285 C 
BRANCH  16  17
HETATM   17  C   UNL     1     -44.813 -54.458  13.481  1.00  0.00     0.408 C 
HETATM   18  F   UNL     1     -43.931 -54.576  14.495  1.00  0.00    -0.169 F 
HETATM   19  F   UNL     1     -45.590 -55.567  13.484  1.00  0.00    -0.169 F 
HETATM   20  F   UNL     1     -44.109 -54.467  12.323  1.00  0.00    -0.169 F 
ENDBRANCH  16  17
ENDBRANCH  15  16
ENDBRANCH  14  15
ENDBRANCH  13  14
ENDBRANCH   8  13
BRANCH   1  21
HETATM   21  N   UNL     1     -38.807 -55.145  13.421  1.00  0.00    -0.287 NA
HETATM   22  H   UNL     1     -38.552 -55.887  14.058  1.00  0.00     0.125 HD
HETATM   23  H   UNL     1     -39.070 -55.405  12.475  1.00  0.00     0.125 HD
ENDBRANCH   1  21
TORSDOF 6
ENDMDL
MODEL 8
REMARK VINA RESULT:      -5.3      3.109      3.410
REMARK  6 active torsions:
REMARK  status: ('A' for Active; 'I' for Inactive)
REMARK    1  A    between atoms: N_1  and  C_2 
REMARK    2  A    between atoms: N_9  and  C_10 
REMARK    3  A    between atoms: C_10  and  C_11 
REMARK    4  A    between atoms: C_11  and  O_12 
REMARK    5  A    between atoms: O_12  and  C_13 
REMARK    6  A    between atoms: C_13  and  C_14 
ROOT
HETATM    1  C   UNL     1     -40.856 -53.445  12.737  1.00  0.00     0.109 A 
HETATM    2  N   UNL     1     -42.116 -53.923  12.857  1.00  0.00    -0.341 N 
ATOM      3  HN  UNL     1     -42.284 -54.900  13.094  1.00  0.00     0.167 HD
HETATM    4  C   UNL     1     -43.144 -53.070  12.654  1.00  0.00     0.183 A 
HETATM    5  N   UNL     1     -43.098 -51.761  12.334  1.00  0.00    -0.336 N 
ATOM      6  HN  UNL     1     -43.917 -51.167  12.209  1.00  0.00     0.168 HD
HETATM    7  C   UNL     1     -41.828 -51.346  12.200  1.00  0.00     0.140 A 
HETATM    8  N   UNL     1     -41.381 -50.094  11.880  1.00  0.00    -0.325 N 
HETATM    9  C   UNL     1     -40.011 -50.132  11.876  1.00  0.00     0.185 A 
HETATM   10  N   UNL     1     -39.550 -51.333  12.158  1.00  0.00    -0.346 N 
ATOM     11  HN  UNL     1     -38.576 -51.632  12.204  1.00  0.00     0.167 HD
HETATM   12  C   UNL     1     -40.678 -52.099  12.377  1.00  0.00     0.116 A 
ENDROOT
BRANCH   8  13
HETATM   13  C   UNL     1     -42.205 -48.921  11.670  1.00  0.00     0.157 C 
BRANCH  13  14
HETATM   14  C   UNL     1     -41.620 -47.923  10.673  1.00  0.00     0.188 C 
BRANCH  14  15
HETATM   15  O   UNL     1     -41.421 -46.656  11.300  1.00  0.00    -0.381 OA
BRANCH  15  16
HETATM   16  C   UNL     1     -41.214 -45.607  10.339  1.00  0.00     0.285 C 
BRANCH  16  17
HETATM   17  C   UNL     1     -39.890 -44.859  10.526  1.00  0.00     0.408 C 
HETATM   18  F   UNL     1     -38.975 -45.154   9.579  1.00  0.00    -0.169 F 
HETATM   19  F   UNL     1     -40.091 -43.520  10.496  1.00  0.00    -0.169 F 
HETATM   20  F   UNL     1     -39.343 -45.154  11.730  1.00  0.00    -0.169 F 
ENDBRANCH  16  17
ENDBRANCH  15  16
ENDBRANCH  14  15
ENDBRANCH  13  14
ENDBRANCH   8  13
BRANCH   1  21
HETATM   21  N   UNL     1     -39.799 -54.319  12.965  1.00  0.00    -0.287 NA
HETATM   22  H   UNL     1     -39.068 -54.212  12.275  1.00  0.00     0.125 HD
HETATM   23  H   UNL     1     -39.525 -54.364  13.941  1.00  0.00     0.125 HD
ENDBRANCH   1  21
TORSDOF 6
ENDMDL
MODEL 9
REMARK VINA RESULT:      -5.2      4.101      5.588
REMARK  6 active torsions:
REMARK  status: ('A' for Active; 'I' for Inactive)
REMARK    1  A    between atoms: N_1  and  C_2 
REMARK    2  A    between atoms: N_9  and  C_10 
REMARK    3  A    between atoms: C_10  and  C_11 
REMARK    4  A    between atoms: C_11  and  O_12 
REMARK    5  A    between atoms: O_12  and  C_13 
REMARK    6  A    between atoms: C_13  and  C_14 
ROOT
HETATM    1  C   UNL     1     -40.367 -50.459  11.522  1.00  0.00     0.109 A 
HETATM    2  N   UNL     1     -39.142 -50.815  11.971  1.00  0.00    -0.341 N 
ATOM      3  HN  UNL     1     -38.307 -50.630  11.416  1.00  0.00     0.167 HD
HETATM    4  C   UNL     1     -39.055 -51.424  13.174  1.00  0.00     0.183 A 
HETATM    5  N   UNL     1     -40.049 -51.744  14.026  1.00  0.00    -0.336 N 
ATOM      6  HN  UNL     1     -39.913 -52.192  14.932  1.00  0.00     0.168 HD
HETATM    7  C   UNL     1     -41.243 -51.394  13.522  1.00  0.00     0.140 A 
HETATM    8  N   UNL     1     -42.478 -51.558  14.087  1.00  0.00    -0.325 N 
HETATM    9  C   UNL     1     -43.402 -51.034  13.222  1.00  0.00     0.185 A 
HETATM   10  N   UNL     1     -42.842 -50.559  12.128  1.00  0.00    -0.346 N 
ATOM     11  HN  UNL     1     -43.304 -50.134  11.325  1.00  0.00     0.167 HD
HETATM   12  C   UNL     1     -41.488 -50.765  12.311  1.00  0.00     0.116 A 
ENDROOT
BRANCH   8  13
HETATM   13  C   UNL     1     -42.748 -52.105  15.401  1.00  0.00     0.157 C 
BRANCH  13  14
HETATM   14  C   UNL     1     -43.699 -53.300  15.390  1.00  0.00     0.188 C 
BRANCH  14  15
HETATM   15  O   UNL     1     -44.907 -52.978  16.078  1.00  0.00    -0.381 OA
BRANCH  15  16
HETATM   16  C   UNL     1     -46.019 -52.842  15.177  1.00  0.00     0.285 C 
BRANCH  16  17
HETATM   17  C   UNL     1     -46.637 -51.440  15.175  1.00  0.00     0.408 C 
HETATM   18  F   UNL     1     -47.719 -51.334  15.973  1.00  0.00    -0.169 F 
HETATM   19  F   UNL     1     -45.733 -50.520  15.589  1.00  0.00    -0.169 F 
HETATM   20  F   UNL     1     -47.017 -51.089  13.922  1.00  0.00    -0.169 F 
ENDBRANCH  16  17
ENDBRANCH  15  16
ENDBRANCH  14  15
ENDBRANCH  13  14
ENDBRANCH   8  13
BRANCH   1  21
HETATM   21  N   UNL     1     -40.453 -49.815  10.294  1.00  0.00    -0.287 NA
HETATM   22  H   UNL     1     -40.313 -48.817  10.381  1.00  0.00     0.125 HD
HETATM   23  H   UNL     1     -39.953 -50.299   9.555  1.00  0.00     0.125 HD
ENDBRANCH   1  21
TORSDOF 6
ENDMDL
