MODEL 1
REMARK VINA RESULT:      -6.7      0.000      0.000
REMARK  6 active torsions:
REMARK  status: ('A' for Active; 'I' for Inactive)
REMARK    1  A    between atoms: N_7  and  C_8 
REMARK    2  A    between atoms: C_8  and  C_9 
REMARK       I    between atoms: C_9  and  N_11 
REMARK    3  A    between atoms: N_11  and  C_12 
REMARK    4  A    between atoms: C_12  and  C_13 
REMARK    5  A    between atoms: C_12  and  C_17 
REMARK    6  A    between atoms: C_13  and  C_14 
REMARK       I    between atoms: C_14  and  N_16 
ROOT
HETATM    1  C   UNL     1     -42.369 -50.393  12.552  1.00  0.00     0.236 C 
HETATM    2  O   UNL     1     -41.436 -50.659  11.801  1.00  0.00    -0.272 OA
HETATM    3  N   UNL     1     -43.250 -51.338  13.036  1.00  0.00    -0.354 N 
HETATM    4  H   UNL     1     -43.915 -51.049  13.744  1.00  0.00     0.162 HD
ENDROOT
BRANCH   3   5
HETATM    5  C   UNL     1     -43.327 -52.723  12.569  1.00  0.00     0.097 C 
BRANCH   5   6
HETATM    6  C   UNL     1     -42.435 -53.584  13.487  1.00  0.00     0.128 C 
BRANCH   6   7
HETATM    7  C   UNL     1     -41.055 -53.850  12.931  1.00  0.00     0.217 C 
HETATM    8  O   UNL     1     -40.153 -54.356  13.588  1.00  0.00    -0.274 OA
HETATM    9  N   UNL     1     -40.866 -53.503  11.628  1.00  0.00    -0.370 N 
HETATM   10  H   UNL     1     -41.500 -52.890  11.133  1.00  0.00     0.159 HD
HETATM   11  H   UNL     1     -39.926 -53.604  11.265  1.00  0.00     0.159 HD
ENDBRANCH   6   7
ENDBRANCH   5   6
BRANCH   5  12
HETATM   12  C   UNL     1     -44.804 -53.238  12.489  1.00  0.00     0.009 C 
HETATM   13  C   UNL     1     -45.879 -52.128  12.405  1.00  0.00     0.007 C 
HETATM   14  C   UNL     1     -46.504 -51.665  13.724  1.00  0.00     0.000 C 
HETATM   15  C   UNL     1     -46.790 -52.793  14.706  1.00  0.00     0.000 C 
HETATM   16  C   UNL     1     -45.577 -53.689  14.889  1.00  0.00     0.000 C 
HETATM   17  C   UNL     1     -45.170 -54.290  13.550  1.00  0.00     0.007 C 
ENDBRANCH   5  12
ENDBRANCH   3   5
BRANCH   1  18
HETATM   18  C   UNL     1     -42.715 -48.959  12.981  1.00  0.00     0.235 C 
BRANCH  18  19
HETATM   19  N   UNL     1     -42.775 -48.026  11.862  1.00  0.00    -0.301 N 
HETATM   20  C   UNL     1     -43.841 -48.077  10.995  1.00  0.00     0.102 C 
HETATM   21  C   UNL     1     -43.972 -47.202  10.002  1.00  0.00     0.092 C 
HETATM   22  C   UNL     1     -42.946 -46.168   9.806  1.00  0.00     0.252 C 
HETATM   23  N   UNL     1     -41.834 -46.255  10.626  1.00  0.00    -0.271 N 
HETATM   24  O   UNL     1     -43.125 -45.310   8.946  1.00  0.00    -0.268 OA
HETATM   25  C   UNL     1     -40.734 -45.338  10.403  1.00  0.00     0.164 C 
HETATM   26  C   UNL     1     -41.733 -47.115  11.717  1.00  0.00     0.331 C 
HETATM   27  O   UNL     1     -40.796 -47.069  12.517  1.00  0.00    -0.246 OA
ENDBRANCH  18  19
ENDBRANCH   1  18
TORSDOF 6
ENDMDL
MODEL 2
REMARK VINA RESULT:      -6.5      2.745      7.296
REMARK  6 active torsions:
REMARK  status: ('A' for Active; 'I' for Inactive)
REMARK    1  A    between atoms: N_7  and  C_8 
REMARK    2  A    between atoms: C_8  and  C_9 
REMARK       I    between atoms: C_9  and  N_11 
REMARK    3  A    between atoms: N_11  and  C_12 
REMARK    4  A    between atoms: C_12  and  C_13 
REMARK    5  A    between atoms: C_12  and  C_17 
REMARK    6  A    between atoms: C_13  and  C_14 
REMARK       I    between atoms: C_14  and  N_16 
ROOT
HETATM    1  C   UNL     1     -41.447 -50.937  12.584  1.00  0.00     0.236 C 
HETATM    2  O   UNL     1     -42.041 -50.404  13.517  1.00  0.00    -0.272 OA
HETATM    3  N   UNL     1     -40.367 -50.366  11.944  1.00  0.00    -0.354 N 
HETATM    4  H   UNL     1     -39.866 -50.928  11.265  1.00  0.00     0.162 HD
ENDROOT
BRANCH   3   5
HETATM    5  C   UNL     1     -39.917 -48.986  12.136  1.00  0.00     0.097 C 
BRANCH   5   6
HETATM    6  C   UNL     1     -38.380 -49.002  12.268  1.00  0.00     0.128 C 
BRANCH   6   7
HETATM    7  C   UNL     1     -37.717 -50.178  11.588  1.00  0.00     0.217 C 
HETATM    8  O   UNL     1     -37.539 -51.258  12.137  1.00  0.00    -0.274 OA
HETATM    9  N   UNL     1     -37.331 -49.974  10.298  1.00  0.00    -0.370 N 
HETATM   10  H   UNL     1     -37.257 -49.049   9.894  1.00  0.00     0.159 HD
HETATM   11  H   UNL     1     -36.818 -50.726   9.855  1.00  0.00     0.159 HD
ENDBRANCH   6   7
ENDBRANCH   5   6
BRANCH   5  12
HETATM   12  C   UNL     1     -40.427 -48.035  11.000  1.00  0.00     0.009 C 
HETATM   13  C   UNL     1     -40.015 -46.552  11.156  1.00  0.00     0.007 C 
HETATM   14  C   UNL     1     -41.008 -45.626  11.865  1.00  0.00     0.000 C 
HETATM   15  C   UNL     1     -42.463 -45.876  11.494  1.00  0.00     0.000 C 
HETATM   16  C   UNL     1     -42.819 -47.349  11.605  1.00  0.00     0.000 C 
HETATM   17  C   UNL     1     -41.927 -48.168  10.683  1.00  0.00     0.007 C 
ENDBRANCH   5  12
ENDBRANCH   3   5
BRANCH   1  18
HETATM   18  C   UNL     1     -41.888 -52.273  11.966  1.00  0.00     0.235 C 
BRANCH  18  19
HETATM   19  N   UNL     1     -42.283 -53.261  12.964  1.00  0.00    -0.301 N 
HETATM   20  C   UNL     1     -41.351 -53.726  13.862  1.00  0.00     0.102 C 
HETATM   21  C   UNL     1     -41.684 -54.575  14.831  1.00  0.00     0.092 C 
HETATM   22  C   UNL     1     -43.070 -55.050  14.936  1.00  0.00     0.252 C 
HETATM   23  N   UNL     1     -43.926 -54.650  13.924  1.00  0.00    -0.271 N 
HETATM   24  O   UNL     1     -43.385 -55.758  15.889  1.00  0.00    -0.268 OA
HETATM   25  C   UNL     1     -45.274 -55.180  13.905  1.00  0.00     0.164 C 
HETATM   26  C   UNL     1     -43.604 -53.699  12.959  1.00  0.00     0.331 C 
HETATM   27  O   UNL     1     -44.432 -53.255  12.160  1.00  0.00    -0.246 OA
ENDBRANCH  18  19
ENDBRANCH   1  18
TORSDOF 6
ENDMDL
MODEL 3
REMARK VINA RESULT:      -6.2      3.250      7.143
REMARK  6 active torsions:
REMARK  status: ('A' for Active; 'I' for Inactive)
REMARK    1  A    between atoms: N_7  and  C_8 
REMARK    2  A    between atoms: C_8  and  C_9 
REMARK       I    between atoms: C_9  and  N_11 
REMARK    3  A    between atoms: N_11  and  C_12 
REMARK    4  A    between atoms: C_12  and  C_13 
REMARK    5  A    between atoms: C_12  and  C_17 
REMARK    6  A    between atoms: C_13  and  C_14 
REMARK       I    between atoms: C_14  and  N_16 
ROOT
HETATM    1  C   UNL     1     -39.425 -52.619  14.192  1.00  0.00     0.236 C 
HETATM    2  O   UNL     1     -39.035 -52.588  15.355  1.00  0.00    -0.272 OA
HETATM    3  N   UNL     1     -39.427 -51.518  13.360  1.00  0.00    -0.354 N 
HETATM    4  H   UNL     1     -39.652 -51.661  12.383  1.00  0.00     0.162 HD
ENDROOT
BRANCH   3   5
HETATM    5  C   UNL     1     -39.173 -50.144  13.796  1.00  0.00     0.097 C 
BRANCH   5   6
HETATM    6  C   UNL     1     -37.913 -49.639  13.063  1.00  0.00     0.128 C 
BRANCH   6   7
HETATM    7  C   UNL     1     -37.451 -50.541  11.941  1.00  0.00     0.217 C 
HETATM    8  O   UNL     1     -36.883 -51.610  12.131  1.00  0.00    -0.274 OA
HETATM    9  N   UNL     1     -37.717 -50.100  10.681  1.00  0.00    -0.370 N 
HETATM   10  H   UNL     1     -37.974 -49.141  10.485  1.00  0.00     0.159 HD
HETATM   11  H   UNL     1     -37.347 -50.655   9.920  1.00  0.00     0.159 HD
ENDBRANCH   6   7
ENDBRANCH   5   6
BRANCH   5  12
HETATM   12  C   UNL     1     -40.419 -49.218  13.584  1.00  0.00     0.009 C 
HETATM   13  C   UNL     1     -41.350 -49.632  12.420  1.00  0.00     0.007 C 
HETATM   14  C   UNL     1     -41.097 -48.976  11.060  1.00  0.00     0.000 C 
HETATM   15  C   UNL     1     -40.752 -47.495  11.139  1.00  0.00     0.000 C 
HETATM   16  C   UNL     1     -39.652 -47.235  12.154  1.00  0.00     0.000 C 
HETATM   17  C   UNL     1     -40.093 -47.715  13.531  1.00  0.00     0.007 C 
ENDBRANCH   5  12
ENDBRANCH   3   5
BRANCH   1  18
HETATM   18  C   UNL     1     -40.031 -53.874  13.545  1.00  0.00     0.235 C 
BRANCH  18  19
HETATM   19  N   UNL     1     -41.402 -54.132  13.973  1.00  0.00    -0.301 N 
HETATM   20  C   UNL     1     -41.629 -54.894  15.093  1.00  0.00     0.102 C 
HETATM   21  C   UNL     1     -42.859 -55.097  15.558  1.00  0.00     0.092 C 
HETATM   22  C   UNL     1     -44.008 -54.516  14.849  1.00  0.00     0.252 C 
HETATM   23  N   UNL     1     -43.722 -53.874  13.657  1.00  0.00    -0.271 N 
HETATM   24  O   UNL     1     -45.128 -54.631  15.339  1.00  0.00    -0.268 OA
HETATM   25  C   UNL     1     -44.822 -53.384  12.851  1.00  0.00     0.164 C 
HETATM   26  C   UNL     1     -42.433 -53.589  13.212  1.00  0.00     0.331 C 
HETATM   27  O   UNL     1     -42.210 -52.889  12.222  1.00  0.00    -0.246 OA
ENDBRANCH  18  19
ENDBRANCH   1  18
TORSDOF 6
ENDMDL
MODEL 4
REMARK VINA RESULT:      -6.2      1.864      3.525
REMARK  6 active torsions:
REMARK  status: ('A' for Active; 'I' for Inactive)
REMARK    1  A    between atoms: N_7  and  C_8 
REMARK    2  A    between atoms: C_8  and  C_9 
REMARK       I    between atoms: C_9  and  N_11 
REMARK    3  A    between atoms: N_11  and  C_12 
REMARK    4  A    between atoms: C_12  and  C_13 
REMARK    5  A    between atoms: C_12  and  C_17 
REMARK    6  A    between atoms: C_13  and  C_14 
REMARK       I    between atoms: C_14  and  N_16 
ROOT
HETATM    1  C   UNL     1     -41.953 -50.208  12.435  1.00  0.00     0.236 C 
HETATM    2  O   UNL     1     -42.155 -49.603  13.484  1.00  0.00    -0.272 OA
HETATM    3  N   UNL     1     -42.466 -51.460  12.169  1.00  0.00    -0.354 N 
HETATM    4  H   UNL     1     -42.349 -51.833  11.233  1.00  0.00     0.162 HD
ENDROOT
BRANCH   3   5
HETATM    5  C   UNL     1     -43.130 -52.317  13.154  1.00  0.00     0.097 C 
BRANCH   5   6
HETATM    6  C   UNL     1     -44.647 -52.264  12.883  1.00  0.00     0.128 C 
BRANCH   6   7
HETATM    7  C   UNL     1     -45.425 -51.454  13.895  1.00  0.00     0.217 C 
HETATM    8  O   UNL     1     -46.649 -51.394  13.909  1.00  0.00    -0.274 OA
HETATM    9  N   UNL     1     -44.678 -50.789  14.819  1.00  0.00    -0.370 N 
HETATM   10  H   UNL     1     -43.685 -50.634  14.703  1.00  0.00     0.159 HD
HETATM   11  H   UNL     1     -45.180 -50.182  15.455  1.00  0.00     0.159 HD
ENDBRANCH   6   7
ENDBRANCH   5   6
BRANCH   5  12
HETATM   12  C   UNL     1     -42.556 -53.774  13.150  1.00  0.00     0.009 C 
HETATM   13  C   UNL     1     -42.884 -54.609  14.410  1.00  0.00     0.007 C 
HETATM   14  C   UNL     1     -41.849 -54.603  15.538  1.00  0.00     0.000 C 
HETATM   15  C   UNL     1     -40.406 -54.668  15.057  1.00  0.00     0.000 C 
HETATM   16  C   UNL     1     -40.135 -53.635  13.976  1.00  0.00     0.000 C 
HETATM   17  C   UNL     1     -41.062 -53.870  12.791  1.00  0.00     0.007 C 
ENDBRANCH   5  12
ENDBRANCH   3   5
BRANCH   1  18
HETATM   18  C   UNL     1     -41.039 -49.673  11.323  1.00  0.00     0.235 C 
BRANCH  18  19
HETATM   19  N   UNL     1     -41.338 -48.294  10.951  1.00  0.00    -0.301 N 
HETATM   20  C   UNL     1     -42.494 -48.014  10.264  1.00  0.00     0.102 C 
HETATM   21  C   UNL     1     -42.841 -46.765   9.965  1.00  0.00     0.092 C 
HETATM   22  C   UNL     1     -41.959 -45.655  10.354  1.00  0.00     0.252 C 
HETATM   23  N   UNL     1     -40.749 -46.013  10.923  1.00  0.00    -0.271 N 
HETATM   24  O   UNL     1     -42.334 -44.502  10.157  1.00  0.00    -0.268 OA
HETATM   25  C   UNL     1     -39.786 -44.972  11.220  1.00  0.00     0.164 C 
HETATM   26  C   UNL     1     -40.421 -47.310  11.311  1.00  0.00     0.331 C 
HETATM   27  O   UNL     1     -39.399 -47.577  11.947  1.00  0.00    -0.246 OA
ENDBRANCH  18  19
ENDBRANCH   1  18
TORSDOF 6
ENDMDL
MODEL 5
REMARK VINA RESULT:      -6.0      3.252      3.951
REMARK  6 active torsions:
REMARK  status: ('A' for Active; 'I' for Inactive)
REMARK    1  A    between atoms: N_7  and  C_8 
REMARK    2  A    between atoms: C_8  and  C_9 
REMARK       I    between atoms: C_9  and  N_11 
REMARK    3  A    between atoms: N_11  and  C_12 
REMARK    4  A    between atoms: C_12  and  C_13 
REMARK    5  A    between atoms: C_12  and  C_17 
REMARK    6  A    between atoms: C_13  and  C_14 
REMARK       I    between atoms: C_14  and  N_16 
ROOT
HETATM    1  C   UNL     1     -41.196 -52.582  12.548  1.00  0.00     0.236 C 
HETATM    2  O   UNL     1     -40.365 -53.477  12.664  1.00  0.00    -0.272 OA
HETATM    3  N   UNL     1     -42.496 -52.688  12.997  1.00  0.00    -0.354 N 
HETATM    4  H   UNL     1     -43.079 -51.859  12.968  1.00  0.00     0.162 HD
ENDROOT
BRANCH   3   5
HETATM    5  C   UNL     1     -43.116 -53.927  13.471  1.00  0.00     0.097 C 
BRANCH   5   6
HETATM    6  C   UNL     1     -43.018 -53.947  15.011  1.00  0.00     0.128 C 
BRANCH   6   7
HETATM    7  C   UNL     1     -42.157 -55.063  15.558  1.00  0.00     0.217 C 
HETATM    8  O   UNL     1     -42.617 -56.085  16.052  1.00  0.00    -0.274 OA
HETATM    9  N   UNL     1     -40.812 -54.875  15.458  1.00  0.00    -0.370 N 
HETATM   10  H   UNL     1     -40.404 -53.968  15.269  1.00  0.00     0.159 HD
HETATM   11  H   UNL     1     -40.223 -55.577  15.888  1.00  0.00     0.159 HD
ENDBRANCH   6   7
ENDBRANCH   5   6
BRANCH   5  12
HETATM   12  C   UNL     1     -44.583 -54.091  12.948  1.00  0.00     0.009 C 
HETATM   13  C   UNL     1     -45.327 -52.765  12.663  1.00  0.00     0.007 C 
HETATM   14  C   UNL     1     -46.190 -52.195  13.792  1.00  0.00     0.000 C 
HETATM   15  C   UNL     1     -46.977 -53.247  14.563  1.00  0.00     0.000 C 
HETATM   16  C   UNL     1     -46.087 -54.398  14.998  1.00  0.00     0.000 C 
HETATM   17  C   UNL     1     -45.452 -55.052  13.778  1.00  0.00     0.007 C 
ENDBRANCH   5  12
ENDBRANCH   3   5
BRANCH   1  18
HETATM   18  C   UNL     1     -40.909 -51.262  11.817  1.00  0.00     0.235 C 
BRANCH  18  19
HETATM   19  N   UNL     1     -39.936 -50.424  12.511  1.00  0.00    -0.301 N 
HETATM   20  C   UNL     1     -38.641 -50.370  12.053  1.00  0.00     0.102 C 
HETATM   21  C   UNL     1     -37.739 -49.568  12.613  1.00  0.00     0.092 C 
HETATM   22  C   UNL     1     -38.122 -48.735  13.762  1.00  0.00     0.252 C 
HETATM   23  N   UNL     1     -39.400 -48.936  14.256  1.00  0.00    -0.271 N 
HETATM   24  O   UNL     1     -37.309 -47.931  14.209  1.00  0.00    -0.268 OA
HETATM   25  C   UNL     1     -39.797 -48.233  15.460  1.00  0.00     0.164 C 
HETATM   26  C   UNL     1     -40.369 -49.711  13.625  1.00  0.00     0.331 C 
HETATM   27  O   UNL     1     -41.541 -49.754  14.008  1.00  0.00    -0.246 OA
ENDBRANCH  18  19
ENDBRANCH   1  18
TORSDOF 6
ENDMDL
MODEL 6
REMARK VINA RESULT:      -6.0      1.448      2.403
REMARK  6 active torsions:
REMARK  status: ('A' for Active; 'I' for Inactive)
REMARK    1  A    between atoms: N_7  and  C_8 
REMARK    2  A    between atoms: C_8  and  C_9 
REMARK       I    between atoms: C_9  and  N_11 
REMARK    3  A    between atoms: N_11  and  C_12 
REMARK    4  A    between atoms: C_12  and  C_13 
REMARK    5  A    between atoms: C_12  and  C_17 
REMARK    6  A    between atoms: C_13  and  C_14 
REMARK       I    between atoms: C_14  and  N_16 
ROOT
HETATM    1  C   UNL     1     -42.539 -50.277  12.606  1.00  0.00     0.236 C 
HETATM    2  O   UNL     1     -41.654 -50.402  11.764  1.00  0.00    -0.272 OA
HETATM    3  N   UNL     1     -43.277 -51.333  13.097  1.00  0.00    -0.354 N 
HETATM    4  H   UNL     1     -43.902 -51.155  13.875  1.00  0.00     0.162 HD
ENDROOT
BRANCH   3   5
HETATM    5  C   UNL     1     -43.262 -52.689  12.545  1.00  0.00     0.097 C 
BRANCH   5   6
HETATM    6  C   UNL     1     -42.241 -53.518  13.353  1.00  0.00     0.128 C 
BRANCH   6   7
HETATM    7  C   UNL     1     -40.886 -53.637  12.694  1.00  0.00     0.217 C 
HETATM    8  O   UNL     1     -39.892 -54.058  13.274  1.00  0.00    -0.274 OA
HETATM    9  N   UNL     1     -40.829 -53.257  11.388  1.00  0.00    -0.370 N 
HETATM   10  H   UNL     1     -41.556 -52.704  10.952  1.00  0.00     0.159 HD
HETATM   11  H   UNL     1     -39.914 -53.258  10.956  1.00  0.00     0.159 HD
ENDBRANCH   6   7
ENDBRANCH   5   6
BRANCH   5  12
HETATM   12  C   UNL     1     -44.690 -53.332  12.518  1.00  0.00     0.009 C 
HETATM   13  C   UNL     1     -45.860 -52.322  12.440  1.00  0.00     0.007 C 
HETATM   14  C   UNL     1     -46.489 -51.882  13.764  1.00  0.00     0.000 C 
HETATM   15  C   UNL     1     -46.650 -53.006  14.779  1.00  0.00     0.000 C 
HETATM   16  C   UNL     1     -45.359 -53.789  14.949  1.00  0.00     0.000 C 
HETATM   17  C   UNL     1     -44.936 -54.386  13.613  1.00  0.00     0.007 C 
ENDBRANCH   5  12
ENDBRANCH   3   5
BRANCH   1  18
HETATM   18  C   UNL     1     -42.981 -48.913  13.157  1.00  0.00     0.235 C 
BRANCH  18  19
HETATM   19  N   UNL     1     -41.875 -47.976  13.321  1.00  0.00    -0.301 N 
HETATM   20  C   UNL     1     -41.005 -48.134  14.372  1.00  0.00     0.102 C 
HETATM   21  C   UNL     1     -39.943 -47.346  14.521  1.00  0.00     0.092 C 
HETATM   22  C   UNL     1     -39.703 -46.264  13.556  1.00  0.00     0.252 C 
HETATM   23  N   UNL     1     -40.686 -46.074  12.601  1.00  0.00    -0.271 N 
HETATM   24  O   UNL     1     -38.671 -45.604  13.649  1.00  0.00    -0.268 OA
HETATM   25  C   UNL     1     -40.567 -44.949  11.695  1.00  0.00     0.164 C 
HETATM   26  C   UNL     1     -41.752 -46.946  12.393  1.00  0.00     0.331 C 
HETATM   27  O   UNL     1     -42.530 -46.833  11.442  1.00  0.00    -0.246 OA
ENDBRANCH  18  19
ENDBRANCH   1  18
TORSDOF 6
ENDMDL
MODEL 7
REMARK VINA RESULT:      -6.0      3.910      7.201
REMARK  6 active torsions:
REMARK  status: ('A' for Active; 'I' for Inactive)
REMARK    1  A    between atoms: N_7  and  C_8 
REMARK    2  A    between atoms: C_8  and  C_9 
REMARK       I    between atoms: C_9  and  N_11 
REMARK    3  A    between atoms: N_11  and  C_12 
REMARK    4  A    between atoms: C_12  and  C_13 
REMARK    5  A    between atoms: C_12  and  C_17 
REMARK    6  A    between atoms: C_13  and  C_14 
REMARK       I    between atoms: C_14  and  N_16 
ROOT
HETATM    1  C   UNL     1     -40.513 -52.465  12.701  1.00  0.00     0.236 C 
HETATM    2  O   UNL     1     -40.101 -53.590  12.969  1.00  0.00    -0.272 OA
HETATM    3  N   UNL     1     -39.769 -51.318  12.886  1.00  0.00    -0.354 N 
HETATM    4  H   UNL     1     -40.142 -50.447  12.527  1.00  0.00     0.162 HD
ENDROOT
BRANCH   3   5
HETATM    5  C   UNL     1     -38.497 -51.257  13.609  1.00  0.00     0.097 C 
BRANCH   5   6
HETATM    6  C   UNL     1     -37.400 -50.851  12.604  1.00  0.00     0.128 C 
BRANCH   6   7
HETATM    7  C   UNL     1     -37.878 -49.919  11.513  1.00  0.00     0.217 C 
HETATM    8  O   UNL     1     -38.636 -48.979  11.719  1.00  0.00    -0.274 OA
HETATM    9  N   UNL     1     -37.402 -50.177  10.264  1.00  0.00    -0.370 N 
HETATM   10  H   UNL     1     -36.966 -51.058  10.022  1.00  0.00     0.159 HD
HETATM   11  H   UNL     1     -37.772 -49.610   9.512  1.00  0.00     0.159 HD
ENDBRANCH   6   7
ENDBRANCH   5   6
BRANCH   5  12
HETATM   12  C   UNL     1     -38.571 -50.309  14.854  1.00  0.00     0.009 C 
HETATM   13  C   UNL     1     -37.289 -49.486  15.125  1.00  0.00     0.007 C 
HETATM   14  C   UNL     1     -36.274 -50.081  16.104  1.00  0.00     0.000 C 
HETATM   15  C   UNL     1     -36.902 -50.750  17.319  1.00  0.00     0.000 C 
HETATM   16  C   UNL     1     -37.998 -51.721  16.913  1.00  0.00     0.000 C 
HETATM   17  C   UNL     1     -39.083 -50.983  16.139  1.00  0.00     0.007 C 
ENDBRANCH   5  12
ENDBRANCH   3   5
BRANCH   1  18
HETATM   18  C   UNL     1     -41.939 -52.194  12.198  1.00  0.00     0.235 C 
BRANCH  18  19
HETATM   19  N   UNL     1     -42.967 -52.769  13.059  1.00  0.00    -0.301 N 
HETATM   20  C   UNL     1     -43.733 -53.811  12.594  1.00  0.00     0.102 C 
HETATM   21  C   UNL     1     -44.634 -54.410  13.368  1.00  0.00     0.092 C 
HETATM   22  C   UNL     1     -44.838 -53.937  14.745  1.00  0.00     0.252 C 
HETATM   23  N   UNL     1     -44.133 -52.802  15.106  1.00  0.00    -0.271 N 
HETATM   24  O   UNL     1     -45.604 -54.557  15.478  1.00  0.00    -0.268 OA
HETATM   25  C   UNL     1     -44.380 -52.216  16.408  1.00  0.00     0.164 C 
HETATM   26  C   UNL     1     -43.132 -52.224  14.329  1.00  0.00     0.331 C 
HETATM   27  O   UNL     1     -42.420 -51.304  14.738  1.00  0.00    -0.246 OA
ENDBRANCH  18  19
ENDBRANCH   1  18
TORSDOF 6
ENDMDL
MODEL 8
REMARK VINA RESULT:      -6.0      2.687      4.639
REMARK  6 active torsions:
REMARK  status: ('A' for Active; 'I' for Inactive)
REMARK    1  A    between atoms: N_7  and  C_8 
REMARK    2  A    between atoms: C_8  and  C_9 
REMARK       I    between atoms: C_9  and  N_11 
REMARK    3  A    between atoms: N_11  and  C_12 
REMARK    4  A    between atoms: C_12  and  C_13 
REMARK    5  A    between atoms: C_12  and  C_17 
REMARK    6  A    between atoms: C_13  and  C_14 
REMARK       I    between atoms: C_14  and  N_16 
ROOT
HETATM    1  C   UNL     1     -43.279 -50.054  13.151  1.00  0.00     0.236 C 
HETATM    2  O   UNL     1     -43.684 -49.869  14.295  1.00  0.00    -0.272 OA
HETATM    3  N   UNL     1     -43.329 -51.277  12.514  1.00  0.00    -0.354 N 
HETATM    4  H   UNL     1     -43.084 -51.310  11.532  1.00  0.00     0.162 HD
ENDROOT
BRANCH   3   5
HETATM    5  C   UNL     1     -43.666 -52.543  13.166  1.00  0.00     0.097 C 
BRANCH   5   6
HETATM    6  C   UNL     1     -44.937 -53.100  12.492  1.00  0.00     0.128 C 
BRANCH   6   7
HETATM    7  C   UNL     1     -46.134 -52.182  12.582  1.00  0.00     0.217 C 
HETATM    8  O   UNL     1     -46.412 -51.537  13.586  1.00  0.00    -0.274 OA
HETATM    9  N   UNL     1     -46.898 -52.095  11.458  1.00  0.00    -0.370 N 
HETATM   10  H   UNL     1     -46.832 -52.768  10.705  1.00  0.00     0.159 HD
HETATM   11  H   UNL     1     -47.745 -51.544  11.527  1.00  0.00     0.159 HD
ENDBRANCH   6   7
ENDBRANCH   5   6
BRANCH   5  12
HETATM   12  C   UNL     1     -42.469 -53.553  13.149  1.00  0.00     0.009 C 
HETATM   13  C   UNL     1     -42.437 -54.550  14.331  1.00  0.00     0.007 C 
HETATM   14  C   UNL     1     -41.601 -54.156  15.551  1.00  0.00     0.000 C 
HETATM   15  C   UNL     1     -40.275 -53.492  15.207  1.00  0.00     0.000 C 
HETATM   16  C   UNL     1     -40.462 -52.364  14.207  1.00  0.00     0.000 C 
HETATM   17  C   UNL     1     -41.091 -52.904  12.929  1.00  0.00     0.007 C 
ENDBRANCH   5  12
ENDBRANCH   3   5
BRANCH   1  18
HETATM   18  C   UNL     1     -42.594 -48.959  12.319  1.00  0.00     0.235 C 
BRANCH  18  19
HETATM   19  N   UNL     1     -41.200 -48.745  12.693  1.00  0.00    -0.301 N 
HETATM   20  C   UNL     1     -40.903 -47.930  13.759  1.00  0.00     0.102 C 
HETATM   21  C   UNL     1     -39.651 -47.762  14.176  1.00  0.00     0.092 C 
HETATM   22  C   UNL     1     -38.553 -48.439  13.472  1.00  0.00     0.252 C 
HETATM   23  N   UNL     1     -38.906 -49.135  12.328  1.00  0.00    -0.271 N 
HETATM   24  O   UNL     1     -37.414 -48.352  13.923  1.00  0.00    -0.268 OA
HETATM   25  C   UNL     1     -37.855 -49.726  11.523  1.00  0.00     0.164 C 
HETATM   26  C   UNL     1     -40.219 -49.382  11.937  1.00  0.00     0.331 C 
HETATM   27  O   UNL     1     -40.506 -50.127  10.997  1.00  0.00    -0.246 OA
ENDBRANCH  18  19
ENDBRANCH   1  18
TORSDOF 6
ENDMDL
MODEL 9
REMARK VINA RESULT:      -6.0      4.009      7.892
REMARK  6 active torsions:
REMARK  status: ('A' for Active; 'I' for Inactive)
REMARK    1  A    between atoms: N_7  and  C_8 
REMARK    2  A    between atoms: C_8  and  C_9 
REMARK       I    between atoms: C_9  and  N_11 
REMARK    3  A    between atoms: N_11  and  C_12 
REMARK    4  A    between atoms: C_12  and  C_13 
REMARK    5  A    between atoms: C_12  and  C_17 
REMARK    6  A    between atoms: C_13  and  C_14 
REMARK       I    between atoms: C_14  and  N_16 
ROOT
HETATM    1  C   UNL     1     -42.158 -53.884  15.719  1.00  0.00     0.236 C 
HETATM    2  O   UNL     1     -42.175 -53.059  16.628  1.00  0.00    -0.272 OA
HETATM    3  N   UNL     1     -42.424 -53.569  14.402  1.00  0.00    -0.354 N 
HETATM    4  H   UNL     1     -42.270 -54.286  13.703  1.00  0.00     0.162 HD
ENDROOT
BRANCH   3   5
HETATM    5  C   UNL     1     -42.958 -52.286  13.943  1.00  0.00     0.097 C 
BRANCH   5   6
HETATM    6  C   UNL     1     -41.847 -51.566  13.150  1.00  0.00     0.128 C 
BRANCH   6   7
HETATM    7  C   UNL     1     -40.940 -52.497  12.379  1.00  0.00     0.217 C 
HETATM    8  O   UNL     1     -39.962 -53.044  12.874  1.00  0.00    -0.274 OA
HETATM    9  N   UNL     1     -41.281 -52.712  11.078  1.00  0.00    -0.370 N 
HETATM   10  H   UNL     1     -41.933 -52.116  10.583  1.00  0.00     0.159 HD
HETATM   11  H   UNL     1     -40.641 -53.272  10.529  1.00  0.00     0.159 HD
ENDBRANCH   6   7
ENDBRANCH   5   6
BRANCH   5  12
HETATM   12  C   UNL     1     -44.283 -52.458  13.124  1.00  0.00     0.009 C 
HETATM   13  C   UNL     1     -45.297 -51.299  13.272  1.00  0.00     0.007 C 
HETATM   14  C   UNL     1     -46.378 -51.453  14.345  1.00  0.00     0.000 C 
HETATM   15  C   UNL     1     -46.956 -52.859  14.447  1.00  0.00     0.000 C 
HETATM   16  C   UNL     1     -45.858 -53.905  14.533  1.00  0.00     0.000 C 
HETATM   17  C   UNL     1     -44.968 -53.825  13.301  1.00  0.00     0.007 C 
ENDBRANCH   5  12
ENDBRANCH   3   5
BRANCH   1  18
HETATM   18  C   UNL     1     -41.915 -55.382  15.953  1.00  0.00     0.235 C 
BRANCH  18  19
HETATM   19  N   UNL     1     -40.546 -55.683  16.356  1.00  0.00    -0.301 N 
HETATM   20  C   UNL     1     -39.501 -55.255  15.573  1.00  0.00     0.102 C 
HETATM   21  C   UNL     1     -38.235 -55.447  15.938  1.00  0.00     0.092 C 
HETATM   22  C   UNL     1     -37.941 -56.153  17.192  1.00  0.00     0.252 C 
HETATM   23  N   UNL     1     -39.033 -56.675  17.864  1.00  0.00    -0.271 N 
HETATM   24  O   UNL     1     -36.774 -56.242  17.564  1.00  0.00    -0.268 OA
HETATM   25  C   UNL     1     -38.800 -57.485  19.044  1.00  0.00     0.164 C 
HETATM   26  C   UNL     1     -40.358 -56.406  17.531  1.00  0.00     0.331 C 
HETATM   27  O   UNL     1     -41.307 -56.763  18.232  1.00  0.00    -0.246 OA
ENDBRANCH  18  19
ENDBRANCH   1  18
TORSDOF 6
ENDMDL
