MODEL 1
REMARK VINA RESULT:      -5.7      0.000      0.000
REMARK  4 active torsions:
REMARK  status: ('A' for Active; 'I' for Inactive)
REMARK    1  A    between atoms: C_7  and  C_8 
REMARK    2  A    between atoms: C_8  and  C_9 
REMARK    3  A    between atoms: C_9  and  N_10 
REMARK       I    between atoms: N_10  and  C_11 
REMARK    4  A    between atoms: C_11  and  C_13 
ROOT
HETATM    1  N   UNL     1     -42.619 -52.468  11.877  1.00  0.00    -0.360 N 
HETATM    2  C   UNL     1     -43.078 -53.440  12.745  1.00  0.00     0.222 C 
HETATM    3  O   UNL     1     -42.301 -54.201  13.321  1.00  0.00    -0.273 OA
HETATM    4  H   UNL     1     -43.213 -51.670  11.660  1.00  0.00     0.162 HD
ENDROOT
BRANCH   1   5
HETATM    5  C   UNL     1     -41.189 -52.244  11.715  1.00  0.00     0.130 C 
BRANCH   5   6
HETATM    6  C   UNL     1     -40.683 -50.905  12.263  1.00  0.00     0.096 C 
BRANCH   6   7
HETATM    7  C   UNL     1     -41.340 -49.719  11.629  1.00  0.00     0.084 A 
HETATM    8  N   UNL     1     -42.318 -48.955  12.232  1.00  0.00    -0.350 N 
HETATM    9  C   UNL     1     -42.902 -49.147  13.538  1.00  0.00     0.156 C 
HETATM   10  C   UNL     1     -42.646 -47.941  11.374  1.00  0.00     0.108 A 
HETATM   11  C   UNL     1     -41.843 -48.126  10.276  1.00  0.00     0.106 A 
HETATM   12  N   UNL     1     -41.041 -49.224  10.441  1.00  0.00    -0.354 N 
ATOM     13  HN  UNL     1     -40.353 -49.586   9.781  1.00  0.00     0.166 HD
ENDBRANCH   6   7
ENDBRANCH   5   6
ENDBRANCH   1   5
BRANCH   2  14
HETATM   14  C   UNL     1     -44.596 -53.492  12.982  1.00  0.00     0.081 C 
HETATM   15  C   UNL     1     -45.081 -52.104  13.458  1.00  0.00     0.018 C 
HETATM   16  C   UNL     1     -46.517 -52.045  13.981  1.00  0.00     0.027 C 
HETATM   17  C   UNL     1     -46.995 -53.304  14.634  1.00  0.00    -0.031 C 
HETATM   18  C   UNL     1     -46.299 -54.446  14.639  1.00  0.00    -0.030 C 
HETATM   19  C   UNL     1     -44.966 -54.607  13.972  1.00  0.00     0.041 C 
ENDBRANCH   2  14
TORSDOF 4
ENDMDL
MODEL 2
REMARK VINA RESULT:      -5.7      1.856      2.682
REMARK  4 active torsions:
REMARK  status: ('A' for Active; 'I' for Inactive)
REMARK    1  A    between atoms: C_7  and  C_8 
REMARK    2  A    between atoms: C_8  and  C_9 
REMARK    3  A    between atoms: C_9  and  N_10 
REMARK       I    between atoms: N_10  and  C_11 
REMARK    4  A    between atoms: C_11  and  C_13 
ROOT
HETATM    1  N   UNL     1     -42.722 -52.490  11.844  1.00  0.00    -0.360 N 
HETATM    2  C   UNL     1     -43.150 -53.411  12.781  1.00  0.00     0.222 C 
HETATM    3  O   UNL     1     -42.349 -54.103  13.409  1.00  0.00    -0.273 OA
HETATM    4  H   UNL     1     -43.342 -51.730  11.570  1.00  0.00     0.162 HD
ENDROOT
BRANCH   1   5
HETATM    5  C   UNL     1     -41.300 -52.233  11.663  1.00  0.00     0.130 C 
BRANCH   5   6
HETATM    6  C   UNL     1     -40.828 -50.860  12.155  1.00  0.00     0.096 C 
BRANCH   6   7
HETATM    7  C   UNL     1     -39.347 -50.672  12.054  1.00  0.00     0.084 A 
HETATM    8  N   UNL     1     -38.436 -51.150  12.974  1.00  0.00    -0.350 N 
HETATM    9  C   UNL     1     -38.715 -51.882  14.187  1.00  0.00     0.156 C 
HETATM   10  C   UNL     1     -37.183 -50.826  12.530  1.00  0.00     0.108 A 
HETATM   11  C   UNL     1     -37.382 -50.164  11.345  1.00  0.00     0.106 A 
HETATM   12  N   UNL     1     -38.719 -50.073  11.058  1.00  0.00    -0.354 N 
ATOM     13  HN  UNL     1     -39.143 -49.632  10.242  1.00  0.00     0.166 HD
ENDBRANCH   6   7
ENDBRANCH   5   6
ENDBRANCH   1   5
BRANCH   2  14
HETATM   14  C   UNL     1     -44.666 -53.494  13.023  1.00  0.00     0.081 C 
HETATM   15  C   UNL     1     -45.178 -52.115  13.497  1.00  0.00     0.018 C 
HETATM   16  C   UNL     1     -46.612 -52.085  14.026  1.00  0.00     0.027 C 
HETATM   17  C   UNL     1     -47.061 -53.351  14.685  1.00  0.00    -0.031 C 
HETATM   18  C   UNL     1     -46.341 -54.479  14.690  1.00  0.00    -0.030 C 
HETATM   19  C   UNL     1     -45.008 -54.614  14.019  1.00  0.00     0.041 C 
ENDBRANCH   2  14
TORSDOF 4
ENDMDL
MODEL 3
REMARK VINA RESULT:      -5.6      1.917      2.922
REMARK  4 active torsions:
REMARK  status: ('A' for Active; 'I' for Inactive)
REMARK    1  A    between atoms: C_7  and  C_8 
REMARK    2  A    between atoms: C_8  and  C_9 
REMARK    3  A    between atoms: C_9  and  N_10 
REMARK       I    between atoms: N_10  and  C_11 
REMARK    4  A    between atoms: C_11  and  C_13 
ROOT
HETATM    1  N   UNL     1     -42.290 -50.069  11.930  1.00  0.00    -0.360 N 
HETATM    2  C   UNL     1     -42.233 -51.405  12.277  1.00  0.00     0.222 C 
HETATM    3  O   UNL     1     -41.297 -52.119  11.916  1.00  0.00    -0.273 OA
HETATM    4  H   UNL     1     -42.873 -49.435  12.473  1.00  0.00     0.162 HD
ENDROOT
BRANCH   1   5
HETATM    5  C   UNL     1     -41.179 -49.444  11.224  1.00  0.00     0.130 C 
BRANCH   5   6
HETATM    6  C   UNL     1     -41.273 -47.920  11.100  1.00  0.00     0.096 C 
BRANCH   6   7
HETATM    7  C   UNL     1     -42.229 -47.471  10.039  1.00  0.00     0.084 A 
HETATM    8  N   UNL     1     -42.744 -46.194   9.943  1.00  0.00    -0.350 N 
HETATM    9  C   UNL     1     -42.493 -45.078  10.824  1.00  0.00     0.156 C 
HETATM   10  C   UNL     1     -43.542 -46.146   8.833  1.00  0.00     0.108 A 
HETATM   11  C   UNL     1     -43.476 -47.405   8.289  1.00  0.00     0.106 A 
HETATM   12  N   UNL     1     -42.665 -48.215   9.039  1.00  0.00    -0.354 N 
ATOM     13  HN  UNL     1     -42.443 -49.195   8.860  1.00  0.00     0.166 HD
ENDBRANCH   6   7
ENDBRANCH   5   6
ENDBRANCH   1   5
BRANCH   2  14
HETATM   14  C   UNL     1     -43.369 -51.936  13.165  1.00  0.00     0.081 C 
HETATM   15  C   UNL     1     -43.942 -53.225  12.534  1.00  0.00     0.018 C 
HETATM   16  C   UNL     1     -45.242 -53.745  13.149  1.00  0.00     0.027 C 
HETATM   17  C   UNL     1     -46.140 -52.683  13.701  1.00  0.00    -0.031 C 
HETATM   18  C   UNL     1     -45.791 -51.395  13.797  1.00  0.00    -0.030 C 
HETATM   19  C   UNL     1     -44.451 -50.866  13.382  1.00  0.00     0.041 C 
ENDBRANCH   2  14
TORSDOF 4
ENDMDL
MODEL 4
REMARK VINA RESULT:      -5.6      1.879      2.705
REMARK  4 active torsions:
REMARK  status: ('A' for Active; 'I' for Inactive)
REMARK    1  A    between atoms: C_7  and  C_8 
REMARK    2  A    between atoms: C_8  and  C_9 
REMARK    3  A    between atoms: C_9  and  N_10 
REMARK       I    between atoms: N_10  and  C_11 
REMARK    4  A    between atoms: C_11  and  C_13 
ROOT
HETATM    1  N   UNL     1     -41.259 -51.595  11.628  1.00  0.00    -0.360 N 
HETATM    2  C   UNL     1     -40.812 -52.619  12.439  1.00  0.00     0.222 C 
HETATM    3  O   UNL     1     -39.662 -52.629  12.880  1.00  0.00    -0.273 OA
HETATM    4  H   UNL     1     -42.260 -51.433  11.532  1.00  0.00     0.162 HD
ENDROOT
BRANCH   1   5
HETATM    5  C   UNL     1     -40.413 -50.437  11.371  1.00  0.00     0.130 C 
BRANCH   5   6
HETATM    6  C   UNL     1     -40.850 -49.152  12.083  1.00  0.00     0.096 C 
BRANCH   6   7
HETATM    7  C   UNL     1     -41.705 -48.265  11.233  1.00  0.00     0.084 A 
HETATM    8  N   UNL     1     -41.317 -47.029  10.758  1.00  0.00    -0.350 N 
HETATM    9  C   UNL     1     -40.063 -46.353  10.995  1.00  0.00     0.156 C 
HETATM   10  C   UNL     1     -42.335 -46.537   9.989  1.00  0.00     0.108 A 
HETATM   11  C   UNL     1     -43.308 -47.504  10.019  1.00  0.00     0.106 A 
HETATM   12  N   UNL     1     -42.912 -48.567  10.789  1.00  0.00    -0.354 N 
ATOM     13  HN  UNL     1     -43.443 -49.417  10.980  1.00  0.00     0.166 HD
ENDBRANCH   6   7
ENDBRANCH   5   6
ENDBRANCH   1   5
BRANCH   2  14
HETATM   14  C   UNL     1     -41.830 -53.715  12.792  1.00  0.00     0.081 C 
HETATM   15  C   UNL     1     -43.257 -53.180  12.531  1.00  0.00     0.018 C 
HETATM   16  C   UNL     1     -44.398 -54.046  13.066  1.00  0.00     0.027 C 
HETATM   17  C   UNL     1     -44.070 -54.816  14.306  1.00  0.00    -0.031 C 
HETATM   18  C   UNL     1     -42.843 -54.877  14.836  1.00  0.00    -0.030 C 
HETATM   19  C   UNL     1     -41.647 -54.198  14.239  1.00  0.00     0.041 C 
ENDBRANCH   2  14
TORSDOF 4
ENDMDL
MODEL 5
REMARK VINA RESULT:      -5.4      2.113      2.693
REMARK  4 active torsions:
REMARK  status: ('A' for Active; 'I' for Inactive)
REMARK    1  A    between atoms: C_7  and  C_8 
REMARK    2  A    between atoms: C_8  and  C_9 
REMARK    3  A    between atoms: C_9  and  N_10 
REMARK       I    between atoms: N_10  and  C_11 
REMARK    4  A    between atoms: C_11  and  C_13 
ROOT
HETATM    1  N   UNL     1     -40.191 -52.121  13.110  1.00  0.00    -0.360 N 
HETATM    2  C   UNL     1     -40.196 -53.482  13.345  1.00  0.00     0.222 C 
HETATM    3  O   UNL     1     -39.159 -54.087  13.622  1.00  0.00    -0.273 OA
HETATM    4  H   UNL     1     -41.059 -51.595  13.192  1.00  0.00     0.162 HD
ENDROOT
BRANCH   1   5
HETATM    5  C   UNL     1     -38.972 -51.346  13.304  1.00  0.00     0.130 C 
BRANCH   5   6
HETATM    6  C   UNL     1     -38.565 -50.480  12.106  1.00  0.00     0.096 C 
BRANCH   6   7
HETATM    7  C   UNL     1     -39.649 -49.554  11.650  1.00  0.00     0.084 A 
HETATM    8  N   UNL     1     -39.885 -48.305  12.188  1.00  0.00    -0.350 N 
HETATM    9  C   UNL     1     -39.177 -47.670  13.275  1.00  0.00     0.156 C 
HETATM   10  C   UNL     1     -40.919 -47.739  11.495  1.00  0.00     0.108 A 
HETATM   11  C   UNL     1     -41.269 -48.670  10.549  1.00  0.00     0.106 A 
HETATM   12  N   UNL     1     -40.482 -49.786  10.651  1.00  0.00    -0.354 N 
ATOM     13  HN  UNL     1     -40.529 -50.626  10.074  1.00  0.00     0.166 HD
ENDBRANCH   6   7
ENDBRANCH   5   6
ENDBRANCH   1   5
BRANCH   2  14
HETATM   14  C   UNL     1     -41.560 -54.188  13.281  1.00  0.00     0.081 C 
HETATM   15  C   UNL     1     -42.592 -53.233  12.641  1.00  0.00     0.018 C 
HETATM   16  C   UNL     1     -44.053 -53.677  12.731  1.00  0.00     0.027 C 
HETATM   17  C   UNL     1     -44.387 -54.483  13.946  1.00  0.00    -0.031 C 
HETATM   18  C   UNL     1     -43.471 -54.920  14.818  1.00  0.00    -0.030 C 
HETATM   19  C   UNL     1     -42.000 -54.672  14.671  1.00  0.00     0.041 C 
ENDBRANCH   2  14
TORSDOF 4
ENDMDL
MODEL 6
REMARK VINA RESULT:      -5.3      2.028      2.746
REMARK  4 active torsions:
REMARK  status: ('A' for Active; 'I' for Inactive)
REMARK    1  A    between atoms: C_7  and  C_8 
REMARK    2  A    between atoms: C_8  and  C_9 
REMARK    3  A    between atoms: C_9  and  N_10 
REMARK       I    between atoms: N_10  and  C_11 
REMARK    4  A    between atoms: C_11  and  C_13 
ROOT
HETATM    1  N   UNL     1     -41.869 -51.232  11.900  1.00  0.00    -0.360 N 
HETATM    2  C   UNL     1     -41.221 -52.368  12.344  1.00  0.00     0.222 C 
HETATM    3  O   UNL     1     -39.995 -52.401  12.455  1.00  0.00    -0.273 OA
HETATM    4  H   UNL     1     -42.859 -51.108  12.105  1.00  0.00     0.162 HD
ENDROOT
BRANCH   1   5
HETATM    5  C   UNL     1     -41.123 -50.003  11.666  1.00  0.00     0.130 C 
BRANCH   5   6
HETATM    6  C   UNL     1     -41.982 -48.736  11.583  1.00  0.00     0.096 C 
BRANCH   6   7
HETATM    7  C   UNL     1     -41.174 -47.480  11.484  1.00  0.00     0.084 A 
HETATM    8  N   UNL     1     -40.731 -46.750  12.569  1.00  0.00    -0.350 N 
HETATM    9  C   UNL     1     -40.966 -47.025  13.966  1.00  0.00     0.156 C 
HETATM   10  C   UNL     1     -39.995 -45.699  12.095  1.00  0.00     0.108 A 
HETATM   11  C   UNL     1     -40.013 -45.836  10.729  1.00  0.00     0.106 A 
HETATM   12  N   UNL     1     -40.742 -46.936  10.361  1.00  0.00    -0.354 N 
ATOM     13  HN  UNL     1     -40.915 -47.267   9.411  1.00  0.00     0.166 HD
ENDBRANCH   6   7
ENDBRANCH   5   6
ENDBRANCH   1   5
BRANCH   2  14
HETATM   14  C   UNL     1     -42.107 -53.564  12.727  1.00  0.00     0.081 C 
HETATM   15  C   UNL     1     -43.592 -53.158  12.581  1.00  0.00     0.018 C 
HETATM   16  C   UNL     1     -44.609 -54.141  13.162  1.00  0.00     0.027 C 
HETATM   17  C   UNL     1     -44.125 -54.912  14.350  1.00  0.00    -0.031 C 
HETATM   18  C   UNL     1     -42.863 -54.872  14.793  1.00  0.00    -0.030 C 
HETATM   19  C   UNL     1     -41.780 -54.068  14.140  1.00  0.00     0.041 C 
ENDBRANCH   2  14
TORSDOF 4
ENDMDL
MODEL 7
REMARK VINA RESULT:      -5.2      5.091      8.086
REMARK  4 active torsions:
REMARK  status: ('A' for Active; 'I' for Inactive)
REMARK    1  A    between atoms: C_7  and  C_8 
REMARK    2  A    between atoms: C_8  and  C_9 
REMARK    3  A    between atoms: C_9  and  N_10 
REMARK       I    between atoms: N_10  and  C_11 
REMARK    4  A    between atoms: C_11  and  C_13 
ROOT
HETATM    1  N   UNL     1     -40.761 -46.957  10.663  1.00  0.00    -0.360 N 
HETATM    2  C   UNL     1     -41.257 -45.699  10.385  1.00  0.00     0.222 C 
HETATM    3  O   UNL     1     -42.327 -45.549   9.795  1.00  0.00    -0.273 OA
HETATM    4  H   UNL     1     -40.066 -47.071  11.399  1.00  0.00     0.162 HD
ENDROOT
BRANCH   1   5
HETATM    5  C   UNL     1     -41.556 -48.142  10.368  1.00  0.00     0.130 C 
BRANCH   5   6
HETATM    6  C   UNL     1     -41.242 -49.360  11.244  1.00  0.00     0.096 C 
BRANCH   6   7
HETATM    7  C   UNL     1     -39.792 -49.477  11.598  1.00  0.00     0.084 A 
HETATM    8  N   UNL     1     -39.254 -49.104  12.813  1.00  0.00    -0.350 N 
HETATM    9  C   UNL     1     -39.947 -48.527  13.940  1.00  0.00     0.156 C 
HETATM   10  C   UNL     1     -37.917 -49.394  12.785  1.00  0.00     0.108 A 
HETATM   11  C   UNL     1     -37.694 -49.943  11.547  1.00  0.00     0.106 A 
HETATM   12  N   UNL     1     -38.855 -49.990  10.821  1.00  0.00    -0.354 N 
ATOM     13  HN  UNL     1     -38.971 -50.349   9.873  1.00  0.00     0.166 HD
ENDBRANCH   6   7
ENDBRANCH   5   6
ENDBRANCH   1   5
BRANCH   2  14
HETATM   14  C   UNL     1     -40.427 -44.505  10.883  1.00  0.00     0.081 C 
HETATM   15  C   UNL     1     -39.659 -44.922  12.158  1.00  0.00     0.018 C 
HETATM   16  C   UNL     1     -38.984 -43.785  12.928  1.00  0.00     0.027 C 
HETATM   17  C   UNL     1     -39.686 -42.467  12.838  1.00  0.00    -0.031 C 
HETATM   18  C   UNL     1     -40.733 -42.239  12.036  1.00  0.00    -0.030 C 
HETATM   19  C   UNL     1     -41.313 -43.271  11.117  1.00  0.00     0.041 C 
ENDBRANCH   2  14
TORSDOF 4
ENDMDL
MODEL 8
REMARK VINA RESULT:      -5.0      2.520      3.534
REMARK  4 active torsions:
REMARK  status: ('A' for Active; 'I' for Inactive)
REMARK    1  A    between atoms: C_7  and  C_8 
REMARK    2  A    between atoms: C_8  and  C_9 
REMARK    3  A    between atoms: C_9  and  N_10 
REMARK       I    between atoms: N_10  and  C_11 
REMARK    4  A    between atoms: C_11  and  C_13 
ROOT
HETATM    1  N   UNL     1     -41.797 -50.959  11.891  1.00  0.00    -0.360 N 
HETATM    2  C   UNL     1     -41.562 -52.225  12.390  1.00  0.00     0.222 C 
HETATM    3  O   UNL     1     -40.508 -52.818  12.156  1.00  0.00    -0.273 OA
HETATM    4  H   UNL     1     -42.503 -50.371  12.331  1.00  0.00     0.162 HD
ENDROOT
BRANCH   1   5
HETATM    5  C   UNL     1     -40.750 -50.245  11.173  1.00  0.00     0.130 C 
BRANCH   5   6
HETATM    6  C   UNL     1     -40.157 -49.048  11.925  1.00  0.00     0.096 C 
BRANCH   6   7
HETATM    7  C   UNL     1     -39.036 -49.423  12.844  1.00  0.00     0.084 A 
HETATM    8  N   UNL     1     -38.532 -48.603  13.833  1.00  0.00    -0.350 N 
HETATM    9  C   UNL     1     -38.950 -47.260  14.157  1.00  0.00     0.156 C 
HETATM   10  C   UNL     1     -37.552 -49.295  14.491  1.00  0.00     0.108 A 
HETATM   11  C   UNL     1     -37.504 -50.521  13.876  1.00  0.00     0.106 A 
HETATM   12  N   UNL     1     -38.421 -50.592  12.861  1.00  0.00    -0.354 N 
ATOM     13  HN  UNL     1     -38.594 -51.386  12.245  1.00  0.00     0.166 HD
ENDBRANCH   6   7
ENDBRANCH   5   6
ENDBRANCH   1   5
BRANCH   2  14
HETATM   14  C   UNL     1     -42.660 -52.832  13.278  1.00  0.00     0.081 C 
HETATM   15  C   UNL     1     -42.079 -54.044  14.041  1.00  0.00     0.018 C 
HETATM   16  C   UNL     1     -43.099 -54.918  14.773  1.00  0.00     0.027 C 
HETATM   17  C   UNL     1     -44.448 -54.976  14.130  1.00  0.00    -0.031 C 
HETATM   18  C   UNL     1     -44.804 -54.218  13.086  1.00  0.00    -0.030 C 
HETATM   19  C   UNL     1     -43.899 -53.206  12.450  1.00  0.00     0.041 C 
ENDBRANCH   2  14
TORSDOF 4
ENDMDL
MODEL 9
REMARK VINA RESULT:      -5.0      1.965      2.898
REMARK  4 active torsions:
REMARK  status: ('A' for Active; 'I' for Inactive)
REMARK    1  A    between atoms: C_7  and  C_8 
REMARK    2  A    between atoms: C_8  and  C_9 
REMARK    3  A    between atoms: C_9  and  N_10 
REMARK       I    between atoms: N_10  and  C_11 
REMARK    4  A    between atoms: C_11  and  C_13 
ROOT
HETATM    1  N   UNL     1     -42.847 -53.345  14.014  1.00  0.00    -0.360 N 
HETATM    2  C   UNL     1     -44.108 -53.285  13.454  1.00  0.00     0.222 C 
HETATM    3  O   UNL     1     -44.448 -54.061  12.560  1.00  0.00    -0.273 OA
HETATM    4  H   UNL     1     -42.686 -52.931  14.930  1.00  0.00     0.162 HD
ENDROOT
BRANCH   1   5
HETATM    5  C   UNL     1     -41.926 -54.411  13.641  1.00  0.00     0.130 C 
BRANCH   5   6
HETATM    6  C   UNL     1     -40.852 -54.006  12.625  1.00  0.00     0.096 C 
BRANCH   6   7
HETATM    7  C   UNL     1     -40.712 -52.523  12.473  1.00  0.00     0.084 A 
HETATM    8  N   UNL     1     -40.000 -51.714  13.335  1.00  0.00    -0.350 N 
HETATM    9  C   UNL     1     -39.291 -52.113  14.528  1.00  0.00     0.156 C 
HETATM   10  C   UNL     1     -40.060 -50.435  12.856  1.00  0.00     0.108 A 
HETATM   11  C   UNL     1     -40.806 -50.517  11.706  1.00  0.00     0.106 A 
HETATM   12  N   UNL     1     -41.205 -51.808  11.477  1.00  0.00    -0.354 N 
ATOM     13  HN  UNL     1     -41.767 -52.147  10.697  1.00  0.00     0.166 HD
ENDBRANCH   6   7
ENDBRANCH   5   6
ENDBRANCH   1   5
BRANCH   2  14
HETATM   14  C   UNL     1     -45.069 -52.232  14.029  1.00  0.00     0.081 C 
HETATM   15  C   UNL     1     -44.415 -51.575  15.266  1.00  0.00     0.018 C 
HETATM   16  C   UNL     1     -45.332 -50.688  16.109  1.00  0.00     0.027 C 
HETATM   17  C   UNL     1     -46.769 -51.105  16.117  1.00  0.00    -0.031 C 
HETATM   18  C   UNL     1     -47.262 -52.077  15.341  1.00  0.00    -0.030 C 
HETATM   19  C   UNL     1     -46.437 -52.849  14.356  1.00  0.00     0.041 C 
ENDBRANCH   2  14
TORSDOF 4
ENDMDL
