MODEL 1
REMARK VINA RESULT:      -5.9      0.000      0.000
REMARK  6 active torsions:
REMARK  status: ('A' for Active; 'I' for Inactive)
REMARK    1  A    between atoms: C_2  and  C_3 
REMARK    2  A    between atoms: C_2  and  N_11 
REMARK    3  A    between atoms: C_3  and  N_4 
REMARK    4  A    between atoms: N_11  and  C_12 
REMARK    5  A    between atoms: C_12  and  C_13 
REMARK    6  A    between atoms: C_13  and  O_14 
ROOT
HETATM    1  N   UNL     1     -40.262 -50.046  10.856  1.00  0.00     0.092 N 
HETATM    2  H   UNL     1     -39.593 -49.354  10.528  1.00  0.00     0.316 HD
ENDROOT
BRANCH   1   3
HETATM    3  C   UNL     1     -41.542 -49.374  11.209  1.00  0.00     0.236 C 
HETATM    4  C   UNL     1     -41.690 -49.255  12.733  1.00  0.00     0.044 C 
BRANCH   3   5
HETATM    5  C   UNL     1     -41.640 -47.954  10.609  1.00  0.00     0.183 C 
BRANCH   5   6
HETATM    6  N   UNL     1     -42.823 -47.738   9.800  1.00  0.00    -0.301 N 
HETATM    7  C   UNL     1     -44.068 -47.426  10.262  1.00  0.00     0.118 A 
HETATM    8  C   UNL     1     -44.901 -47.403   9.165  1.00  0.00    -0.028 A 
HETATM    9  C   UNL     1     -46.346 -47.100   9.120  1.00  0.00     0.051 C 
HETATM   10  C   UNL     1     -44.050 -47.742   8.087  1.00  0.00     0.115 A 
HETATM   11  N   UNL     1     -42.789 -47.959   8.472  1.00  0.00    -0.310 N 
ATOM     12  HN  UNL     1     -41.990 -48.227   7.897  1.00  0.00     0.186 HD
ENDBRANCH   5   6
ENDBRANCH   3   5
ENDBRANCH   1   3
BRANCH   1  13
HETATM   13  C   UNL     1     -39.687 -50.733  12.029  1.00  0.00     0.307 C 
BRANCH  13  14
HETATM   14  C   UNL     1     -38.154 -50.535  12.197  1.00  0.00     0.084 C 
HETATM   15  C   UNL     1     -37.579 -51.178  13.471  1.00  0.00     0.039 C 
HETATM   16  C   UNL     1     -38.060 -50.495  14.747  1.00  0.00     0.003 C 
HETATM   17  C   UNL     1     -37.821 -48.985  14.721  1.00  0.00     0.000 C 
HETATM   18  C   UNL     1     -38.336 -48.320  13.448  1.00  0.00     0.003 C 
HETATM   19  C   UNL     1     -37.825 -49.031  12.195  1.00  0.00     0.039 C 
BRANCH  14  20
HETATM   20  O   UNL     1     -37.502 -51.122  11.060  1.00  0.00    -0.388 OA
HETATM   21  H   UNL     1     -36.682 -50.616  10.928  1.00  0.00     0.210 HD
ENDBRANCH  14  20
ENDBRANCH  13  14
ENDBRANCH   1  13
TORSDOF 6
ENDMDL
MODEL 2
REMARK VINA RESULT:      -5.9      2.418      3.246
REMARK  6 active torsions:
REMARK  status: ('A' for Active; 'I' for Inactive)
REMARK    1  A    between atoms: C_2  and  C_3 
REMARK    2  A    between atoms: C_2  and  N_11 
REMARK    3  A    between atoms: C_3  and  N_4 
REMARK    4  A    between atoms: N_11  and  C_12 
REMARK    5  A    between atoms: C_12  and  C_13 
REMARK    6  A    between atoms: C_13  and  O_14 
ROOT
HETATM    1  N   UNL     1     -41.952 -50.444  11.653  1.00  0.00     0.092 N 
HETATM    2  H   UNL     1     -41.730 -50.633  10.679  1.00  0.00     0.316 HD
ENDROOT
BRANCH   1   3
HETATM    3  C   UNL     1     -41.914 -48.976  11.898  1.00  0.00     0.236 C 
HETATM    4  C   UNL     1     -40.845 -48.629  12.944  1.00  0.00     0.044 C 
BRANCH   3   5
HETATM    5  C   UNL     1     -41.599 -48.180  10.612  1.00  0.00     0.183 C 
BRANCH   5   6
HETATM    6  N   UNL     1     -42.768 -47.864   9.815  1.00  0.00    -0.301 N 
HETATM    7  C   UNL     1     -44.002 -47.532  10.293  1.00  0.00     0.118 A 
HETATM    8  C   UNL     1     -44.827 -47.405   9.198  1.00  0.00    -0.028 A 
HETATM    9  C   UNL     1     -46.259 -47.041   9.169  1.00  0.00     0.051 C 
HETATM   10  C   UNL     1     -43.985 -47.709   8.103  1.00  0.00     0.115 A 
HETATM   11  N   UNL     1     -42.736 -48.000   8.476  1.00  0.00    -0.310 N 
ATOM     12  HN  UNL     1     -41.946 -48.263   7.887  1.00  0.00     0.186 HD
ENDBRANCH   5   6
ENDBRANCH   3   5
ENDBRANCH   1   3
BRANCH   1  13
HETATM   13  C   UNL     1     -40.968 -51.145  12.500  1.00  0.00     0.307 C 
BRANCH  13  14
HETATM   14  C   UNL     1     -41.109 -52.693  12.498  1.00  0.00     0.084 C 
HETATM   15  C   UNL     1     -42.549 -53.188  12.713  1.00  0.00     0.039 C 
HETATM   16  C   UNL     1     -43.074 -52.893  14.114  1.00  0.00     0.003 C 
HETATM   17  C   UNL     1     -42.134 -53.406  15.204  1.00  0.00     0.000 C 
HETATM   18  C   UNL     1     -40.685 -52.974  14.997  1.00  0.00     0.003 C 
HETATM   19  C   UNL     1     -40.198 -53.294  13.585  1.00  0.00     0.039 C 
BRANCH  14  20
HETATM   20  O   UNL     1     -40.646 -53.180  11.228  1.00  0.00    -0.388 OA
HETATM   21  H   UNL     1     -39.811 -52.713  11.049  1.00  0.00     0.210 HD
ENDBRANCH  14  20
ENDBRANCH  13  14
ENDBRANCH   1  13
TORSDOF 6
ENDMDL
MODEL 3
REMARK VINA RESULT:      -5.9      3.580      4.402
REMARK  6 active torsions:
REMARK  status: ('A' for Active; 'I' for Inactive)
REMARK    1  A    between atoms: C_2  and  C_3 
REMARK    2  A    between atoms: C_2  and  N_11 
REMARK    3  A    between atoms: C_3  and  N_4 
REMARK    4  A    between atoms: N_11  and  C_12 
REMARK    5  A    between atoms: C_12  and  C_13 
REMARK    6  A    between atoms: C_13  and  O_14 
ROOT
HETATM    1  N   UNL     1     -41.256 -52.163  11.462  1.00  0.00     0.092 N 
HETATM    2  H   UNL     1     -41.477 -51.651  10.611  1.00  0.00     0.316 HD
ENDROOT
BRANCH   1   3
HETATM    3  C   UNL     1     -42.511 -52.460  12.205  1.00  0.00     0.236 C 
HETATM    4  C   UNL     1     -42.317 -53.666  13.135  1.00  0.00     0.044 C 
BRANCH   3   5
HETATM    5  C   UNL     1     -42.976 -51.264  13.065  1.00  0.00     0.183 C 
BRANCH   5   6
HETATM    6  N   UNL     1     -44.375 -51.319  13.440  1.00  0.00    -0.301 N 
HETATM    7  C   UNL     1     -44.870 -51.285  14.712  1.00  0.00     0.118 A 
HETATM    8  C   UNL     1     -46.233 -51.453  14.608  1.00  0.00    -0.028 A 
HETATM    9  C   UNL     1     -47.236 -51.475  15.693  1.00  0.00     0.051 C 
HETATM   10  C   UNL     1     -46.451 -51.603  13.219  1.00  0.00     0.115 A 
HETATM   11  N   UNL     1     -45.322 -51.534  12.508  1.00  0.00    -0.310 N 
ATOM     12  HN  UNL     1     -45.205 -51.623  11.499  1.00  0.00     0.186 HD
ENDBRANCH   5   6
ENDBRANCH   3   5
ENDBRANCH   1   3
BRANCH   1  13
HETATM   13  C   UNL     1     -40.343 -51.341  12.278  1.00  0.00     0.307 C 
BRANCH  13  14
HETATM   14  C   UNL     1     -39.842 -50.049  11.572  1.00  0.00     0.084 C 
HETATM   15  C   UNL     1     -38.312 -49.969  11.431  1.00  0.00     0.039 C 
HETATM   16  C   UNL     1     -37.601 -49.812  12.772  1.00  0.00     0.003 C 
HETATM   17  C   UNL     1     -38.154 -48.642  13.586  1.00  0.00     0.000 C 
HETATM   18  C   UNL     1     -39.675 -48.662  13.706  1.00  0.00     0.003 C 
HETATM   19  C   UNL     1     -40.346 -48.813  12.341  1.00  0.00     0.039 C 
BRANCH  14  20
HETATM   20  O   UNL     1     -40.421 -50.007  10.258  1.00  0.00    -0.388 OA
HETATM   21  H   UNL     1     -41.309 -49.624  10.368  1.00  0.00     0.210 HD
ENDBRANCH  14  20
ENDBRANCH  13  14
ENDBRANCH   1  13
TORSDOF 6
ENDMDL
MODEL 4
REMARK VINA RESULT:      -5.9      4.608      7.166
REMARK  6 active torsions:
REMARK  status: ('A' for Active; 'I' for Inactive)
REMARK    1  A    between atoms: C_2  and  C_3 
REMARK    2  A    between atoms: C_2  and  N_11 
REMARK    3  A    between atoms: C_3  and  N_4 
REMARK    4  A    between atoms: N_11  and  C_12 
REMARK    5  A    between atoms: C_12  and  C_13 
REMARK    6  A    between atoms: C_13  and  O_14 
ROOT
HETATM    1  N   UNL     1     -43.419 -52.869  12.263  1.00  0.00     0.092 N 
HETATM    2  H   UNL     1     -43.851 -53.787  12.184  1.00  0.00     0.316 HD
ENDROOT
BRANCH   1   3
HETATM    3  C   UNL     1     -42.142 -52.983  13.019  1.00  0.00     0.236 C 
HETATM    4  C   UNL     1     -42.059 -54.334  13.743  1.00  0.00     0.044 C 
BRANCH   3   5
HETATM    5  C   UNL     1     -40.907 -52.859  12.100  1.00  0.00     0.183 C 
BRANCH   5   6
HETATM    6  N   UNL     1     -40.337 -51.526  12.058  1.00  0.00    -0.301 N 
HETATM    7  C   UNL     1     -39.546 -50.959  13.014  1.00  0.00     0.118 A 
HETATM    8  C   UNL     1     -39.309 -49.663  12.611  1.00  0.00    -0.028 A 
HETATM    9  C   UNL     1     -38.496 -48.630  13.285  1.00  0.00     0.051 C 
HETATM   10  C   UNL     1     -40.031 -49.548  11.400  1.00  0.00     0.115 A 
HETATM   11  N   UNL     1     -40.666 -50.675  11.068  1.00  0.00    -0.310 N 
ATOM     12  HN  UNL     1     -41.260 -50.850  10.257  1.00  0.00     0.186 HD
ENDBRANCH   5   6
ENDBRANCH   3   5
ENDBRANCH   1   3
BRANCH   1  13
HETATM   13  C   UNL     1     -44.361 -51.967  12.952  1.00  0.00     0.307 C 
BRANCH  13  14
HETATM   14  C   UNL     1     -45.821 -52.498  13.020  1.00  0.00     0.084 C 
HETATM   15  C   UNL     1     -46.801 -51.537  13.714  1.00  0.00     0.039 C 
HETATM   16  C   UNL     1     -46.523 -51.381  15.205  1.00  0.00     0.003 C 
HETATM   17  C   UNL     1     -46.451 -52.728  15.924  1.00  0.00     0.000 C 
HETATM   18  C   UNL     1     -45.524 -53.726  15.236  1.00  0.00     0.003 C 
HETATM   19  C   UNL     1     -45.841 -53.856  13.747  1.00  0.00     0.039 C 
BRANCH  14  20
HETATM   20  O   UNL     1     -46.277 -52.720  11.677  1.00  0.00    -0.388 OA
HETATM   21  H   UNL     1     -45.856 -53.546  11.382  1.00  0.00     0.210 HD
ENDBRANCH  14  20
ENDBRANCH  13  14
ENDBRANCH   1  13
TORSDOF 6
ENDMDL
MODEL 5
REMARK VINA RESULT:      -5.5      4.442      5.981
REMARK  6 active torsions:
REMARK  status: ('A' for Active; 'I' for Inactive)
REMARK    1  A    between atoms: C_2  and  C_3 
REMARK    2  A    between atoms: C_2  and  N_11 
REMARK    3  A    between atoms: C_3  and  N_4 
REMARK    4  A    between atoms: N_11  and  C_12 
REMARK    5  A    between atoms: C_12  and  C_13 
REMARK    6  A    between atoms: C_13  and  O_14 
ROOT
HETATM    1  N   UNL     1     -44.565 -50.767  12.699  1.00  0.00     0.092 N 
HETATM    2  H   UNL     1     -44.221 -51.305  11.907  1.00  0.00     0.316 HD
ENDROOT
BRANCH   1   3
HETATM    3  C   UNL     1     -43.445 -49.991  13.299  1.00  0.00     0.236 C 
HETATM    4  C   UNL     1     -43.179 -50.449  14.740  1.00  0.00     0.044 C 
BRANCH   3   5
HETATM    5  C   UNL     1     -42.133 -50.149  12.499  1.00  0.00     0.183 C 
BRANCH   5   6
HETATM    6  N   UNL     1     -41.787 -48.989  11.701  1.00  0.00    -0.301 N 
HETATM    7  C   UNL     1     -40.757 -48.126  11.939  1.00  0.00     0.118 A 
HETATM    8  C   UNL     1     -40.854 -47.129  10.994  1.00  0.00    -0.028 A 
HETATM    9  C   UNL     1     -39.970 -45.960  10.806  1.00  0.00     0.051 C 
HETATM   10  C   UNL     1     -42.002 -47.481  10.246  1.00  0.00     0.115 A 
HETATM   11  N   UNL     1     -42.578 -48.604  10.681  1.00  0.00    -0.310 N 
ATOM     12  HN  UNL     1     -43.417 -49.062  10.326  1.00  0.00     0.186 HD
ENDBRANCH   5   6
ENDBRANCH   3   5
ENDBRANCH   1   3
BRANCH   1  13
HETATM   13  C   UNL     1     -45.143 -51.703  13.682  1.00  0.00     0.307 C 
BRANCH  13  14
HETATM   14  C   UNL     1     -45.387 -53.137  13.135  1.00  0.00     0.084 C 
HETATM   15  C   UNL     1     -45.864 -54.138  14.200  1.00  0.00     0.039 C 
HETATM   16  C   UNL     1     -44.794 -54.449  15.242  1.00  0.00     0.003 C 
HETATM   17  C   UNL     1     -43.476 -54.890  14.604  1.00  0.00     0.000 C 
HETATM   18  C   UNL     1     -42.997 -53.944  13.506  1.00  0.00     0.003 C 
HETATM   19  C   UNL     1     -44.096 -53.666  12.482  1.00  0.00     0.039 C 
BRANCH  14  20
HETATM   20  O   UNL     1     -46.389 -53.056  12.108  1.00  0.00    -0.388 OA
HETATM   21  H   UNL     1     -47.246 -53.142  12.561  1.00  0.00     0.210 HD
ENDBRANCH  14  20
ENDBRANCH  13  14
ENDBRANCH   1  13
TORSDOF 6
ENDMDL
MODEL 6
REMARK VINA RESULT:      -5.4      1.920      2.592
REMARK  6 active torsions:
REMARK  status: ('A' for Active; 'I' for Inactive)
REMARK    1  A    between atoms: C_2  and  C_3 
REMARK    2  A    between atoms: C_2  and  N_11 
REMARK    3  A    between atoms: C_3  and  N_4 
REMARK    4  A    between atoms: N_11  and  C_12 
REMARK    5  A    between atoms: C_12  and  C_13 
REMARK    6  A    between atoms: C_13  and  O_14 
ROOT
HETATM    1  N   UNL     1     -39.992 -47.360  10.987  1.00  0.00     0.092 N 
HETATM    2  H   UNL     1     -39.015 -47.305  10.709  1.00  0.00     0.316 HD
ENDROOT
BRANCH   1   3
HETATM    3  C   UNL     1     -40.444 -46.034  11.491  1.00  0.00     0.236 C 
HETATM    4  C   UNL     1     -40.072 -44.923  10.499  1.00  0.00     0.044 C 
BRANCH   3   5
HETATM    5  C   UNL     1     -41.972 -45.984  11.712  1.00  0.00     0.183 C 
BRANCH   5   6
HETATM    6  N   UNL     1     -42.747 -46.239  10.514  1.00  0.00    -0.301 N 
HETATM    7  C   UNL     1     -42.696 -47.368   9.747  1.00  0.00     0.118 A 
HETATM    8  C   UNL     1     -43.523 -47.147   8.668  1.00  0.00    -0.028 A 
HETATM    9  C   UNL     1     -43.832 -48.064   7.551  1.00  0.00     0.051 C 
HETATM   10  C   UNL     1     -44.006 -45.834   8.874  1.00  0.00     0.115 A 
HETATM   11  N   UNL     1     -43.527 -45.276   9.989  1.00  0.00    -0.310 N 
ATOM     12  HN  UNL     1     -43.708 -44.341  10.355  1.00  0.00     0.186 HD
ENDBRANCH   5   6
ENDBRANCH   3   5
ENDBRANCH   1   3
BRANCH   1  13
HETATM   13  C   UNL     1     -40.122 -48.393  12.033  1.00  0.00     0.307 C 
BRANCH  13  14
HETATM   14  C   UNL     1     -39.704 -49.820  11.578  1.00  0.00     0.084 C 
HETATM   15  C   UNL     1     -40.186 -50.938  12.518  1.00  0.00     0.039 C 
HETATM   16  C   UNL     1     -39.503 -50.902  13.881  1.00  0.00     0.003 C 
HETATM   17  C   UNL     1     -37.978 -50.881  13.764  1.00  0.00     0.000 C 
HETATM   18  C   UNL     1     -37.466 -49.813  12.801  1.00  0.00     0.003 C 
HETATM   19  C   UNL     1     -38.171 -49.891  11.448  1.00  0.00     0.039 C 
BRANCH  14  20
HETATM   20  O   UNL     1     -40.261 -50.052  10.275  1.00  0.00    -0.388 OA
HETATM   21  H   UNL     1     -40.904 -50.774  10.381  1.00  0.00     0.210 HD
ENDBRANCH  14  20
ENDBRANCH  13  14
ENDBRANCH   1  13
TORSDOF 6
ENDMDL
MODEL 7
REMARK VINA RESULT:      -5.4      3.040      4.422
REMARK  6 active torsions:
REMARK  status: ('A' for Active; 'I' for Inactive)
REMARK    1  A    between atoms: C_2  and  C_3 
REMARK    2  A    between atoms: C_2  and  N_11 
REMARK    3  A    between atoms: C_3  and  N_4 
REMARK    4  A    between atoms: N_11  and  C_12 
REMARK    5  A    between atoms: C_12  and  C_13 
REMARK    6  A    between atoms: C_13  and  O_14 
ROOT
HETATM    1  N   UNL     1     -39.366 -51.377  13.260  1.00  0.00     0.092 N 
HETATM    2  H   UNL     1     -39.125 -51.124  14.216  1.00  0.00     0.316 HD
ENDROOT
BRANCH   1   3
HETATM    3  C   UNL     1     -39.249 -50.180  12.383  1.00  0.00     0.236 C 
HETATM    4  C   UNL     1     -37.891 -50.163  11.667  1.00  0.00     0.044 C 
BRANCH   3   5
HETATM    5  C   UNL     1     -40.356 -50.137  11.306  1.00  0.00     0.183 C 
BRANCH   5   6
HETATM    6  N   UNL     1     -40.832 -48.801  11.006  1.00  0.00    -0.301 N 
HETATM    7  C   UNL     1     -40.276 -47.633  11.439  1.00  0.00     0.118 A 
HETATM    8  C   UNL     1     -41.097 -46.619  10.996  1.00  0.00    -0.028 A 
HETATM    9  C   UNL     1     -40.934 -45.163  11.183  1.00  0.00     0.051 C 
HETATM   10  C   UNL     1     -42.140 -47.298  10.322  1.00  0.00     0.115 A 
HETATM   11  N   UNL     1     -41.987 -48.624  10.337  1.00  0.00    -0.310 N 
ATOM     12  HN  UNL     1     -42.600 -49.335   9.937  1.00  0.00     0.186 HD
ENDBRANCH   5   6
ENDBRANCH   3   5
ENDBRANCH   1   3
BRANCH   1  13
HETATM   13  C   UNL     1     -40.743 -51.905  13.251  1.00  0.00     0.307 C 
BRANCH  13  14
HETATM   14  C   UNL     1     -40.847 -53.418  12.908  1.00  0.00     0.084 C 
HETATM   15  C   UNL     1     -42.245 -54.015  13.140  1.00  0.00     0.039 C 
HETATM   16  C   UNL     1     -42.630 -54.067  14.615  1.00  0.00     0.003 C 
HETATM   17  C   UNL     1     -41.570 -54.769  15.465  1.00  0.00     0.000 C 
HETATM   18  C   UNL     1     -40.160 -54.234  15.225  1.00  0.00     0.003 C 
HETATM   19  C   UNL     1     -39.815 -54.205  13.736  1.00  0.00     0.039 C 
BRANCH  14  20
HETATM   20  O   UNL     1     -40.507 -53.584  11.522  1.00  0.00    -0.388 OA
HETATM   21  H   UNL     1     -40.641 -52.714  11.107  1.00  0.00     0.210 HD
ENDBRANCH  14  20
ENDBRANCH  13  14
ENDBRANCH   1  13
TORSDOF 6
ENDMDL
MODEL 8
REMARK VINA RESULT:      -5.4      3.792      5.099
REMARK  6 active torsions:
REMARK  status: ('A' for Active; 'I' for Inactive)
REMARK    1  A    between atoms: C_2  and  C_3 
REMARK    2  A    between atoms: C_2  and  N_11 
REMARK    3  A    between atoms: C_3  and  N_4 
REMARK    4  A    between atoms: N_11  and  C_12 
REMARK    5  A    between atoms: C_12  and  C_13 
REMARK    6  A    between atoms: C_13  and  O_14 
ROOT
HETATM    1  N   UNL     1     -42.493 -50.937  12.360  1.00  0.00     0.092 N 
HETATM    2  H   UNL     1     -43.023 -50.849  13.224  1.00  0.00     0.316 HD
ENDROOT
BRANCH   1   3
HETATM    3  C   UNL     1     -42.217 -52.375  12.089  1.00  0.00     0.236 C 
HETATM    4  C   UNL     1     -40.823 -52.765  12.600  1.00  0.00     0.044 C 
BRANCH   3   5
HETATM    5  C   UNL     1     -43.249 -53.304  12.766  1.00  0.00     0.183 C 
BRANCH   5   6
HETATM    6  N   UNL     1     -44.495 -52.646  13.111  1.00  0.00    -0.301 N 
HETATM    7  C   UNL     1     -44.925 -52.349  14.371  1.00  0.00     0.118 A 
HETATM    8  C   UNL     1     -46.188 -51.815  14.239  1.00  0.00    -0.028 A 
HETATM    9  C   UNL     1     -47.085 -51.315  15.302  1.00  0.00     0.051 C 
HETATM   10  C   UNL     1     -46.431 -51.860  12.846  1.00  0.00     0.115 A 
HETATM   11  N   UNL     1     -45.408 -52.376  12.160  1.00  0.00    -0.310 N 
ATOM     12  HN  UNL     1     -45.336 -52.529  11.154  1.00  0.00     0.186 HD
ENDBRANCH   5   6
ENDBRANCH   3   5
ENDBRANCH   1   3
BRANCH   1  13
HETATM   13  C   UNL     1     -41.236 -50.178  12.504  1.00  0.00     0.307 C 
BRANCH  13  14
HETATM   14  C   UNL     1     -40.961 -49.172  11.352  1.00  0.00     0.084 C 
HETATM   15  C   UNL     1     -39.880 -48.128  11.681  1.00  0.00     0.039 C 
HETATM   16  C   UNL     1     -40.312 -47.149  12.768  1.00  0.00     0.003 C 
HETATM   17  C   UNL     1     -41.655 -46.489  12.451  1.00  0.00     0.000 C 
HETATM   18  C   UNL     1     -42.741 -47.493  12.073  1.00  0.00     0.003 C 
HETATM   19  C   UNL     1     -42.268 -48.448  10.977  1.00  0.00     0.039 C 
BRANCH  14  20
HETATM   20  O   UNL     1     -40.535 -49.919  10.202  1.00  0.00    -0.388 OA
HETATM   21  H   UNL     1     -39.689 -49.527   9.924  1.00  0.00     0.210 HD
ENDBRANCH  14  20
ENDBRANCH  13  14
ENDBRANCH   1  13
TORSDOF 6
ENDMDL
MODEL 9
REMARK VINA RESULT:      -5.3      4.741      7.183
REMARK  6 active torsions:
REMARK  status: ('A' for Active; 'I' for Inactive)
REMARK    1  A    between atoms: C_2  and  C_3 
REMARK    2  A    between atoms: C_2  and  N_11 
REMARK    3  A    between atoms: C_3  and  N_4 
REMARK    4  A    between atoms: N_11  and  C_12 
REMARK    5  A    between atoms: C_12  and  C_13 
REMARK    6  A    between atoms: C_13  and  O_14 
ROOT
HETATM    1  N   UNL     1     -42.735 -53.554  15.188  1.00  0.00     0.092 N 
HETATM    2  H   UNL     1     -42.299 -53.572  16.107  1.00  0.00     0.316 HD
ENDROOT
BRANCH   1   3
HETATM    3  C   UNL     1     -41.773 -53.012  14.190  1.00  0.00     0.236 C 
HETATM    4  C   UNL     1     -41.633 -53.969  12.997  1.00  0.00     0.044 C 
BRANCH   3   5
HETATM    5  C   UNL     1     -42.211 -51.634  13.646  1.00  0.00     0.183 C 
BRANCH   5   6
HETATM    6  N   UNL     1     -41.233 -51.007  12.778  1.00  0.00    -0.301 N 
HETATM    7  C   UNL     1     -39.914 -50.807  13.064  1.00  0.00     0.118 A 
HETATM    8  C   UNL     1     -39.384 -50.103  12.005  1.00  0.00    -0.028 A 
HETATM    9  C   UNL     1     -37.991 -49.650  11.814  1.00  0.00     0.051 C 
HETATM   10  C   UNL     1     -40.488 -49.909  11.142  1.00  0.00     0.115 A 
HETATM   11  N   UNL     1     -41.615 -50.446  11.615  1.00  0.00    -0.310 N 
ATOM     12  HN  UNL     1     -42.545 -50.435  11.195  1.00  0.00     0.186 HD
ENDBRANCH   5   6
ENDBRANCH   3   5
ENDBRANCH   1   3
BRANCH   1  13
HETATM   13  C   UNL     1     -43.946 -52.714  15.262  1.00  0.00     0.307 C 
BRANCH  13  14
HETATM   14  C   UNL     1     -45.267 -53.464  14.932  1.00  0.00     0.084 C 
HETATM   15  C   UNL     1     -45.357 -53.957  13.477  1.00  0.00     0.039 C 
HETATM   16  C   UNL     1     -45.461 -52.815  12.471  1.00  0.00     0.003 C 
HETATM   17  C   UNL     1     -46.595 -51.847  12.809  1.00  0.00     0.000 C 
HETATM   18  C   UNL     1     -46.566 -51.375  14.260  1.00  0.00     0.003 C 
HETATM   19  C   UNL     1     -46.468 -52.549  15.233  1.00  0.00     0.039 C 
BRANCH  14  20
HETATM   20  O   UNL     1     -45.361 -54.603  15.803  1.00  0.00    -0.388 OA
HETATM   21  H   UNL     1     -44.790 -55.288  15.412  1.00  0.00     0.210 HD
ENDBRANCH  14  20
ENDBRANCH  13  14
ENDBRANCH   1  13
TORSDOF 6
ENDMDL
