MODEL 1
REMARK VINA RESULT:      -6.0      0.000      0.000
REMARK  4 active torsions:
REMARK  status: ('A' for Active; 'I' for Inactive)
REMARK    1  A    between atoms: C_2  and  N_3 
REMARK    2  A    between atoms: C_2  and  C_19 
REMARK       I    between atoms: N_3  and  C_4 
REMARK    3  A    between atoms: C_4  and  C_6 
REMARK    4  A    between atoms: C_8  and  N_13 
ROOT
HETATM    1  C   UNL     1     -42.945 -53.869  13.412  1.00  0.00     0.102 A 
HETATM    2  C   UNL     1     -42.388 -54.331  14.605  1.00  0.00     0.064 A 
HETATM    3  C   UNL     1     -40.998 -54.355  14.775  1.00  0.00     0.034 A 
HETATM    4  C   UNL     1     -40.251 -53.901  13.682  1.00  0.00     0.046 A 
HETATM    5  C   UNL     1     -40.882 -53.466  12.519  1.00  0.00     0.090 A 
HETATM    6  N   UNL     1     -42.217 -53.437  12.351  1.00  0.00    -0.361 N 
ATOM      7  HN  UNL     1     -42.652 -53.112  11.487  1.00  0.00     0.165 HD
ENDROOT
BRANCH   1   8
HETATM    8  C   UNL     1     -44.440 -53.812  13.269  1.00  0.00     0.268 C 
HETATM    9  N   UNL     1     -45.003 -52.573  13.492  1.00  0.00    -0.348 N 
HETATM   10  H   UNL     1     -44.357 -51.806  13.657  1.00  0.00     0.163 HD
HETATM   11  O   UNL     1     -45.088 -54.815  12.985  1.00  0.00    -0.266 OA
BRANCH   9  12
HETATM   12  C   UNL     1     -46.425 -52.337  13.374  1.00  0.00     0.103 C 
HETATM   13  C   UNL     1     -46.782 -51.718  12.026  1.00  0.00     0.036 C 
BRANCH  12  14
HETATM   14  C   UNL     1     -46.832 -51.425  14.501  1.00  0.00    -0.013 C 
HETATM   15  C   UNL     1     -46.105 -51.230  15.611  1.00  0.00     0.009 C 
ENDBRANCH  12  14
ENDBRANCH   9  12
ENDBRANCH   1   8
BRANCH   3  16
HETATM   16  N   UNL     1     -40.396 -54.762  15.950  1.00  0.00    -0.377 N 
HETATM   17  C   UNL     1     -38.983 -54.479  16.275  1.00  0.00     0.149 C 
HETATM   18  C   UNL     1     -38.202 -55.800  16.406  1.00  0.00     0.187 C 
HETATM   19  O   UNL     1     -38.807 -56.693  17.357  1.00  0.00    -0.388 OA
HETATM   20  C   UNL     1     -40.160 -56.993  16.971  1.00  0.00     0.187 C 
HETATM   21  C   UNL     1     -41.008 -55.716  16.896  1.00  0.00     0.149 C 
ENDBRANCH   3  16
TORSDOF 4
ENDMDL
MODEL 2
REMARK VINA RESULT:      -5.8      3.055      4.538
REMARK  4 active torsions:
REMARK  status: ('A' for Active; 'I' for Inactive)
REMARK    1  A    between atoms: C_2  and  N_3 
REMARK    2  A    between atoms: C_2  and  C_19 
REMARK       I    between atoms: N_3  and  C_4 
REMARK    3  A    between atoms: C_4  and  C_6 
REMARK    4  A    between atoms: C_8  and  N_13 
ROOT
HETATM    1  C   UNL     1     -42.687 -53.280  13.125  1.00  0.00     0.102 A 
HETATM    2  C   UNL     1     -42.014 -52.182  12.586  1.00  0.00     0.064 A 
HETATM    3  C   UNL     1     -40.622 -52.081  12.695  1.00  0.00     0.034 A 
HETATM    4  C   UNL     1     -39.995 -53.133  13.376  1.00  0.00     0.046 A 
HETATM    5  C   UNL     1     -40.739 -54.188  13.897  1.00  0.00     0.090 A 
HETATM    6  N   UNL     1     -42.077 -54.293  13.790  1.00  0.00    -0.361 N 
ATOM      7  HN  UNL     1     -42.596 -55.079  14.182  1.00  0.00     0.165 HD
ENDROOT
BRANCH   1   8
HETATM    8  C   UNL     1     -44.177 -53.387  12.956  1.00  0.00     0.268 C 
HETATM    9  N   UNL     1     -44.899 -52.316  13.436  1.00  0.00    -0.348 N 
HETATM   10  H   UNL     1     -44.361 -51.530  13.790  1.00  0.00     0.163 HD
HETATM   11  O   UNL     1     -44.686 -54.375  12.434  1.00  0.00    -0.266 OA
BRANCH   9  12
HETATM   12  C   UNL     1     -46.340 -52.247  13.335  1.00  0.00     0.103 C 
HETATM   13  C   UNL     1     -46.783 -51.682  11.988  1.00  0.00     0.036 C 
BRANCH  12  14
HETATM   14  C   UNL     1     -46.839 -51.381  14.461  1.00  0.00    -0.013 C 
HETATM   15  C   UNL     1     -47.202 -51.849  15.665  1.00  0.00     0.009 C 
ENDBRANCH  12  14
ENDBRANCH   9  12
ENDBRANCH   1   8
BRANCH   3  16
HETATM   16  N   UNL     1     -39.903 -51.040  12.144  1.00  0.00    -0.377 N 
HETATM   17  C   UNL     1     -38.502 -50.742  12.508  1.00  0.00     0.149 C 
HETATM   18  C   UNL     1     -38.415 -49.346  13.152  1.00  0.00     0.187 C 
HETATM   19  O   UNL     1     -38.983 -48.327  12.312  1.00  0.00    -0.388 OA
HETATM   20  C   UNL     1     -40.364 -48.620  12.033  1.00  0.00     0.187 C 
HETATM   21  C   UNL     1     -40.506 -49.973  11.320  1.00  0.00     0.149 C 
ENDBRANCH   3  16
TORSDOF 4
ENDMDL
MODEL 3
REMARK VINA RESULT:      -5.8      3.533      5.923
REMARK  4 active torsions:
REMARK  status: ('A' for Active; 'I' for Inactive)
REMARK    1  A    between atoms: C_2  and  N_3 
REMARK    2  A    between atoms: C_2  and  C_19 
REMARK       I    between atoms: N_3  and  C_4 
REMARK    3  A    between atoms: C_4  and  C_6 
REMARK    4  A    between atoms: C_8  and  N_13 
ROOT
HETATM    1  C   UNL     1     -41.450 -51.899  12.335  1.00  0.00     0.102 A 
HETATM    2  C   UNL     1     -42.830 -52.102  12.395  1.00  0.00     0.064 A 
HETATM    3  C   UNL     1     -43.348 -53.304  12.892  1.00  0.00     0.034 A 
HETATM    4  C   UNL     1     -42.395 -54.248  13.295  1.00  0.00     0.046 A 
HETATM    5  C   UNL     1     -41.033 -53.975  13.192  1.00  0.00     0.090 A 
HETATM    6  N   UNL     1     -40.530 -52.819  12.720  1.00  0.00    -0.361 N 
ATOM      7  HN  UNL     1     -39.526 -52.646  12.657  1.00  0.00     0.165 HD
ENDROOT
BRANCH   1   8
HETATM    8  C   UNL     1     -40.919 -50.583  11.839  1.00  0.00     0.268 C 
HETATM    9  N   UNL     1     -41.880 -49.666  11.468  1.00  0.00    -0.348 N 
HETATM   10  H   UNL     1     -42.846 -49.934  11.630  1.00  0.00     0.163 HD
HETATM   11  O   UNL     1     -39.712 -50.372  11.771  1.00  0.00    -0.266 OA
BRANCH   9  12
HETATM   12  C   UNL     1     -41.543 -48.344  10.989  1.00  0.00     0.103 C 
HETATM   13  C   UNL     1     -41.439 -47.341  12.135  1.00  0.00     0.036 C 
BRANCH  12  14
HETATM   14  C   UNL     1     -42.610 -47.924  10.014  1.00  0.00    -0.013 C 
HETATM   15  C   UNL     1     -43.826 -47.486  10.373  1.00  0.00     0.009 C 
ENDBRANCH  12  14
ENDBRANCH   9  12
ENDBRANCH   1   8
BRANCH   3  16
HETATM   16  N   UNL     1     -44.703 -53.541  13.013  1.00  0.00    -0.377 N 
HETATM   17  C   UNL     1     -45.732 -52.530  12.694  1.00  0.00     0.149 C 
HETATM   18  C   UNL     1     -46.537 -52.185  13.961  1.00  0.00     0.187 C 
HETATM   19  O   UNL     1     -47.101 -53.355  14.578  1.00  0.00    -0.388 OA
HETATM   20  C   UNL     1     -46.062 -54.286  14.930  1.00  0.00     0.187 C 
HETATM   21  C   UNL     1     -45.271 -54.724  13.690  1.00  0.00     0.149 C 
ENDBRANCH   3  16
TORSDOF 4
ENDMDL
MODEL 4
REMARK VINA RESULT:      -5.7      3.284      6.471
REMARK  4 active torsions:
REMARK  status: ('A' for Active; 'I' for Inactive)
REMARK    1  A    between atoms: C_2  and  N_3 
REMARK    2  A    between atoms: C_2  and  C_19 
REMARK       I    between atoms: N_3  and  C_4 
REMARK    3  A    between atoms: C_4  and  C_6 
REMARK    4  A    between atoms: C_8  and  N_13 
ROOT
HETATM    1  C   UNL     1     -41.262 -52.129  12.528  1.00  0.00     0.102 A 
HETATM    2  C   UNL     1     -42.651 -52.263  12.506  1.00  0.00     0.064 A 
HETATM    3  C   UNL     1     -43.259 -53.417  13.014  1.00  0.00     0.034 A 
HETATM    4  C   UNL     1     -42.382 -54.387  13.515  1.00  0.00     0.046 A 
HETATM    5  C   UNL     1     -41.005 -54.184  13.490  1.00  0.00     0.090 A 
HETATM    6  N   UNL     1     -40.415 -53.074  13.007  1.00  0.00    -0.361 N 
ATOM      7  HN  UNL     1     -39.402 -52.953  13.002  1.00  0.00     0.165 HD
ENDROOT
BRANCH   1   8
HETATM    8  C   UNL     1     -40.635 -50.862  12.017  1.00  0.00     0.268 C 
HETATM    9  N   UNL     1     -39.263 -50.795  12.145  1.00  0.00    -0.348 N 
HETATM   10  H   UNL     1     -38.801 -51.626  12.502  1.00  0.00     0.163 HD
HETATM   11  O   UNL     1     -41.320 -49.965  11.534  1.00  0.00    -0.266 OA
BRANCH   9  12
HETATM   12  C   UNL     1     -38.499 -49.656  11.685  1.00  0.00     0.103 C 
HETATM   13  C   UNL     1     -37.238 -50.090  10.942  1.00  0.00     0.036 C 
BRANCH  12  14
HETATM   14  C   UNL     1     -38.144 -48.826  12.889  1.00  0.00    -0.013 C 
HETATM   15  C   UNL     1     -38.968 -47.931  13.455  1.00  0.00     0.009 C 
ENDBRANCH  12  14
ENDBRANCH   9  12
ENDBRANCH   1   8
BRANCH   3  16
HETATM   16  N   UNL     1     -44.629 -53.583  13.057  1.00  0.00    -0.377 N 
HETATM   17  C   UNL     1     -45.585 -52.504  12.733  1.00  0.00     0.149 C 
HETATM   18  C   UNL     1     -46.435 -52.170  13.973  1.00  0.00     0.187 C 
HETATM   19  O   UNL     1     -47.093 -53.332  14.506  1.00  0.00    -0.388 OA
HETATM   20  C   UNL     1     -46.124 -54.333  14.867  1.00  0.00     0.187 C 
HETATM   21  C   UNL     1     -45.294 -54.761  13.649  1.00  0.00     0.149 C 
ENDBRANCH   3  16
TORSDOF 4
ENDMDL
MODEL 5
REMARK VINA RESULT:      -5.4      4.728      6.880
REMARK  4 active torsions:
REMARK  status: ('A' for Active; 'I' for Inactive)
REMARK    1  A    between atoms: C_2  and  N_3 
REMARK    2  A    between atoms: C_2  and  C_19 
REMARK       I    between atoms: N_3  and  C_4 
REMARK    3  A    between atoms: C_4  and  C_6 
REMARK    4  A    between atoms: C_8  and  N_13 
ROOT
HETATM    1  C   UNL     1     -41.826 -51.070  12.597  1.00  0.00     0.102 A 
HETATM    2  C   UNL     1     -42.052 -49.852  11.953  1.00  0.00     0.064 A 
HETATM    3  C   UNL     1     -40.977 -49.100  11.464  1.00  0.00     0.034 A 
HETATM    4  C   UNL     1     -39.709 -49.652  11.681  1.00  0.00     0.046 A 
HETATM    5  C   UNL     1     -39.565 -50.868  12.344  1.00  0.00     0.090 A 
HETATM    6  N   UNL     1     -40.594 -51.598  12.811  1.00  0.00    -0.361 N 
ATOM      7  HN  UNL     1     -40.458 -52.487  13.293  1.00  0.00     0.165 HD
ENDROOT
BRANCH   1   8
HETATM    8  C   UNL     1     -42.997 -51.881  13.073  1.00  0.00     0.268 C 
HETATM    9  N   UNL     1     -44.213 -51.231  13.038  1.00  0.00    -0.348 N 
HETATM   10  H   UNL     1     -44.216 -50.301  12.630  1.00  0.00     0.163 HD
HETATM   11  O   UNL     1     -42.852 -53.034  13.469  1.00  0.00    -0.266 OA
BRANCH   9  12
HETATM   12  C   UNL     1     -45.445 -51.872  13.441  1.00  0.00     0.103 C 
HETATM   13  C   UNL     1     -46.527 -51.730  12.374  1.00  0.00     0.036 C 
BRANCH  12  14
HETATM   14  C   UNL     1     -45.890 -51.241  14.733  1.00  0.00    -0.013 C 
HETATM   15  C   UNL     1     -47.079 -51.469  15.311  1.00  0.00     0.009 C 
ENDBRANCH  12  14
ENDBRANCH   9  12
ENDBRANCH   1   8
BRANCH   3  16
HETATM   16  N   UNL     1     -41.147 -47.911  10.783  1.00  0.00    -0.377 N 
HETATM   17  C   UNL     1     -40.349 -46.699  11.059  1.00  0.00     0.149 C 
HETATM   18  C   UNL     1     -41.269 -45.568  11.556  1.00  0.00     0.187 C 
HETATM   19  O   UNL     1     -42.347 -45.308  10.640  1.00  0.00    -0.388 OA
HETATM   20  C   UNL     1     -43.137 -46.495  10.447  1.00  0.00     0.187 C 
HETATM   21  C   UNL     1     -42.284 -47.638   9.880  1.00  0.00     0.149 C 
ENDBRANCH   3  16
TORSDOF 4
ENDMDL
MODEL 6
REMARK VINA RESULT:      -5.4      4.988      7.493
REMARK  4 active torsions:
REMARK  status: ('A' for Active; 'I' for Inactive)
REMARK    1  A    between atoms: C_2  and  N_3 
REMARK    2  A    between atoms: C_2  and  C_19 
REMARK       I    between atoms: N_3  and  C_4 
REMARK    3  A    between atoms: C_4  and  C_6 
REMARK    4  A    between atoms: C_8  and  N_13 
ROOT
HETATM    1  C   UNL     1     -40.543 -51.060  12.139  1.00  0.00     0.102 A 
HETATM    2  C   UNL     1     -41.383 -49.956  11.983  1.00  0.00     0.064 A 
HETATM    3  C   UNL     1     -40.845 -48.684  11.757  1.00  0.00     0.034 A 
HETATM    4  C   UNL     1     -39.446 -48.622  11.715  1.00  0.00     0.046 A 
HETATM    5  C   UNL     1     -38.676 -49.768  11.893  1.00  0.00     0.090 A 
HETATM    6  N   UNL     1     -39.189 -50.995  12.105  1.00  0.00    -0.361 N 
ATOM      7  HN  UNL     1     -38.599 -51.818  12.231  1.00  0.00     0.165 HD
ENDROOT
BRANCH   1   8
HETATM    8  C   UNL     1     -41.146 -52.423  12.337  1.00  0.00     0.268 C 
HETATM    9  N   UNL     1     -42.439 -52.428  12.816  1.00  0.00    -0.348 N 
HETATM   10  H   UNL     1     -42.885 -51.521  12.920  1.00  0.00     0.163 HD
HETATM   11  O   UNL     1     -40.505 -53.441  12.091  1.00  0.00    -0.266 OA
BRANCH   9  12
HETATM   12  C   UNL     1     -43.175 -53.652  13.042  1.00  0.00     0.103 C 
HETATM   13  C   UNL     1     -44.622 -53.532  12.571  1.00  0.00     0.036 C 
BRANCH  12  14
HETATM   14  C   UNL     1     -43.122 -53.953  14.516  1.00  0.00    -0.013 C 
HETATM   15  C   UNL     1     -43.085 -55.192  15.028  1.00  0.00     0.009 C 
ENDBRANCH  12  14
ENDBRANCH   9  12
ENDBRANCH   1   8
BRANCH   3  16
HETATM   16  N   UNL     1     -41.630 -47.566  11.554  1.00  0.00    -0.377 N 
HETATM   17  C   UNL     1     -42.950 -47.613  10.893  1.00  0.00     0.149 C 
HETATM   18  C   UNL     1     -42.915 -46.786   9.594  1.00  0.00     0.187 C 
HETATM   19  O   UNL     1     -42.475 -45.437   9.825  1.00  0.00    -0.388 OA
HETATM   20  C   UNL     1     -41.161 -45.432  10.410  1.00  0.00     0.187 C 
HETATM   21  C   UNL     1     -41.151 -46.182  11.750  1.00  0.00     0.149 C 
ENDBRANCH   3  16
TORSDOF 4
ENDMDL
MODEL 7
REMARK VINA RESULT:      -5.1      2.448      6.271
REMARK  4 active torsions:
REMARK  status: ('A' for Active; 'I' for Inactive)
REMARK    1  A    between atoms: C_2  and  N_3 
REMARK    2  A    between atoms: C_2  and  C_19 
REMARK       I    between atoms: N_3  and  C_4 
REMARK    3  A    between atoms: C_4  and  C_6 
REMARK    4  A    between atoms: C_8  and  N_13 
ROOT
HETATM    1  C   UNL     1     -40.874 -53.925  14.357  1.00  0.00     0.102 A 
HETATM    2  C   UNL     1     -42.100 -53.705  13.726  1.00  0.00     0.064 A 
HETATM    3  C   UNL     1     -43.261 -54.327  14.199  1.00  0.00     0.034 A 
HETATM    4  C   UNL     1     -43.086 -55.163  15.309  1.00  0.00     0.046 A 
HETATM    5  C   UNL     1     -41.826 -55.341  15.875  1.00  0.00     0.090 A 
HETATM    6  N   UNL     1     -40.707 -54.741  15.428  1.00  0.00    -0.361 N 
ATOM      7  HN  UNL     1     -39.797 -54.891  15.863  1.00  0.00     0.165 HD
ENDROOT
BRANCH   1   8
HETATM    8  C   UNL     1     -39.649 -53.211  13.858  1.00  0.00     0.268 C 
HETATM    9  N   UNL     1     -39.792 -51.850  13.691  1.00  0.00    -0.348 N 
HETATM   10  H   UNL     1     -40.678 -51.449  13.985  1.00  0.00     0.163 HD
HETATM   11  O   UNL     1     -38.613 -53.823  13.615  1.00  0.00    -0.266 OA
BRANCH   9  12
HETATM   12  C   UNL     1     -38.707 -51.008  13.239  1.00  0.00     0.103 C 
HETATM   13  C   UNL     1     -38.303 -49.992  14.304  1.00  0.00     0.036 C 
BRANCH  12  14
HETATM   14  C   UNL     1     -39.159 -50.309  11.985  1.00  0.00    -0.013 C 
HETATM   15  C   UNL     1     -40.438 -50.232  11.587  1.00  0.00     0.009 C 
ENDBRANCH  12  14
ENDBRANCH   9  12
ENDBRANCH   1   8
BRANCH   3  16
HETATM   16  N   UNL     1     -44.505 -54.112  13.640  1.00  0.00    -0.377 N 
HETATM   17  C   UNL     1     -44.740 -53.167  12.529  1.00  0.00     0.149 C 
HETATM   18  C   UNL     1     -45.687 -52.042  12.990  1.00  0.00     0.187 C 
HETATM   19  O   UNL     1     -46.916 -52.558  13.529  1.00  0.00    -0.388 OA
HETATM   20  C   UNL     1     -46.647 -53.423  14.647  1.00  0.00     0.187 C 
HETATM   21  C   UNL     1     -45.766 -54.608  14.229  1.00  0.00     0.149 C 
ENDBRANCH   3  16
TORSDOF 4
ENDMDL
MODEL 8
REMARK VINA RESULT:      -5.0      4.979      5.882
REMARK  4 active torsions:
REMARK  status: ('A' for Active; 'I' for Inactive)
REMARK    1  A    between atoms: C_2  and  N_3 
REMARK    2  A    between atoms: C_2  and  C_19 
REMARK       I    between atoms: N_3  and  C_4 
REMARK    3  A    between atoms: C_4  and  C_6 
REMARK    4  A    between atoms: C_8  and  N_13 
ROOT
HETATM    1  C   UNL     1     -39.506 -49.009  11.635  1.00  0.00     0.102 A 
HETATM    2  C   UNL     1     -40.070 -49.952  12.496  1.00  0.00     0.064 A 
HETATM    3  C   UNL     1     -39.304 -51.022  12.974  1.00  0.00     0.034 A 
HETATM    4  C   UNL     1     -37.980 -51.064  12.519  1.00  0.00     0.046 A 
HETATM    5  C   UNL     1     -37.494 -50.091  11.649  1.00  0.00     0.090 A 
HETATM    6  N   UNL     1     -38.224 -49.057  11.191  1.00  0.00    -0.361 N 
ATOM      7  HN  UNL     1     -37.841 -48.359  10.554  1.00  0.00     0.165 HD
ENDROOT
BRANCH   1   8
HETATM    8  C   UNL     1     -40.335 -47.845  11.171  1.00  0.00     0.268 C 
HETATM    9  N   UNL     1     -41.496 -48.181  10.508  1.00  0.00    -0.348 N 
HETATM   10  H   UNL     1     -41.718 -49.171  10.458  1.00  0.00     0.163 HD
HETATM   11  O   UNL     1     -39.974 -46.689  11.373  1.00  0.00    -0.266 OA
BRANCH   9  12
HETATM   12  C   UNL     1     -42.420 -47.184  10.013  1.00  0.00     0.103 C 
HETATM   13  C   UNL     1     -43.429 -46.773  11.083  1.00  0.00     0.036 C 
BRANCH  12  14
HETATM   14  C   UNL     1     -43.125 -47.765   8.817  1.00  0.00    -0.013 C 
HETATM   15  C   UNL     1     -44.420 -47.560   8.535  1.00  0.00     0.009 C 
ENDBRANCH  12  14
ENDBRANCH   9  12
ENDBRANCH   1   8
BRANCH   3  16
HETATM   16  N   UNL     1     -39.799 -51.958  13.860  1.00  0.00    -0.377 N 
HETATM   17  C   UNL     1     -38.957 -52.984  14.508  1.00  0.00     0.149 C 
HETATM   18  C   UNL     1     -39.418 -54.389  14.077  1.00  0.00     0.187 C 
HETATM   19  O   UNL     1     -40.818 -54.599  14.333  1.00  0.00    -0.388 OA
HETATM   20  C   UNL     1     -41.607 -53.620  13.634  1.00  0.00     0.187 C 
HETATM   21  C   UNL     1     -41.240 -52.197  14.080  1.00  0.00     0.149 C 
ENDBRANCH   3  16
TORSDOF 4
ENDMDL
MODEL 9
REMARK VINA RESULT:      -4.8      3.238      4.908
REMARK  4 active torsions:
REMARK  status: ('A' for Active; 'I' for Inactive)
REMARK    1  A    between atoms: C_2  and  N_3 
REMARK    2  A    between atoms: C_2  and  C_19 
REMARK       I    between atoms: N_3  and  C_4 
REMARK    3  A    between atoms: C_4  and  C_6 
REMARK    4  A    between atoms: C_8  and  N_13 
ROOT
HETATM    1  C   UNL     1     -41.577 -53.273  14.885  1.00  0.00     0.102 A 
HETATM    2  C   UNL     1     -41.307 -52.342  13.881  1.00  0.00     0.064 A 
HETATM    3  C   UNL     1     -39.985 -52.022  13.548  1.00  0.00     0.034 A 
HETATM    4  C   UNL     1     -39.001 -52.686  14.291  1.00  0.00     0.046 A 
HETATM    5  C   UNL     1     -39.351 -53.594  15.287  1.00  0.00     0.090 A 
HETATM    6  N   UNL     1     -40.620 -53.909  15.607  1.00  0.00    -0.361 N 
ATOM      7  HN  UNL     1     -40.846 -54.579  16.343  1.00  0.00     0.165 HD
ENDROOT
BRANCH   1   8
HETATM    8  C   UNL     1     -43.003 -53.633  15.194  1.00  0.00     0.268 C 
HETATM    9  N   UNL     1     -43.893 -53.437  14.159  1.00  0.00    -0.348 N 
HETATM   10  H   UNL     1     -43.497 -53.142  13.272  1.00  0.00     0.163 HD
HETATM   11  O   UNL     1     -43.324 -54.057  16.300  1.00  0.00    -0.266 OA
BRANCH   9  12
HETATM   12  C   UNL     1     -45.299 -53.752  14.280  1.00  0.00     0.103 C 
HETATM   13  C   UNL     1     -45.598 -55.177  13.818  1.00  0.00     0.036 C 
BRANCH  12  14
HETATM   14  C   UNL     1     -46.065 -52.756  13.450  1.00  0.00    -0.013 C 
HETATM   15  C   UNL     1     -46.372 -51.516  13.859  1.00  0.00     0.009 C 
ENDBRANCH  12  14
ENDBRANCH   9  12
ENDBRANCH   1   8
BRANCH   3  16
HETATM   16  N   UNL     1     -39.662 -51.141  12.535  1.00  0.00    -0.377 N 
HETATM   17  C   UNL     1     -38.296 -50.623  12.318  1.00  0.00     0.149 C 
HETATM   18  C   UNL     1     -38.280 -49.094  12.506  1.00  0.00     0.187 C 
HETATM   19  O   UNL     1     -39.246 -48.437  11.668  1.00  0.00    -0.388 OA
HETATM   20  C   UNL     1     -40.569 -48.923  11.954  1.00  0.00     0.187 C 
HETATM   21  C   UNL     1     -40.665 -50.436  11.711  1.00  0.00     0.149 C 
ENDBRANCH   3  16
TORSDOF 4
ENDMDL
