MODEL 1
REMARK VINA RESULT:      -6.2      0.000      0.000
REMARK  6 active torsions:
REMARK  status: ('A' for Active; 'I' for Inactive)
REMARK    1  A    between atoms: O_1  and  C_2 
REMARK    2  A    between atoms: C_5  and  N_8 
REMARK       I    between atoms: N_8  and  C_9 
REMARK       I    between atoms: C_9  and  N_11 
REMARK    3  A    between atoms: N_11  and  C_12 
REMARK    4  A    between atoms: C_15  and  O_16 
REMARK    5  A    between atoms: O_16  and  C_17 
REMARK    6  A    between atoms: C_17  and  C_18 
ROOT
HETATM    1  N   UNL     1     -43.938 -50.593  12.826  1.00  0.00    -0.338 N 
HETATM    2  C   UNL     1     -43.169 -49.450  12.767  1.00  0.00     0.321 C 
HETATM    3  O   UNL     1     -42.689 -48.910  13.757  1.00  0.00    -0.247 OA
HETATM    4  N   UNL     1     -43.091 -48.968  11.481  1.00  0.00    -0.308 N 
HETATM    5  H   UNL     1     -43.833 -51.212  12.035  1.00  0.00     0.164 HD
HETATM    6  H   UNL     1     -43.906 -49.167  10.920  1.00  0.00     0.170 HD
ENDROOT
BRANCH   4   7
HETATM    7  C   UNL     1     -42.363 -47.799  11.167  1.00  0.00     0.051 A 
HETATM    8  C   UNL     1     -43.028 -46.576  11.122  1.00  0.00     0.035 A 
HETATM    9  C   UNL     1     -42.306 -45.418  10.840  1.00  0.00     0.058 A 
HETATM   10  C   UNL     1     -40.948 -45.531  10.585  1.00  0.00     0.142 A 
HETATM   11  N   UNL     1     -40.275 -46.695  10.595  1.00  0.00    -0.345 N 
HETATM   12  C   UNL     1     -40.996 -47.804  10.896  1.00  0.00     0.119 A 
ATOM     13  HN  UNL     1     -39.278 -46.742  10.388  1.00  0.00     0.167 HD
BRANCH  10  14
HETATM   14  O   UNL     1     -40.276 -44.368  10.276  1.00  0.00    -0.327 OA
BRANCH  14  15
HETATM   15  C   UNL     1     -40.500 -43.321  11.233  1.00  0.00     0.294 C 
BRANCH  15  16
HETATM   16  C   UNL     1     -39.715 -43.444  12.538  1.00  0.00     0.408 C 
HETATM   17  F   UNL     1     -38.603 -44.203  12.434  1.00  0.00    -0.169 F 
HETATM   18  F   UNL     1     -39.305 -42.211  12.941  1.00  0.00    -0.169 F 
HETATM   19  F   UNL     1     -40.475 -43.938  13.541  1.00  0.00    -0.169 F 
ENDBRANCH  15  16
ENDBRANCH  14  15
ENDBRANCH  10  14
ENDBRANCH   4   7
BRANCH   1  20
HETATM   20  C   UNL     1     -44.297 -51.180  14.116  1.00  0.00     0.086 C 
HETATM   21  C   UNL     1     -43.603 -52.527  14.359  1.00  0.00     0.028 C 
HETATM   22  C   UNL     1     -44.182 -53.651  13.498  1.00  0.00     0.034 C 
HETATM   23  C   UNL     1     -45.698 -53.768  13.655  1.00  0.00     0.118 C 
HETATM   24  C   UNL     1     -46.397 -52.435  13.395  1.00  0.00     0.034 C 
HETATM   25  C   UNL     1     -45.818 -51.302  14.246  1.00  0.00     0.028 C 
BRANCH  23  26
HETATM   26  O   UNL     1     -46.012 -54.190  14.979  1.00  0.00    -0.396 OA
HETATM   27  H   UNL     1     -46.953 -54.438  14.996  1.00  0.00     0.210 HD
ENDBRANCH  23  26
ENDBRANCH   1  20
TORSDOF 6
ENDMDL
MODEL 2
REMARK VINA RESULT:      -6.0      4.828      9.111
REMARK  6 active torsions:
REMARK  status: ('A' for Active; 'I' for Inactive)
REMARK    1  A    between atoms: O_1  and  C_2 
REMARK    2  A    between atoms: C_5  and  N_8 
REMARK       I    between atoms: N_8  and  C_9 
REMARK       I    between atoms: C_9  and  N_11 
REMARK    3  A    between atoms: N_11  and  C_12 
REMARK    4  A    between atoms: C_15  and  O_16 
REMARK    5  A    between atoms: O_16  and  C_17 
REMARK    6  A    between atoms: C_17  and  C_18 
ROOT
HETATM    1  N   UNL     1     -41.007 -46.861  11.479  1.00  0.00    -0.338 N 
HETATM    2  C   UNL     1     -41.593 -48.093  11.278  1.00  0.00     0.321 C 
HETATM    3  O   UNL     1     -42.167 -48.405  10.243  1.00  0.00    -0.247 OA
HETATM    4  N   UNL     1     -41.516 -48.870  12.411  1.00  0.00    -0.308 N 
HETATM    5  H   UNL     1     -40.176 -46.877  12.053  1.00  0.00     0.164 HD
HETATM    6  H   UNL     1     -41.519 -48.342  13.271  1.00  0.00     0.170 HD
ENDROOT
BRANCH   4   7
HETATM    7  C   UNL     1     -42.052 -50.176  12.456  1.00  0.00     0.051 A 
HETATM    8  C   UNL     1     -43.247 -50.396  13.138  1.00  0.00     0.035 A 
HETATM    9  C   UNL     1     -43.793 -51.678  13.159  1.00  0.00     0.058 A 
HETATM   10  C   UNL     1     -43.108 -52.700  12.520  1.00  0.00     0.142 A 
HETATM   11  N   UNL     1     -41.941 -52.532  11.873  1.00  0.00    -0.345 N 
HETATM   12  C   UNL     1     -41.442 -51.271  11.846  1.00  0.00     0.119 A 
ATOM     13  HN  UNL     1     -41.456 -53.311  11.427  1.00  0.00     0.167 HD
BRANCH  10  14
HETATM   14  O   UNL     1     -43.661 -53.959  12.594  1.00  0.00    -0.327 OA
BRANCH  14  15
HETATM   15  C   UNL     1     -44.048 -54.323  13.928  1.00  0.00     0.294 C 
BRANCH  15  16
HETATM   16  C   UNL     1     -45.533 -54.628  14.121  1.00  0.00     0.408 C 
HETATM   17  F   UNL     1     -46.352 -53.793  13.446  1.00  0.00    -0.169 F 
HETATM   18  F   UNL     1     -45.804 -55.883  13.671  1.00  0.00    -0.169 F 
HETATM   19  F   UNL     1     -45.888 -54.607  15.426  1.00  0.00    -0.169 F 
ENDBRANCH  15  16
ENDBRANCH  14  15
ENDBRANCH  10  14
ENDBRANCH   4   7
BRANCH   1  20
HETATM   20  C   UNL     1     -41.123 -45.812  10.467  1.00  0.00     0.086 C 
HETATM   21  C   UNL     1     -39.850 -44.962  10.356  1.00  0.00     0.028 C 
HETATM   22  C   UNL     1     -39.664 -44.023  11.548  1.00  0.00     0.034 C 
HETATM   23  C   UNL     1     -40.896 -43.152  11.788  1.00  0.00     0.118 C 
HETATM   24  C   UNL     1     -42.165 -43.992  11.919  1.00  0.00     0.034 C 
HETATM   25  C   UNL     1     -42.355 -44.942  10.734  1.00  0.00     0.028 C 
BRANCH  23  26
HETATM   26  O   UNL     1     -41.065 -42.250  10.698  1.00  0.00    -0.396 OA
HETATM   27  H   UNL     1     -41.368 -41.399  11.062  1.00  0.00     0.210 HD
ENDBRANCH  23  26
ENDBRANCH   1  20
TORSDOF 6
ENDMDL
MODEL 3
REMARK VINA RESULT:      -5.8      5.417      7.217
REMARK  6 active torsions:
REMARK  status: ('A' for Active; 'I' for Inactive)
REMARK    1  A    between atoms: O_1  and  C_2 
REMARK    2  A    between atoms: C_5  and  N_8 
REMARK       I    between atoms: N_8  and  C_9 
REMARK       I    between atoms: C_9  and  N_11 
REMARK    3  A    between atoms: N_11  and  C_12 
REMARK    4  A    between atoms: C_15  and  O_16 
REMARK    5  A    between atoms: O_16  and  C_17 
REMARK    6  A    between atoms: C_17  and  C_18 
ROOT
HETATM    1  N   UNL     1     -39.196 -47.986  14.726  1.00  0.00    -0.338 N 
HETATM    2  C   UNL     1     -39.788 -47.573  13.551  1.00  0.00     0.321 C 
HETATM    3  O   UNL     1     -39.449 -46.564  12.945  1.00  0.00    -0.247 OA
HETATM    4  N   UNL     1     -40.844 -48.388  13.213  1.00  0.00    -0.308 N 
HETATM    5  H   UNL     1     -39.149 -48.989  14.844  1.00  0.00     0.164 HD
HETATM    6  H   UNL     1     -41.316 -48.797  14.006  1.00  0.00     0.170 HD
ENDROOT
BRANCH   4   7
HETATM    7  C   UNL     1     -41.615 -48.163  12.051  1.00  0.00     0.051 A 
HETATM    8  C   UNL     1     -42.840 -47.509  12.166  1.00  0.00     0.035 A 
HETATM    9  C   UNL     1     -43.589 -47.260  11.017  1.00  0.00     0.058 A 
HETATM   10  C   UNL     1     -43.098 -47.701   9.798  1.00  0.00     0.142 A 
HETATM   11  N   UNL     1     -41.933 -48.358   9.650  1.00  0.00    -0.345 N 
HETATM   12  C   UNL     1     -41.212 -48.566  10.779  1.00  0.00     0.119 A 
ATOM     13  HN  UNL     1     -41.611 -48.681   8.739  1.00  0.00     0.167 HD
BRANCH  10  14
HETATM   14  O   UNL     1     -43.884 -47.468   8.691  1.00  0.00    -0.327 OA
BRANCH  14  15
HETATM   15  C   UNL     1     -45.194 -46.983   9.027  1.00  0.00     0.294 C 
BRANCH  15  16
HETATM   16  C   UNL     1     -46.331 -47.989   8.854  1.00  0.00     0.408 C 
HETATM   17  F   UNL     1     -46.286 -48.666   7.686  1.00  0.00    -0.169 F 
HETATM   18  F   UNL     1     -46.270 -48.921   9.843  1.00  0.00    -0.169 F 
HETATM   19  F   UNL     1     -47.545 -47.403   8.958  1.00  0.00    -0.169 F 
ENDBRANCH  15  16
ENDBRANCH  14  15
ENDBRANCH  10  14
ENDBRANCH   4   7
BRANCH   1  20
HETATM   20  C   UNL     1     -38.164 -47.170  15.363  1.00  0.00     0.086 C 
HETATM   21  C   UNL     1     -36.750 -47.704  15.101  1.00  0.00     0.028 C 
HETATM   22  C   UNL     1     -36.452 -48.987  15.879  1.00  0.00     0.034 C 
HETATM   23  C   UNL     1     -36.717 -48.822  17.376  1.00  0.00     0.118 C 
HETATM   24  C   UNL     1     -38.130 -48.309  17.645  1.00  0.00     0.034 C 
HETATM   25  C   UNL     1     -38.441 -47.031  16.863  1.00  0.00     0.028 C 
BRANCH  23  26
HETATM   26  O   UNL     1     -35.788 -47.894  17.928  1.00  0.00    -0.396 OA
HETATM   27  H   UNL     1     -34.919 -48.330  17.966  1.00  0.00     0.210 HD
ENDBRANCH  23  26
ENDBRANCH   1  20
TORSDOF 6
ENDMDL
MODEL 4
REMARK VINA RESULT:      -5.6      1.964      2.619
REMARK  6 active torsions:
REMARK  status: ('A' for Active; 'I' for Inactive)
REMARK    1  A    between atoms: O_1  and  C_2 
REMARK    2  A    between atoms: C_5  and  N_8 
REMARK       I    between atoms: N_8  and  C_9 
REMARK       I    between atoms: C_9  and  N_11 
REMARK    3  A    between atoms: N_11  and  C_12 
REMARK    4  A    between atoms: C_15  and  O_16 
REMARK    5  A    between atoms: O_16  and  C_17 
REMARK    6  A    between atoms: C_17  and  C_18 
ROOT
HETATM    1  N   UNL     1     -42.836 -52.006  13.053  1.00  0.00    -0.338 N 
HETATM    2  C   UNL     1     -42.006 -51.137  12.376  1.00  0.00     0.321 C 
HETATM    3  O   UNL     1     -41.086 -51.506  11.657  1.00  0.00    -0.247 OA
HETATM    4  N   UNL     1     -42.299 -49.828  12.685  1.00  0.00    -0.308 N 
HETATM    5  H   UNL     1     -43.789 -51.688  13.153  1.00  0.00     0.164 HD
HETATM    6  H   UNL     1     -42.664 -49.700  13.617  1.00  0.00     0.170 HD
ENDROOT
BRANCH   4   7
HETATM    7  C   UNL     1     -41.580 -48.752  12.121  1.00  0.00     0.051 A 
HETATM    8  C   UNL     1     -40.512 -48.204  12.828  1.00  0.00     0.035 A 
HETATM    9  C   UNL     1     -39.783 -47.161  12.261  1.00  0.00     0.058 A 
HETATM   10  C   UNL     1     -40.168 -46.684  11.018  1.00  0.00     0.142 A 
HETATM   11  N   UNL     1     -41.208 -47.169  10.316  1.00  0.00    -0.345 N 
HETATM   12  C   UNL     1     -41.886 -48.200  10.878  1.00  0.00     0.119 A 
ATOM     13  HN  UNL     1     -41.472 -46.782   9.410  1.00  0.00     0.167 HD
BRANCH  10  14
HETATM   14  O   UNL     1     -39.445 -45.628  10.506  1.00  0.00    -0.327 OA
BRANCH  14  15
HETATM   15  C   UNL     1     -40.173 -44.390  10.527  1.00  0.00     0.294 C 
BRANCH  15  16
HETATM   16  C   UNL     1     -40.103 -43.609  11.838  1.00  0.00     0.408 C 
HETATM   17  F   UNL     1     -41.092 -43.913  12.706  1.00  0.00    -0.169 F 
HETATM   18  F   UNL     1     -38.933 -43.887  12.473  1.00  0.00    -0.169 F 
HETATM   19  F   UNL     1     -40.116 -42.272  11.632  1.00  0.00    -0.169 F 
ENDBRANCH  15  16
ENDBRANCH  14  15
ENDBRANCH  10  14
ENDBRANCH   4   7
BRANCH   1  20
HETATM   20  C   UNL     1     -42.594 -53.447  13.008  1.00  0.00     0.086 C 
HETATM   21  C   UNL     1     -43.894 -54.261  13.047  1.00  0.00     0.028 C 
HETATM   22  C   UNL     1     -44.556 -54.246  14.426  1.00  0.00     0.034 C 
HETATM   23  C   UNL     1     -43.592 -54.684  15.528  1.00  0.00     0.118 C 
HETATM   24  C   UNL     1     -42.303 -53.865  15.508  1.00  0.00     0.034 C 
HETATM   25  C   UNL     1     -41.637 -53.866  14.129  1.00  0.00     0.028 C 
BRANCH  23  26
HETATM   26  O   UNL     1     -43.255 -56.057  15.353  1.00  0.00    -0.396 OA
HETATM   27  H   UNL     1     -43.358 -56.269  14.409  1.00  0.00     0.210 HD
ENDBRANCH  23  26
ENDBRANCH   1  20
TORSDOF 6
ENDMDL
MODEL 5
REMARK VINA RESULT:      -5.4      4.652      8.343
REMARK  6 active torsions:
REMARK  status: ('A' for Active; 'I' for Inactive)
REMARK    1  A    between atoms: O_1  and  C_2 
REMARK    2  A    between atoms: C_5  and  N_8 
REMARK       I    between atoms: N_8  and  C_9 
REMARK       I    between atoms: C_9  and  N_11 
REMARK    3  A    between atoms: N_11  and  C_12 
REMARK    4  A    between atoms: C_15  and  O_16 
REMARK    5  A    between atoms: O_16  and  C_17 
REMARK    6  A    between atoms: C_17  and  C_18 
ROOT
HETATM    1  N   UNL     1     -43.200 -43.183  11.772  1.00  0.00    -0.338 N 
HETATM    2  C   UNL     1     -42.338 -44.196  11.410  1.00  0.00     0.321 C 
HETATM    3  O   UNL     1     -41.344 -44.018  10.717  1.00  0.00    -0.247 OA
HETATM    4  N   UNL     1     -42.790 -45.417  11.855  1.00  0.00    -0.308 N 
HETATM    5  H   UNL     1     -43.617 -43.291  12.686  1.00  0.00     0.164 HD
HETATM    6  H   UNL     1     -43.795 -45.484  11.916  1.00  0.00     0.170 HD
ENDROOT
BRANCH   4   7
HETATM    7  C   UNL     1     -42.080 -46.611  11.600  1.00  0.00     0.051 A 
HETATM    8  C   UNL     1     -41.226 -47.115  12.579  1.00  0.00     0.035 A 
HETATM    9  C   UNL     1     -40.547 -48.307  12.342  1.00  0.00     0.058 A 
HETATM   10  C   UNL     1     -40.724 -48.938  11.120  1.00  0.00     0.142 A 
HETATM   11  N   UNL     1     -41.518 -48.471  10.141  1.00  0.00    -0.345 N 
HETATM   12  C   UNL     1     -42.188 -47.321  10.406  1.00  0.00     0.119 A 
ATOM     13  HN  UNL     1     -41.613 -48.954   9.248  1.00  0.00     0.167 HD
BRANCH  10  14
HETATM   14  O   UNL     1     -40.007 -50.096  10.909  1.00  0.00    -0.327 OA
BRANCH  14  15
HETATM   15  C   UNL     1     -39.191 -50.462  12.034  1.00  0.00     0.294 C 
BRANCH  15  16
HETATM   16  C   UNL     1     -37.696 -50.190  11.877  1.00  0.00     0.408 C 
HETATM   17  F   UNL     1     -37.253 -49.144  12.608  1.00  0.00    -0.169 F 
HETATM   18  F   UNL     1     -36.989 -51.277  12.289  1.00  0.00    -0.169 F 
HETATM   19  F   UNL     1     -37.353 -49.981  10.585  1.00  0.00    -0.169 F 
ENDBRANCH  15  16
ENDBRANCH  14  15
ENDBRANCH  10  14
ENDBRANCH   4   7
BRANCH   1  20
HETATM   20  C   UNL     1     -43.008 -41.827  11.261  1.00  0.00     0.086 C 
HETATM   21  C   UNL     1     -41.852 -41.097  11.957  1.00  0.00     0.028 C 
HETATM   22  C   UNL     1     -42.193 -40.687  13.391  1.00  0.00     0.034 C 
HETATM   23  C   UNL     1     -43.487 -39.876  13.461  1.00  0.00     0.118 C 
HETATM   24  C   UNL     1     -44.647 -40.605  12.787  1.00  0.00     0.034 C 
HETATM   25  C   UNL     1     -44.312 -41.028  11.355  1.00  0.00     0.028 C 
BRANCH  23  26
HETATM   26  O   UNL     1     -43.303 -38.623  12.809  1.00  0.00    -0.396 OA
HETATM   27  H   UNL     1     -43.983 -38.012  13.145  1.00  0.00     0.210 HD
ENDBRANCH  23  26
ENDBRANCH   1  20
TORSDOF 6
ENDMDL
MODEL 6
REMARK VINA RESULT:      -5.4      7.118      9.139
REMARK  6 active torsions:
REMARK  status: ('A' for Active; 'I' for Inactive)
REMARK    1  A    between atoms: O_1  and  C_2 
REMARK    2  A    between atoms: C_5  and  N_8 
REMARK       I    between atoms: N_8  and  C_9 
REMARK       I    between atoms: C_9  and  N_11 
REMARK    3  A    between atoms: N_11  and  C_12 
REMARK    4  A    between atoms: C_15  and  O_16 
REMARK    5  A    between atoms: O_16  and  C_17 
REMARK    6  A    between atoms: C_17  and  C_18 
ROOT
HETATM    1  N   UNL     1     -47.871 -49.738  18.384  1.00  0.00    -0.338 N 
HETATM    2  C   UNL     1     -47.017 -50.424  17.546  1.00  0.00     0.321 C 
HETATM    3  O   UNL     1     -45.798 -50.318  17.593  1.00  0.00    -0.247 OA
HETATM    4  N   UNL     1     -47.717 -51.160  16.618  1.00  0.00    -0.308 N 
HETATM    5  H   UNL     1     -48.711 -50.239  18.633  1.00  0.00     0.164 HD
HETATM    6  H   UNL     1     -48.607 -50.757  16.362  1.00  0.00     0.170 HD
ENDROOT
BRANCH   4   7
HETATM    7  C   UNL     1     -47.062 -51.945  15.644  1.00  0.00     0.051 A 
HETATM    8  C   UNL     1     -46.816 -51.399  14.385  1.00  0.00     0.035 A 
HETATM    9  C   UNL     1     -46.144 -52.162  13.432  1.00  0.00     0.058 A 
HETATM   10  C   UNL     1     -45.769 -53.455  13.763  1.00  0.00     0.142 A 
HETATM   11  N   UNL     1     -46.010 -54.025  14.957  1.00  0.00    -0.345 N 
HETATM   12  C   UNL     1     -46.644 -53.254  15.876  1.00  0.00     0.119 A 
ATOM     13  HN  UNL     1     -45.733 -54.985  15.160  1.00  0.00     0.167 HD
BRANCH  10  14
HETATM   14  O   UNL     1     -45.139 -54.189  12.782  1.00  0.00    -0.327 OA
BRANCH  14  15
HETATM   15  C   UNL     1     -43.833 -53.684  12.457  1.00  0.00     0.294 C 
BRANCH  15  16
HETATM   16  C   UNL     1     -42.732 -54.018  13.461  1.00  0.00     0.408 C 
HETATM   17  F   UNL     1     -43.018 -55.075  14.253  1.00  0.00    -0.169 F 
HETATM   18  F   UNL     1     -41.588 -54.334  12.795  1.00  0.00    -0.169 F 
HETATM   19  F   UNL     1     -42.432 -52.964  14.253  1.00  0.00    -0.169 F 
ENDBRANCH  15  16
ENDBRANCH  14  15
ENDBRANCH  10  14
ENDBRANCH   4   7
BRANCH   1  20
HETATM   20  C   UNL     1     -47.347 -48.760  19.336  1.00  0.00     0.086 C 
HETATM   21  C   UNL     1     -47.933 -48.940  20.743  1.00  0.00     0.028 C 
HETATM   22  C   UNL     1     -49.393 -48.495  20.834  1.00  0.00     0.034 C 
HETATM   23  C   UNL     1     -49.588 -47.066  20.328  1.00  0.00     0.118 C 
HETATM   24  C   UNL     1     -49.024 -46.883  18.921  1.00  0.00     0.034 C 
HETATM   25  C   UNL     1     -47.565 -47.335  18.817  1.00  0.00     0.028 C 
BRANCH  23  26
HETATM   26  O   UNL     1     -48.925 -46.154  21.200  1.00  0.00    -0.396 OA
HETATM   27  H   UNL     1     -49.520 -45.399  21.346  1.00  0.00     0.210 HD
ENDBRANCH  23  26
ENDBRANCH   1  20
TORSDOF 6
ENDMDL
MODEL 7
REMARK VINA RESULT:      -5.3      3.220      4.095
REMARK  6 active torsions:
REMARK  status: ('A' for Active; 'I' for Inactive)
REMARK    1  A    between atoms: O_1  and  C_2 
REMARK    2  A    between atoms: C_5  and  N_8 
REMARK       I    between atoms: N_8  and  C_9 
REMARK       I    between atoms: C_9  and  N_11 
REMARK    3  A    between atoms: N_11  and  C_12 
REMARK    4  A    between atoms: C_15  and  O_16 
REMARK    5  A    between atoms: O_16  and  C_17 
REMARK    6  A    between atoms: C_17  and  C_18 
ROOT
HETATM    1  N   UNL     1     -41.290 -52.746  14.395  1.00  0.00    -0.338 N 
HETATM    2  C   UNL     1     -41.390 -51.922  13.294  1.00  0.00     0.321 C 
HETATM    3  O   UNL     1     -41.441 -52.340  12.143  1.00  0.00    -0.247 OA
HETATM    4  N   UNL     1     -41.339 -50.596  13.658  1.00  0.00    -0.308 N 
HETATM    5  H   UNL     1     -41.763 -52.407  15.220  1.00  0.00     0.164 HD
HETATM    6  H   UNL     1     -40.789 -50.420  14.485  1.00  0.00     0.170 HD
ENDROOT
BRANCH   4   7
HETATM    7  C   UNL     1     -41.416 -49.559  12.703  1.00  0.00     0.051 A 
HETATM    8  C   UNL     1     -42.630 -48.904  12.508  1.00  0.00     0.035 A 
HETATM    9  C   UNL     1     -42.701 -47.861  11.587  1.00  0.00     0.058 A 
HETATM   10  C   UNL     1     -41.560 -47.530  10.872  1.00  0.00     0.142 A 
HETATM   11  N   UNL     1     -40.377 -48.155  11.013  1.00  0.00    -0.345 N 
HETATM   12  C   UNL     1     -40.328 -49.150  11.933  1.00  0.00     0.119 A 
ATOM     13  HN  UNL     1     -39.562 -47.895  10.459  1.00  0.00     0.167 HD
BRANCH  10  14
HETATM   14  O   UNL     1     -41.679 -46.518   9.945  1.00  0.00    -0.327 OA
BRANCH  14  15
HETATM   15  C   UNL     1     -41.564 -45.210  10.528  1.00  0.00     0.294 C 
BRANCH  15  16
HETATM   16  C   UNL     1     -40.138 -44.691  10.700  1.00  0.00     0.408 C 
HETATM   17  F   UNL     1     -39.548 -45.088  11.848  1.00  0.00    -0.169 F 
HETATM   18  F   UNL     1     -39.358 -45.155   9.685  1.00  0.00    -0.169 F 
HETATM   19  F   UNL     1     -40.079 -43.341  10.637  1.00  0.00    -0.169 F 
ENDBRANCH  15  16
ENDBRANCH  14  15
ENDBRANCH  10  14
ENDBRANCH   4   7
BRANCH   1  20
HETATM   20  C   UNL     1     -41.150 -54.192  14.229  1.00  0.00     0.086 C 
HETATM   21  C   UNL     1     -41.883 -54.980  15.323  1.00  0.00     0.028 C 
HETATM   22  C   UNL     1     -41.179 -54.900  16.678  1.00  0.00     0.034 C 
HETATM   23  C   UNL     1     -39.710 -55.310  16.585  1.00  0.00     0.118 C 
HETATM   24  C   UNL     1     -38.969 -54.516  15.512  1.00  0.00     0.034 C 
HETATM   25  C   UNL     1     -39.671 -54.583  14.153  1.00  0.00     0.028 C 
BRANCH  23  26
HETATM   26  O   UNL     1     -39.618 -56.695  16.263  1.00  0.00    -0.396 OA
HETATM   27  H   UNL     1     -39.683 -56.779  15.296  1.00  0.00     0.210 HD
ENDBRANCH  23  26
ENDBRANCH   1  20
TORSDOF 6
ENDMDL
MODEL 8
REMARK VINA RESULT:      -5.3      5.901      7.410
REMARK  6 active torsions:
REMARK  status: ('A' for Active; 'I' for Inactive)
REMARK    1  A    between atoms: O_1  and  C_2 
REMARK    2  A    between atoms: C_5  and  N_8 
REMARK       I    between atoms: N_8  and  C_9 
REMARK       I    between atoms: C_9  and  N_11 
REMARK    3  A    between atoms: N_11  and  C_12 
REMARK    4  A    between atoms: C_15  and  O_16 
REMARK    5  A    between atoms: O_16  and  C_17 
REMARK    6  A    between atoms: C_17  and  C_18 
ROOT
HETATM    1  N   UNL     1     -37.763 -48.791  15.657  1.00  0.00    -0.338 N 
HETATM    2  C   UNL     1     -38.211 -48.660  14.359  1.00  0.00     0.321 C 
HETATM    3  O   UNL     1     -37.465 -48.492  13.403  1.00  0.00    -0.247 OA
HETATM    4  N   UNL     1     -39.586 -48.658  14.306  1.00  0.00    -0.308 N 
HETATM    5  H   UNL     1     -38.315 -49.411  16.233  1.00  0.00     0.164 HD
HETATM    6  H   UNL     1     -40.027 -48.277  15.130  1.00  0.00     0.170 HD
ENDROOT
BRANCH   4   7
HETATM    7  C   UNL     1     -40.283 -48.529  13.085  1.00  0.00     0.051 A 
HETATM    8  C   UNL     1     -40.695 -47.264  12.668  1.00  0.00     0.035 A 
HETATM    9  C   UNL     1     -41.357 -47.131  11.450  1.00  0.00     0.058 A 
HETATM   10  C   UNL     1     -41.610 -48.272  10.705  1.00  0.00     0.142 A 
HETATM   11  N   UNL     1     -41.252 -49.512  11.085  1.00  0.00    -0.345 N 
HETATM   12  C   UNL     1     -40.587 -49.613  12.262  1.00  0.00     0.119 A 
ATOM     13  HN  UNL     1     -41.468 -50.331  10.518  1.00  0.00     0.167 HD
BRANCH  10  14
HETATM   14  O   UNL     1     -42.299 -48.103   9.524  1.00  0.00    -0.327 OA
BRANCH  14  15
HETATM   15  C   UNL     1     -43.177 -46.967   9.546  1.00  0.00     0.294 C 
BRANCH  15  16
HETATM   16  C   UNL     1     -44.609 -47.234   9.086  1.00  0.00     0.408 C 
HETATM   17  F   UNL     1     -44.691 -48.018   7.990  1.00  0.00    -0.169 F 
HETATM   18  F   UNL     1     -45.292 -47.877  10.072  1.00  0.00    -0.169 F 
HETATM   19  F   UNL     1     -45.284 -46.088   8.840  1.00  0.00    -0.169 F 
ENDBRANCH  15  16
ENDBRANCH  14  15
ENDBRANCH  10  14
ENDBRANCH   4   7
BRANCH   1  20
HETATM   20  C   UNL     1     -36.342 -48.647  15.968  1.00  0.00     0.086 C 
HETATM   21  C   UNL     1     -35.657 -49.997  16.219  1.00  0.00     0.028 C 
HETATM   22  C   UNL     1     -36.058 -50.621  17.557  1.00  0.00     0.034 C 
HETATM   23  C   UNL     1     -35.839 -49.660  18.725  1.00  0.00     0.118 C 
HETATM   24  C   UNL     1     -36.534 -48.320  18.491  1.00  0.00     0.034 C 
HETATM   25  C   UNL     1     -36.146 -47.692  17.150  1.00  0.00     0.028 C 
BRANCH  23  26
HETATM   26  O   UNL     1     -34.444 -49.419  18.892  1.00  0.00    -0.396 OA
HETATM   27  H   UNL     1     -34.240 -48.561  18.483  1.00  0.00     0.210 HD
ENDBRANCH  23  26
ENDBRANCH   1  20
TORSDOF 6
ENDMDL
MODEL 9
REMARK VINA RESULT:      -5.2     19.557     21.880
REMARK  6 active torsions:
REMARK  status: ('A' for Active; 'I' for Inactive)
REMARK    1  A    between atoms: O_1  and  C_2 
REMARK    2  A    between atoms: C_5  and  N_8 
REMARK       I    between atoms: N_8  and  C_9 
REMARK       I    between atoms: C_9  and  N_11 
REMARK    3  A    between atoms: N_11  and  C_12 
REMARK    4  A    between atoms: C_15  and  O_16 
REMARK    5  A    between atoms: O_16  and  C_17 
REMARK    6  A    between atoms: C_17  and  C_18 
ROOT
HETATM    1  N   UNL     1     -26.574 -41.982  -0.335  1.00  0.00    -0.338 N 
HETATM    2  C   UNL     1     -27.578 -42.599  -1.051  1.00  0.00     0.321 C 
HETATM    3  O   UNL     1     -28.635 -42.051  -1.337  1.00  0.00    -0.247 OA
HETATM    4  N   UNL     1     -27.266 -43.913  -1.315  1.00  0.00    -0.308 N 
HETATM    5  H   UNL     1     -25.639 -42.260  -0.596  1.00  0.00     0.164 HD
HETATM    6  H   UNL     1     -26.683 -44.344  -0.613  1.00  0.00     0.170 HD
ENDROOT
BRANCH   4   7
HETATM    7  C   UNL     1     -28.143 -44.757  -2.031  1.00  0.00     0.051 A 
HETATM    8  C   UNL     1     -29.081 -45.512  -1.330  1.00  0.00     0.035 A 
HETATM    9  C   UNL     1     -29.967 -46.323  -2.037  1.00  0.00     0.058 A 
HETATM   10  C   UNL     1     -29.862 -46.372  -3.418  1.00  0.00     0.142 A 
HETATM   11  N   UNL     1     -28.955 -45.677  -4.128  1.00  0.00    -0.345 N 
HETATM   12  C   UNL     1     -28.121 -44.876  -3.420  1.00  0.00     0.119 A 
ATOM     13  HN  UNL     1     -28.897 -45.749  -5.144  1.00  0.00     0.167 HD
BRANCH  10  14
HETATM   14  O   UNL     1     -30.732 -47.212  -4.078  1.00  0.00    -0.327 OA
BRANCH  14  15
HETATM   15  C   UNL     1     -32.111 -46.901  -3.825  1.00  0.00     0.294 C 
BRANCH  15  16
HETATM   16  C   UNL     1     -33.016 -48.101  -3.552  1.00  0.00     0.408 C 
HETATM   17  F   UNL     1     -32.942 -48.561  -2.285  1.00  0.00    -0.169 F 
HETATM   18  F   UNL     1     -34.314 -47.751  -3.761  1.00  0.00    -0.169 F 
HETATM   19  F   UNL     1     -32.760 -49.130  -4.393  1.00  0.00    -0.169 F 
ENDBRANCH  15  16
ENDBRANCH  14  15
ENDBRANCH  10  14
ENDBRANCH   4   7
BRANCH   1  20
HETATM   20  C   UNL     1     -26.766 -40.636   0.202  1.00  0.00     0.086 C 
HETATM   21  C   UNL     1     -25.681 -39.658  -0.268  1.00  0.00     0.028 C 
HETATM   22  C   UNL     1     -24.329 -39.913   0.400  1.00  0.00     0.034 C 
HETATM   23  C   UNL     1     -24.439 -39.932   1.925  1.00  0.00     0.118 C 
HETATM   24  C   UNL     1     -25.504 -40.918   2.401  1.00  0.00     0.034 C 
HETATM   25  C   UNL     1     -26.859 -40.677   1.731  1.00  0.00     0.028 C 
BRANCH  23  26
HETATM   26  O   UNL     1     -24.786 -38.633   2.397  1.00  0.00    -0.396 OA
HETATM   27  H   UNL     1     -24.498 -38.568   3.324  1.00  0.00     0.210 HD
ENDBRANCH  23  26
ENDBRANCH   1  20
TORSDOF 6
ENDMDL
