MODEL 1
REMARK VINA RESULT:      -7.1      0.000      0.000
REMARK  6 active torsions:
REMARK  status: ('A' for Active; 'I' for Inactive)
REMARK    1  A    between atoms: N_1  and  C_8 
REMARK    2  A    between atoms: N_2  and  C_7 
REMARK    3  A    between atoms: C_8  and  C_12 
REMARK    4  A    between atoms: C_9  and  N_10 
REMARK       I    between atoms: N_10  and  C_14 
REMARK       I    between atoms: C_12  and  N_17 
REMARK    5  A    between atoms: C_14  and  C_22 
REMARK    6  A    between atoms: N_17  and  C_22 
ROOT
HETATM    1  C   UNL     1     -39.760 -52.742  14.558  1.00  0.00     0.236 C 
HETATM    2  N   UNL     1     -40.185 -54.043  14.438  1.00  0.00    -0.351 N 
HETATM    3  O   UNL     1     -39.905 -52.140  15.629  1.00  0.00    -0.272 OA
HETATM    4  H   UNL     1     -40.334 -54.353  13.486  1.00  0.00     0.163 HD
ENDROOT
BRANCH   1   5
HETATM    5  C   UNL     1     -39.211 -51.982  13.308  1.00  0.00     0.240 C 
BRANCH   5   6
HETATM    6  N   UNL     1     -39.487 -50.563  13.090  1.00  0.00    -0.255 N 
HETATM    7  C   UNL     1     -40.797 -50.196  12.854  1.00  0.00     0.334 C 
HETATM    8  N   UNL     1     -40.946 -48.916  12.318  1.00  0.00    -0.279 N 
HETATM    9  O   UNL     1     -41.734 -50.981  12.992  1.00  0.00    -0.246 OA
HETATM   10  C   UNL     1     -40.063 -47.916  12.661  1.00  0.00     0.146 C 
HETATM   11  C   UNL     1     -38.972 -48.207  13.368  1.00  0.00     0.200 C 
HETATM   12  C   UNL     1     -38.623 -49.626  13.641  1.00  0.00     0.292 C 
HETATM   13  F   UNL     1     -38.127 -47.258  13.812  1.00  0.00    -0.199 F 
HETATM   14  O   UNL     1     -37.651 -49.904  14.339  1.00  0.00    -0.264 OA
BRANCH   8  15
HETATM   15  C   UNL     1     -42.062 -48.768  11.407  1.00  0.00     0.232 C 
HETATM   16  O   UNL     1     -41.564 -48.024  10.276  1.00  0.00    -0.366 OA
HETATM   17  C   UNL     1     -42.618 -47.223   9.740  1.00  0.00     0.170 C 
HETATM   18  C   UNL     1     -43.859 -47.550  10.538  1.00  0.00     0.031 C 
HETATM   19  C   UNL     1     -43.282 -47.989  11.865  1.00  0.00     0.056 C 
ENDBRANCH   8  15
ENDBRANCH   5   6
ENDBRANCH   1   5
BRANCH   2  20
HETATM   20  C   UNL     1     -41.206 -54.617  15.330  1.00  0.00     0.225 C 
BRANCH  20  21
HETATM   21  C   UNL     1     -42.710 -54.270  15.282  1.00  0.00     0.239 C 
HETATM   22  N   UNL     1     -43.020 -52.971  14.947  1.00  0.00    -0.325 N 
HETATM   23  H   UNL     1     -42.249 -52.427  14.557  1.00  0.00     0.169 HD
HETATM   24  O   UNL     1     -43.539 -55.181  15.357  1.00  0.00    -0.271 OA
BRANCH  22  25
HETATM   25  C   UNL     1     -44.334 -52.490  14.737  1.00  0.00     0.041 A 
HETATM   26  C   UNL     1     -44.908 -52.529  13.442  1.00  0.00    -0.029 A 
HETATM   27  C   UNL     1     -46.156 -51.912  13.209  1.00  0.00    -0.054 A 
HETATM   28  C   UNL     1     -44.245 -53.307  12.331  1.00  0.00     0.051 C 
HETATM   29  C   UNL     1     -46.855 -51.338  14.288  1.00  0.00     0.007 A 
HETATM   30  C   UNL     1     -46.822 -51.873  11.861  1.00  0.00     0.049 C 
HETATM   31  C   UNL     1     -46.315 -51.360  15.571  1.00  0.00     0.003 A 
HETATM   32  C   UNL     1     -45.062 -51.927  15.793  1.00  0.00     0.030 A 
ENDBRANCH  22  25
ENDBRANCH  20  21
ENDBRANCH   2  20
TORSDOF 6
ENDMDL
MODEL 2
REMARK VINA RESULT:      -7.1      1.719      2.503
REMARK  6 active torsions:
REMARK  status: ('A' for Active; 'I' for Inactive)
REMARK    1  A    between atoms: N_1  and  C_8 
REMARK    2  A    between atoms: N_2  and  C_7 
REMARK    3  A    between atoms: C_8  and  C_12 
REMARK    4  A    between atoms: C_9  and  N_10 
REMARK       I    between atoms: N_10  and  C_14 
REMARK       I    between atoms: C_12  and  N_17 
REMARK    5  A    between atoms: C_14  and  C_22 
REMARK    6  A    between atoms: N_17  and  C_22 
ROOT
HETATM    1  C   UNL     1     -39.305 -52.956  14.533  1.00  0.00     0.236 C 
HETATM    2  N   UNL     1     -39.971 -53.317  13.387  1.00  0.00    -0.351 N 
HETATM    3  O   UNL     1     -39.362 -53.678  15.536  1.00  0.00    -0.272 OA
HETATM    4  H   UNL     1     -40.147 -52.556  12.743  1.00  0.00     0.163 HD
ENDROOT
BRANCH   1   5
HETATM    5  C   UNL     1     -38.579 -51.575  14.612  1.00  0.00     0.240 C 
BRANCH   5   6
HETATM    6  N   UNL     1     -38.572 -50.645  13.484  1.00  0.00    -0.255 N 
HETATM    7  C   UNL     1     -39.069 -49.375  13.699  1.00  0.00     0.334 C 
HETATM    8  N   UNL     1     -39.355 -48.666  12.532  1.00  0.00    -0.279 N 
HETATM    9  O   UNL     1     -39.348 -48.961  14.824  1.00  0.00    -0.246 OA
HETATM   10  C   UNL     1     -38.595 -48.861  11.401  1.00  0.00     0.146 C 
HETATM   11  C   UNL     1     -37.696 -49.844  11.366  1.00  0.00     0.200 C 
HETATM   12  C   UNL     1     -37.632 -50.829  12.478  1.00  0.00     0.292 C 
HETATM   13  F   UNL     1     -36.860 -50.019  10.326  1.00  0.00    -0.199 F 
HETATM   14  O   UNL     1     -36.771 -51.705  12.485  1.00  0.00    -0.264 OA
BRANCH   8  15
HETATM   15  C   UNL     1     -40.481 -47.761  12.635  1.00  0.00     0.232 C 
HETATM   16  O   UNL     1     -41.242 -47.924  11.420  1.00  0.00    -0.366 OA
HETATM   17  C   UNL     1     -41.858 -46.681  11.080  1.00  0.00     0.170 C 
HETATM   18  C   UNL     1     -41.521 -45.714  12.192  1.00  0.00     0.031 C 
HETATM   19  C   UNL     1     -40.216 -46.268  12.718  1.00  0.00     0.056 C 
ENDBRANCH   8  15
ENDBRANCH   5   6
ENDBRANCH   1   5
BRANCH   2  20
HETATM   20  C   UNL     1     -41.111 -54.248  13.407  1.00  0.00     0.225 C 
BRANCH  20  21
HETATM   21  C   UNL     1     -42.532 -53.887  13.895  1.00  0.00     0.239 C 
HETATM   22  N   UNL     1     -42.926 -52.583  13.697  1.00  0.00    -0.325 N 
HETATM   23  H   UNL     1     -42.336 -52.042  13.062  1.00  0.00     0.169 HD
HETATM   24  O   UNL     1     -43.290 -54.791  14.254  1.00  0.00    -0.271 OA
BRANCH  22  25
HETATM   25  C   UNL     1     -44.224 -52.089  13.968  1.00  0.00     0.041 A 
HETATM   26  C   UNL     1     -44.562 -51.660  15.276  1.00  0.00    -0.029 A 
HETATM   27  C   UNL     1     -45.897 -51.313  15.576  1.00  0.00    -0.054 A 
HETATM   28  C   UNL     1     -43.493 -51.480  16.326  1.00  0.00     0.051 C 
HETATM   29  C   UNL     1     -46.860 -51.315  14.549  1.00  0.00     0.007 A 
HETATM   30  C   UNL     1     -46.353 -50.883  16.943  1.00  0.00     0.049 C 
HETATM   31  C   UNL     1     -46.506 -51.675  13.251  1.00  0.00     0.003 A 
HETATM   32  C   UNL     1     -45.199 -52.063  12.964  1.00  0.00     0.030 A 
ENDBRANCH  22  25
ENDBRANCH  20  21
ENDBRANCH   2  20
TORSDOF 6
ENDMDL
MODEL 3
REMARK VINA RESULT:      -7.0      1.680      2.637
REMARK  6 active torsions:
REMARK  status: ('A' for Active; 'I' for Inactive)
REMARK    1  A    between atoms: N_1  and  C_8 
REMARK    2  A    between atoms: N_2  and  C_7 
REMARK    3  A    between atoms: C_8  and  C_12 
REMARK    4  A    between atoms: C_9  and  N_10 
REMARK       I    between atoms: N_10  and  C_14 
REMARK       I    between atoms: C_12  and  N_17 
REMARK    5  A    between atoms: C_14  and  C_22 
REMARK    6  A    between atoms: N_17  and  C_22 
ROOT
HETATM    1  C   UNL     1     -38.907 -50.634  12.855  1.00  0.00     0.236 C 
HETATM    2  N   UNL     1     -39.811 -51.645  12.636  1.00  0.00    -0.351 N 
HETATM    3  O   UNL     1     -38.244 -50.612  13.900  1.00  0.00    -0.272 OA
HETATM    4  H   UNL     1     -40.524 -51.433  11.950  1.00  0.00     0.163 HD
ENDROOT
BRANCH   1   5
HETATM    5  C   UNL     1     -38.806 -49.445  11.846  1.00  0.00     0.240 C 
BRANCH   5   6
HETATM    6  N   UNL     1     -39.736 -48.319  11.891  1.00  0.00    -0.255 N 
HETATM    7  C   UNL     1     -41.032 -48.544  11.475  1.00  0.00     0.334 C 
HETATM    8  N   UNL     1     -41.760 -47.383  11.213  1.00  0.00    -0.279 N 
HETATM    9  O   UNL     1     -41.460 -49.674  11.240  1.00  0.00    -0.246 OA
HETATM   10  C   UNL     1     -41.523 -46.239  11.941  1.00  0.00     0.146 C 
HETATM   11  C   UNL     1     -40.488 -46.188  12.779  1.00  0.00     0.200 C 
HETATM   12  C   UNL     1     -39.498 -47.297  12.801  1.00  0.00     0.292 C 
HETATM   13  F   UNL     1     -40.265 -45.134  13.585  1.00  0.00    -0.199 F 
HETATM   14  O   UNL     1     -38.572 -47.288  13.608  1.00  0.00    -0.264 OA
BRANCH   8  15
HETATM   15  C   UNL     1     -42.731 -47.506  10.145  1.00  0.00     0.232 C 
HETATM   16  O   UNL     1     -42.645 -46.286   9.379  1.00  0.00    -0.366 OA
HETATM   17  C   UNL     1     -43.933 -45.975   8.843  1.00  0.00     0.170 C 
HETATM   18  C   UNL     1     -44.850 -47.111   9.237  1.00  0.00     0.031 C 
HETATM   19  C   UNL     1     -44.202 -47.625  10.503  1.00  0.00     0.056 C 
ENDBRANCH   8  15
ENDBRANCH   5   6
ENDBRANCH   1   5
BRANCH   2  20
HETATM   20  C   UNL     1     -40.379 -52.437  13.739  1.00  0.00     0.225 C 
BRANCH  20  21
HETATM   21  C   UNL     1     -41.888 -52.557  14.048  1.00  0.00     0.239 C 
HETATM   22  N   UNL     1     -42.621 -51.397  13.940  1.00  0.00    -0.325 N 
HETATM   23  H   UNL     1     -42.148 -50.627  13.465  1.00  0.00     0.169 HD
HETATM   24  O   UNL     1     -42.385 -53.678  14.186  1.00  0.00    -0.271 OA
BRANCH  22  25
HETATM   25  C   UNL     1     -44.029 -51.324  14.068  1.00  0.00     0.041 A 
HETATM   26  C   UNL     1     -44.616 -51.078  15.335  1.00  0.00    -0.029 A 
HETATM   27  C   UNL     1     -46.016 -51.159  15.485  1.00  0.00    -0.054 A 
HETATM   28  C   UNL     1     -43.766 -50.639  16.503  1.00  0.00     0.051 C 
HETATM   29  C   UNL     1     -46.821 -51.397  14.354  1.00  0.00     0.007 A 
HETATM   30  C   UNL     1     -46.722 -50.949  16.797  1.00  0.00     0.049 C 
HETATM   31  C   UNL     1     -46.241 -51.573  13.101  1.00  0.00     0.003 A 
HETATM   32  C   UNL     1     -44.856 -51.541  12.959  1.00  0.00     0.030 A 
ENDBRANCH  22  25
ENDBRANCH  20  21
ENDBRANCH   2  20
TORSDOF 6
ENDMDL
MODEL 4
REMARK VINA RESULT:      -6.9      2.433      3.273
REMARK  6 active torsions:
REMARK  status: ('A' for Active; 'I' for Inactive)
REMARK    1  A    between atoms: N_1  and  C_8 
REMARK    2  A    between atoms: N_2  and  C_7 
REMARK    3  A    between atoms: C_8  and  C_12 
REMARK    4  A    between atoms: C_9  and  N_10 
REMARK       I    between atoms: N_10  and  C_14 
REMARK       I    between atoms: C_12  and  N_17 
REMARK    5  A    between atoms: C_14  and  C_22 
REMARK    6  A    between atoms: N_17  and  C_22 
ROOT
HETATM    1  C   UNL     1     -39.330 -50.797  12.169  1.00  0.00     0.236 C 
HETATM    2  N   UNL     1     -40.451 -51.090  11.432  1.00  0.00    -0.351 N 
HETATM    3  O   UNL     1     -38.752 -51.691  12.800  1.00  0.00    -0.272 OA
HETATM    4  H   UNL     1     -41.038 -50.292  11.220  1.00  0.00     0.163 HD
ENDROOT
BRANCH   1   5
HETATM    5  C   UNL     1     -38.855 -49.315  12.313  1.00  0.00     0.240 C 
BRANCH   5   6
HETATM    6  N   UNL     1     -39.686 -48.302  12.959  1.00  0.00    -0.255 N 
HETATM    7  C   UNL     1     -40.613 -47.642  12.178  1.00  0.00     0.334 C 
HETATM    8  N   UNL     1     -41.118 -46.474  12.749  1.00  0.00    -0.279 N 
HETATM    9  O   UNL     1     -40.873 -47.996  11.028  1.00  0.00    -0.246 OA
HETATM   10  C   UNL     1     -41.266 -46.380  14.115  1.00  0.00     0.146 C 
HETATM   11  C   UNL     1     -40.773 -47.335  14.903  1.00  0.00     0.200 C 
HETATM   12  C   UNL     1     -39.923 -48.408  14.324  1.00  0.00     0.292 C 
HETATM   13  F   UNL     1     -40.972 -47.344  16.235  1.00  0.00    -0.199 F 
HETATM   14  O   UNL     1     -39.510 -49.324  15.030  1.00  0.00    -0.264 OA
BRANCH   8  15
HETATM   15  C   UNL     1     -41.442 -45.428  11.801  1.00  0.00     0.232 C 
HETATM   16  O   UNL     1     -40.200 -44.762  11.495  1.00  0.00    -0.366 OA
HETATM   17  C   UNL     1     -40.459 -43.384  11.222  1.00  0.00     0.170 C 
HETATM   18  C   UNL     1     -41.959 -43.205  11.289  1.00  0.00     0.031 C 
HETATM   19  C   UNL     1     -42.374 -44.309  12.235  1.00  0.00     0.056 C 
ENDBRANCH   8  15
ENDBRANCH   5   6
ENDBRANCH   1   5
BRANCH   2  20
HETATM   20  C   UNL     1     -41.278 -52.277  11.706  1.00  0.00     0.225 C 
BRANCH  20  21
HETATM   21  C   UNL     1     -42.410 -52.336  12.755  1.00  0.00     0.239 C 
HETATM   22  N   UNL     1     -43.322 -51.305  12.719  1.00  0.00    -0.325 N 
HETATM   23  H   UNL     1     -43.289 -50.726  11.879  1.00  0.00     0.169 HD
HETATM   24  O   UNL     1     -42.550 -53.361  13.428  1.00  0.00    -0.271 OA
BRANCH  22  25
HETATM   25  C   UNL     1     -44.489 -51.241  13.517  1.00  0.00     0.041 A 
HETATM   26  C   UNL     1     -44.415 -50.761  14.848  1.00  0.00    -0.029 A 
HETATM   27  C   UNL     1     -45.547 -50.842  15.686  1.00  0.00    -0.054 A 
HETATM   28  C   UNL     1     -43.165 -50.079  15.350  1.00  0.00     0.051 C 
HETATM   29  C   UNL     1     -46.763 -51.319  15.162  1.00  0.00     0.007 A 
HETATM   30  C   UNL     1     -45.549 -50.392  17.121  1.00  0.00     0.049 C 
HETATM   31  C   UNL     1     -46.846 -51.729  13.833  1.00  0.00     0.003 A 
HETATM   32  C   UNL     1     -45.717 -51.694  13.018  1.00  0.00     0.030 A 
ENDBRANCH  22  25
ENDBRANCH  20  21
ENDBRANCH   2  20
TORSDOF 6
ENDMDL
MODEL 5
REMARK VINA RESULT:      -6.8      3.091      5.678
REMARK  6 active torsions:
REMARK  status: ('A' for Active; 'I' for Inactive)
REMARK    1  A    between atoms: N_1  and  C_8 
REMARK    2  A    between atoms: N_2  and  C_7 
REMARK    3  A    between atoms: C_8  and  C_12 
REMARK    4  A    between atoms: C_9  and  N_10 
REMARK       I    between atoms: N_10  and  C_14 
REMARK       I    between atoms: C_12  and  N_17 
REMARK    5  A    between atoms: C_14  and  C_22 
REMARK    6  A    between atoms: N_17  and  C_22 
ROOT
HETATM    1  C   UNL     1     -39.495 -51.527  14.163  1.00  0.00     0.236 C 
HETATM    2  N   UNL     1     -39.914 -50.781  15.237  1.00  0.00    -0.351 N 
HETATM    3  O   UNL     1     -39.429 -51.012  13.039  1.00  0.00    -0.272 OA
HETATM    4  H   UNL     1     -40.247 -51.324  16.024  1.00  0.00     0.163 HD
ENDROOT
BRANCH   1   5
HETATM    5  C   UNL     1     -39.223 -53.056  14.331  1.00  0.00     0.240 C 
BRANCH   5   6
HETATM    6  N   UNL     1     -40.181 -53.938  14.995  1.00  0.00    -0.255 N 
HETATM    7  C   UNL     1     -41.386 -54.165  14.361  1.00  0.00     0.334 C 
HETATM    8  N   UNL     1     -42.372 -54.714  15.182  1.00  0.00    -0.279 N 
HETATM    9  O   UNL     1     -41.600 -53.798  13.206  1.00  0.00    -0.246 OA
HETATM   10  C   UNL     1     -42.024 -55.575  16.200  1.00  0.00     0.146 C 
HETATM   11  C   UNL     1     -40.740 -55.752  16.509  1.00  0.00     0.200 C 
HETATM   12  C   UNL     1     -39.700 -54.901  15.873  1.00  0.00     0.292 C 
HETATM   13  F   UNL     1     -40.338 -56.651  17.427  1.00  0.00    -0.199 F 
HETATM   14  O   UNL     1     -38.510 -55.093  16.107  1.00  0.00    -0.264 OA
BRANCH   8  15
HETATM   15  C   UNL     1     -43.722 -54.296  14.868  1.00  0.00     0.232 C 
HETATM   16  O   UNL     1     -44.397 -54.127  16.133  1.00  0.00    -0.366 OA
HETATM   17  C   UNL     1     -45.780 -54.447  15.975  1.00  0.00     0.170 C 
HETATM   18  C   UNL     1     -45.987 -54.757  14.510  1.00  0.00     0.031 C 
HETATM   19  C   UNL     1     -44.618 -55.239  14.085  1.00  0.00     0.056 C 
ENDBRANCH   8  15
ENDBRANCH   5   6
ENDBRANCH   1   5
BRANCH   2  20
HETATM   20  C   UNL     1     -40.723 -49.562  15.075  1.00  0.00     0.225 C 
BRANCH  20  21
HETATM   21  C   UNL     1     -42.208 -49.543  14.649  1.00  0.00     0.239 C 
HETATM   22  N   UNL     1     -42.898 -50.723  14.813  1.00  0.00    -0.325 N 
HETATM   23  H   UNL     1     -42.431 -51.423  15.391  1.00  0.00     0.169 HD
HETATM   24  O   UNL     1     -42.738 -48.465  14.370  1.00  0.00    -0.271 OA
BRANCH  22  25
HETATM   25  C   UNL     1     -44.288 -50.875  14.591  1.00  0.00     0.041 A 
HETATM   26  C   UNL     1     -45.190 -50.844  15.684  1.00  0.00    -0.029 A 
HETATM   27  C   UNL     1     -46.552 -51.147  15.477  1.00  0.00    -0.054 A 
HETATM   28  C   UNL     1     -44.727 -50.398  17.050  1.00  0.00     0.051 C 
HETATM   29  C   UNL     1     -47.015 -51.393  14.170  1.00  0.00     0.007 A 
HETATM   30  C   UNL     1     -47.572 -51.174  16.582  1.00  0.00     0.049 C 
HETATM   31  C   UNL     1     -46.135 -51.357  13.091  1.00  0.00     0.003 A 
HETATM   32  C   UNL     1     -44.781 -51.105  13.301  1.00  0.00     0.030 A 
ENDBRANCH  22  25
ENDBRANCH  20  21
ENDBRANCH   2  20
TORSDOF 6
ENDMDL
MODEL 6
REMARK VINA RESULT:      -6.5      1.968      3.060
REMARK  6 active torsions:
REMARK  status: ('A' for Active; 'I' for Inactive)
REMARK    1  A    between atoms: N_1  and  C_8 
REMARK    2  A    between atoms: N_2  and  C_7 
REMARK    3  A    between atoms: C_8  and  C_12 
REMARK    4  A    between atoms: C_9  and  N_10 
REMARK       I    between atoms: N_10  and  C_14 
REMARK       I    between atoms: C_12  and  N_17 
REMARK    5  A    between atoms: C_14  and  C_22 
REMARK    6  A    between atoms: N_17  and  C_22 
ROOT
HETATM    1  C   UNL     1     -39.415 -53.401  15.194  1.00  0.00     0.236 C 
HETATM    2  N   UNL     1     -40.339 -54.318  14.757  1.00  0.00    -0.351 N 
HETATM    3  O   UNL     1     -39.185 -53.282  16.404  1.00  0.00    -0.272 OA
HETATM    4  H   UNL     1     -40.704 -54.141  13.829  1.00  0.00     0.163 HD
ENDROOT
BRANCH   1   5
HETATM    5  C   UNL     1     -38.748 -52.419  14.178  1.00  0.00     0.240 C 
BRANCH   5   6
HETATM    6  N   UNL     1     -39.420 -51.200  13.734  1.00  0.00    -0.255 N 
HETATM    7  C   UNL     1     -38.689 -50.028  13.742  1.00  0.00     0.334 C 
HETATM    8  N   UNL     1     -39.461 -48.870  13.648  1.00  0.00    -0.279 N 
HETATM    9  O   UNL     1     -37.475 -50.014  13.940  1.00  0.00    -0.246 OA
HETATM   10  C   UNL     1     -40.631 -48.876  12.922  1.00  0.00     0.146 C 
HETATM   11  C   UNL     1     -41.114 -50.025  12.452  1.00  0.00     0.200 C 
HETATM   12  C   UNL     1     -40.485 -51.312  12.849  1.00  0.00     0.292 C 
HETATM   13  F   UNL     1     -42.200 -50.079  11.657  1.00  0.00    -0.199 F 
HETATM   14  O   UNL     1     -40.885 -52.373  12.377  1.00  0.00    -0.264 OA
BRANCH   8  15
HETATM   15  C   UNL     1     -38.929 -47.729  14.363  1.00  0.00     0.232 C 
HETATM   16  O   UNL     1     -39.319 -47.899  15.742  1.00  0.00    -0.366 OA
HETATM   17  C   UNL     1     -39.519 -46.616  16.337  1.00  0.00     0.170 C 
HETATM   18  C   UNL     1     -39.156 -45.592  15.286  1.00  0.00     0.031 C 
HETATM   19  C   UNL     1     -39.424 -46.340  14.000  1.00  0.00     0.056 C 
ENDBRANCH   8  15
ENDBRANCH   5   6
ENDBRANCH   1   5
BRANCH   2  20
HETATM   20  C   UNL     1     -41.399 -54.839  15.636  1.00  0.00     0.225 C 
BRANCH  20  21
HETATM   21  C   UNL     1     -42.876 -54.391  15.591  1.00  0.00     0.239 C 
HETATM   22  N   UNL     1     -43.111 -53.134  15.081  1.00  0.00    -0.325 N 
HETATM   23  H   UNL     1     -42.323 -52.710  14.590  1.00  0.00     0.169 HD
HETATM   24  O   UNL     1     -43.761 -55.218  15.827  1.00  0.00    -0.271 OA
BRANCH  22  25
HETATM   25  C   UNL     1     -44.397 -52.591  14.851  1.00  0.00     0.041 A 
HETATM   26  C   UNL     1     -44.935 -52.565  13.540  1.00  0.00    -0.029 A 
HETATM   27  C   UNL     1     -46.147 -51.888  13.292  1.00  0.00    -0.054 A 
HETATM   28  C   UNL     1     -44.272 -53.335  12.424  1.00  0.00     0.051 C 
HETATM   29  C   UNL     1     -46.854 -51.318  14.369  1.00  0.00     0.007 A 
HETATM   30  C   UNL     1     -46.772 -51.779  11.929  1.00  0.00     0.049 C 
HETATM   31  C   UNL     1     -46.352 -51.403  15.665  1.00  0.00     0.003 A 
HETATM   32  C   UNL     1     -45.132 -52.030  15.904  1.00  0.00     0.030 A 
ENDBRANCH  22  25
ENDBRANCH  20  21
ENDBRANCH   2  20
TORSDOF 6
ENDMDL
MODEL 7
REMARK VINA RESULT:      -6.5      1.916      3.291
REMARK  6 active torsions:
REMARK  status: ('A' for Active; 'I' for Inactive)
REMARK    1  A    between atoms: N_1  and  C_8 
REMARK    2  A    between atoms: N_2  and  C_7 
REMARK    3  A    between atoms: C_8  and  C_12 
REMARK    4  A    between atoms: C_9  and  N_10 
REMARK       I    between atoms: N_10  and  C_14 
REMARK       I    between atoms: C_12  and  N_17 
REMARK    5  A    between atoms: C_14  and  C_22 
REMARK    6  A    between atoms: N_17  and  C_22 
ROOT
HETATM    1  C   UNL     1     -39.716 -52.495  13.915  1.00  0.00     0.236 C 
HETATM    2  N   UNL     1     -40.393 -53.610  13.489  1.00  0.00    -0.351 N 
HETATM    3  O   UNL     1     -39.535 -52.304  15.124  1.00  0.00    -0.272 OA
HETATM    4  H   UNL     1     -40.778 -53.540  12.555  1.00  0.00     0.163 HD
ENDROOT
BRANCH   1   5
HETATM    5  C   UNL     1     -39.284 -51.402  12.885  1.00  0.00     0.240 C 
BRANCH   5   6
HETATM    6  N   UNL     1     -40.072 -50.189  12.675  1.00  0.00    -0.255 N 
HETATM    7  C   UNL     1     -39.398 -49.047  12.292  1.00  0.00     0.334 C 
HETATM    8  N   UNL     1     -40.130 -47.870  12.445  1.00  0.00    -0.279 N 
HETATM    9  O   UNL     1     -38.213 -49.064  11.961  1.00  0.00    -0.246 OA
HETATM   10  C   UNL     1     -41.497 -47.879  12.279  1.00  0.00     0.146 C 
HETATM   11  C   UNL     1     -42.141 -49.037  12.139  1.00  0.00     0.200 C 
HETATM   12  C   UNL     1     -41.411 -50.318  12.329  1.00  0.00     0.292 C 
HETATM   13  F   UNL     1     -43.460 -49.102  11.878  1.00  0.00    -0.199 F 
HETATM   14  O   UNL     1     -41.979 -51.392  12.146  1.00  0.00    -0.264 OA
BRANCH   8  15
HETATM   15  C   UNL     1     -39.339 -46.706  12.788  1.00  0.00     0.232 C 
HETATM   16  O   UNL     1     -39.403 -46.582  14.224  1.00  0.00    -0.366 OA
HETATM   17  C   UNL     1     -39.336 -45.201  14.580  1.00  0.00     0.170 C 
HETATM   18  C   UNL     1     -39.141 -44.431  13.294  1.00  0.00     0.031 C 
HETATM   19  C   UNL     1     -39.776 -45.346  12.271  1.00  0.00     0.056 C 
ENDBRANCH   8  15
ENDBRANCH   5   6
ENDBRANCH   1   5
BRANCH   2  20
HETATM   20  C   UNL     1     -41.313 -54.350  14.369  1.00  0.00     0.225 C 
BRANCH  20  21
HETATM   21  C   UNL     1     -42.810 -54.018  14.552  1.00  0.00     0.239 C 
HETATM   22  N   UNL     1     -43.134 -52.680  14.579  1.00  0.00    -0.325 N 
HETATM   23  H   UNL     1     -42.396 -52.048  14.263  1.00  0.00     0.169 HD
HETATM   24  O   UNL     1     -43.640 -54.928  14.480  1.00  0.00    -0.271 OA
BRANCH  22  25
HETATM   25  C   UNL     1     -44.455 -52.176  14.622  1.00  0.00     0.041 A 
HETATM   26  C   UNL     1     -45.104 -51.986  15.868  1.00  0.00    -0.029 A 
HETATM   27  C   UNL     1     -46.469 -51.631  15.900  1.00  0.00    -0.054 A 
HETATM   28  C   UNL     1     -44.326 -52.068  17.159  1.00  0.00     0.051 C 
HETATM   29  C   UNL     1     -47.149 -51.385  14.692  1.00  0.00     0.007 A 
HETATM   30  C   UNL     1     -47.246 -51.444  17.174  1.00  0.00     0.049 C 
HETATM   31  C   UNL     1     -46.488 -51.510  13.473  1.00  0.00     0.003 A 
HETATM   32  C   UNL     1     -45.153 -51.907  13.437  1.00  0.00     0.030 A 
ENDBRANCH  22  25
ENDBRANCH  20  21
ENDBRANCH   2  20
TORSDOF 6
ENDMDL
MODEL 8
REMARK VINA RESULT:      -6.3      2.729      4.688
REMARK  6 active torsions:
REMARK  status: ('A' for Active; 'I' for Inactive)
REMARK    1  A    between atoms: N_1  and  C_8 
REMARK    2  A    between atoms: N_2  and  C_7 
REMARK    3  A    between atoms: C_8  and  C_12 
REMARK    4  A    between atoms: C_9  and  N_10 
REMARK       I    between atoms: N_10  and  C_14 
REMARK       I    between atoms: C_12  and  N_17 
REMARK    5  A    between atoms: C_14  and  C_22 
REMARK    6  A    between atoms: N_17  and  C_22 
ROOT
HETATM    1  C   UNL     1     -43.795 -54.584  13.959  1.00  0.00     0.236 C 
HETATM    2  N   UNL     1     -44.314 -53.864  12.910  1.00  0.00    -0.351 N 
HETATM    3  O   UNL     1     -44.551 -55.187  14.731  1.00  0.00    -0.272 OA
HETATM    4  H   UNL     1     -43.694 -53.158  12.534  1.00  0.00     0.163 HD
ENDROOT
BRANCH   1   5
HETATM    5  C   UNL     1     -42.261 -54.538  14.254  1.00  0.00     0.240 C 
BRANCH   5   6
HETATM    6  N   UNL     1     -41.577 -53.287  14.574  1.00  0.00    -0.255 N 
HETATM    7  C   UNL     1     -41.281 -52.435  13.529  1.00  0.00     0.334 C 
HETATM    8  N   UNL     1     -40.343 -51.451  13.841  1.00  0.00    -0.279 N 
HETATM    9  O   UNL     1     -41.719 -52.612  12.393  1.00  0.00    -0.246 OA
HETATM   10  C   UNL     1     -40.283 -50.929  15.114  1.00  0.00     0.146 C 
HETATM   11  C   UNL     1     -41.004 -51.479  16.090  1.00  0.00     0.200 C 
HETATM   12  C   UNL     1     -41.736 -52.750  15.845  1.00  0.00     0.292 C 
HETATM   13  F   UNL     1     -41.059 -50.954  17.328  1.00  0.00    -0.199 F 
HETATM   14  O   UNL     1     -42.449 -53.236  16.720  1.00  0.00    -0.264 OA
BRANCH   8  15
HETATM   15  C   UNL     1     -39.482 -51.067  12.741  1.00  0.00     0.232 C 
HETATM   16  O   UNL     1     -38.269 -51.833  12.891  1.00  0.00    -0.366 OA
HETATM   17  C   UNL     1     -37.166 -51.071  12.399  1.00  0.00     0.170 C 
HETATM   18  C   UNL     1     -37.742 -49.789  11.841  1.00  0.00     0.031 C 
HETATM   19  C   UNL     1     -39.009 -49.626  12.649  1.00  0.00     0.056 C 
ENDBRANCH   8  15
ENDBRANCH   5   6
ENDBRANCH   1   5
BRANCH   2  20
HETATM   20  C   UNL     1     -45.704 -53.380  12.907  1.00  0.00     0.225 C 
BRANCH  20  21
HETATM   21  C   UNL     1     -46.248 -52.260  13.821  1.00  0.00     0.239 C 
HETATM   22  N   UNL     1     -46.058 -52.439  15.173  1.00  0.00    -0.325 N 
HETATM   23  H   UNL     1     -45.397 -53.176  15.426  1.00  0.00     0.169 HD
HETATM   24  O   UNL     1     -46.641 -51.208  13.312  1.00  0.00    -0.271 OA
BRANCH  22  25
HETATM   25  C   UNL     1     -46.378 -51.478  16.161  1.00  0.00     0.041 A 
HETATM   26  C   UNL     1     -45.433 -50.485  16.520  1.00  0.00    -0.029 A 
HETATM   27  C   UNL     1     -45.697 -49.626  17.608  1.00  0.00    -0.054 A 
HETATM   28  C   UNL     1     -44.188 -50.274  15.692  1.00  0.00     0.051 C 
HETATM   29  C   UNL     1     -46.937 -49.710  18.270  1.00  0.00     0.007 A 
HETATM   30  C   UNL     1     -44.738 -48.570  18.082  1.00  0.00     0.049 C 
HETATM   31  C   UNL     1     -47.889 -50.645  17.869  1.00  0.00     0.003 A 
HETATM   32  C   UNL     1     -47.610 -51.525  16.826  1.00  0.00     0.030 A 
ENDBRANCH  22  25
ENDBRANCH  20  21
ENDBRANCH   2  20
TORSDOF 6
ENDMDL
MODEL 9
REMARK VINA RESULT:      -6.2     14.865     16.037
REMARK  6 active torsions:
REMARK  status: ('A' for Active; 'I' for Inactive)
REMARK    1  A    between atoms: N_1  and  C_8 
REMARK    2  A    between atoms: N_2  and  C_7 
REMARK    3  A    between atoms: C_8  and  C_12 
REMARK    4  A    between atoms: C_9  and  N_10 
REMARK       I    between atoms: N_10  and  C_14 
REMARK       I    between atoms: C_12  and  N_17 
REMARK    5  A    between atoms: C_14  and  C_22 
REMARK    6  A    between atoms: N_17  and  C_22 
ROOT
HETATM    1  C   UNL     1     -47.988 -50.572  -1.300  1.00  0.00     0.236 C 
HETATM    2  N   UNL     1     -49.355 -50.485  -1.203  1.00  0.00    -0.351 N 
HETATM    3  O   UNL     1     -47.336 -51.102  -0.391  1.00  0.00    -0.272 OA
HETATM    4  H   UNL     1     -49.777 -49.779  -1.794  1.00  0.00     0.163 HD
ENDROOT
BRANCH   1   5
HETATM    5  C   UNL     1     -47.245 -49.892  -2.494  1.00  0.00     0.240 C 
BRANCH   5   6
HETATM    6  N   UNL     1     -46.460 -48.672  -2.315  1.00  0.00    -0.255 N 
HETATM    7  C   UNL     1     -45.308 -48.538  -3.063  1.00  0.00     0.334 C 
HETATM    8  N   UNL     1     -44.440 -47.546  -2.607  1.00  0.00    -0.279 N 
HETATM    9  O   UNL     1     -45.024 -49.313  -3.976  1.00  0.00    -0.246 OA
HETATM   10  C   UNL     1     -44.940 -46.408  -2.013  1.00  0.00     0.146 C 
HETATM   11  C   UNL     1     -46.237 -46.328  -1.722  1.00  0.00     0.200 C 
HETATM   12  C   UNL     1     -47.108 -47.522  -1.882  1.00  0.00     0.292 C 
HETATM   13  F   UNL     1     -46.798 -45.207  -1.231  1.00  0.00    -0.199 F 
HETATM   14  O   UNL     1     -48.316 -47.445  -1.670  1.00  0.00    -0.264 OA
BRANCH   8  15
HETATM   15  C   UNL     1     -43.034 -47.833  -2.808  1.00  0.00     0.232 C 
HETATM   16  O   UNL     1     -42.363 -47.433  -1.595  1.00  0.00    -0.366 OA
HETATM   17  C   UNL     1     -41.047 -46.979  -1.914  1.00  0.00     0.170 C 
HETATM   18  C   UNL     1     -40.867 -47.183  -3.401  1.00  0.00     0.031 C 
HETATM   19  C   UNL     1     -42.288 -47.102  -3.911  1.00  0.00     0.056 C 
ENDBRANCH   8  15
ENDBRANCH   5   6
ENDBRANCH   1   5
BRANCH   2  20
HETATM   20  C   UNL     1     -50.054 -50.554   0.091  1.00  0.00     0.225 C 
BRANCH  20  21
HETATM   21  C   UNL     1     -50.091 -49.414   1.132  1.00  0.00     0.239 C 
HETATM   22  N   UNL     1     -50.382 -48.159   0.643  1.00  0.00    -0.325 N 
HETATM   23  H   UNL     1     -50.752 -48.139  -0.309  1.00  0.00     0.169 HD
HETATM   24  O   UNL     1     -50.049 -49.695   2.332  1.00  0.00    -0.271 OA
BRANCH  22  25
HETATM   25  C   UNL     1     -50.576 -47.012   1.447  1.00  0.00     0.041 A 
HETATM   26  C   UNL     1     -51.887 -46.579   1.765  1.00  0.00    -0.029 A 
HETATM   27  C   UNL     1     -52.077 -45.352   2.437  1.00  0.00    -0.054 A 
HETATM   28  C   UNL     1     -53.078 -47.460   1.476  1.00  0.00     0.051 C 
HETATM   29  C   UNL     1     -50.955 -44.615   2.861  1.00  0.00     0.007 A 
HETATM   30  C   UNL     1     -53.432 -44.798   2.781  1.00  0.00     0.049 C 
HETATM   31  C   UNL     1     -49.668 -45.079   2.602  1.00  0.00     0.003 A 
HETATM   32  C   UNL     1     -49.479 -46.265   1.897  1.00  0.00     0.030 A 
ENDBRANCH  22  25
ENDBRANCH  20  21
ENDBRANCH   2  20
TORSDOF 6
ENDMDL
