MODEL 1
REMARK VINA RESULT:      -6.3      0.000      0.000
REMARK  5 active torsions:
REMARK  status: ('A' for Active; 'I' for Inactive)
REMARK    1  A    between atoms: O_1  and  C_2 
REMARK    2  A    between atoms: C_2  and  C_3 
REMARK    3  A    between atoms: C_2  and  C_10 
REMARK    4  A    between atoms: C_3  and  N_4 
REMARK    5  A    between atoms: C_10  and  N_11 
ROOT
HETATM    1  N   UNL     1     -42.103 -51.248  12.399  1.00  0.00    -0.271 N 
HETATM    2  N   UNL     1     -41.271 -52.217  11.967  1.00  0.00    -0.019 NA
HETATM    3  N   UNL     1     -41.835 -53.382  12.258  1.00  0.00    -0.282 N 
ATOM      4  HN  UNL     1     -41.448 -54.302  12.049  1.00  0.00     0.184 HD
HETATM    5  C   UNL     1     -43.026 -53.135  12.885  1.00  0.00     0.075 A 
HETATM    6  C   UNL     1     -44.020 -54.010  13.341  1.00  0.00     0.058 A 
HETATM    7  C   UNL     1     -45.171 -53.464  13.930  1.00  0.00     0.058 A 
HETATM    8 CL   UNL     1     -46.407 -54.574  14.416  1.00  0.00    -0.082 Cl
HETATM    9  C   UNL     1     -45.312 -52.077  14.091  1.00  0.00     0.058 A 
HETATM   10 CL   UNL     1     -46.719 -51.372  14.814  1.00  0.00    -0.082 Cl
HETATM   11  C   UNL     1     -44.316 -51.195  13.650  1.00  0.00     0.058 A 
HETATM   12  C   UNL     1     -43.197 -51.766  13.033  1.00  0.00     0.078 A 
ENDROOT
BRANCH   1  13
HETATM   13  C   UNL     1     -41.841 -49.868  12.047  1.00  0.00     0.180 C 
BRANCH  13  14
HETATM   14  C   UNL     1     -40.418 -49.708  11.501  1.00  0.00     0.166 C 
BRANCH  14  15
HETATM   15  O   UNL     1     -40.414 -49.918  10.082  1.00  0.00    -0.392 OA
HETATM   16  H   UNL     1     -39.639 -50.493   9.909  1.00  0.00     0.210 HD
ENDBRANCH  14  15
BRANCH  14  17
HETATM   17  C   UNL     1     -39.893 -48.287  11.781  1.00  0.00     0.305 C 
BRANCH  17  18
HETATM   18  N   UNL     1     -40.969 -47.275  11.881  1.00  0.00     0.095 N 
HETATM   19  C   UNL     1     -41.076 -46.399  10.688  1.00  0.00     0.298 C 
HETATM   20  C   UNL     1     -39.909 -45.410  10.523  1.00  0.00     0.198 C 
HETATM   21  O   UNL     1     -39.736 -44.602  11.693  1.00  0.00    -0.388 OA
HETATM   22  C   UNL     1     -39.554 -45.412  12.860  1.00  0.00     0.198 C 
HETATM   23  C   UNL     1     -40.732 -46.386  13.051  1.00  0.00     0.298 C 
ENDBRANCH  17  18
ENDBRANCH  14  17
ENDBRANCH  13  14
ENDBRANCH   1  13
TORSDOF 5
ENDMDL
MODEL 2
REMARK VINA RESULT:      -5.9      2.033      2.531
REMARK  5 active torsions:
REMARK  status: ('A' for Active; 'I' for Inactive)
REMARK    1  A    between atoms: O_1  and  C_2 
REMARK    2  A    between atoms: C_2  and  C_3 
REMARK    3  A    between atoms: C_2  and  C_10 
REMARK    4  A    between atoms: C_3  and  N_4 
REMARK    5  A    between atoms: C_10  and  N_11 
ROOT
HETATM    1  N   UNL     1     -42.132 -51.568  12.483  1.00  0.00    -0.271 N 
HETATM    2  N   UNL     1     -41.342 -52.592  12.103  1.00  0.00    -0.019 NA
HETATM    3  N   UNL     1     -41.965 -53.716  12.432  1.00  0.00    -0.282 N 
ATOM      4  HN  UNL     1     -41.619 -54.662  12.266  1.00  0.00     0.184 HD
HETATM    5  C   UNL     1     -43.150 -53.388  13.032  1.00  0.00     0.075 A 
HETATM    6  C   UNL     1     -44.189 -54.196  13.508  1.00  0.00     0.058 A 
HETATM    7  C   UNL     1     -45.321 -53.573  14.058  1.00  0.00     0.058 A 
HETATM    8 CL   UNL     1     -46.614 -54.603  14.571  1.00  0.00    -0.082 Cl
HETATM    9  C   UNL     1     -45.398 -52.175  14.161  1.00  0.00     0.058 A 
HETATM   10 CL   UNL     1     -46.778 -51.376  14.834  1.00  0.00    -0.082 Cl
HETATM   11  C   UNL     1     -44.356 -51.360  13.700  1.00  0.00     0.058 A 
HETATM   12  C   UNL     1     -43.257 -52.007  13.122  1.00  0.00     0.078 A 
ENDROOT
BRANCH   1  13
HETATM   13  C   UNL     1     -41.801 -50.218  12.079  1.00  0.00     0.180 C 
BRANCH  13  14
HETATM   14  C   UNL     1     -40.351 -50.138  11.589  1.00  0.00     0.166 C 
BRANCH  14  15
HETATM   15  O   UNL     1     -40.327 -49.932  10.170  1.00  0.00    -0.392 OA
HETATM   16  H   UNL     1     -40.690 -50.757   9.784  1.00  0.00     0.210 HD
ENDBRANCH  14  15
BRANCH  14  17
HETATM   17  C   UNL     1     -39.622 -48.959  12.261  1.00  0.00     0.305 C 
BRANCH  17  18
HETATM   18  N   UNL     1     -39.768 -48.943  13.735  1.00  0.00     0.095 N 
HETATM   19  C   UNL     1     -39.196 -47.735  14.378  1.00  0.00     0.298 C 
HETATM   20  C   UNL     1     -37.659 -47.669  14.347  1.00  0.00     0.198 C 
HETATM   21  O   UNL     1     -37.072 -48.840  14.925  1.00  0.00    -0.388 OA
HETATM   22  C   UNL     1     -37.543 -50.029  14.281  1.00  0.00     0.198 C 
HETATM   23  C   UNL     1     -39.080 -50.119  14.333  1.00  0.00     0.298 C 
ENDBRANCH  17  18
ENDBRANCH  14  17
ENDBRANCH  13  14
ENDBRANCH   1  13
TORSDOF 5
ENDMDL
MODEL 3
REMARK VINA RESULT:      -5.8      4.532      5.552
REMARK  5 active torsions:
REMARK  status: ('A' for Active; 'I' for Inactive)
REMARK    1  A    between atoms: O_1  and  C_2 
REMARK    2  A    between atoms: C_2  and  C_3 
REMARK    3  A    between atoms: C_2  and  C_10 
REMARK    4  A    between atoms: C_3  and  N_4 
REMARK    5  A    between atoms: C_10  and  N_11 
ROOT
HETATM    1  N   UNL     1     -43.969 -52.805  13.079  1.00  0.00    -0.271 N 
HETATM    2  N   UNL     1     -44.696 -53.745  12.444  1.00  0.00    -0.019 NA
HETATM    3  N   UNL     1     -45.887 -53.785  13.026  1.00  0.00    -0.282 N 
ATOM      4  HN  UNL     1     -46.661 -54.395  12.764  1.00  0.00     0.184 HD
HETATM    5  C   UNL     1     -45.897 -52.866  14.039  1.00  0.00     0.075 A 
HETATM    6  C   UNL     1     -46.920 -52.479  14.914  1.00  0.00     0.058 A 
HETATM    7  C   UNL     1     -46.651 -51.470  15.852  1.00  0.00     0.058 A 
HETATM    8 CL   UNL     1     -47.960 -50.970  16.868  1.00  0.00    -0.082 Cl
HETATM    9  C   UNL     1     -45.378 -50.884  15.937  1.00  0.00     0.058 A 
HETATM   10 CL   UNL     1     -45.013 -49.638  17.083  1.00  0.00    -0.082 Cl
HETATM   11  C   UNL     1     -44.345 -51.275  15.075  1.00  0.00     0.058 A 
HETATM   12  C   UNL     1     -44.654 -52.256  14.125  1.00  0.00     0.078 A 
ENDROOT
BRANCH   1  13
HETATM   13  C   UNL     1     -42.687 -52.402  12.537  1.00  0.00     0.180 C 
BRANCH  13  14
HETATM   14  C   UNL     1     -41.670 -53.543  12.645  1.00  0.00     0.166 C 
BRANCH  14  15
HETATM   15  O   UNL     1     -40.647 -53.380  11.653  1.00  0.00    -0.392 OA
HETATM   16  H   UNL     1     -40.303 -52.471  11.785  1.00  0.00     0.210 HD
ENDBRANCH  14  15
BRANCH  14  17
HETATM   17  C   UNL     1     -41.001 -53.535  14.034  1.00  0.00     0.305 C 
BRANCH  17  18
HETATM   18  N   UNL     1     -39.525 -53.639  13.973  1.00  0.00     0.095 N 
HETATM   19  C   UNL     1     -38.977 -54.782  14.745  1.00  0.00     0.298 C 
HETATM   20  C   UNL     1     -39.086 -54.626  16.271  1.00  0.00     0.198 C 
HETATM   21  O   UNL     1     -38.475 -53.410  16.720  1.00  0.00    -0.388 OA
HETATM   22  C   UNL     1     -39.031 -52.272  16.051  1.00  0.00     0.198 C 
HETATM   23  C   UNL     1     -38.900 -52.406  14.522  1.00  0.00     0.298 C 
ENDBRANCH  17  18
ENDBRANCH  14  17
ENDBRANCH  13  14
ENDBRANCH   1  13
TORSDOF 5
ENDMDL
MODEL 4
REMARK VINA RESULT:      -5.7      3.428      3.834
REMARK  5 active torsions:
REMARK  status: ('A' for Active; 'I' for Inactive)
REMARK    1  A    between atoms: O_1  and  C_2 
REMARK    2  A    between atoms: C_2  and  C_3 
REMARK    3  A    between atoms: C_2  and  C_10 
REMARK    4  A    between atoms: C_3  and  N_4 
REMARK    5  A    between atoms: C_10  and  N_11 
ROOT
HETATM    1  N   UNL     1     -41.061 -51.426  12.482  1.00  0.00    -0.271 N 
HETATM    2  N   UNL     1     -41.548 -52.330  11.609  1.00  0.00    -0.019 NA
HETATM    3  N   UNL     1     -41.163 -53.529  12.024  1.00  0.00    -0.282 N 
ATOM      4  HN  UNL     1     -41.382 -54.417  11.573  1.00  0.00     0.184 HD
HETATM    5  C   UNL     1     -40.420 -53.369  13.162  1.00  0.00     0.075 A 
HETATM    6  C   UNL     1     -39.832 -54.313  14.013  1.00  0.00     0.058 A 
HETATM    7  C   UNL     1     -39.141 -53.853  15.145  1.00  0.00     0.058 A 
HETATM    8 CL   UNL     1     -38.491 -55.052  16.210  1.00  0.00    -0.082 Cl
HETATM    9  C   UNL     1     -39.009 -52.479  15.403  1.00  0.00     0.058 A 
HETATM   10 CL   UNL     1     -38.163 -51.879  16.789  1.00  0.00    -0.082 Cl
HETATM   11  C   UNL     1     -39.582 -51.527  14.548  1.00  0.00     0.058 A 
HETATM   12  C   UNL     1     -40.298 -52.016  13.449  1.00  0.00     0.078 A 
ENDROOT
BRANCH   1  13
HETATM   13  C   UNL     1     -41.483 -50.043  12.394  1.00  0.00     0.180 C 
BRANCH  13  14
HETATM   14  C   UNL     1     -40.589 -49.264  11.423  1.00  0.00     0.166 C 
BRANCH  14  15
HETATM   15  O   UNL     1     -40.316 -50.063  10.264  1.00  0.00    -0.392 OA
HETATM   16  H   UNL     1     -41.196 -50.316   9.913  1.00  0.00     0.210 HD
ENDBRANCH  14  15
BRANCH  14  17
HETATM   17  C   UNL     1     -41.293 -47.972  10.965  1.00  0.00     0.305 C 
BRANCH  17  18
HETATM   18  N   UNL     1     -41.189 -46.869  11.948  1.00  0.00     0.095 N 
HETATM   19  C   UNL     1     -42.363 -45.962  11.951  1.00  0.00     0.298 C 
HETATM   20  C   UNL     1     -42.484 -45.079  10.697  1.00  0.00     0.198 C 
HETATM   21  O   UNL     1     -41.292 -44.315  10.476  1.00  0.00    -0.388 OA
HETATM   22  C   UNL     1     -40.141 -45.163  10.392  1.00  0.00     0.198 C 
HETATM   23  C   UNL     1     -39.994 -46.031  11.656  1.00  0.00     0.298 C 
ENDBRANCH  17  18
ENDBRANCH  14  17
ENDBRANCH  13  14
ENDBRANCH   1  13
TORSDOF 5
ENDMDL
MODEL 5
REMARK VINA RESULT:      -5.7      3.784      7.020
REMARK  5 active torsions:
REMARK  status: ('A' for Active; 'I' for Inactive)
REMARK    1  A    between atoms: O_1  and  C_2 
REMARK    2  A    between atoms: C_2  and  C_3 
REMARK    3  A    between atoms: C_2  and  C_10 
REMARK    4  A    between atoms: C_3  and  N_4 
REMARK    5  A    between atoms: C_10  and  N_11 
ROOT
HETATM    1  N   UNL     1     -39.492 -51.774  13.251  1.00  0.00    -0.271 N 
HETATM    2  N   UNL     1     -38.147 -51.841  13.191  1.00  0.00    -0.019 NA
HETATM    3  N   UNL     1     -37.720 -50.724  12.618  1.00  0.00    -0.282 N 
ATOM      4  HN  UNL     1     -36.746 -50.478  12.438  1.00  0.00     0.184 HD
HETATM    5  C   UNL     1     -38.810 -49.958  12.311  1.00  0.00     0.075 A 
HETATM    6  C   UNL     1     -38.902 -48.677  11.752  1.00  0.00     0.058 A 
HETATM    7  C   UNL     1     -40.176 -48.115  11.575  1.00  0.00     0.058 A 
HETATM    8 CL   UNL     1     -40.244 -46.503  10.947  1.00  0.00    -0.082 Cl
HETATM    9  C   UNL     1     -41.335 -48.829  11.917  1.00  0.00     0.058 A 
HETATM   10 CL   UNL     1     -42.920 -48.165  11.711  1.00  0.00    -0.082 Cl
HETATM   11  C   UNL     1     -41.253 -50.117  12.464  1.00  0.00     0.058 A 
HETATM   12  C   UNL     1     -39.969 -50.636  12.664  1.00  0.00     0.078 A 
ENDROOT
BRANCH   1  13
HETATM   13  C   UNL     1     -40.227 -52.770  14.003  1.00  0.00     0.180 C 
BRANCH  13  14
HETATM   14  C   UNL     1     -41.231 -53.498  13.102  1.00  0.00     0.166 C 
BRANCH  14  15
HETATM   15  O   UNL     1     -40.532 -54.353  12.187  1.00  0.00    -0.392 OA
HETATM   16  H   UNL     1     -40.476 -53.845  11.351  1.00  0.00     0.210 HD
ENDBRANCH  14  15
BRANCH  14  17
HETATM   17  C   UNL     1     -42.179 -54.368  13.949  1.00  0.00     0.305 C 
BRANCH  17  18
HETATM   18  N   UNL     1     -43.283 -53.598  14.568  1.00  0.00     0.095 N 
HETATM   19  C   UNL     1     -44.432 -54.438  14.988  1.00  0.00     0.298 C 
HETATM   20  C   UNL     1     -45.248 -55.024  13.823  1.00  0.00     0.198 C 
HETATM   21  O   UNL     1     -45.708 -53.998  12.936  1.00  0.00    -0.388 OA
HETATM   22  C   UNL     1     -44.617 -53.208  12.447  1.00  0.00     0.198 C 
HETATM   23  C   UNL     1     -43.810 -52.593  13.606  1.00  0.00     0.298 C 
ENDBRANCH  17  18
ENDBRANCH  14  17
ENDBRANCH  13  14
ENDBRANCH   1  13
TORSDOF 5
ENDMDL
MODEL 6
REMARK VINA RESULT:      -5.6      2.866      3.800
REMARK  5 active torsions:
REMARK  status: ('A' for Active; 'I' for Inactive)
REMARK    1  A    between atoms: O_1  and  C_2 
REMARK    2  A    between atoms: C_2  and  C_3 
REMARK    3  A    between atoms: C_2  and  C_10 
REMARK    4  A    between atoms: C_3  and  N_4 
REMARK    5  A    between atoms: C_10  and  N_11 
ROOT
HETATM    1  N   UNL     1     -43.749 -52.698  12.866  1.00  0.00    -0.271 N 
HETATM    2  N   UNL     1     -44.444 -53.709  12.309  1.00  0.00    -0.019 NA
HETATM    3  N   UNL     1     -45.583 -53.824  12.981  1.00  0.00    -0.282 N 
ATOM      4  HN  UNL     1     -46.323 -54.500  12.792  1.00  0.00     0.184 HD
HETATM    5  C   UNL     1     -45.591 -52.880  13.971  1.00  0.00     0.075 A 
HETATM    6  C   UNL     1     -46.574 -52.549  14.912  1.00  0.00     0.058 A 
HETATM    7  C   UNL     1     -46.317 -51.496  15.803  1.00  0.00     0.058 A 
HETATM    8 CL   UNL     1     -47.583 -51.070  16.904  1.00  0.00    -0.082 Cl
HETATM    9  C   UNL     1     -45.091 -50.811  15.779  1.00  0.00     0.058 A 
HETATM   10 CL   UNL     1     -44.742 -49.508  16.864  1.00  0.00    -0.082 Cl
HETATM   11  C   UNL     1     -44.097 -51.145  14.850  1.00  0.00     0.058 A 
HETATM   12  C   UNL     1     -44.397 -52.174  13.949  1.00  0.00     0.078 A 
ENDROOT
BRANCH   1  13
HETATM   13  C   UNL     1     -42.547 -52.213  12.220  1.00  0.00     0.180 C 
BRANCH  13  14
HETATM   14  C   UNL     1     -41.302 -52.863  12.833  1.00  0.00     0.166 C 
BRANCH  14  15
HETATM   15  O   UNL     1     -40.531 -53.502  11.807  1.00  0.00    -0.392 OA
HETATM   16  H   UNL     1     -40.376 -52.808  11.131  1.00  0.00     0.210 HD
ENDBRANCH  14  15
BRANCH  14  17
HETATM   17  C   UNL     1     -40.418 -51.797  13.508  1.00  0.00     0.305 C 
BRANCH  17  18
HETATM   18  N   UNL     1     -39.310 -51.323  12.646  1.00  0.00     0.095 N 
HETATM   19  C   UNL     1     -38.000 -51.263  13.340  1.00  0.00     0.298 C 
HETATM   20  C   UNL     1     -37.894 -50.153  14.399  1.00  0.00     0.198 C 
HETATM   21  O   UNL     1     -38.199 -48.868  13.845  1.00  0.00    -0.388 OA
HETATM   22  C   UNL     1     -39.492 -48.862  13.229  1.00  0.00     0.198 C 
HETATM   23  C   UNL     1     -39.598 -49.952  12.145  1.00  0.00     0.298 C 
ENDBRANCH  17  18
ENDBRANCH  14  17
ENDBRANCH  13  14
ENDBRANCH   1  13
TORSDOF 5
ENDMDL
MODEL 7
REMARK VINA RESULT:      -5.6      5.018      6.712
REMARK  5 active torsions:
REMARK  status: ('A' for Active; 'I' for Inactive)
REMARK    1  A    between atoms: O_1  and  C_2 
REMARK    2  A    between atoms: C_2  and  C_3 
REMARK    3  A    between atoms: C_2  and  C_10 
REMARK    4  A    between atoms: C_3  and  N_4 
REMARK    5  A    between atoms: C_10  and  N_11 
ROOT
HETATM    1  N   UNL     1     -40.744 -54.196  13.990  1.00  0.00    -0.271 N 
HETATM    2  N   UNL     1     -39.683 -53.906  13.212  1.00  0.00    -0.019 NA
HETATM    3  N   UNL     1     -38.606 -54.395  13.813  1.00  0.00    -0.282 N 
ATOM      4  HN  UNL     1     -37.649 -54.339  13.463  1.00  0.00     0.184 HD
HETATM    5  C   UNL     1     -39.000 -54.985  14.982  1.00  0.00     0.075 A 
HETATM    6  C   UNL     1     -38.267 -55.688  15.946  1.00  0.00     0.058 A 
HETATM    7  C   UNL     1     -38.952 -56.220  17.049  1.00  0.00     0.058 A 
HETATM    8 CL   UNL     1     -38.023 -57.142  18.182  1.00  0.00    -0.082 Cl
HETATM    9  C   UNL     1     -40.334 -56.026  17.204  1.00  0.00     0.058 A 
HETATM   10 CL   UNL     1     -41.208 -56.668  18.553  1.00  0.00    -0.082 Cl
HETATM   11  C   UNL     1     -41.073 -55.312  16.251  1.00  0.00     0.058 A 
HETATM   12  C   UNL     1     -40.370 -54.826  15.143  1.00  0.00     0.078 A 
ENDROOT
BRANCH   1  13
HETATM   13  C   UNL     1     -42.084 -53.956  13.495  1.00  0.00     0.180 C 
BRANCH  13  14
HETATM   14  C   UNL     1     -42.191 -52.558  12.877  1.00  0.00     0.166 C 
BRANCH  14  15
HETATM   15  O   UNL     1     -42.210 -52.658  11.447  1.00  0.00    -0.392 OA
HETATM   16  H   UNL     1     -41.285 -52.492  11.165  1.00  0.00     0.210 HD
ENDBRANCH  14  15
BRANCH  14  17
HETATM   17  C   UNL     1     -43.493 -51.870  13.330  1.00  0.00     0.305 C 
BRANCH  17  18
HETATM   18  N   UNL     1     -44.536 -52.824  13.774  1.00  0.00     0.095 N 
HETATM   19  C   UNL     1     -45.736 -52.842  12.902  1.00  0.00     0.298 C 
HETATM   20  C   UNL     1     -46.601 -51.573  12.988  1.00  0.00     0.198 C 
HETATM   21  O   UNL     1     -46.997 -51.298  14.337  1.00  0.00    -0.388 OA
HETATM   22  C   UNL     1     -45.858 -51.197  15.200  1.00  0.00     0.198 C 
HETATM   23  C   UNL     1     -45.001 -52.476  15.144  1.00  0.00     0.298 C 
ENDBRANCH  17  18
ENDBRANCH  14  17
ENDBRANCH  13  14
ENDBRANCH   1  13
TORSDOF 5
ENDMDL
MODEL 8
REMARK VINA RESULT:      -5.4      4.833      6.973
REMARK  5 active torsions:
REMARK  status: ('A' for Active; 'I' for Inactive)
REMARK    1  A    between atoms: O_1  and  C_2 
REMARK    2  A    between atoms: C_2  and  C_3 
REMARK    3  A    between atoms: C_2  and  C_10 
REMARK    4  A    between atoms: C_3  and  N_4 
REMARK    5  A    between atoms: C_10  and  N_11 
ROOT
HETATM    1  N   UNL     1     -40.878 -53.266  13.475  1.00  0.00    -0.271 N 
HETATM    2  N   UNL     1     -40.639 -52.983  12.179  1.00  0.00    -0.019 NA
HETATM    3  N   UNL     1     -41.800 -52.665  11.623  1.00  0.00    -0.282 N 
ATOM      4  HN  UNL     1     -41.943 -52.396  10.649  1.00  0.00     0.184 HD
HETATM    5  C   UNL     1     -42.772 -52.759  12.581  1.00  0.00     0.075 A 
HETATM    6  C   UNL     1     -44.143 -52.478  12.525  1.00  0.00     0.058 A 
HETATM    7  C   UNL     1     -44.906 -52.640  13.692  1.00  0.00     0.058 A 
HETATM    8 CL   UNL     1     -46.581 -52.215  13.601  1.00  0.00    -0.082 Cl
HETATM    9  C   UNL     1     -44.320 -53.105  14.880  1.00  0.00     0.058 A 
HETATM   10 CL   UNL     1     -45.232 -53.315  16.336  1.00  0.00    -0.082 Cl
HETATM   11  C   UNL     1     -42.952 -53.402  14.941  1.00  0.00     0.058 A 
HETATM   12  C   UNL     1     -42.209 -53.194  13.772  1.00  0.00     0.078 A 
ENDROOT
BRANCH   1  13
HETATM   13  C   UNL     1     -39.767 -53.461  14.384  1.00  0.00     0.180 C 
BRANCH  13  14
HETATM   14  C   UNL     1     -39.407 -54.947  14.489  1.00  0.00     0.166 C 
BRANCH  14  15
HETATM   15  O   UNL     1     -38.698 -55.361  13.314  1.00  0.00    -0.392 OA
HETATM   16  H   UNL     1     -39.390 -55.515  12.636  1.00  0.00     0.210 HD
ENDBRANCH  14  15
BRANCH  14  17
HETATM   17  C   UNL     1     -38.501 -55.194  15.711  1.00  0.00     0.305 C 
BRANCH  17  18
HETATM   18  N   UNL     1     -38.994 -56.274  16.597  1.00  0.00     0.095 N 
HETATM   19  C   UNL     1     -40.423 -56.132  16.971  1.00  0.00     0.298 C 
HETATM   20  C   UNL     1     -40.713 -54.964  17.929  1.00  0.00     0.198 C 
HETATM   21  O   UNL     1     -39.916 -55.048  19.116  1.00  0.00    -0.388 OA
HETATM   22  C   UNL     1     -38.520 -55.112  18.800  1.00  0.00     0.198 C 
HETATM   23  C   UNL     1     -38.214 -56.296  17.863  1.00  0.00     0.298 C 
ENDBRANCH  17  18
ENDBRANCH  14  17
ENDBRANCH  13  14
ENDBRANCH   1  13
TORSDOF 5
ENDMDL
MODEL 9
REMARK VINA RESULT:      -5.3      4.903      7.234
REMARK  5 active torsions:
REMARK  status: ('A' for Active; 'I' for Inactive)
REMARK    1  A    between atoms: O_1  and  C_2 
REMARK    2  A    between atoms: C_2  and  C_3 
REMARK    3  A    between atoms: C_2  and  C_10 
REMARK    4  A    between atoms: C_3  and  N_4 
REMARK    5  A    between atoms: C_10  and  N_11 
ROOT
HETATM    1  N   UNL     1     -41.808 -53.116  13.601  1.00  0.00    -0.271 N 
HETATM    2  N   UNL     1     -42.654 -53.122  12.552  1.00  0.00    -0.019 NA
HETATM    3  N   UNL     1     -42.173 -52.277  11.650  1.00  0.00    -0.282 N 
ATOM      4  HN  UNL     1     -42.590 -52.069  10.743  1.00  0.00     0.184 HD
HETATM    5  C   UNL     1     -41.021 -51.732  12.147  1.00  0.00     0.075 A 
HETATM    6  C   UNL     1     -40.109 -50.837  11.575  1.00  0.00     0.058 A 
HETATM    7  C   UNL     1     -38.978 -50.468  12.319  1.00  0.00     0.058 A 
HETATM    8 CL   UNL     1     -37.839 -49.415  11.549  1.00  0.00    -0.082 Cl
HETATM    9  C   UNL     1     -38.778 -50.955  13.620  1.00  0.00     0.058 A 
HETATM   10 CL   UNL     1     -37.394 -50.520  14.564  1.00  0.00    -0.082 Cl
HETATM   11  C   UNL     1     -39.692 -51.841  14.206  1.00  0.00     0.058 A 
HETATM   12  C   UNL     1     -40.791 -52.221  13.426  1.00  0.00     0.078 A 
ENDROOT
BRANCH   1  13
HETATM   13  C   UNL     1     -41.972 -54.089  14.661  1.00  0.00     0.180 C 
BRANCH  13  14
HETATM   14  C   UNL     1     -43.427 -54.562  14.742  1.00  0.00     0.166 C 
BRANCH  14  15
HETATM   15  O   UNL     1     -43.479 -55.886  15.292  1.00  0.00    -0.392 OA
HETATM   16  H   UNL     1     -42.569 -56.238  15.201  1.00  0.00     0.210 HD
ENDBRANCH  14  15
BRANCH  14  17
HETATM   17  C   UNL     1     -44.244 -53.628  15.656  1.00  0.00     0.305 C 
BRANCH  17  18
HETATM   18  N   UNL     1     -45.708 -53.778  15.488  1.00  0.00     0.095 N 
HETATM   19  C   UNL     1     -46.164 -53.636  14.083  1.00  0.00     0.298 C 
HETATM   20  C   UNL     1     -46.062 -52.206  13.525  1.00  0.00     0.198 C 
HETATM   21  O   UNL     1     -46.764 -51.269  14.351  1.00  0.00    -0.388 OA
HETATM   22  C   UNL     1     -46.299 -51.322  15.705  1.00  0.00     0.198 C 
HETATM   23  C   UNL     1     -46.425 -52.744  16.283  1.00  0.00     0.298 C 
ENDBRANCH  17  18
ENDBRANCH  14  17
ENDBRANCH  13  14
ENDBRANCH   1  13
TORSDOF 5
ENDMDL
