MODEL 1
REMARK VINA RESULT:      -6.7      0.000      0.000
REMARK  4 active torsions:
REMARK  status: ('A' for Active; 'I' for Inactive)
REMARK    1  A    between atoms: C_2  and  N_4 
REMARK    2  A    between atoms: C_7  and  C_8 
REMARK    3  A    between atoms: C_8  and  N_9 
REMARK       I    between atoms: N_9  and  C_10 
REMARK       I    between atoms: C_10  and  N_12 
REMARK    4  A    between atoms: N_12  and  C_13 
ROOT
HETATM    1  N   UNL     1     -41.398 -52.379  12.410  1.00  0.00    -0.342 N 
HETATM    2  C   UNL     1     -40.122 -52.011  12.696  1.00  0.00     0.322 C 
HETATM    3  O   UNL     1     -39.334 -52.736  13.301  1.00  0.00    -0.247 OA
HETATM    4  N   UNL     1     -39.729 -50.757  12.331  1.00  0.00    -0.288 N 
HETATM    5  H   UNL     1     -42.044 -51.662  12.075  1.00  0.00     0.164 HD
HETATM    6  H   UNL     1     -38.827 -50.458  12.666  1.00  0.00     0.172 HD
ENDROOT
BRANCH   1   7
HETATM    7  C   UNL     1     -41.983 -53.614  12.879  1.00  0.00     0.130 C 
BRANCH   7   8
HETATM    8  C   UNL     1     -42.961 -53.448  14.054  1.00  0.00     0.033 C 
HETATM    9  C   UNL     1     -43.762 -54.714  14.342  1.00  0.00     0.038 C 
HETATM   10  C   UNL     1     -45.139 -54.484  13.726  1.00  0.00     0.273 C 
HETATM   11  N   UNL     1     -45.128 -53.130  13.145  1.00  0.00     0.092 N 
HETATM   12  C   UNL     1     -44.051 -52.401  13.827  1.00  0.00     0.279 C 
BRANCH  11  13
HETATM   13  C   UNL     1     -46.449 -52.470  13.219  1.00  0.00     0.215 C 
HETATM   14  C   UNL     1     -46.528 -51.443  14.357  1.00  0.00     0.042 C 
HETATM   15  C   UNL     1     -46.802 -51.743  11.912  1.00  0.00     0.042 C 
ENDBRANCH  11  13
ENDBRANCH   7   8
ENDBRANCH   1   7
BRANCH   4  16
HETATM   16  C   UNL     1     -40.478 -49.890  11.587  1.00  0.00     0.169 A 
HETATM   17  N   UNL     1     -40.542 -49.782  10.284  1.00  0.00    -0.279 N 
HETATM   18  N   UNL     1     -41.451 -48.831   9.891  1.00  0.00    -0.296 N 
ATOM     19  HN  UNL     1     -39.984 -50.339   9.637  1.00  0.00     0.189 HD
HETATM   20  C   UNL     1     -42.077 -48.297  10.917  1.00  0.00     0.066 A 
ATOM     21  HN  UNL     1     -41.620 -48.569   8.921  1.00  0.00     0.187 HD
HETATM   22  C   UNL     1     -43.196 -47.333  10.794  1.00  0.00     0.078 C 
HETATM   23  S   UNL     1     -41.494 -48.828  12.448  1.00  0.00    -0.038 SA
ENDBRANCH   4  16
TORSDOF 4
ENDMDL
MODEL 2
REMARK VINA RESULT:      -6.4      2.531      4.080
REMARK  4 active torsions:
REMARK  status: ('A' for Active; 'I' for Inactive)
REMARK    1  A    between atoms: C_2  and  N_4 
REMARK    2  A    between atoms: C_7  and  C_8 
REMARK    3  A    between atoms: C_8  and  N_9 
REMARK       I    between atoms: N_9  and  C_10 
REMARK       I    between atoms: C_10  and  N_12 
REMARK    4  A    between atoms: N_12  and  C_13 
ROOT
HETATM    1  N   UNL     1     -44.699 -52.368  12.565  1.00  0.00    -0.342 N 
HETATM    2  C   UNL     1     -44.199 -53.630  12.602  1.00  0.00     0.322 C 
HETATM    3  O   UNL     1     -44.904 -54.629  12.738  1.00  0.00    -0.247 OA
HETATM    4  N   UNL     1     -42.844 -53.775  12.533  1.00  0.00    -0.288 N 
HETATM    5  H   UNL     1     -44.046 -51.586  12.638  1.00  0.00     0.164 HD
HETATM    6  H   UNL     1     -42.486 -54.702  12.693  1.00  0.00     0.172 HD
ENDROOT
BRANCH   1   7
HETATM    7  C   UNL     1     -46.097 -52.070  12.786  1.00  0.00     0.130 C 
BRANCH   7   8
HETATM    8  C   UNL     1     -46.406 -51.458  14.161  1.00  0.00     0.033 C 
HETATM    9  C   UNL     1     -45.171 -50.881  14.846  1.00  0.00     0.038 C 
HETATM   10  C   UNL     1     -44.748 -51.918  15.883  1.00  0.00     0.273 C 
HETATM   11  N   UNL     1     -45.725 -53.018  15.812  1.00  0.00     0.092 N 
HETATM   12  C   UNL     1     -46.933 -52.454  15.195  1.00  0.00     0.279 C 
BRANCH  11  13
HETATM   13  C   UNL     1     -45.958 -53.656  17.125  1.00  0.00     0.215 C 
HETATM   14  C   UNL     1     -44.662 -54.173  17.764  1.00  0.00     0.042 C 
HETATM   15  C   UNL     1     -46.615 -52.690  18.124  1.00  0.00     0.042 C 
ENDBRANCH  11  13
ENDBRANCH   7   8
ENDBRANCH   1   7
BRANCH   4  16
HETATM   16  C   UNL     1     -41.962 -52.758  12.301  1.00  0.00     0.169 A 
HETATM   17  N   UNL     1     -41.530 -52.302  11.152  1.00  0.00    -0.279 N 
HETATM   18  N   UNL     1     -40.688 -51.229  11.309  1.00  0.00    -0.296 N 
ATOM     19  HN  UNL     1     -41.788 -52.697  10.248  1.00  0.00     0.189 HD
HETATM   20  C   UNL     1     -40.563 -50.883  12.572  1.00  0.00     0.066 A 
ATOM     21  HN  UNL     1     -40.216 -50.756  10.539  1.00  0.00     0.187 HD
HETATM   22  C   UNL     1     -39.817 -49.688  13.034  1.00  0.00     0.078 C 
HETATM   23  S   UNL     1     -41.362 -51.941  13.671  1.00  0.00    -0.038 SA
ENDBRANCH   4  16
TORSDOF 4
ENDMDL
MODEL 3
REMARK VINA RESULT:      -5.9      1.750      2.577
REMARK  4 active torsions:
REMARK  status: ('A' for Active; 'I' for Inactive)
REMARK    1  A    between atoms: C_2  and  N_4 
REMARK    2  A    between atoms: C_7  and  C_8 
REMARK    3  A    between atoms: C_8  and  N_9 
REMARK       I    between atoms: N_9  and  C_10 
REMARK       I    between atoms: C_10  and  N_12 
REMARK    4  A    between atoms: N_12  and  C_13 
ROOT
HETATM    1  N   UNL     1     -43.094 -52.720  12.289  1.00  0.00    -0.342 N 
HETATM    2  C   UNL     1     -42.080 -52.773  13.190  1.00  0.00     0.322 C 
HETATM    3  O   UNL     1     -42.000 -53.638  14.061  1.00  0.00    -0.247 OA
HETATM    4  N   UNL     1     -41.141 -51.785  13.144  1.00  0.00    -0.288 N 
HETATM    5  H   UNL     1     -43.194 -51.876  11.722  1.00  0.00     0.164 HD
HETATM    6  H   UNL     1     -40.474 -51.769  13.899  1.00  0.00     0.172 HD
ENDROOT
BRANCH   1   7
HETATM    7  C   UNL     1     -44.231 -53.612  12.331  1.00  0.00     0.130 C 
BRANCH   7   8
HETATM    8  C   UNL     1     -45.526 -52.967  12.851  1.00  0.00     0.033 C 
HETATM    9  C   UNL     1     -45.427 -51.450  12.969  1.00  0.00     0.038 C 
HETATM   10  C   UNL     1     -45.199 -51.161  14.450  1.00  0.00     0.273 C 
HETATM   11  N   UNL     1     -45.204 -52.461  15.145  1.00  0.00     0.092 N 
HETATM   12  C   UNL     1     -45.922 -53.392  14.265  1.00  0.00     0.279 C 
BRANCH  11  13
HETATM   13  C   UNL     1     -45.759 -52.370  16.513  1.00  0.00     0.215 C 
HETATM   14  C   UNL     1     -47.112 -51.645  16.550  1.00  0.00     0.042 C 
HETATM   15  C   UNL     1     -45.957 -53.756  17.145  1.00  0.00     0.042 C 
ENDBRANCH  11  13
ENDBRANCH   7   8
ENDBRANCH   1   7
BRANCH   4  16
HETATM   16  C   UNL     1     -41.072 -50.819  12.180  1.00  0.00     0.169 A 
HETATM   17  N   UNL     1     -40.446 -50.860  11.031  1.00  0.00    -0.279 N 
HETATM   18  N   UNL     1     -40.647 -49.719  10.296  1.00  0.00    -0.296 N 
ATOM     19  HN  UNL     1     -39.878 -51.647  10.718  1.00  0.00     0.189 HD
HETATM   20  C   UNL     1     -41.464 -48.883  10.899  1.00  0.00     0.066 A 
ATOM     21  HN  UNL     1     -40.215 -49.540   9.390  1.00  0.00     0.187 HD
HETATM   22  C   UNL     1     -41.961 -47.625  10.292  1.00  0.00     0.078 C 
HETATM   23  S   UNL     1     -41.934 -49.381  12.480  1.00  0.00    -0.038 SA
ENDBRANCH   4  16
TORSDOF 4
ENDMDL
MODEL 4
REMARK VINA RESULT:      -5.7      2.777      7.017
REMARK  4 active torsions:
REMARK  status: ('A' for Active; 'I' for Inactive)
REMARK    1  A    between atoms: C_2  and  N_4 
REMARK    2  A    between atoms: C_7  and  C_8 
REMARK    3  A    between atoms: C_8  and  N_9 
REMARK       I    between atoms: N_9  and  C_10 
REMARK       I    between atoms: C_10  and  N_12 
REMARK    4  A    between atoms: N_12  and  C_13 
ROOT
HETATM    1  N   UNL     1     -41.630 -49.800  11.336  1.00  0.00    -0.342 N 
HETATM    2  C   UNL     1     -40.427 -50.393  11.548  1.00  0.00     0.322 C 
HETATM    3  O   UNL     1     -39.354 -49.827  11.345  1.00  0.00    -0.247 OA
HETATM    4  N   UNL     1     -40.427 -51.694  11.958  1.00  0.00    -0.288 N 
HETATM    5  H   UNL     1     -42.467 -50.386  11.346  1.00  0.00     0.164 HD
HETATM    6  H   UNL     1     -39.531 -52.154  11.983  1.00  0.00     0.172 HD
ENDROOT
BRANCH   1   7
HETATM    7  C   UNL     1     -41.765 -48.484  10.754  1.00  0.00     0.130 C 
BRANCH   7   8
HETATM    8  C   UNL     1     -41.956 -47.353  11.777  1.00  0.00     0.033 C 
HETATM    9  C   UNL     1     -42.903 -46.262  11.287  1.00  0.00     0.038 C 
HETATM   10  C   UNL     1     -42.011 -45.112  10.828  1.00  0.00     0.273 C 
HETATM   11  N   UNL     1     -40.618 -45.522  11.082  1.00  0.00     0.092 N 
HETATM   12  C   UNL     1     -40.683 -46.574  12.106  1.00  0.00     0.279 C 
BRANCH  11  13
HETATM   13  C   UNL     1     -39.748 -44.382  11.439  1.00  0.00     0.215 C 
HETATM   14  C   UNL     1     -40.496 -43.042  11.412  1.00  0.00     0.042 C 
HETATM   15  C   UNL     1     -39.134 -44.544  12.838  1.00  0.00     0.042 C 
ENDBRANCH  11  13
ENDBRANCH   7   8
ENDBRANCH   1   7
BRANCH   4  16
HETATM   16  C   UNL     1     -41.544 -52.406  12.295  1.00  0.00     0.169 A 
HETATM   17  N   UNL     1     -42.545 -52.760  11.529  1.00  0.00    -0.279 N 
HETATM   18  N   UNL     1     -43.466 -53.519  12.206  1.00  0.00    -0.296 N 
ATOM     19  HN  UNL     1     -42.630 -52.502  10.546  1.00  0.00     0.189 HD
HETATM   20  C   UNL     1     -43.094 -53.754  13.445  1.00  0.00     0.066 A 
ATOM     21  HN  UNL     1     -44.336 -53.860  11.798  1.00  0.00     0.187 HD
HETATM   22  C   UNL     1     -43.826 -54.645  14.376  1.00  0.00     0.078 C 
HETATM   23  S   UNL     1     -41.648 -52.941  13.909  1.00  0.00    -0.038 SA
ENDBRANCH   4  16
TORSDOF 4
ENDMDL
MODEL 5
REMARK VINA RESULT:      -5.7      2.116      6.198
REMARK  4 active torsions:
REMARK  status: ('A' for Active; 'I' for Inactive)
REMARK    1  A    between atoms: C_2  and  N_4 
REMARK    2  A    between atoms: C_7  and  C_8 
REMARK    3  A    between atoms: C_8  and  N_9 
REMARK       I    between atoms: N_9  and  C_10 
REMARK       I    between atoms: C_10  and  N_12 
REMARK    4  A    between atoms: N_12  and  C_13 
ROOT
HETATM    1  N   UNL     1     -41.933 -51.041  11.946  1.00  0.00    -0.342 N 
HETATM    2  C   UNL     1     -41.733 -52.377  12.080  1.00  0.00     0.322 C 
HETATM    3  O   UNL     1     -40.648 -52.919  11.869  1.00  0.00    -0.247 OA
HETATM    4  N   UNL     1     -42.807 -53.148  12.418  1.00  0.00    -0.288 N 
HETATM    5  H   UNL     1     -42.894 -50.693  11.955  1.00  0.00     0.164 HD
HETATM    6  H   UNL     1     -42.669 -54.145  12.385  1.00  0.00     0.172 HD
ENDROOT
BRANCH   1   7
HETATM    7  C   UNL     1     -40.921 -50.141  11.443  1.00  0.00     0.130 C 
BRANCH   7   8
HETATM    8  C   UNL     1     -40.773 -48.839  12.246  1.00  0.00     0.033 C 
HETATM    9  C   UNL     1     -42.102 -48.318  12.783  1.00  0.00     0.038 C 
HETATM   10  C   UNL     1     -42.515 -47.187  11.847  1.00  0.00     0.273 C 
HETATM   11  N   UNL     1     -41.445 -47.049  10.843  1.00  0.00     0.092 N 
HETATM   12  C   UNL     1     -40.245 -47.653  11.438  1.00  0.00     0.279 C 
BRANCH  11  13
HETATM   13  C   UNL     1     -41.262 -45.652  10.396  1.00  0.00     0.215 C 
HETATM   14  C   UNL     1     -42.041 -44.653  11.263  1.00  0.00     0.042 C 
HETATM   15  C   UNL     1     -39.784 -45.232  10.416  1.00  0.00     0.042 C 
ENDBRANCH  11  13
ENDBRANCH   7   8
ENDBRANCH   1   7
BRANCH   4  16
HETATM   16  C   UNL     1     -44.039 -52.663  12.756  1.00  0.00     0.169 A 
HETATM   17  N   UNL     1     -45.109 -52.566  12.008  1.00  0.00    -0.279 N 
HETATM   18  N   UNL     1     -46.183 -52.079  12.710  1.00  0.00    -0.296 N 
ATOM     19  HN  UNL     1     -45.141 -52.823  11.022  1.00  0.00     0.189 HD
HETATM   20  C   UNL     1     -45.893 -51.879  13.977  1.00  0.00     0.066 A 
ATOM     21  HN  UNL     1     -47.097 -51.893  12.298  1.00  0.00     0.187 HD
HETATM   22  C   UNL     1     -46.886 -51.473  15.000  1.00  0.00     0.078 C 
HETATM   23  S   UNL     1     -44.237 -52.145  14.367  1.00  0.00    -0.038 SA
ENDBRANCH   4  16
TORSDOF 4
ENDMDL
MODEL 6
REMARK VINA RESULT:      -5.6      1.912      5.549
REMARK  4 active torsions:
REMARK  status: ('A' for Active; 'I' for Inactive)
REMARK    1  A    between atoms: C_2  and  N_4 
REMARK    2  A    between atoms: C_7  and  C_8 
REMARK    3  A    between atoms: C_8  and  N_9 
REMARK       I    between atoms: N_9  and  C_10 
REMARK       I    between atoms: C_10  and  N_12 
REMARK    4  A    between atoms: N_12  and  C_13 
ROOT
HETATM    1  N   UNL     1     -40.626 -52.125  13.170  1.00  0.00    -0.342 N 
HETATM    2  C   UNL     1     -40.628 -53.483  13.199  1.00  0.00     0.322 C 
HETATM    3  O   UNL     1     -39.605 -54.153  13.333  1.00  0.00    -0.247 OA
HETATM    4  N   UNL     1     -41.822 -54.118  13.019  1.00  0.00    -0.288 N 
HETATM    5  H   UNL     1     -41.478 -51.647  12.871  1.00  0.00     0.164 HD
HETATM    6  H   UNL     1     -41.783 -55.119  12.913  1.00  0.00     0.172 HD
ENDROOT
BRANCH   1   7
HETATM    7  C   UNL     1     -39.413 -51.340  13.191  1.00  0.00     0.130 C 
BRANCH   7   8
HETATM    8  C   UNL     1     -39.225 -50.428  11.968  1.00  0.00     0.033 C 
HETATM    9  C   UNL     1     -38.374 -49.199  12.269  1.00  0.00     0.038 C 
HETATM   10  C   UNL     1     -39.355 -48.044  12.440  1.00  0.00     0.273 C 
HETATM   11  N   UNL     1     -40.704 -48.590  12.209  1.00  0.00     0.092 N 
HETATM   12  C   UNL     1     -40.519 -49.819  11.427  1.00  0.00     0.279 C 
BRANCH  11  13
HETATM   13  C   UNL     1     -41.615 -47.607  11.586  1.00  0.00     0.215 C 
HETATM   14  C   UNL     1     -42.057 -48.027  10.177  1.00  0.00     0.042 C 
HETATM   15  C   UNL     1     -42.884 -47.388  12.425  1.00  0.00     0.042 C 
ENDBRANCH  11  13
ENDBRANCH   7   8
ENDBRANCH   1   7
BRANCH   4  16
HETATM   16  C   UNL     1     -43.034 -53.492  12.942  1.00  0.00     0.169 A 
HETATM   17  N   UNL     1     -43.686 -53.110  11.872  1.00  0.00    -0.279 N 
HETATM   18  N   UNL     1     -44.905 -52.562  12.183  1.00  0.00    -0.296 N 
ATOM     19  HN  UNL     1     -43.330 -53.209  10.922  1.00  0.00     0.189 HD
HETATM   20  C   UNL     1     -45.148 -52.603  13.474  1.00  0.00     0.066 A 
ATOM     21  HN  UNL     1     -45.546 -52.169  11.494  1.00  0.00     0.187 HD
HETATM   22  C   UNL     1     -46.434 -52.196  14.089  1.00  0.00     0.078 C 
HETATM   23  S   UNL     1     -43.833 -53.194  14.417  1.00  0.00    -0.038 SA
ENDBRANCH   4  16
TORSDOF 4
ENDMDL
MODEL 7
REMARK VINA RESULT:      -5.6      2.294      6.204
REMARK  4 active torsions:
REMARK  status: ('A' for Active; 'I' for Inactive)
REMARK    1  A    between atoms: C_2  and  N_4 
REMARK    2  A    between atoms: C_7  and  C_8 
REMARK    3  A    between atoms: C_8  and  N_9 
REMARK       I    between atoms: N_9  and  C_10 
REMARK       I    between atoms: C_10  and  N_12 
REMARK    4  A    between atoms: N_12  and  C_13 
ROOT
HETATM    1  N   UNL     1     -40.972 -50.548  13.069  1.00  0.00    -0.342 N 
HETATM    2  C   UNL     1     -40.115 -51.541  12.717  1.00  0.00     0.322 C 
HETATM    3  O   UNL     1     -38.896 -51.388  12.659  1.00  0.00    -0.247 OA
HETATM    4  N   UNL     1     -40.653 -52.744  12.364  1.00  0.00    -0.288 N 
HETATM    5  H   UNL     1     -41.971 -50.694  12.915  1.00  0.00     0.164 HD
HETATM    6  H   UNL     1     -40.014 -53.423  11.983  1.00  0.00     0.172 HD
ENDROOT
BRANCH   1   7
HETATM    7  C   UNL     1     -40.543 -49.189  13.311  1.00  0.00     0.130 C 
BRANCH   7   8
HETATM    8  C   UNL     1     -41.641 -48.132  13.114  1.00  0.00     0.033 C 
HETATM    9  C   UNL     1     -42.668 -48.532  12.060  1.00  0.00     0.038 C 
HETATM   10  C   UNL     1     -42.297 -47.756  10.801  1.00  0.00     0.273 C 
HETATM   11  N   UNL     1     -41.129 -46.923  11.139  1.00  0.00     0.092 N 
HETATM   12  C   UNL     1     -41.137 -46.783  12.601  1.00  0.00     0.279 C 
BRANCH  11  13
HETATM   13  C   UNL     1     -41.116 -45.639  10.407  1.00  0.00     0.215 C 
HETATM   14  C   UNL     1     -41.990 -44.572  11.080  1.00  0.00     0.042 C 
HETATM   15  C   UNL     1     -39.696 -45.065  10.279  1.00  0.00     0.042 C 
ENDBRANCH  11  13
ENDBRANCH   7   8
ENDBRANCH   1   7
BRANCH   4  16
HETATM   16  C   UNL     1     -41.977 -53.066  12.463  1.00  0.00     0.169 A 
HETATM   17  N   UNL     1     -42.948 -52.778  11.634  1.00  0.00    -0.279 N 
HETATM   18  N   UNL     1     -44.144 -53.317  12.037  1.00  0.00    -0.296 N 
ATOM     19  HN  UNL     1     -42.830 -52.220  10.788  1.00  0.00     0.189 HD
HETATM   20  C   UNL     1     -44.015 -54.039  13.128  1.00  0.00     0.066 A 
ATOM     21  HN  UNL     1     -45.028 -53.175  11.548  1.00  0.00     0.187 HD
HETATM   22  C   UNL     1     -45.110 -54.840  13.727  1.00  0.00     0.078 C 
HETATM   23  S   UNL     1     -42.437 -53.992  13.817  1.00  0.00    -0.038 SA
ENDBRANCH   4  16
TORSDOF 4
ENDMDL
MODEL 8
REMARK VINA RESULT:      -5.6      4.689      8.177
REMARK  4 active torsions:
REMARK  status: ('A' for Active; 'I' for Inactive)
REMARK    1  A    between atoms: C_2  and  N_4 
REMARK    2  A    between atoms: C_7  and  C_8 
REMARK    3  A    between atoms: C_8  and  N_9 
REMARK       I    between atoms: N_9  and  C_10 
REMARK       I    between atoms: C_10  and  N_12 
REMARK    4  A    between atoms: N_12  and  C_13 
ROOT
HETATM    1  N   UNL     1     -40.874 -47.149  10.608  1.00  0.00    -0.342 N 
HETATM    2  C   UNL     1     -41.831 -48.091  10.407  1.00  0.00     0.322 C 
HETATM    3  O   UNL     1     -42.933 -47.836   9.922  1.00  0.00    -0.247 OA
HETATM    4  N   UNL     1     -41.560 -49.365  10.812  1.00  0.00    -0.288 N 
HETATM    5  H   UNL     1     -40.065 -47.397  11.180  1.00  0.00     0.164 HD
HETATM    6  H   UNL     1     -42.326 -50.017  10.774  1.00  0.00     0.172 HD
ENDROOT
BRANCH   1   7
HETATM    7  C   UNL     1     -41.095 -45.741  10.369  1.00  0.00     0.130 C 
BRANCH   7   8
HETATM    8  C   UNL     1     -39.992 -44.822  10.918  1.00  0.00     0.033 C 
HETATM    9  C   UNL     1     -39.633 -45.128  12.369  1.00  0.00     0.038 C 
HETATM   10  C   UNL     1     -40.336 -44.064  13.205  1.00  0.00     0.273 C 
HETATM   11  N   UNL     1     -41.035 -43.171  12.264  1.00  0.00     0.092 N 
HETATM   12  C   UNL     1     -40.366 -43.341  10.967  1.00  0.00     0.279 C 
BRANCH  11  13
HETATM   13  C   UNL     1     -41.088 -41.773  12.740  1.00  0.00     0.215 C 
HETATM   14  C   UNL     1     -39.704 -41.232  13.125  1.00  0.00     0.042 C 
HETATM   15  C   UNL     1     -41.679 -40.828  11.682  1.00  0.00     0.042 C 
ENDBRANCH  11  13
ENDBRANCH   7   8
ENDBRANCH   1   7
BRANCH   4  16
HETATM   16  C   UNL     1     -40.352 -49.792  11.286  1.00  0.00     0.169 A 
HETATM   17  N   UNL     1     -39.249 -50.017  10.617  1.00  0.00    -0.279 N 
HETATM   18  N   UNL     1     -38.215 -50.385  11.442  1.00  0.00    -0.296 N 
ATOM     19  HN  UNL     1     -39.168 -49.929   9.604  1.00  0.00     0.189 HD
HETATM   20  C   UNL     1     -38.567 -50.368  12.709  1.00  0.00     0.066 A 
ATOM     21  HN  UNL     1     -37.285 -50.641  11.111  1.00  0.00     0.187 HD
HETATM   22  C   UNL     1     -37.628 -50.601  13.832  1.00  0.00     0.078 C 
HETATM   23  S   UNL     1     -40.236 -50.033  12.969  1.00  0.00    -0.038 SA
ENDBRANCH   4  16
TORSDOF 4
ENDMDL
MODEL 9
REMARK VINA RESULT:      -5.5      2.531      3.681
REMARK  4 active torsions:
REMARK  status: ('A' for Active; 'I' for Inactive)
REMARK    1  A    between atoms: C_2  and  N_4 
REMARK    2  A    between atoms: C_7  and  C_8 
REMARK    3  A    between atoms: C_8  and  N_9 
REMARK       I    between atoms: N_9  and  C_10 
REMARK       I    between atoms: C_10  and  N_12 
REMARK    4  A    between atoms: N_12  and  C_13 
ROOT
HETATM    1  N   UNL     1     -40.401 -51.433  13.306  1.00  0.00    -0.342 N 
HETATM    2  C   UNL     1     -39.129 -51.371  12.834  1.00  0.00     0.322 C 
HETATM    3  O   UNL     1     -38.224 -52.097  13.243  1.00  0.00    -0.247 OA
HETATM    4  N   UNL     1     -38.847 -50.419  11.898  1.00  0.00    -0.288 N 
HETATM    5  H   UNL     1     -41.046 -50.682  13.056  1.00  0.00     0.164 HD
HETATM    6  H   UNL     1     -37.876 -50.302  11.659  1.00  0.00     0.172 HD
ENDROOT
BRANCH   1   7
HETATM    7  C   UNL     1     -40.790 -52.287  14.405  1.00  0.00     0.130 C 
BRANCH   7   8
HETATM    8  C   UNL     1     -40.924 -53.774  14.039  1.00  0.00     0.033 C 
HETATM    9  C   UNL     1     -42.340 -54.156  13.618  1.00  0.00     0.038 C 
HETATM   10  C   UNL     1     -42.963 -54.842  14.830  1.00  0.00     0.273 C 
HETATM   11  N   UNL     1     -41.930 -54.879  15.880  1.00  0.00     0.092 N 
HETATM   12  C   UNL     1     -40.641 -54.738  15.190  1.00  0.00     0.279 C 
BRANCH  11  13
HETATM   13  C   UNL     1     -42.032 -56.081  16.734  1.00  0.00     0.215 C 
HETATM   14  C   UNL     1     -40.672 -56.756  16.962  1.00  0.00     0.042 C 
HETATM   15  C   UNL     1     -42.627 -55.756  18.113  1.00  0.00     0.042 C 
ENDBRANCH  11  13
ENDBRANCH   7   8
ENDBRANCH   1   7
BRANCH   4  16
HETATM   16  C   UNL     1     -39.775 -49.609  11.306  1.00  0.00     0.169 A 
HETATM   17  N   UNL     1     -40.534 -49.864  10.270  1.00  0.00    -0.279 N 
HETATM   18  N   UNL     1     -41.389 -48.827   9.992  1.00  0.00    -0.296 N 
ATOM     19  HN  UNL     1     -40.495 -50.731   9.733  1.00  0.00     0.189 HD
HETATM   20  C   UNL     1     -41.279 -47.851  10.867  1.00  0.00     0.066 A 
ATOM     21  HN  UNL     1     -42.034 -48.815   9.202  1.00  0.00     0.187 HD
HETATM   22  C   UNL     1     -42.158 -46.658  10.893  1.00  0.00     0.078 C 
HETATM   23  S   UNL     1     -40.016 -48.079  12.015  1.00  0.00    -0.038 SA
ENDBRANCH   4  16
TORSDOF 4
ENDMDL
