MODEL 1
REMARK VINA RESULT:      -5.1      0.000      0.000
REMARK  8 active torsions:
REMARK  status: ('A' for Active; 'I' for Inactive)
REMARK    1  A    between atoms: C_5  and  C_6 
REMARK    2  A    between atoms: C_6  and  C_7 
REMARK       I    between atoms: C_7  and  N_9 
REMARK    3  A    between atoms: N_9  and  C_10 
REMARK    4  A    between atoms: C_10  and  C_11 
REMARK    5  A    between atoms: C_11  and  C_12 
REMARK    6  A    between atoms: C_12  and  C_13 
REMARK    7  A    between atoms: C_13  and  C_14 
REMARK    8  A    between atoms: C_14  and  O_16 
ROOT
HETATM    1  C   UNL     1     -41.458 -49.499  11.704  1.00  0.00     0.223 C 
HETATM    2  O   UNL     1     -40.299 -49.323  11.332  1.00  0.00    -0.273 OA
HETATM    3  N   UNL     1     -41.999 -50.751  11.903  1.00  0.00    -0.361 N 
HETATM    4  H   UNL     1     -42.942 -50.812  12.275  1.00  0.00     0.162 HD
ENDROOT
BRANCH   1   5
HETATM    5  C   UNL     1     -42.367 -48.336  12.043  1.00  0.00     0.160 C 
BRANCH   5   6
HETATM    6  C   UNL     1     -43.029 -47.753  10.840  1.00  0.00     0.025 A 
HETATM    7  N   UNL     1     -44.353 -48.084  10.575  1.00  0.00    -0.357 N 
HETATM    8  C   UNL     1     -44.776 -47.424   9.515  1.00  0.00     0.047 A 
ATOM      9  HN  UNL     1     -44.914 -48.738  11.120  1.00  0.00     0.166 HD
HETATM   10  C   UNL     1     -46.154 -47.506   8.958  1.00  0.00     0.076 C 
HETATM   11  S   UNL     1     -43.617 -46.400   8.767  1.00  0.00    -0.087 SA
HETATM   12  C   UNL     1     -42.469 -46.857   9.949  1.00  0.00     0.077 A 
ENDBRANCH   5   6
ENDBRANCH   1   5
BRANCH   3  13
HETATM   13  C   UNL     1     -41.209 -51.953  11.720  1.00  0.00     0.122 C 
BRANCH  13  14
HETATM   14  C   UNL     1     -40.965 -52.713  13.021  1.00  0.00     0.020 C 
BRANCH  14  15
HETATM   15  C   UNL     1     -41.809 -53.986  13.110  1.00  0.00     0.012 C 
BRANCH  15  16
HETATM   16  C   UNL     1     -43.119 -53.750  13.860  1.00  0.00     0.110 C 
BRANCH  16  17
HETATM   17  C   UNL     1     -44.294 -53.675  12.913  1.00  0.00     0.139 C 
HETATM   18  O   UNL     1     -44.986 -54.618  12.562  1.00  0.00    -0.650 OA
BRANCH  17  19
HETATM   19  O   UNL     1     -44.514 -52.416  12.466  1.00  0.00    -0.776 OA
HETATM   20  H   UNL     1     -44.934 -52.380  11.586  1.00  0.00     0.167 HD
ENDBRANCH  17  19
ENDBRANCH  16  17
ENDBRANCH  15  16
ENDBRANCH  14  15
ENDBRANCH  13  14
ENDBRANCH   3  13
TORSDOF 8
ENDMDL
MODEL 2
REMARK VINA RESULT:      -5.1      1.741      2.140
REMARK  8 active torsions:
REMARK  status: ('A' for Active; 'I' for Inactive)
REMARK    1  A    between atoms: C_5  and  C_6 
REMARK    2  A    between atoms: C_6  and  C_7 
REMARK       I    between atoms: C_7  and  N_9 
REMARK    3  A    between atoms: N_9  and  C_10 
REMARK    4  A    between atoms: C_10  and  C_11 
REMARK    5  A    between atoms: C_11  and  C_12 
REMARK    6  A    between atoms: C_12  and  C_13 
REMARK    7  A    between atoms: C_13  and  C_14 
REMARK    8  A    between atoms: C_14  and  O_16 
ROOT
HETATM    1  C   UNL     1     -40.135 -50.771  12.146  1.00  0.00     0.223 C 
HETATM    2  O   UNL     1     -39.850 -50.890  13.336  1.00  0.00    -0.273 OA
HETATM    3  N   UNL     1     -40.777 -51.757  11.427  1.00  0.00    -0.361 N 
HETATM    4  H   UNL     1     -41.037 -51.557  10.465  1.00  0.00     0.162 HD
ENDROOT
BRANCH   1   5
HETATM    5  C   UNL     1     -39.862 -49.488  11.390  1.00  0.00     0.160 C 
BRANCH   5   6
HETATM    6  C   UNL     1     -41.099 -48.692  11.142  1.00  0.00     0.025 A 
HETATM    7  N   UNL     1     -41.548 -48.535   9.836  1.00  0.00    -0.357 N 
HETATM    8  C   UNL     1     -42.681 -47.861   9.829  1.00  0.00     0.047 A 
ATOM      9  HN  UNL     1     -41.073 -48.890   9.006  1.00  0.00     0.166 HD
HETATM   10  C   UNL     1     -43.467 -47.534   8.607  1.00  0.00     0.076 C 
HETATM   11  S   UNL     1     -43.255 -47.359  11.368  1.00  0.00    -0.087 SA
HETATM   12  C   UNL     1     -41.903 -48.105  12.102  1.00  0.00     0.077 A 
ENDBRANCH   5   6
ENDBRANCH   1   5
BRANCH   3  13
HETATM   13  C   UNL     1     -41.193 -52.997  12.051  1.00  0.00     0.122 C 
BRANCH  13  14
HETATM   14  C   UNL     1     -42.628 -52.952  12.573  1.00  0.00     0.020 C 
BRANCH  14  15
HETATM   15  C   UNL     1     -42.908 -54.067  13.583  1.00  0.00     0.012 C 
BRANCH  15  16
HETATM   16  C   UNL     1     -44.214 -53.836  14.340  1.00  0.00     0.110 C 
BRANCH  16  17
HETATM   17  C   UNL     1     -45.372 -54.545  13.678  1.00  0.00     0.139 C 
HETATM   18  O   UNL     1     -45.691 -55.710  13.861  1.00  0.00    -0.650 OA
BRANCH  17  19
HETATM   19  O   UNL     1     -46.046 -53.741  12.823  1.00  0.00    -0.776 OA
HETATM   20  H   UNL     1     -45.467 -53.225  12.231  1.00  0.00     0.167 HD
ENDBRANCH  17  19
ENDBRANCH  16  17
ENDBRANCH  15  16
ENDBRANCH  14  15
ENDBRANCH  13  14
ENDBRANCH   3  13
TORSDOF 8
ENDMDL
MODEL 3
REMARK VINA RESULT:      -5.1      3.863      6.465
REMARK  8 active torsions:
REMARK  status: ('A' for Active; 'I' for Inactive)
REMARK    1  A    between atoms: C_5  and  C_6 
REMARK    2  A    between atoms: C_6  and  C_7 
REMARK       I    between atoms: C_7  and  N_9 
REMARK    3  A    between atoms: N_9  and  C_10 
REMARK    4  A    between atoms: C_10  and  C_11 
REMARK    5  A    between atoms: C_11  and  C_12 
REMARK    6  A    between atoms: C_12  and  C_13 
REMARK    7  A    between atoms: C_13  and  C_14 
REMARK    8  A    between atoms: C_14  and  O_16 
ROOT
HETATM    1  C   UNL     1     -41.387 -48.964  11.195  1.00  0.00     0.223 C 
HETATM    2  O   UNL     1     -41.935 -48.556  12.218  1.00  0.00    -0.273 OA
HETATM    3  N   UNL     1     -41.589 -48.391   9.957  1.00  0.00    -0.361 N 
HETATM    4  H   UNL     1     -41.049 -48.743   9.172  1.00  0.00     0.162 HD
ENDROOT
BRANCH   1   5
HETATM    5  C   UNL     1     -40.382 -50.096  11.232  1.00  0.00     0.160 C 
BRANCH   5   6
HETATM    6  C   UNL     1     -39.377 -49.938  12.323  1.00  0.00     0.025 A 
HETATM    7  N   UNL     1     -38.974 -48.657  12.685  1.00  0.00    -0.357 N 
HETATM    8  C   UNL     1     -38.138 -48.721  13.702  1.00  0.00     0.047 A 
ATOM      9  HN  UNL     1     -39.280 -47.796  12.232  1.00  0.00     0.166 HD
HETATM   10  C   UNL     1     -37.527 -47.542  14.375  1.00  0.00     0.076 C 
HETATM   11  S   UNL     1     -37.771 -50.303  14.262  1.00  0.00    -0.087 SA
HETATM   12  C   UNL     1     -38.811 -50.953  13.071  1.00  0.00     0.077 A 
ENDBRANCH   5   6
ENDBRANCH   1   5
BRANCH   3  13
HETATM   13  C   UNL     1     -42.444 -47.232   9.792  1.00  0.00     0.122 C 
BRANCH  13  14
HETATM   14  C   UNL     1     -43.704 -47.528   8.982  1.00  0.00     0.020 C 
BRANCH  14  15
HETATM   15  C   UNL     1     -44.969 -47.451   9.840  1.00  0.00     0.012 C 
BRANCH  15  16
HETATM   16  C   UNL     1     -46.235 -47.410   8.986  1.00  0.00     0.110 C 
BRANCH  16  17
HETATM   17  C   UNL     1     -46.582 -48.777   8.443  1.00  0.00     0.139 C 
HETATM   18  O   UNL     1     -46.623 -49.083   7.262  1.00  0.00    -0.650 OA
BRANCH  17  19
HETATM   19  O   UNL     1     -46.859 -49.665   9.426  1.00  0.00    -0.776 OA
HETATM   20  H   UNL     1     -47.248 -50.499   9.103  1.00  0.00     0.167 HD
ENDBRANCH  17  19
ENDBRANCH  16  17
ENDBRANCH  15  16
ENDBRANCH  14  15
ENDBRANCH  13  14
ENDBRANCH   3  13
TORSDOF 8
ENDMDL
MODEL 4
REMARK VINA RESULT:      -5.1      4.928      6.980
REMARK  8 active torsions:
REMARK  status: ('A' for Active; 'I' for Inactive)
REMARK    1  A    between atoms: C_5  and  C_6 
REMARK    2  A    between atoms: C_6  and  C_7 
REMARK       I    between atoms: C_7  and  N_9 
REMARK    3  A    between atoms: N_9  and  C_10 
REMARK    4  A    between atoms: C_10  and  C_11 
REMARK    5  A    between atoms: C_11  and  C_12 
REMARK    6  A    between atoms: C_12  and  C_13 
REMARK    7  A    between atoms: C_13  and  C_14 
REMARK    8  A    between atoms: C_14  and  O_16 
ROOT
HETATM    1  C   UNL     1     -44.312 -53.515  12.635  1.00  0.00     0.223 C 
HETATM    2  O   UNL     1     -44.970 -54.520  12.901  1.00  0.00    -0.273 OA
HETATM    3  N   UNL     1     -44.874 -52.262  12.513  1.00  0.00    -0.361 N 
HETATM    4  H   UNL     1     -44.254 -51.472  12.357  1.00  0.00     0.162 HD
ENDROOT
BRANCH   1   5
HETATM    5  C   UNL     1     -42.806 -53.571  12.489  1.00  0.00     0.160 C 
BRANCH   5   6
HETATM    6  C   UNL     1     -42.116 -53.909  13.768  1.00  0.00     0.025 A 
HETATM    7  N   UNL     1     -42.649 -54.907  14.576  1.00  0.00    -0.357 N 
HETATM    8  C   UNL     1     -41.869 -55.102  15.621  1.00  0.00     0.047 A 
ATOM      9  HN  UNL     1     -43.515 -55.413  14.389  1.00  0.00     0.166 HD
HETATM   10  C   UNL     1     -42.111 -56.118  16.683  1.00  0.00     0.076 C 
HETATM   11  S   UNL     1     -40.480 -54.096  15.707  1.00  0.00    -0.087 SA
HETATM   12  C   UNL     1     -40.942 -53.352  14.239  1.00  0.00     0.077 A 
ENDBRANCH   5   6
ENDBRANCH   1   5
BRANCH   3  13
HETATM   13  C   UNL     1     -46.290 -52.045  12.732  1.00  0.00     0.122 C 
BRANCH  13  14
HETATM   14  C   UNL     1     -46.596 -51.420  14.092  1.00  0.00     0.020 C 
BRANCH  14  15
HETATM   15  C   UNL     1     -47.220 -52.428  15.060  1.00  0.00     0.012 C 
BRANCH  15  16
HETATM   16  C   UNL     1     -46.480 -52.467  16.396  1.00  0.00     0.110 C 
BRANCH  16  17
HETATM   17  C   UNL     1     -45.173 -53.216  16.284  1.00  0.00     0.139 C 
HETATM   18  O   UNL     1     -44.065 -52.749  16.498  1.00  0.00    -0.650 OA
BRANCH  17  19
HETATM   19  O   UNL     1     -45.350 -54.504  15.905  1.00  0.00    -0.776 OA
HETATM   20  H   UNL     1     -45.565 -54.608  14.959  1.00  0.00     0.167 HD
ENDBRANCH  17  19
ENDBRANCH  16  17
ENDBRANCH  15  16
ENDBRANCH  14  15
ENDBRANCH  13  14
ENDBRANCH   3  13
TORSDOF 8
ENDMDL
MODEL 5
REMARK VINA RESULT:      -4.8      1.978      2.332
REMARK  8 active torsions:
REMARK  status: ('A' for Active; 'I' for Inactive)
REMARK    1  A    between atoms: C_5  and  C_6 
REMARK    2  A    between atoms: C_6  and  C_7 
REMARK       I    between atoms: C_7  and  N_9 
REMARK    3  A    between atoms: N_9  and  C_10 
REMARK    4  A    between atoms: C_10  and  C_11 
REMARK    5  A    between atoms: C_11  and  C_12 
REMARK    6  A    between atoms: C_12  and  C_13 
REMARK    7  A    between atoms: C_13  and  C_14 
REMARK    8  A    between atoms: C_14  and  O_16 
ROOT
HETATM    1  C   UNL     1     -41.059 -49.156  11.711  1.00  0.00     0.223 C 
HETATM    2  O   UNL     1     -40.442 -49.986  11.047  1.00  0.00    -0.273 OA
HETATM    3  N   UNL     1     -41.826 -49.493  12.806  1.00  0.00    -0.361 N 
HETATM    4  H   UNL     1     -42.252 -48.742  13.343  1.00  0.00     0.162 HD
ENDROOT
BRANCH   1   5
HETATM    5  C   UNL     1     -40.965 -47.674  11.414  1.00  0.00     0.160 C 
BRANCH   5   6
HETATM    6  C   UNL     1     -41.964 -47.225  10.401  1.00  0.00     0.025 A 
HETATM    7  N   UNL     1     -42.312 -48.091   9.370  1.00  0.00    -0.357 N 
HETATM    8  C   UNL     1     -43.248 -47.543   8.622  1.00  0.00     0.047 A 
ATOM      9  HN  UNL     1     -41.904 -49.013   9.216  1.00  0.00     0.166 HD
HETATM   10  C   UNL     1     -43.886 -48.196   7.445  1.00  0.00     0.076 C 
HETATM   11  S   UNL     1     -43.744 -45.966   9.090  1.00  0.00    -0.087 SA
HETATM   12  C   UNL     1     -42.639 -46.019  10.394  1.00  0.00     0.077 A 
ENDBRANCH   5   6
ENDBRANCH   1   5
BRANCH   3  13
HETATM   13  C   UNL     1     -41.921 -50.863  13.269  1.00  0.00     0.122 C 
BRANCH  13  14
HETATM   14  C   UNL     1     -43.190 -51.137  14.073  1.00  0.00     0.020 C 
BRANCH  14  15
HETATM   15  C   UNL     1     -44.448 -50.669  13.337  1.00  0.00     0.012 C 
BRANCH  15  16
HETATM   16  C   UNL     1     -45.679 -51.477  13.742  1.00  0.00     0.110 C 
BRANCH  16  17
HETATM   17  C   UNL     1     -46.335 -52.125  12.545  1.00  0.00     0.139 C 
HETATM   18  O   UNL     1     -47.020 -51.552  11.713  1.00  0.00    -0.650 OA
BRANCH  17  19
HETATM   19  O   UNL     1     -46.087 -53.455  12.481  1.00  0.00    -0.776 OA
HETATM   20  H   UNL     1     -45.255 -53.720  12.915  1.00  0.00     0.167 HD
ENDBRANCH  17  19
ENDBRANCH  16  17
ENDBRANCH  15  16
ENDBRANCH  14  15
ENDBRANCH  13  14
ENDBRANCH   3  13
TORSDOF 8
ENDMDL
MODEL 6
REMARK VINA RESULT:      -4.8      2.365      3.163
REMARK  8 active torsions:
REMARK  status: ('A' for Active; 'I' for Inactive)
REMARK    1  A    between atoms: C_5  and  C_6 
REMARK    2  A    between atoms: C_6  and  C_7 
REMARK       I    between atoms: C_7  and  N_9 
REMARK    3  A    between atoms: N_9  and  C_10 
REMARK    4  A    between atoms: C_10  and  C_11 
REMARK    5  A    between atoms: C_11  and  C_12 
REMARK    6  A    between atoms: C_12  and  C_13 
REMARK    7  A    between atoms: C_13  and  C_14 
REMARK    8  A    between atoms: C_14  and  O_16 
ROOT
HETATM    1  C   UNL     1     -41.493 -50.767  12.306  1.00  0.00     0.223 C 
HETATM    2  O   UNL     1     -41.737 -50.312  13.423  1.00  0.00    -0.273 OA
HETATM    3  N   UNL     1     -42.092 -51.907  11.814  1.00  0.00    -0.361 N 
HETATM    4  H   UNL     1     -41.887 -52.181  10.858  1.00  0.00     0.162 HD
ENDROOT
BRANCH   1   5
HETATM    5  C   UNL     1     -40.555 -50.060  11.350  1.00  0.00     0.160 C 
BRANCH   5   6
HETATM    6  C   UNL     1     -40.974 -48.656  11.066  1.00  0.00     0.025 A 
HETATM    7  N   UNL     1     -40.023 -47.644  11.132  1.00  0.00    -0.357 N 
HETATM    8  C   UNL     1     -40.569 -46.494  10.789  1.00  0.00     0.047 A 
ATOM      9  HN  UNL     1     -39.049 -47.772  11.405  1.00  0.00     0.166 HD
HETATM   10  C   UNL     1     -39.840 -45.198  10.715  1.00  0.00     0.076 C 
HETATM   11  S   UNL     1     -42.239 -46.553  10.395  1.00  0.00    -0.087 SA
HETATM   12  C   UNL     1     -42.237 -48.237  10.690  1.00  0.00     0.077 A 
ENDBRANCH   5   6
ENDBRANCH   1   5
BRANCH   3  13
HETATM   13  C   UNL     1     -43.090 -52.626  12.581  1.00  0.00     0.122 C 
BRANCH  13  14
HETATM   14  C   UNL     1     -42.531 -53.866  13.276  1.00  0.00     0.020 C 
BRANCH  14  15
HETATM   15  C   UNL     1     -43.566 -54.529  14.188  1.00  0.00     0.012 C 
BRANCH  15  16
HETATM   16  C   UNL     1     -44.941 -54.608  13.526  1.00  0.00     0.110 C 
BRANCH  16  17
HETATM   17  C   UNL     1     -46.052 -54.398  14.528  1.00  0.00     0.139 C 
HETATM   18  O   UNL     1     -46.156 -53.443  15.284  1.00  0.00    -0.650 OA
BRANCH  17  19
HETATM   19  O   UNL     1     -46.954 -55.407  14.515  1.00  0.00    -0.776 OA
HETATM   20  H   UNL     1     -47.452 -55.499  15.350  1.00  0.00     0.167 HD
ENDBRANCH  17  19
ENDBRANCH  16  17
ENDBRANCH  15  16
ENDBRANCH  14  15
ENDBRANCH  13  14
ENDBRANCH   3  13
TORSDOF 8
ENDMDL
MODEL 7
REMARK VINA RESULT:      -4.7      2.446      3.339
REMARK  8 active torsions:
REMARK  status: ('A' for Active; 'I' for Inactive)
REMARK    1  A    between atoms: C_5  and  C_6 
REMARK    2  A    between atoms: C_6  and  C_7 
REMARK       I    between atoms: C_7  and  N_9 
REMARK    3  A    between atoms: N_9  and  C_10 
REMARK    4  A    between atoms: C_10  and  C_11 
REMARK    5  A    between atoms: C_11  and  C_12 
REMARK    6  A    between atoms: C_12  and  C_13 
REMARK    7  A    between atoms: C_13  and  C_14 
REMARK    8  A    between atoms: C_14  and  O_16 
ROOT
HETATM    1  C   UNL     1     -39.898 -49.970  12.599  1.00  0.00     0.223 C 
HETATM    2  O   UNL     1     -40.212 -49.230  13.530  1.00  0.00    -0.273 OA
HETATM    3  N   UNL     1     -39.071 -51.062  12.757  1.00  0.00    -0.361 N 
HETATM    4  H   UNL     1     -38.912 -51.663  11.954  1.00  0.00     0.162 HD
ENDROOT
BRANCH   1   5
HETATM    5  C   UNL     1     -40.461 -49.776  11.207  1.00  0.00     0.160 C 
BRANCH   5   6
HETATM    6  C   UNL     1     -40.901 -48.373  10.955  1.00  0.00     0.025 A 
HETATM    7  N   UNL     1     -39.964 -47.349  11.041  1.00  0.00    -0.357 N 
HETATM    8  C   UNL     1     -40.527 -46.200  10.724  1.00  0.00     0.047 A 
ATOM      9  HN  UNL     1     -38.988 -47.469  11.309  1.00  0.00     0.166 HD
HETATM   10  C   UNL     1     -39.817 -44.892  10.676  1.00  0.00     0.076 C 
HETATM   11  S   UNL     1     -42.198 -46.275  10.332  1.00  0.00    -0.087 SA
HETATM   12  C   UNL     1     -42.171 -47.965  10.591  1.00  0.00     0.077 A 
ENDBRANCH   5   6
ENDBRANCH   1   5
BRANCH   3  13
HETATM   13  C   UNL     1     -38.544 -51.429  14.057  1.00  0.00     0.122 C 
BRANCH  13  14
HETATM   14  C   UNL     1     -38.940 -52.840  14.487  1.00  0.00     0.020 C 
BRANCH  14  15
HETATM   15  C   UNL     1     -40.451 -52.975  14.694  1.00  0.00     0.012 C 
BRANCH  15  16
HETATM   16  C   UNL     1     -41.073 -53.973  13.720  1.00  0.00     0.110 C 
BRANCH  16  17
HETATM   17  C   UNL     1     -41.532 -53.296  12.450  1.00  0.00     0.139 C 
HETATM   18  O   UNL     1     -42.596 -52.715  12.299  1.00  0.00    -0.650 OA
BRANCH  17  19
HETATM   19  O   UNL     1     -40.622 -53.401  11.454  1.00  0.00    -0.776 OA
HETATM   20  H   UNL     1     -40.935 -53.052  10.598  1.00  0.00     0.167 HD
ENDBRANCH  17  19
ENDBRANCH  16  17
ENDBRANCH  15  16
ENDBRANCH  14  15
ENDBRANCH  13  14
ENDBRANCH   3  13
TORSDOF 8
ENDMDL
MODEL 8
REMARK VINA RESULT:      -4.7      2.265      3.063
REMARK  8 active torsions:
REMARK  status: ('A' for Active; 'I' for Inactive)
REMARK    1  A    between atoms: C_5  and  C_6 
REMARK    2  A    between atoms: C_6  and  C_7 
REMARK       I    between atoms: C_7  and  N_9 
REMARK    3  A    between atoms: N_9  and  C_10 
REMARK    4  A    between atoms: C_10  and  C_11 
REMARK    5  A    between atoms: C_11  and  C_12 
REMARK    6  A    between atoms: C_12  and  C_13 
REMARK    7  A    between atoms: C_13  and  C_14 
REMARK    8  A    between atoms: C_14  and  O_16 
ROOT
HETATM    1  C   UNL     1     -43.047 -50.534  13.010  1.00  0.00     0.223 C 
HETATM    2  O   UNL     1     -44.266 -50.486  13.174  1.00  0.00    -0.273 OA
HETATM    3  N   UNL     1     -42.383 -51.693  12.669  1.00  0.00    -0.361 N 
HETATM    4  H   UNL     1     -41.385 -51.637  12.487  1.00  0.00     0.162 HD
ENDROOT
BRANCH   1   5
HETATM    5  C   UNL     1     -42.185 -49.293  13.104  1.00  0.00     0.160 C 
BRANCH   5   6
HETATM    6  C   UNL     1     -42.416 -48.346  11.975  1.00  0.00     0.025 A 
HETATM    7  N   UNL     1     -43.574 -48.473  11.216  1.00  0.00    -0.357 N 
HETATM    8  C   UNL     1     -43.627 -47.513  10.315  1.00  0.00     0.047 A 
ATOM      9  HN  UNL     1     -44.279 -49.200  11.339  1.00  0.00     0.166 HD
HETATM   10  C   UNL     1     -44.742 -47.316   9.347  1.00  0.00     0.076 C 
HETATM   11  S   UNL     1     -42.295 -46.428  10.307  1.00  0.00    -0.087 SA
HETATM   12  C   UNL     1     -41.600 -47.291  11.609  1.00  0.00     0.077 A 
ENDBRANCH   5   6
ENDBRANCH   1   5
BRANCH   3  13
HETATM   13  C   UNL     1     -43.097 -52.934  12.442  1.00  0.00     0.122 C 
BRANCH  13  14
HETATM   14  C   UNL     1     -43.001 -53.903  13.619  1.00  0.00     0.020 C 
BRANCH  14  15
HETATM   15  C   UNL     1     -41.947 -53.466  14.638  1.00  0.00     0.012 C 
BRANCH  15  16
HETATM   16  C   UNL     1     -40.742 -54.405  14.651  1.00  0.00     0.110 C 
BRANCH  16  17
HETATM   17  C   UNL     1     -39.677 -53.953  13.679  1.00  0.00     0.139 C 
HETATM   18  O   UNL     1     -39.595 -52.841  13.181  1.00  0.00    -0.650 OA
BRANCH  17  19
HETATM   19  O   UNL     1     -38.791 -54.936  13.395  1.00  0.00    -0.776 OA
HETATM   20  H   UNL     1     -38.551 -55.484  14.166  1.00  0.00     0.167 HD
ENDBRANCH  17  19
ENDBRANCH  16  17
ENDBRANCH  15  16
ENDBRANCH  14  15
ENDBRANCH  13  14
ENDBRANCH   3  13
TORSDOF 8
ENDMDL
MODEL 9
REMARK VINA RESULT:      -4.7      3.740      5.920
REMARK  8 active torsions:
REMARK  status: ('A' for Active; 'I' for Inactive)
REMARK    1  A    between atoms: C_5  and  C_6 
REMARK    2  A    between atoms: C_6  and  C_7 
REMARK       I    between atoms: C_7  and  N_9 
REMARK    3  A    between atoms: N_9  and  C_10 
REMARK    4  A    between atoms: C_10  and  C_11 
REMARK    5  A    between atoms: C_11  and  C_12 
REMARK    6  A    between atoms: C_12  and  C_13 
REMARK    7  A    between atoms: C_13  and  C_14 
REMARK    8  A    between atoms: C_14  and  O_16 
ROOT
HETATM    1  C   UNL     1     -41.161 -52.819  12.707  1.00  0.00     0.223 C 
HETATM    2  O   UNL     1     -41.299 -52.235  11.633  1.00  0.00    -0.273 OA
HETATM    3  N   UNL     1     -40.391 -52.321  13.737  1.00  0.00    -0.361 N 
HETATM    4  H   UNL     1     -40.380 -52.829  14.616  1.00  0.00     0.162 HD
ENDROOT
BRANCH   1   5
HETATM    5  C   UNL     1     -41.893 -54.110  13.007  1.00  0.00     0.160 C 
BRANCH   5   6
HETATM    6  C   UNL     1     -43.346 -53.900  13.268  1.00  0.00     0.025 A 
HETATM    7  N   UNL     1     -44.042 -52.977  12.495  1.00  0.00    -0.357 N 
HETATM    8  C   UNL     1     -45.317 -52.982  12.830  1.00  0.00     0.047 A 
ATOM      9  HN  UNL     1     -43.628 -52.385  11.775  1.00  0.00     0.166 HD
HETATM   10  C   UNL     1     -46.366 -52.143  12.189  1.00  0.00     0.076 C 
HETATM   11  S   UNL     1     -45.747 -54.063  14.094  1.00  0.00    -0.087 SA
HETATM   12  C   UNL     1     -44.119 -54.574  14.196  1.00  0.00     0.077 A 
ENDBRANCH   5   6
ENDBRANCH   1   5
BRANCH   3  13
HETATM   13  C   UNL     1     -39.719 -51.041  13.626  1.00  0.00     0.122 C 
BRANCH  13  14
HETATM   14  C   UNL     1     -40.603 -49.864  14.033  1.00  0.00     0.020 C 
BRANCH  14  15
HETATM   15  C   UNL     1     -40.139 -48.551  13.399  1.00  0.00     0.012 C 
BRANCH  15  16
HETATM   16  C   UNL     1     -39.583 -48.763  11.992  1.00  0.00     0.110 C 
BRANCH  16  17
HETATM   17  C   UNL     1     -40.689 -48.855  10.967  1.00  0.00     0.139 C 
HETATM   18  O   UNL     1     -41.624 -48.076  10.858  1.00  0.00    -0.650 OA
BRANCH  17  19
HETATM   19  O   UNL     1     -40.546 -49.925  10.151  1.00  0.00    -0.776 OA
HETATM   20  H   UNL     1     -41.231 -49.985   9.458  1.00  0.00     0.167 HD
ENDBRANCH  17  19
ENDBRANCH  16  17
ENDBRANCH  15  16
ENDBRANCH  14  15
ENDBRANCH  13  14
ENDBRANCH   3  13
TORSDOF 8
ENDMDL
