MODEL 1
REMARK VINA RESULT:      -5.8      0.000      0.000
REMARK  4 active torsions:
REMARK  status: ('A' for Active; 'I' for Inactive)
REMARK       I    between atoms: C_2  and  N_3 
REMARK       I    between atoms: C_2  and  N_12 
REMARK    1  A    between atoms: N_3  and  C_4 
REMARK    2  A    between atoms: C_4  and  C_5 
REMARK    3  A    between atoms: C_5  and  N_6 
REMARK    4  A    between atoms: C_16  and  C_17 
ROOT
HETATM    1  O   UNL     1     -42.871 -49.577  14.974  1.00  0.00    -0.247 OA
HETATM    2  C   UNL     1     -43.715 -50.139  14.281  1.00  0.00     0.318 C 
HETATM    3  N   UNL     1     -43.666 -50.129  12.912  1.00  0.00    -0.341 N 
HETATM    4  N   UNL     1     -44.791 -50.801  14.814  1.00  0.00    -0.329 N 
HETATM    5  C   UNL     1     -45.079 -50.699  16.235  1.00  0.00     0.128 C 
HETATM    6  C   UNL     1     -46.523 -51.176  16.388  1.00  0.00     0.022 C 
HETATM    7  C   UNL     1     -47.010 -51.459  14.964  1.00  0.00     0.027 C 
HETATM    8  C   UNL     1     -45.735 -51.709  14.168  1.00  0.00     0.093 C 
HETATM    9  H   UNL     1     -44.577 -50.088  12.487  1.00  0.00     0.164 HD
ENDROOT
BRANCH   3  10
HETATM   10  C   UNL     1     -42.636 -49.357  12.228  1.00  0.00     0.144 C 
BRANCH  10  11
HETATM   11  C   UNL     1     -43.062 -47.917  11.931  1.00  0.00     0.149 C 
BRANCH  11  12
HETATM   12  N   UNL     1     -43.364 -47.722  10.529  1.00  0.00    -0.350 N 
HETATM   13  C   UNL     1     -44.592 -47.467   9.989  1.00  0.00     0.108 A 
HETATM   14  C   UNL     1     -44.376 -47.410   8.632  1.00  0.00     0.106 A 
HETATM   15  N   UNL     1     -43.050 -47.612   8.342  1.00  0.00    -0.361 N 
HETATM   16  C   UNL     1     -42.466 -47.804   9.503  1.00  0.00     0.182 A 
ATOM     17  HN  UNL     1     -42.612 -47.614   7.421  1.00  0.00     0.166 HD
ENDBRANCH  11  12
ENDBRANCH  10  11
ENDBRANCH   3  10
BRANCH   8  18
HETATM   18  C   UNL     1     -45.202 -53.131  14.370  1.00  0.00     0.009 C 
HETATM   19  C   UNL     1     -44.785 -53.911  13.093  1.00  0.00     0.007 C 
HETATM   20  C   UNL     1     -45.335 -55.182  13.770  1.00  0.00     0.001 C 
HETATM   21  C   UNL     1     -46.247 -54.258  14.604  1.00  0.00     0.007 C 
ENDBRANCH   8  18
TORSDOF 4
ENDMDL
MODEL 2
REMARK VINA RESULT:      -5.5      1.747      2.173
REMARK  4 active torsions:
REMARK  status: ('A' for Active; 'I' for Inactive)
REMARK       I    between atoms: C_2  and  N_3 
REMARK       I    between atoms: C_2  and  N_12 
REMARK    1  A    between atoms: N_3  and  C_4 
REMARK    2  A    between atoms: C_4  and  C_5 
REMARK    3  A    between atoms: C_5  and  N_6 
REMARK    4  A    between atoms: C_16  and  C_17 
ROOT
HETATM    1  O   UNL     1     -42.597 -48.101  13.808  1.00  0.00    -0.247 OA
HETATM    2  C   UNL     1     -42.971 -49.077  13.164  1.00  0.00     0.318 C 
HETATM    3  N   UNL     1     -42.807 -49.169  11.807  1.00  0.00    -0.341 N 
HETATM    4  N   UNL     1     -43.608 -50.146  13.741  1.00  0.00    -0.329 N 
HETATM    5  C   UNL     1     -44.038 -50.077  15.127  1.00  0.00     0.128 C 
HETATM    6  C   UNL     1     -45.049 -51.211  15.292  1.00  0.00     0.022 C 
HETATM    7  C   UNL     1     -45.190 -51.834  13.901  1.00  0.00     0.027 C 
HETATM    8  C   UNL     1     -43.897 -51.465  13.184  1.00  0.00     0.093 C 
HETATM    9  H   UNL     1     -43.570 -49.642  11.351  1.00  0.00     0.164 HD
ENDROOT
BRANCH   3  10
HETATM   10  C   UNL     1     -42.252 -48.044  11.065  1.00  0.00     0.144 C 
BRANCH  10  11
HETATM   11  C   UNL     1     -43.307 -47.012  10.660  1.00  0.00     0.149 C 
BRANCH  11  12
HETATM   12  N   UNL     1     -44.093 -47.460   9.529  1.00  0.00    -0.350 N 
HETATM   13  C   UNL     1     -45.446 -47.644   9.501  1.00  0.00     0.108 A 
HETATM   14  C   UNL     1     -45.711 -48.117   8.238  1.00  0.00     0.106 A 
HETATM   15  N   UNL     1     -44.558 -48.210   7.501  1.00  0.00    -0.361 N 
HETATM   16  C   UNL     1     -43.599 -47.815   8.307  1.00  0.00     0.182 A 
ATOM     17  HN  UNL     1     -44.465 -48.521   6.534  1.00  0.00     0.166 HD
ENDBRANCH  11  12
ENDBRANCH  10  11
ENDBRANCH   3  10
BRANCH   8  18
HETATM   18  C   UNL     1     -42.739 -52.386  13.582  1.00  0.00     0.009 C 
HETATM   19  C   UNL     1     -41.698 -52.718  12.478  1.00  0.00     0.007 C 
HETATM   20  C   UNL     1     -41.604 -54.132  13.084  1.00  0.00     0.001 C 
HETATM   21  C   UNL     1     -43.028 -53.912  13.638  1.00  0.00     0.007 C 
ENDBRANCH   8  18
TORSDOF 4
ENDMDL
MODEL 3
REMARK VINA RESULT:      -5.4      2.341      3.930
REMARK  4 active torsions:
REMARK  status: ('A' for Active; 'I' for Inactive)
REMARK       I    between atoms: C_2  and  N_3 
REMARK       I    between atoms: C_2  and  N_12 
REMARK    1  A    between atoms: N_3  and  C_4 
REMARK    2  A    between atoms: C_4  and  C_5 
REMARK    3  A    between atoms: C_5  and  N_6 
REMARK    4  A    between atoms: C_16  and  C_17 
ROOT
HETATM    1  O   UNL     1     -42.590 -49.865  15.020  1.00  0.00    -0.247 OA
HETATM    2  C   UNL     1     -43.385 -50.400  14.253  1.00  0.00     0.318 C 
HETATM    3  N   UNL     1     -43.167 -50.472  12.902  1.00  0.00    -0.341 N 
HETATM    4  N   UNL     1     -44.569 -50.947  14.676  1.00  0.00    -0.329 N 
HETATM    5  C   UNL     1     -45.020 -50.742  16.042  1.00  0.00     0.128 C 
HETATM    6  C   UNL     1     -46.507 -51.098  16.033  1.00  0.00     0.022 C 
HETATM    7  C   UNL     1     -46.836 -51.425  14.574  1.00  0.00     0.027 C 
HETATM    8  C   UNL     1     -45.498 -51.817  13.959  1.00  0.00     0.093 C 
HETATM    9  H   UNL     1     -44.014 -50.387  12.364  1.00  0.00     0.164 HD
ENDROOT
BRANCH   3  10
HETATM   10  C   UNL     1     -42.002 -49.821  12.319  1.00  0.00     0.144 C 
BRANCH  10  11
HETATM   11  C   UNL     1     -41.044 -50.801  11.637  1.00  0.00     0.149 C 
BRANCH  11  12
HETATM   12  N   UNL     1     -40.567 -51.814  12.553  1.00  0.00    -0.350 N 
HETATM   13  C   UNL     1     -39.707 -51.627  13.597  1.00  0.00     0.108 A 
HETATM   14  C   UNL     1     -39.521 -52.881  14.130  1.00  0.00     0.106 A 
HETATM   15  N   UNL     1     -40.254 -53.815  13.443  1.00  0.00    -0.361 N 
HETATM   16  C   UNL     1     -40.868 -53.145  12.495  1.00  0.00     0.182 A 
ATOM     17  HN  UNL     1     -40.310 -54.816  13.629  1.00  0.00     0.166 HD
ENDBRANCH  11  12
ENDBRANCH  10  11
ENDBRANCH   3  10
BRANCH   8  18
HETATM   18  C   UNL     1     -45.114 -53.261  14.294  1.00  0.00     0.009 C 
HETATM   19  C   UNL     1     -44.657 -54.157  13.110  1.00  0.00     0.007 C 
HETATM   20  C   UNL     1     -45.375 -55.329  13.808  1.00  0.00     0.001 C 
HETATM   21  C   UNL     1     -46.271 -54.278  14.496  1.00  0.00     0.007 C 
ENDBRANCH   8  18
TORSDOF 4
ENDMDL
MODEL 4
REMARK VINA RESULT:      -5.3      2.613      3.531
REMARK  4 active torsions:
REMARK  status: ('A' for Active; 'I' for Inactive)
REMARK       I    between atoms: C_2  and  N_3 
REMARK       I    between atoms: C_2  and  N_12 
REMARK    1  A    between atoms: N_3  and  C_4 
REMARK    2  A    between atoms: C_4  and  C_5 
REMARK    3  A    between atoms: C_5  and  N_6 
REMARK    4  A    between atoms: C_16  and  C_17 
ROOT
HETATM    1  O   UNL     1     -40.810 -52.960  11.752  1.00  0.00    -0.247 OA
HETATM    2  C   UNL     1     -41.402 -52.278  12.583  1.00  0.00     0.318 C 
HETATM    3  N   UNL     1     -41.371 -50.908  12.567  1.00  0.00    -0.341 N 
HETATM    4  N   UNL     1     -42.123 -52.825  13.614  1.00  0.00    -0.329 N 
HETATM    5  C   UNL     1     -42.054 -54.253  13.873  1.00  0.00     0.128 C 
HETATM    6  C   UNL     1     -42.602 -54.432  15.289  1.00  0.00     0.022 C 
HETATM    7  C   UNL     1     -42.889 -53.016  15.794  1.00  0.00     0.027 C 
HETATM    8  C   UNL     1     -43.066 -52.187  14.528  1.00  0.00     0.093 C 
HETATM    9  H   UNL     1     -41.368 -50.505  13.489  1.00  0.00     0.164 HD
ENDROOT
BRANCH   3  10
HETATM   10  C   UNL     1     -40.541 -50.212  11.592  1.00  0.00     0.144 C 
BRANCH  10  11
HETATM   11  C   UNL     1     -40.047 -48.851  12.085  1.00  0.00     0.149 C 
BRANCH  11  12
HETATM   12  N   UNL     1     -40.592 -47.763  11.300  1.00  0.00    -0.350 N 
HETATM   13  C   UNL     1     -40.180 -46.461  11.319  1.00  0.00     0.108 A 
HETATM   14  C   UNL     1     -41.025 -45.811  10.450  1.00  0.00     0.106 A 
HETATM   15  N   UNL     1     -41.926 -46.688   9.901  1.00  0.00    -0.361 N 
HETATM   16  C   UNL     1     -41.646 -47.854  10.436  1.00  0.00     0.182 A 
ATOM     17  HN  UNL     1     -42.657 -46.479   9.222  1.00  0.00     0.166 HD
ENDBRANCH  11  12
ENDBRANCH  10  11
ENDBRANCH   3  10
BRANCH   8  18
HETATM   18  C   UNL     1     -44.463 -52.356  13.924  1.00  0.00     0.009 C 
HETATM   19  C   UNL     1     -45.065 -51.123  13.195  1.00  0.00     0.007 C 
HETATM   20  C   UNL     1     -46.437 -51.545  13.754  1.00  0.00     0.001 C 
HETATM   21  C   UNL     1     -45.676 -52.258  14.891  1.00  0.00     0.007 C 
ENDBRANCH   8  18
TORSDOF 4
ENDMDL
MODEL 5
REMARK VINA RESULT:      -5.3      3.409      4.242
REMARK  4 active torsions:
REMARK  status: ('A' for Active; 'I' for Inactive)
REMARK       I    between atoms: C_2  and  N_3 
REMARK       I    between atoms: C_2  and  N_12 
REMARK    1  A    between atoms: N_3  and  C_4 
REMARK    2  A    between atoms: C_4  and  C_5 
REMARK    3  A    between atoms: C_5  and  N_6 
REMARK    4  A    between atoms: C_16  and  C_17 
ROOT
HETATM    1  O   UNL     1     -39.148 -51.848  12.528  1.00  0.00    -0.247 OA
HETATM    2  C   UNL     1     -40.034 -51.933  13.374  1.00  0.00     0.318 C 
HETATM    3  N   UNL     1     -40.898 -50.903  13.639  1.00  0.00    -0.341 N 
HETATM    4  N   UNL     1     -40.220 -53.053  14.144  1.00  0.00    -0.329 N 
HETATM    5  C   UNL     1     -39.240 -54.125  14.117  1.00  0.00     0.128 C 
HETATM    6  C   UNL     1     -39.528 -54.965  15.362  1.00  0.00     0.022 C 
HETATM    7  C   UNL     1     -40.660 -54.235  16.089  1.00  0.00     0.027 C 
HETATM    8  C   UNL     1     -41.344 -53.412  15.004  1.00  0.00     0.093 C 
HETATM    9  H   UNL     1     -41.150 -50.843  14.612  1.00  0.00     0.164 HD
ENDROOT
BRANCH   3  10
HETATM   10  C   UNL     1     -40.726 -49.620  12.970  1.00  0.00     0.144 C 
BRANCH  10  11
HETATM   11  C   UNL     1     -41.621 -49.458  11.740  1.00  0.00     0.149 C 
BRANCH  11  12
HETATM   12  N   UNL     1     -41.454 -48.161  11.118  1.00  0.00    -0.350 N 
HETATM   13  C   UNL     1     -40.499 -47.232  11.418  1.00  0.00     0.108 A 
HETATM   14  C   UNL     1     -40.780 -46.161  10.602  1.00  0.00     0.106 A 
HETATM   15  N   UNL     1     -41.869 -46.425   9.811  1.00  0.00    -0.361 N 
HETATM   16  C   UNL     1     -42.258 -47.634  10.148  1.00  0.00     0.182 A 
ATOM     17  HN  UNL     1     -42.287 -45.814   9.111  1.00  0.00     0.166 HD
ENDBRANCH  11  12
ENDBRANCH  10  11
ENDBRANCH   3  10
BRANCH   8  18
HETATM   18  C   UNL     1     -42.303 -54.258  14.162  1.00  0.00     0.009 C 
HETATM   19  C   UNL     1     -43.451 -53.502  13.436  1.00  0.00     0.007 C 
HETATM   20  C   UNL     1     -44.347 -54.722  13.723  1.00  0.00     0.001 C 
HETATM   21  C   UNL     1     -43.418 -55.035  14.915  1.00  0.00     0.007 C 
ENDBRANCH   8  18
TORSDOF 4
ENDMDL
MODEL 6
REMARK VINA RESULT:      -5.2      2.325      3.317
REMARK  4 active torsions:
REMARK  status: ('A' for Active; 'I' for Inactive)
REMARK       I    between atoms: C_2  and  N_3 
REMARK       I    between atoms: C_2  and  N_12 
REMARK    1  A    between atoms: N_3  and  C_4 
REMARK    2  A    between atoms: C_4  and  C_5 
REMARK    3  A    between atoms: C_5  and  N_6 
REMARK    4  A    between atoms: C_16  and  C_17 
ROOT
HETATM    1  O   UNL     1     -42.784 -49.695  15.014  1.00  0.00    -0.247 OA
HETATM    2  C   UNL     1     -43.579 -50.260  14.269  1.00  0.00     0.318 C 
HETATM    3  N   UNL     1     -43.409 -50.305  12.910  1.00  0.00    -0.341 N 
HETATM    4  N   UNL     1     -44.718 -50.872  14.726  1.00  0.00    -0.329 N 
HETATM    5  C   UNL     1     -45.128 -50.707  16.110  1.00  0.00     0.128 C 
HETATM    6  C   UNL     1     -46.594 -51.138  16.151  1.00  0.00     0.022 C 
HETATM    7  C   UNL     1     -46.960 -51.464  14.701  1.00  0.00     0.027 C 
HETATM    8  C   UNL     1     -45.628 -51.779  14.031  1.00  0.00     0.093 C 
HETATM    9  H   UNL     1     -44.277 -50.257  12.404  1.00  0.00     0.164 HD
ENDROOT
BRANCH   3  10
HETATM   10  C   UNL     1     -42.300 -49.588  12.293  1.00  0.00     0.144 C 
BRANCH  10  11
HETATM   11  C   UNL     1     -41.136 -50.502  11.903  1.00  0.00     0.149 C 
BRANCH  11  12
HETATM   12  N   UNL     1     -39.869 -50.000  12.390  1.00  0.00    -0.350 N 
HETATM   13  C   UNL     1     -39.625 -49.467  13.623  1.00  0.00     0.108 A 
HETATM   14  C   UNL     1     -38.301 -49.095  13.591  1.00  0.00     0.106 A 
HETATM   15  N   UNL     1     -37.740 -49.400  12.377  1.00  0.00    -0.361 N 
HETATM   16  C   UNL     1     -38.708 -49.937  11.672  1.00  0.00     0.182 A 
ATOM     17  HN  UNL     1     -36.776 -49.243  12.085  1.00  0.00     0.166 HD
ENDBRANCH  11  12
ENDBRANCH  10  11
ENDBRANCH   3  10
BRANCH   8  18
HETATM   18  C   UNL     1     -45.159 -53.206  14.333  1.00  0.00     0.009 C 
HETATM   19  C   UNL     1     -44.685 -54.057  13.123  1.00  0.00     0.007 C 
HETATM   20  C   UNL     1     -45.322 -55.277  13.817  1.00  0.00     0.001 C 
HETATM   21  C   UNL     1     -46.255 -54.287  14.545  1.00  0.00     0.007 C 
ENDBRANCH   8  18
TORSDOF 4
ENDMDL
MODEL 7
REMARK VINA RESULT:      -5.1      1.472      1.951
REMARK  4 active torsions:
REMARK  status: ('A' for Active; 'I' for Inactive)
REMARK       I    between atoms: C_2  and  N_3 
REMARK       I    between atoms: C_2  and  N_12 
REMARK    1  A    between atoms: N_3  and  C_4 
REMARK    2  A    between atoms: C_4  and  C_5 
REMARK    3  A    between atoms: C_5  and  N_6 
REMARK    4  A    between atoms: C_16  and  C_17 
ROOT
HETATM    1  O   UNL     1     -42.945 -49.775  15.468  1.00  0.00    -0.247 OA
HETATM    2  C   UNL     1     -43.740 -50.281  14.680  1.00  0.00     0.318 C 
HETATM    3  N   UNL     1     -43.563 -50.228  13.323  1.00  0.00    -0.341 N 
HETATM    4  N   UNL     1     -44.883 -50.920  15.088  1.00  0.00    -0.329 N 
HETATM    5  C   UNL     1     -45.298 -50.854  16.479  1.00  0.00     0.128 C 
HETATM    6  C   UNL     1     -46.766 -51.280  16.482  1.00  0.00     0.022 C 
HETATM    7  C   UNL     1     -47.128 -51.498  15.011  1.00  0.00     0.027 C 
HETATM    8  C   UNL     1     -45.794 -51.770  14.326  1.00  0.00     0.093 C 
HETATM    9  H   UNL     1     -44.430 -50.139  12.818  1.00  0.00     0.164 HD
ENDROOT
BRANCH   3  10
HETATM   10  C   UNL     1     -42.449 -49.473  12.764  1.00  0.00     0.144 C 
BRANCH  10  11
HETATM   11  C   UNL     1     -42.886 -48.181  12.071  1.00  0.00     0.149 C 
BRANCH  11  12
HETATM   12  N   UNL     1     -41.753 -47.366  11.687  1.00  0.00    -0.350 N 
HETATM   13  C   UNL     1     -40.901 -46.710  12.529  1.00  0.00     0.108 A 
HETATM   14  C   UNL     1     -40.031 -46.042  11.699  1.00  0.00     0.106 A 
HETATM   15  N   UNL     1     -40.329 -46.286  10.383  1.00  0.00    -0.361 N 
HETATM   16  C   UNL     1     -41.374 -47.081  10.406  1.00  0.00     0.182 A 
ATOM     17  HN  UNL     1     -39.842 -45.928   9.562  1.00  0.00     0.166 HD
ENDBRANCH  11  12
ENDBRANCH  10  11
ENDBRANCH   3  10
BRANCH   8  18
HETATM   18  C   UNL     1     -45.332 -53.217  14.524  1.00  0.00     0.009 C 
HETATM   19  C   UNL     1     -44.816 -53.966  13.265  1.00  0.00     0.007 C 
HETATM   20  C   UNL     1     -45.473 -55.238  13.835  1.00  0.00     0.001 C 
HETATM   21  C   UNL     1     -46.432 -54.311  14.610  1.00  0.00     0.007 C 
ENDBRANCH   8  18
TORSDOF 4
ENDMDL
MODEL 8
REMARK VINA RESULT:      -5.0      3.348      7.202
REMARK  4 active torsions:
REMARK  status: ('A' for Active; 'I' for Inactive)
REMARK       I    between atoms: C_2  and  N_3 
REMARK       I    between atoms: C_2  and  N_12 
REMARK    1  A    between atoms: N_3  and  C_4 
REMARK    2  A    between atoms: C_4  and  C_5 
REMARK    3  A    between atoms: C_5  and  N_6 
REMARK    4  A    between atoms: C_16  and  C_17 
ROOT
HETATM    1  O   UNL     1     -40.927 -52.615  15.279  1.00  0.00    -0.247 OA
HETATM    2  C   UNL     1     -40.719 -52.306  14.109  1.00  0.00     0.318 C 
HETATM    3  N   UNL     1     -41.479 -52.787  13.076  1.00  0.00    -0.341 N 
HETATM    4  N   UNL     1     -39.694 -51.476  13.732  1.00  0.00    -0.329 N 
HETATM    5  C   UNL     1     -38.687 -51.076  14.700  1.00  0.00     0.128 C 
HETATM    6  C   UNL     1     -37.520 -50.543  13.869  1.00  0.00     0.022 C 
HETATM    7  C   UNL     1     -37.931 -50.755  12.410  1.00  0.00     0.027 C 
HETATM    8  C   UNL     1     -39.453 -50.823  12.448  1.00  0.00     0.093 C 
HETATM    9  H   UNL     1     -40.945 -52.950  12.239  1.00  0.00     0.164 HD
ENDROOT
BRANCH   3  10
HETATM   10  C   UNL     1     -42.522 -53.771  13.338  1.00  0.00     0.144 C 
BRANCH  10  11
HETATM   11  C   UNL     1     -43.805 -53.514  12.545  1.00  0.00     0.149 C 
BRANCH  11  12
HETATM   12  N   UNL     1     -44.989 -53.745  13.344  1.00  0.00    -0.350 N 
HETATM   13  C   UNL     1     -45.789 -52.792  13.907  1.00  0.00     0.108 A 
HETATM   14  C   UNL     1     -46.744 -53.499  14.601  1.00  0.00     0.106 A 
HETATM   15  N   UNL     1     -46.547 -54.849  14.461  1.00  0.00    -0.361 N 
HETATM   16  C   UNL     1     -45.480 -54.968  13.705  1.00  0.00     0.182 A 
ATOM     17  HN  UNL     1     -47.110 -55.600  14.859  1.00  0.00     0.166 HD
ENDBRANCH  11  12
ENDBRANCH  10  11
ENDBRANCH   3  10
BRANCH   8  18
HETATM   18  C   UNL     1     -40.088 -49.432  12.524  1.00  0.00     0.009 C 
HETATM   19  C   UNL     1     -41.325 -49.176  11.619  1.00  0.00     0.007 C 
HETATM   20  C   UNL     1     -40.800 -47.740  11.421  1.00  0.00     0.001 C 
HETATM   21  C   UNL     1     -39.392 -48.287  11.736  1.00  0.00     0.007 C 
ENDBRANCH   8  18
TORSDOF 4
ENDMDL
MODEL 9
REMARK VINA RESULT:      -4.7      3.082      4.232
REMARK  4 active torsions:
REMARK  status: ('A' for Active; 'I' for Inactive)
REMARK       I    between atoms: C_2  and  N_3 
REMARK       I    between atoms: C_2  and  N_12 
REMARK    1  A    between atoms: N_3  and  C_4 
REMARK    2  A    between atoms: C_4  and  C_5 
REMARK    3  A    between atoms: C_5  and  N_6 
REMARK    4  A    between atoms: C_16  and  C_17 
ROOT
HETATM    1  O   UNL     1     -41.985 -52.325  12.475  1.00  0.00    -0.247 OA
HETATM    2  C   UNL     1     -42.473 -52.464  13.593  1.00  0.00     0.318 C 
HETATM    3  N   UNL     1     -41.884 -51.954  14.720  1.00  0.00    -0.341 N 
HETATM    4  N   UNL     1     -43.632 -53.163  13.815  1.00  0.00    -0.329 N 
HETATM    5  C   UNL     1     -44.234 -53.936  12.742  1.00  0.00     0.128 C 
HETATM    6  C   UNL     1     -45.213 -54.886  13.430  1.00  0.00     0.022 C 
HETATM    7  C   UNL     1     -45.039 -54.631  14.930  1.00  0.00     0.027 C 
HETATM    8  C   UNL     1     -44.465 -53.222  15.013  1.00  0.00     0.093 C 
HETATM    9  H   UNL     1     -42.001 -52.546  15.526  1.00  0.00     0.164 HD
ENDROOT
BRANCH   3  10
HETATM   10  C   UNL     1     -40.587 -51.296  14.627  1.00  0.00     0.144 C 
BRANCH  10  11
HETATM   11  C   UNL     1     -40.688 -49.823  14.224  1.00  0.00     0.149 C 
BRANCH  11  12
HETATM   12  N   UNL     1     -39.861 -49.521  13.075  1.00  0.00    -0.350 N 
HETATM   13  C   UNL     1     -38.749 -50.203  12.670  1.00  0.00     0.108 A 
HETATM   14  C   UNL     1     -38.291 -49.512  11.573  1.00  0.00     0.106 A 
HETATM   15  N   UNL     1     -39.102 -48.440  11.300  1.00  0.00    -0.361 N 
HETATM   16  C   UNL     1     -40.034 -48.466  12.224  1.00  0.00     0.182 A 
ATOM     17  HN  UNL     1     -39.001 -47.766  10.542  1.00  0.00     0.166 HD
ENDBRANCH  11  12
ENDBRANCH  10  11
ENDBRANCH   3  10
BRANCH   8  18
HETATM   18  C   UNL     1     -45.550 -52.151  14.860  1.00  0.00     0.009 C 
HETATM   19  C   UNL     1     -45.619 -51.061  15.965  1.00  0.00     0.007 C 
HETATM   20  C   UNL     1     -47.152 -51.094  15.810  1.00  0.00     0.001 C 
HETATM   21  C   UNL     1     -46.996 -52.536  15.281  1.00  0.00     0.007 C 
ENDBRANCH   8  18
TORSDOF 4
ENDMDL
