MODEL 1
REMARK VINA RESULT:      -5.5      0.000      0.000
REMARK  5 active torsions:
REMARK  status: ('A' for Active; 'I' for Inactive)
REMARK    1  A    between atoms: C_2  and  N_3 
REMARK       I    between atoms: N_3  and  C_4 
REMARK    2  A    between atoms: C_4  and  C_6 
REMARK    3  A    between atoms: C_6  and  N_8 
REMARK       I    between atoms: N_8  and  C_9 
REMARK    4  A    between atoms: C_9  and  C_11 
REMARK    5  A    between atoms: C_11  and  C_12 
ROOT
HETATM    1  N   UNL     1     -42.079 -50.195  11.795  1.00  0.00    -0.348 N 
HETATM    2  C   UNL     1     -41.012 -50.973  12.203  1.00  0.00     0.222 C 
HETATM    3  O   UNL     1     -40.109 -50.556  12.919  1.00  0.00    -0.273 OA
HETATM    4  H   UNL     1     -42.615 -50.525  11.001  1.00  0.00     0.163 HD
ENDROOT
BRANCH   2   5
HETATM    5  C   UNL     1     -41.095 -52.423  11.768  1.00  0.00     0.145 C 
BRANCH   5   6
HETATM    6  C   UNL     1     -41.607 -53.313  12.846  1.00  0.00    -0.002 A 
HETATM    7  C   UNL     1     -40.848 -53.979  13.847  1.00  0.00     0.030 A 
HETATM    8  C   UNL     1     -39.376 -54.004  14.047  1.00  0.00     0.070 C 
HETATM    9  N   UNL     1     -41.635 -54.637  14.703  1.00  0.00    -0.303 N 
HETATM   10  N   UNL     1     -42.881 -54.405  14.265  1.00  0.00    -0.300 N 
ATOM     11  HN  UNL     1     -41.351 -55.193  15.509  1.00  0.00     0.186 HD
HETATM   12  C   UNL     1     -43.995 -54.908  15.034  1.00  0.00     0.177 C 
HETATM   13  C   UNL     1     -42.925 -53.652  13.118  1.00  0.00     0.033 A 
HETATM   14  C   UNL     1     -44.180 -53.309  12.402  1.00  0.00     0.070 C 
ENDBRANCH   5   6
ENDBRANCH   2   5
BRANCH   1  15
HETATM   15  C   UNL     1     -42.144 -48.758  12.084  1.00  0.00     0.172 C 
HETATM   16  C   UNL     1     -42.969 -48.431  13.325  1.00  0.00     0.042 C 
BRANCH  15  17
HETATM   17  C   UNL     1     -42.571 -47.925  10.852  1.00  0.00     0.240 C 
HETATM   18  N   UNL     1     -43.903 -48.097  10.506  1.00  0.00    -0.360 N 
HETATM   19  H   UNL     1     -44.490 -48.515  11.215  1.00  0.00     0.162 HD
HETATM   20  O   UNL     1     -41.774 -47.313  10.147  1.00  0.00    -0.271 OA
BRANCH  18  21
HETATM   21  C   UNL     1     -44.532 -47.307   9.474  1.00  0.00     0.118 C 
HETATM   22  C   UNL     1     -45.974 -47.731   9.248  1.00  0.00     0.026 C 
ENDBRANCH  18  21
ENDBRANCH  15  17
ENDBRANCH   1  15
TORSDOF 5
ENDMDL
MODEL 2
REMARK VINA RESULT:      -5.4      1.811      2.300
REMARK  5 active torsions:
REMARK  status: ('A' for Active; 'I' for Inactive)
REMARK    1  A    between atoms: C_2  and  N_3 
REMARK       I    between atoms: N_3  and  C_4 
REMARK    2  A    between atoms: C_4  and  C_6 
REMARK    3  A    between atoms: C_6  and  N_8 
REMARK       I    between atoms: N_8  and  C_9 
REMARK    4  A    between atoms: C_9  and  C_11 
REMARK    5  A    between atoms: C_11  and  C_12 
ROOT
HETATM    1  N   UNL     1     -43.007 -48.513  11.779  1.00  0.00    -0.348 N 
HETATM    2  C   UNL     1     -42.589 -49.680  12.391  1.00  0.00     0.222 C 
HETATM    3  O   UNL     1     -41.646 -50.352  11.987  1.00  0.00    -0.273 OA
HETATM    4  H   UNL     1     -43.937 -48.181  12.003  1.00  0.00     0.163 HD
ENDROOT
BRANCH   2   5
HETATM    5  C   UNL     1     -43.334 -50.016  13.668  1.00  0.00     0.145 C 
BRANCH   5   6
HETATM    6  C   UNL     1     -43.638 -51.467  13.786  1.00  0.00    -0.002 A 
HETATM    7  C   UNL     1     -42.792 -52.486  14.304  1.00  0.00     0.030 A 
HETATM    8  C   UNL     1     -41.397 -52.383  14.804  1.00  0.00     0.070 C 
HETATM    9  N   UNL     1     -43.409 -53.670  14.333  1.00  0.00    -0.303 N 
HETATM   10  N   UNL     1     -44.633 -53.426  13.841  1.00  0.00    -0.300 N 
ATOM     11  HN  UNL     1     -43.034 -54.561  14.656  1.00  0.00     0.186 HD
HETATM   12  C   UNL     1     -45.602 -54.496  13.820  1.00  0.00     0.177 C 
HETATM   13  C   UNL     1     -44.814 -52.124  13.448  1.00  0.00     0.033 A 
HETATM   14  C   UNL     1     -46.058 -51.615  12.817  1.00  0.00     0.070 C 
ENDBRANCH   5   6
ENDBRANCH   2   5
BRANCH   1  15
HETATM   15  C   UNL     1     -42.431 -48.056  10.509  1.00  0.00     0.172 C 
HETATM   16  C   UNL     1     -41.310 -47.039  10.689  1.00  0.00     0.042 C 
BRANCH  15  17
HETATM   17  C   UNL     1     -43.510 -47.579   9.508  1.00  0.00     0.240 C 
HETATM   18  N   UNL     1     -44.805 -47.854   9.921  1.00  0.00    -0.360 N 
HETATM   19  H   UNL     1     -44.914 -48.084  10.900  1.00  0.00     0.162 HD
HETATM   20  O   UNL     1     -43.245 -47.158   8.386  1.00  0.00    -0.271 OA
BRANCH  18  21
HETATM   21  C   UNL     1     -45.957 -47.369   9.198  1.00  0.00     0.118 C 
HETATM   22  C   UNL     1     -46.895 -48.502   8.817  1.00  0.00     0.026 C 
ENDBRANCH  18  21
ENDBRANCH  15  17
ENDBRANCH   1  15
TORSDOF 5
ENDMDL
MODEL 3
REMARK VINA RESULT:      -5.4      1.470      2.460
REMARK  5 active torsions:
REMARK  status: ('A' for Active; 'I' for Inactive)
REMARK    1  A    between atoms: C_2  and  N_3 
REMARK       I    between atoms: N_3  and  C_4 
REMARK    2  A    between atoms: C_4  and  C_6 
REMARK    3  A    between atoms: C_6  and  N_8 
REMARK       I    between atoms: N_8  and  C_9 
REMARK    4  A    between atoms: C_9  and  C_11 
REMARK    5  A    between atoms: C_11  and  C_12 
ROOT
HETATM    1  N   UNL     1     -40.621 -50.759  11.150  1.00  0.00    -0.348 N 
HETATM    2  C   UNL     1     -41.084 -51.456  12.250  1.00  0.00     0.222 C 
HETATM    3  O   UNL     1     -41.504 -50.911  13.266  1.00  0.00    -0.273 OA
HETATM    4  H   UNL     1     -40.050 -51.268  10.487  1.00  0.00     0.163 HD
ENDROOT
BRANCH   2   5
HETATM    5  C   UNL     1     -41.122 -52.960  12.065  1.00  0.00     0.145 C 
BRANCH   5   6
HETATM    6  C   UNL     1     -41.798 -53.657  13.192  1.00  0.00    -0.002 A 
HETATM    7  C   UNL     1     -43.190 -53.909  13.341  1.00  0.00     0.030 A 
HETATM    8  C   UNL     1     -44.315 -53.508  12.457  1.00  0.00     0.070 C 
HETATM    9  N   UNL     1     -43.445 -54.626  14.438  1.00  0.00    -0.303 N 
HETATM   10  N   UNL     1     -42.242 -54.835  14.993  1.00  0.00    -0.300 N 
ATOM     11  HN  UNL     1     -44.352 -54.944  14.778  1.00  0.00     0.186 HD
HETATM   12  C   UNL     1     -42.152 -55.670  16.168  1.00  0.00     0.177 C 
HETATM   13  C   UNL     1     -41.214 -54.232  14.313  1.00  0.00     0.033 A 
HETATM   14  C   UNL     1     -39.798 -54.263  14.757  1.00  0.00     0.070 C 
ENDBRANCH   5   6
ENDBRANCH   2   5
BRANCH   1  15
HETATM   15  C   UNL     1     -40.472 -49.299  11.166  1.00  0.00     0.172 C 
HETATM   16  C   UNL     1     -39.760 -48.781  12.411  1.00  0.00     0.042 C 
BRANCH  15  17
HETATM   17  C   UNL     1     -41.809 -48.566  10.899  1.00  0.00     0.240 C 
HETATM   18  N   UNL     1     -41.966 -48.169   9.581  1.00  0.00    -0.360 N 
HETATM   19  H   UNL     1     -41.348 -48.611   8.912  1.00  0.00     0.162 HD
HETATM   20  O   UNL     1     -42.572 -48.216  11.795  1.00  0.00    -0.271 OA
BRANCH  18  21
HETATM   21  C   UNL     1     -43.199 -47.594   9.097  1.00  0.00     0.118 C 
HETATM   22  C   UNL     1     -43.443 -47.942   7.638  1.00  0.00     0.026 C 
ENDBRANCH  18  21
ENDBRANCH  15  17
ENDBRANCH   1  15
TORSDOF 5
ENDMDL
MODEL 4
REMARK VINA RESULT:      -5.3      2.031      2.718
REMARK  5 active torsions:
REMARK  status: ('A' for Active; 'I' for Inactive)
REMARK    1  A    between atoms: C_2  and  N_3 
REMARK       I    between atoms: N_3  and  C_4 
REMARK    2  A    between atoms: C_4  and  C_6 
REMARK    3  A    between atoms: C_6  and  N_8 
REMARK       I    between atoms: N_8  and  C_9 
REMARK    4  A    between atoms: C_9  and  C_11 
REMARK    5  A    between atoms: C_11  and  C_12 
ROOT
HETATM    1  N   UNL     1     -42.872 -51.002  12.358  1.00  0.00    -0.348 N 
HETATM    2  C   UNL     1     -42.601 -52.356  12.408  1.00  0.00     0.222 C 
HETATM    3  O   UNL     1     -41.482 -52.813  12.611  1.00  0.00    -0.273 OA
HETATM    4  H   UNL     1     -43.741 -50.719  11.921  1.00  0.00     0.163 HD
ENDROOT
BRANCH   2   5
HETATM    5  C   UNL     1     -43.826 -53.242  12.285  1.00  0.00     0.145 C 
BRANCH   5   6
HETATM    6  C   UNL     1     -44.647 -53.255  13.526  1.00  0.00    -0.002 A 
HETATM    7  C   UNL     1     -44.420 -54.021  14.702  1.00  0.00     0.030 A 
HETATM    8  C   UNL     1     -43.361 -55.024  14.978  1.00  0.00     0.070 C 
HETATM    9  N   UNL     1     -45.310 -53.732  15.655  1.00  0.00    -0.303 N 
HETATM   10  N   UNL     1     -46.101 -52.797  15.109  1.00  0.00    -0.300 N 
ATOM     11  HN  UNL     1     -45.374 -54.133  16.591  1.00  0.00     0.186 HD
HETATM   12  C   UNL     1     -47.130 -52.193  15.921  1.00  0.00     0.177 C 
HETATM   13  C   UNL     1     -45.780 -52.504  13.807  1.00  0.00     0.033 A 
HETATM   14  C   UNL     1     -46.541 -51.548  12.963  1.00  0.00     0.070 C 
ENDBRANCH   5   6
ENDBRANCH   2   5
BRANCH   1  15
HETATM   15  C   UNL     1     -41.804 -49.997  12.414  1.00  0.00     0.172 C 
HETATM   16  C   UNL     1     -41.547 -49.471  13.822  1.00  0.00     0.042 C 
BRANCH  15  17
HETATM   17  C   UNL     1     -42.008 -48.859  11.385  1.00  0.00     0.240 C 
HETATM   18  N   UNL     1     -43.338 -48.515  11.201  1.00  0.00    -0.360 N 
HETATM   19  H   UNL     1     -43.979 -48.838  11.914  1.00  0.00     0.162 HD
HETATM   20  O   UNL     1     -41.105 -48.427  10.675  1.00  0.00    -0.271 OA
BRANCH  18  21
HETATM   21  C   UNL     1     -43.731 -47.388  10.389  1.00  0.00     0.118 C 
HETATM   22  C   UNL     1     -45.068 -47.629   9.707  1.00  0.00     0.026 C 
ENDBRANCH  18  21
ENDBRANCH  15  17
ENDBRANCH   1  15
TORSDOF 5
ENDMDL
MODEL 5
REMARK VINA RESULT:      -5.3      2.558      6.951
REMARK  5 active torsions:
REMARK  status: ('A' for Active; 'I' for Inactive)
REMARK    1  A    between atoms: C_2  and  N_3 
REMARK       I    between atoms: N_3  and  C_4 
REMARK    2  A    between atoms: C_4  and  C_6 
REMARK    3  A    between atoms: C_6  and  N_8 
REMARK       I    between atoms: N_8  and  C_9 
REMARK    4  A    between atoms: C_9  and  C_11 
REMARK    5  A    between atoms: C_11  and  C_12 
ROOT
HETATM    1  N   UNL     1     -41.728 -50.648  11.695  1.00  0.00    -0.348 N 
HETATM    2  C   UNL     1     -42.006 -49.295  11.733  1.00  0.00     0.222 C 
HETATM    3  O   UNL     1     -42.474 -48.730  12.716  1.00  0.00    -0.273 OA
HETATM    4  H   UNL     1     -41.612 -51.071  10.782  1.00  0.00     0.163 HD
ENDROOT
BRANCH   2   5
HETATM    5  C   UNL     1     -41.594 -48.539  10.485  1.00  0.00     0.145 C 
BRANCH   5   6
HETATM    6  C   UNL     1     -42.069 -47.129  10.490  1.00  0.00    -0.002 A 
HETATM    7  C   UNL     1     -43.335 -46.643  10.061  1.00  0.00     0.030 A 
HETATM    8  C   UNL     1     -44.472 -47.389   9.462  1.00  0.00     0.070 C 
HETATM    9  N   UNL     1     -43.455 -45.330  10.274  1.00  0.00    -0.303 N 
HETATM   10  N   UNL     1     -42.290 -44.969  10.829  1.00  0.00    -0.300 N 
ATOM     11  HN  UNL     1     -44.256 -44.735  10.062  1.00  0.00     0.186 HD
HETATM   12  C   UNL     1     -42.122 -43.605  11.274  1.00  0.00     0.177 C 
HETATM   13  C   UNL     1     -41.393 -46.002  10.939  1.00  0.00     0.033 A 
HETATM   14  C   UNL     1     -40.013 -45.848  11.464  1.00  0.00     0.070 C 
ENDBRANCH   5   6
ENDBRANCH   2   5
BRANCH   1  15
HETATM   15  C   UNL     1     -42.100 -51.545  12.796  1.00  0.00     0.172 C 
HETATM   16  C   UNL     1     -41.072 -52.643  13.049  1.00  0.00     0.042 C 
BRANCH  15  17
HETATM   17  C   UNL     1     -43.536 -52.101  12.646  1.00  0.00     0.240 C 
HETATM   18  N   UNL     1     -44.514 -51.231  13.101  1.00  0.00    -0.360 N 
HETATM   19  H   UNL     1     -44.223 -50.270  13.227  1.00  0.00     0.162 HD
HETATM   20  O   UNL     1     -43.776 -53.261  12.323  1.00  0.00    -0.271 OA
BRANCH  18  21
HETATM   21  C   UNL     1     -45.921 -51.502  12.924  1.00  0.00     0.118 C 
HETATM   22  C   UNL     1     -46.673 -51.432  14.243  1.00  0.00     0.026 C 
ENDBRANCH  18  21
ENDBRANCH  15  17
ENDBRANCH   1  15
TORSDOF 5
ENDMDL
MODEL 6
REMARK VINA RESULT:      -5.3      1.528      2.741
REMARK  5 active torsions:
REMARK  status: ('A' for Active; 'I' for Inactive)
REMARK    1  A    between atoms: C_2  and  N_3 
REMARK       I    between atoms: N_3  and  C_4 
REMARK    2  A    between atoms: C_4  and  C_6 
REMARK    3  A    between atoms: C_6  and  N_8 
REMARK       I    between atoms: N_8  and  C_9 
REMARK    4  A    between atoms: C_9  and  C_11 
REMARK    5  A    between atoms: C_11  and  C_12 
ROOT
HETATM    1  N   UNL     1     -42.330 -48.476  11.616  1.00  0.00    -0.348 N 
HETATM    2  C   UNL     1     -41.763 -49.703  11.904  1.00  0.00     0.222 C 
HETATM    3  O   UNL     1     -40.802 -50.161  11.296  1.00  0.00    -0.273 OA
HETATM    4  H   UNL     1     -43.264 -48.303  11.967  1.00  0.00     0.163 HD
ENDROOT
BRANCH   2   5
HETATM    5  C   UNL     1     -42.370 -50.403  13.105  1.00  0.00     0.145 C 
BRANCH   5   6
HETATM    6  C   UNL     1     -41.844 -51.783  13.285  1.00  0.00    -0.002 A 
HETATM    7  C   UNL     1     -42.489 -53.003  12.941  1.00  0.00     0.030 A 
HETATM    8  C   UNL     1     -43.843 -53.220  12.371  1.00  0.00     0.070 C 
HETATM    9  N   UNL     1     -41.700 -54.057  13.170  1.00  0.00    -0.303 N 
HETATM   10  N   UNL     1     -40.566 -53.532  13.656  1.00  0.00    -0.300 N 
ATOM     11  HN  UNL     1     -41.913 -55.041  13.011  1.00  0.00     0.186 HD
HETATM   12  C   UNL     1     -39.452 -54.409  13.927  1.00  0.00     0.177 C 
HETATM   13  C   UNL     1     -40.611 -52.167  13.795  1.00  0.00     0.033 A 
HETATM   14  C   UNL     1     -39.507 -51.357  14.367  1.00  0.00     0.070 C 
ENDBRANCH   5   6
ENDBRANCH   2   5
BRANCH   1  15
HETATM   15  C   UNL     1     -41.902 -47.678  10.461  1.00  0.00     0.172 C 
HETATM   16  C   UNL     1     -40.807 -46.671  10.799  1.00  0.00     0.042 C 
BRANCH  15  17
HETATM   17  C   UNL     1     -43.093 -47.030   9.716  1.00  0.00     0.240 C 
HETATM   18  N   UNL     1     -44.264 -47.767   9.802  1.00  0.00    -0.360 N 
HETATM   19  H   UNL     1     -44.286 -48.473  10.526  1.00  0.00     0.162 HD
HETATM   20  O   UNL     1     -42.973 -46.056   8.977  1.00  0.00    -0.271 OA
BRANCH  18  21
HETATM   21  C   UNL     1     -45.520 -47.268   9.294  1.00  0.00     0.118 C 
HETATM   22  C   UNL     1     -46.311 -48.360   8.593  1.00  0.00     0.026 C 
ENDBRANCH  18  21
ENDBRANCH  15  17
ENDBRANCH   1  15
TORSDOF 5
ENDMDL
MODEL 7
REMARK VINA RESULT:      -5.3      1.938      2.553
REMARK  5 active torsions:
REMARK  status: ('A' for Active; 'I' for Inactive)
REMARK    1  A    between atoms: C_2  and  N_3 
REMARK       I    between atoms: N_3  and  C_4 
REMARK    2  A    between atoms: C_4  and  C_6 
REMARK    3  A    between atoms: C_6  and  N_8 
REMARK       I    between atoms: N_8  and  C_9 
REMARK    4  A    between atoms: C_9  and  C_11 
REMARK    5  A    between atoms: C_11  and  C_12 
ROOT
HETATM    1  N   UNL     1     -41.491 -49.726  11.087  1.00  0.00    -0.348 N 
HETATM    2  C   UNL     1     -41.546 -50.610  12.149  1.00  0.00     0.222 C 
HETATM    3  O   UNL     1     -41.991 -50.313  13.251  1.00  0.00    -0.273 OA
HETATM    4  H   UNL     1     -40.872 -49.960  10.322  1.00  0.00     0.163 HD
ENDROOT
BRANCH   2   5
HETATM    5  C   UNL     1     -41.095 -52.018  11.811  1.00  0.00     0.145 C 
BRANCH   5   6
HETATM    6  C   UNL     1     -41.413 -52.993  12.888  1.00  0.00    -0.002 A 
HETATM    7  C   UNL     1     -40.540 -53.473  13.902  1.00  0.00     0.030 A 
HETATM    8  C   UNL     1     -39.100 -53.176  14.118  1.00  0.00     0.070 C 
HETATM    9  N   UNL     1     -41.174 -54.283  14.754  1.00  0.00    -0.303 N 
HETATM   10  N   UNL     1     -42.435 -54.330  14.301  1.00  0.00    -0.300 N 
ATOM     11  HN  UNL     1     -40.786 -54.760  15.567  1.00  0.00     0.186 HD
HETATM   12  C   UNL     1     -43.422 -55.061  15.061  1.00  0.00     0.177 C 
HETATM   13  C   UNL     1     -42.629 -53.610  13.149  1.00  0.00     0.033 A 
HETATM   14  C   UNL     1     -43.920 -53.552  12.417  1.00  0.00     0.070 C 
ENDBRANCH   5   6
ENDBRANCH   2   5
BRANCH   1  15
HETATM   15  C   UNL     1     -41.846 -48.310  11.242  1.00  0.00     0.172 C 
HETATM   16  C   UNL     1     -42.898 -47.842  10.243  1.00  0.00     0.042 C 
BRANCH  15  17
HETATM   17  C   UNL     1     -40.602 -47.390  11.268  1.00  0.00     0.240 C 
HETATM   18  N   UNL     1     -40.647 -46.376  10.323  1.00  0.00    -0.360 N 
HETATM   19  H   UNL     1     -41.556 -46.191   9.920  1.00  0.00     0.162 HD
HETATM   20  O   UNL     1     -39.600 -47.634  11.935  1.00  0.00    -0.271 OA
BRANCH  18  21
HETATM   21  C   UNL     1     -39.651 -45.331  10.276  1.00  0.00     0.118 C 
HETATM   22  C   UNL     1     -40.103 -44.095  11.036  1.00  0.00     0.026 C 
ENDBRANCH  18  21
ENDBRANCH  15  17
ENDBRANCH   1  15
TORSDOF 5
ENDMDL
MODEL 8
REMARK VINA RESULT:      -5.2      2.721      6.115
REMARK  5 active torsions:
REMARK  status: ('A' for Active; 'I' for Inactive)
REMARK    1  A    between atoms: C_2  and  N_3 
REMARK       I    between atoms: N_3  and  C_4 
REMARK    2  A    between atoms: C_4  and  C_6 
REMARK    3  A    between atoms: C_6  and  N_8 
REMARK       I    between atoms: N_8  and  C_9 
REMARK    4  A    between atoms: C_9  and  C_11 
REMARK    5  A    between atoms: C_11  and  C_12 
ROOT
HETATM    1  N   UNL     1     -41.625 -52.071  12.159  1.00  0.00    -0.348 N 
HETATM    2  C   UNL     1     -41.442 -50.712  12.335  1.00  0.00     0.222 C 
HETATM    3  O   UNL     1     -41.808 -50.107  13.336  1.00  0.00    -0.273 OA
HETATM    4  H   UNL     1     -41.550 -52.430  11.215  1.00  0.00     0.163 HD
ENDROOT
BRANCH   2   5
HETATM    5  C   UNL     1     -40.661 -50.040  11.223  1.00  0.00     0.145 C 
BRANCH   5   6
HETATM    6  C   UNL     1     -40.595 -48.563  11.385  1.00  0.00    -0.002 A 
HETATM    7  C   UNL     1     -39.682 -47.823  12.187  1.00  0.00     0.030 A 
HETATM    8  C   UNL     1     -38.612 -48.319  13.091  1.00  0.00     0.070 C 
HETATM    9  N   UNL     1     -39.855 -46.507  12.042  1.00  0.00    -0.303 N 
HETATM   10  N   UNL     1     -40.863 -46.393  11.164  1.00  0.00    -0.300 N 
ATOM     11  HN  UNL     1     -39.337 -45.755  12.497  1.00  0.00     0.186 HD
HETATM   12  C   UNL     1     -41.248 -45.077  10.712  1.00  0.00     0.177 C 
HETATM   13  C   UNL     1     -41.383 -47.600  10.770  1.00  0.00     0.033 A 
HETATM   14  C   UNL     1     -42.542 -47.741   9.852  1.00  0.00     0.070 C 
ENDBRANCH   5   6
ENDBRANCH   2   5
BRANCH   1  15
HETATM   15  C   UNL     1     -42.398 -52.877  13.112  1.00  0.00     0.172 C 
HETATM   16  C   UNL     1     -41.842 -54.285  13.298  1.00  0.00     0.042 C 
BRANCH  15  17
HETATM   17  C   UNL     1     -43.913 -52.875  12.795  1.00  0.00     0.240 C 
HETATM   18  N   UNL     1     -44.593 -51.809  13.363  1.00  0.00    -0.360 N 
HETATM   19  H   UNL     1     -44.018 -51.041  13.682  1.00  0.00     0.162 HD
HETATM   20  O   UNL     1     -44.485 -53.813  12.246  1.00  0.00    -0.271 OA
BRANCH  18  21
HETATM   21  C   UNL     1     -45.984 -51.549  13.074  1.00  0.00     0.118 C 
HETATM   22  C   UNL     1     -46.803 -51.419  14.348  1.00  0.00     0.026 C 
ENDBRANCH  18  21
ENDBRANCH  15  17
ENDBRANCH   1  15
TORSDOF 5
ENDMDL
MODEL 9
REMARK VINA RESULT:      -5.2      2.840      4.379
REMARK  5 active torsions:
REMARK  status: ('A' for Active; 'I' for Inactive)
REMARK    1  A    between atoms: C_2  and  N_3 
REMARK       I    between atoms: N_3  and  C_4 
REMARK    2  A    between atoms: C_4  and  C_6 
REMARK    3  A    between atoms: C_6  and  N_8 
REMARK       I    between atoms: N_8  and  C_9 
REMARK    4  A    between atoms: C_9  and  C_11 
REMARK    5  A    between atoms: C_11  and  C_12 
ROOT
HETATM    1  N   UNL     1     -41.565 -48.431   9.994  1.00  0.00    -0.348 N 
HETATM    2  C   UNL     1     -41.347 -49.118  11.173  1.00  0.00     0.222 C 
HETATM    3  O   UNL     1     -42.066 -49.008  12.160  1.00  0.00    -0.273 OA
HETATM    4  H   UNL     1     -40.790 -48.367   9.345  1.00  0.00     0.163 HD
ENDROOT
BRANCH   2   5
HETATM    5  C   UNL     1     -40.193 -50.100  11.118  1.00  0.00     0.145 C 
BRANCH   5   6
HETATM    6  C   UNL     1     -39.825 -50.624  12.461  1.00  0.00    -0.002 A 
HETATM    7  C   UNL     1     -40.180 -51.881  13.024  1.00  0.00     0.030 A 
HETATM    8  C   UNL     1     -41.032 -52.957  12.454  1.00  0.00     0.070 C 
HETATM    9  N   UNL     1     -39.617 -52.059  14.222  1.00  0.00    -0.303 N 
HETATM   10  N   UNL     1     -38.912 -50.938  14.435  1.00  0.00    -0.300 N 
ATOM     11  HN  UNL     1     -39.704 -52.867  14.838  1.00  0.00     0.186 HD
HETATM   12  C   UNL     1     -38.096 -50.843  15.622  1.00  0.00     0.177 C 
HETATM   13  C   UNL     1     -39.039 -50.014  13.429  1.00  0.00     0.033 A 
HETATM   14  C   UNL     1     -38.407 -48.670  13.456  1.00  0.00     0.070 C 
ENDBRANCH   5   6
ENDBRANCH   2   5
BRANCH   1  15
HETATM   15  C   UNL     1     -42.610 -47.406   9.877  1.00  0.00     0.172 C 
HETATM   16  C   UNL     1     -43.458 -47.554   8.619  1.00  0.00     0.042 C 
BRANCH  15  17
HETATM   17  C   UNL     1     -42.053 -45.973  10.052  1.00  0.00     0.240 C 
HETATM   18  N   UNL     1     -40.688 -45.937  10.292  1.00  0.00    -0.360 N 
HETATM   19  H   UNL     1     -40.181 -46.785  10.072  1.00  0.00     0.162 HD
HETATM   20  O   UNL     1     -42.771 -44.982  10.145  1.00  0.00    -0.271 OA
BRANCH  18  21
HETATM   21  C   UNL     1     -39.955 -44.695  10.346  1.00  0.00     0.118 C 
HETATM   22  C   UNL     1     -39.729 -44.242  11.780  1.00  0.00     0.026 C 
ENDBRANCH  18  21
ENDBRANCH  15  17
ENDBRANCH   1  15
TORSDOF 5
ENDMDL
