MODEL 1
REMARK VINA RESULT:      -7.0      0.000      0.000
REMARK  6 active torsions:
REMARK  status: ('A' for Active; 'I' for Inactive)
REMARK    1  A    between atoms: N_1  and  C_12 
REMARK    2  A    between atoms: N_2  and  C_14 
REMARK    3  A    between atoms: C_4  and  C_13 
REMARK    4  A    between atoms: N_6  and  C_15 
REMARK    5  A    between atoms: C_12  and  C_13 
REMARK    6  A    between atoms: C_15  and  C_16 
ROOT
HETATM    1  C   UNL     1     -44.386 -54.969  14.345  1.00  0.00     0.221 C 
ENDROOT
BRANCH   1   2
HETATM    2  N   UNL     1     -45.225 -53.766  14.348  1.00  0.00    -0.256 N 
HETATM    3  C   UNL     1     -46.017 -53.555  15.463  1.00  0.00     0.334 C 
HETATM    4  N   UNL     1     -46.568 -52.293  15.597  1.00  0.00    -0.279 N 
HETATM    5  O   UNL     1     -46.229 -54.433  16.294  1.00  0.00    -0.246 OA
HETATM    6  C   UNL     1     -46.730 -51.474  14.502  1.00  0.00     0.146 C 
HETATM    7  C   UNL     1     -46.283 -51.849  13.304  1.00  0.00     0.200 C 
HETATM    8  C   UNL     1     -45.460 -53.080  13.163  1.00  0.00     0.292 C 
HETATM    9  F   UNL     1     -46.531 -51.131  12.194  1.00  0.00    -0.199 F 
HETATM   10  O   UNL     1     -45.080 -53.447  12.058  1.00  0.00    -0.264 OA
BRANCH   4  11
HETATM   11  C   UNL     1     -46.885 -51.865  16.950  1.00  0.00     0.232 C 
HETATM   12  O   UNL     1     -48.251 -51.457  17.092  1.00  0.00    -0.366 OA
HETATM   13  C   UNL     1     -48.294 -50.425  18.094  1.00  0.00     0.170 C 
HETATM   14  C   UNL     1     -46.867 -50.114  18.512  1.00  0.00     0.031 C 
HETATM   15  C   UNL     1     -46.060 -50.651  17.360  1.00  0.00     0.056 C 
ENDBRANCH   4  11
ENDBRANCH   1   2
BRANCH   1  16
HETATM   16  C   UNL     1     -43.129 -54.870  15.248  1.00  0.00     0.179 C 
HETATM   17  O   UNL     1     -42.879 -55.758  16.064  1.00  0.00    -0.290 OA
BRANCH  16  18
HETATM   18  C   UNL     1     -42.247 -53.688  15.114  1.00  0.00     0.036 C 
HETATM   19  C   UNL     1     -41.302 -53.435  14.112  1.00  0.00     0.022 C 
HETATM   20  N   UNL     1     -40.570 -52.311  14.490  1.00  0.00    -0.349 N 
HETATM   21  C   UNL     1     -41.043 -54.198  12.855  1.00  0.00     0.069 C 
HETATM   22  C   UNL     1     -41.199 -51.709  15.557  1.00  0.00     0.009 C 
HETATM   23  C   UNL     1     -42.245 -52.522  15.917  1.00  0.00     0.042 C 
HETATM   24  C   UNL     1     -40.781 -50.420  16.172  1.00  0.00     0.068 C 
BRANCH  20  25
HETATM   25  C   UNL     1     -39.372 -51.769  13.841  1.00  0.00     0.174 C 
BRANCH  25  26
HETATM   26  C   UNL     1     -39.662 -50.677  12.848  1.00  0.00     0.001 A 
HETATM   27  S   UNL     1     -38.742 -49.225  12.958  1.00  0.00    -0.105 SA
HETATM   28  C   UNL     1     -39.667 -48.461  11.744  1.00  0.00     0.050 A 
HETATM   29  C   UNL     1     -40.613 -49.304  11.211  1.00  0.00     0.008 A 
HETATM   30  C   UNL     1     -40.581 -50.597  11.816  1.00  0.00     0.017 A 
ENDBRANCH  25  26
ENDBRANCH  20  25
ENDBRANCH  16  18
ENDBRANCH   1  16
TORSDOF 6
ENDMDL
MODEL 2
REMARK VINA RESULT:      -6.5      2.710      4.040
REMARK  6 active torsions:
REMARK  status: ('A' for Active; 'I' for Inactive)
REMARK    1  A    between atoms: N_1  and  C_12 
REMARK    2  A    between atoms: N_2  and  C_14 
REMARK    3  A    between atoms: C_4  and  C_13 
REMARK    4  A    between atoms: N_6  and  C_15 
REMARK    5  A    between atoms: C_12  and  C_13 
REMARK    6  A    between atoms: C_15  and  C_16 
ROOT
HETATM    1  C   UNL     1     -41.034 -54.935  15.789  1.00  0.00     0.221 C 
ENDROOT
BRANCH   1   2
HETATM    2  N   UNL     1     -41.571 -54.269  14.598  1.00  0.00    -0.256 N 
HETATM    3  C   UNL     1     -42.935 -54.365  14.385  1.00  0.00     0.334 C 
HETATM    4  N   UNL     1     -43.474 -53.503  13.448  1.00  0.00    -0.279 N 
HETATM    5  O   UNL     1     -43.638 -55.170  14.988  1.00  0.00    -0.246 OA
HETATM    6  C   UNL     1     -42.686 -52.945  12.466  1.00  0.00     0.146 C 
HETATM    7  C   UNL     1     -41.371 -53.161  12.449  1.00  0.00     0.200 C 
HETATM    8  C   UNL     1     -40.714 -53.871  13.580  1.00  0.00     0.292 C 
HETATM    9  F   UNL     1     -40.592 -52.734  11.439  1.00  0.00    -0.199 F 
HETATM   10  O   UNL     1     -39.512 -54.104  13.548  1.00  0.00    -0.264 OA
BRANCH   4  11
HETATM   11  C   UNL     1     -44.879 -53.165  13.611  1.00  0.00     0.232 C 
HETATM   12  O   UNL     1     -45.586 -53.136  12.365  1.00  0.00    -0.366 OA
HETATM   13  C   UNL     1     -46.624 -52.146  12.479  1.00  0.00     0.170 C 
HETATM   14  C   UNL     1     -46.480 -51.464  13.828  1.00  0.00     0.031 C 
HETATM   15  C   UNL     1     -45.056 -51.773  14.205  1.00  0.00     0.056 C 
ENDBRANCH   4  11
ENDBRANCH   1   2
BRANCH   1  16
HETATM   16  C   UNL     1     -40.909 -54.015  17.030  1.00  0.00     0.179 C 
HETATM   17  O   UNL     1     -41.643 -54.183  18.006  1.00  0.00    -0.290 OA
BRANCH  16  18
HETATM   18  C   UNL     1     -39.900 -52.931  17.015  1.00  0.00     0.036 C 
HETATM   19  C   UNL     1     -40.025 -51.653  16.456  1.00  0.00     0.022 C 
HETATM   20  N   UNL     1     -38.773 -51.044  16.500  1.00  0.00    -0.349 N 
HETATM   21  C   UNL     1     -41.234 -51.001  15.872  1.00  0.00     0.069 C 
HETATM   22  C   UNL     1     -37.940 -51.794  17.300  1.00  0.00     0.009 C 
HETATM   23  C   UNL     1     -38.634 -52.926  17.651  1.00  0.00     0.042 C 
HETATM   24  C   UNL     1     -36.554 -51.410  17.681  1.00  0.00     0.068 C 
BRANCH  20  25
HETATM   25  C   UNL     1     -38.378 -49.772  15.885  1.00  0.00     0.174 C 
BRANCH  25  26
HETATM   26  C   UNL     1     -38.091 -49.874  14.412  1.00  0.00     0.001 A 
HETATM   27  S   UNL     1     -38.535 -48.544  13.412  1.00  0.00    -0.105 SA
HETATM   28  C   UNL     1     -38.109 -49.379  11.986  1.00  0.00     0.050 A 
HETATM   29  C   UNL     1     -37.575 -50.617  12.256  1.00  0.00     0.008 A 
HETATM   30  C   UNL     1     -37.523 -50.885  13.658  1.00  0.00     0.017 A 
ENDBRANCH  25  26
ENDBRANCH  20  25
ENDBRANCH  16  18
ENDBRANCH   1  16
TORSDOF 6
ENDMDL
MODEL 3
REMARK VINA RESULT:      -6.5      1.240      2.086
REMARK  6 active torsions:
REMARK  status: ('A' for Active; 'I' for Inactive)
REMARK    1  A    between atoms: N_1  and  C_12 
REMARK    2  A    between atoms: N_2  and  C_14 
REMARK    3  A    between atoms: C_4  and  C_13 
REMARK    4  A    between atoms: N_6  and  C_15 
REMARK    5  A    between atoms: C_12  and  C_13 
REMARK    6  A    between atoms: C_15  and  C_16 
ROOT
HETATM    1  C   UNL     1     -44.399 -54.913  14.339  1.00  0.00     0.221 C 
ENDROOT
BRANCH   1   2
HETATM    2  N   UNL     1     -45.271 -53.735  14.388  1.00  0.00    -0.256 N 
HETATM    3  C   UNL     1     -45.983 -53.527  15.556  1.00  0.00     0.334 C 
HETATM    4  N   UNL     1     -46.560 -52.280  15.712  1.00  0.00    -0.279 N 
HETATM    5  O   UNL     1     -46.105 -54.396  16.414  1.00  0.00    -0.246 OA
HETATM    6  C   UNL     1     -46.828 -51.484  14.621  1.00  0.00     0.146 C 
HETATM    7  C   UNL     1     -46.462 -51.867  13.398  1.00  0.00     0.200 C 
HETATM    8  C   UNL     1     -45.615 -53.077  13.213  1.00  0.00     0.292 C 
HETATM    9  F   UNL     1     -46.814 -51.176  12.300  1.00  0.00    -0.199 F 
HETATM   10  O   UNL     1     -45.309 -53.452  12.089  1.00  0.00    -0.264 OA
BRANCH   4  11
HETATM   11  C   UNL     1     -46.787 -51.837  17.079  1.00  0.00     0.232 C 
HETATM   12  O   UNL     1     -48.171 -51.600  17.358  1.00  0.00    -0.366 OA
HETATM   13  C   UNL     1     -48.243 -50.540  18.329  1.00  0.00     0.170 C 
HETATM   14  C   UNL     1     -46.834 -50.033  18.578  1.00  0.00     0.031 C 
HETATM   15  C   UNL     1     -46.088 -50.512  17.361  1.00  0.00     0.056 C 
ENDBRANCH   4  11
ENDBRANCH   1   2
BRANCH   1  16
HETATM   16  C   UNL     1     -42.946 -54.648  14.810  1.00  0.00     0.179 C 
HETATM   17  O   UNL     1     -42.377 -55.452  15.551  1.00  0.00    -0.290 OA
BRANCH  16  18
HETATM   18  C   UNL     1     -42.264 -53.413  14.360  1.00  0.00     0.036 C 
HETATM   19  C   UNL     1     -41.908 -52.302  15.134  1.00  0.00     0.022 C 
HETATM   20  N   UNL     1     -41.472 -51.302  14.267  1.00  0.00    -0.349 N 
HETATM   21  C   UNL     1     -41.981 -52.130  16.615  1.00  0.00     0.069 C 
HETATM   22  C   UNL     1     -41.298 -51.843  13.013  1.00  0.00     0.009 C 
HETATM   23  C   UNL     1     -41.741 -53.141  13.072  1.00  0.00     0.042 C 
HETATM   24  C   UNL     1     -40.735 -51.115  11.843  1.00  0.00     0.068 C 
BRANCH  20  25
HETATM   25  C   UNL     1     -41.153 -49.910  14.602  1.00  0.00     0.174 C 
BRANCH  25  26
HETATM   26  C   UNL     1     -39.683 -49.651  14.784  1.00  0.00     0.001 A 
HETATM   27  S   UNL     1     -39.057 -48.144  14.233  1.00  0.00    -0.105 SA
HETATM   28  C   UNL     1     -37.449 -48.603  14.577  1.00  0.00     0.050 A 
HETATM   29  C   UNL     1     -37.383 -49.845  15.163  1.00  0.00     0.008 A 
HETATM   30  C   UNL     1     -38.675 -50.431  15.324  1.00  0.00     0.017 A 
ENDBRANCH  25  26
ENDBRANCH  20  25
ENDBRANCH  16  18
ENDBRANCH   1  16
TORSDOF 6
ENDMDL
MODEL 4
REMARK VINA RESULT:      -6.5      5.588      8.370
REMARK  6 active torsions:
REMARK  status: ('A' for Active; 'I' for Inactive)
REMARK    1  A    between atoms: N_1  and  C_12 
REMARK    2  A    between atoms: N_2  and  C_14 
REMARK    3  A    between atoms: C_4  and  C_13 
REMARK    4  A    between atoms: N_6  and  C_15 
REMARK    5  A    between atoms: C_12  and  C_13 
REMARK    6  A    between atoms: C_15  and  C_16 
ROOT
HETATM    1  C   UNL     1     -41.996 -43.920  11.172  1.00  0.00     0.221 C 
ENDROOT
BRANCH   1   2
HETATM    2  N   UNL     1     -42.171 -45.284  10.663  1.00  0.00    -0.256 N 
HETATM    3  C   UNL     1     -41.150 -46.185  10.912  1.00  0.00     0.334 C 
HETATM    4  N   UNL     1     -41.442 -47.520  10.701  1.00  0.00    -0.279 N 
HETATM    5  O   UNL     1     -40.040 -45.829  11.297  1.00  0.00    -0.246 OA
HETATM    6  C   UNL     1     -42.468 -47.894   9.862  1.00  0.00     0.146 C 
HETATM    7  C   UNL     1     -43.253 -46.976   9.301  1.00  0.00     0.200 C 
HETATM    8  C   UNL     1     -43.138 -45.546   9.700  1.00  0.00     0.292 C 
HETATM    9  F   UNL     1     -44.184 -47.297   8.385  1.00  0.00    -0.199 F 
HETATM   10  O   UNL     1     -43.832 -44.695   9.159  1.00  0.00    -0.264 OA
BRANCH   4  11
HETATM   11  C   UNL     1     -40.665 -48.482  11.466  1.00  0.00     0.232 C 
HETATM   12  O   UNL     1     -40.554 -49.749  10.807  1.00  0.00    -0.366 OA
HETATM   13  C   UNL     1     -40.482 -50.763  11.825  1.00  0.00     0.170 C 
HETATM   14  C   UNL     1     -40.661 -50.090  13.175  1.00  0.00     0.031 C 
HETATM   15  C   UNL     1     -41.317 -48.785  12.810  1.00  0.00     0.056 C 
ENDBRANCH   4  11
ENDBRANCH   1   2
BRANCH   1  16
HETATM   16  C   UNL     1     -42.680 -43.659  12.538  1.00  0.00     0.179 C 
HETATM   17  O   UNL     1     -43.430 -42.692  12.683  1.00  0.00    -0.290 OA
BRANCH  16  18
HETATM   18  C   UNL     1     -42.408 -44.586  13.661  1.00  0.00     0.036 C 
HETATM   19  C   UNL     1     -41.310 -44.578  14.529  1.00  0.00     0.022 C 
HETATM   20  N   UNL     1     -41.366 -45.739  15.298  1.00  0.00    -0.349 N 
HETATM   21  C   UNL     1     -40.219 -43.566  14.652  1.00  0.00     0.069 C 
HETATM   22  C   UNL     1     -42.597 -46.333  15.119  1.00  0.00     0.009 C 
HETATM   23  C   UNL     1     -43.252 -45.611  14.152  1.00  0.00     0.042 C 
HETATM   24  C   UNL     1     -43.077 -47.533  15.856  1.00  0.00     0.068 C 
BRANCH  20  25
HETATM   25  C   UNL     1     -40.349 -46.245  16.224  1.00  0.00     0.174 C 
BRANCH  25  26
HETATM   26  C   UNL     1     -39.317 -47.123  15.570  1.00  0.00     0.001 A 
HETATM   27  S   UNL     1     -38.980 -48.648  16.299  1.00  0.00    -0.105 SA
HETATM   28  C   UNL     1     -37.704 -48.967  15.210  1.00  0.00     0.050 A 
HETATM   29  C   UNL     1     -37.573 -47.976  14.267  1.00  0.00     0.008 A 
HETATM   30  C   UNL     1     -38.533 -46.934  14.446  1.00  0.00     0.017 A 
ENDBRANCH  25  26
ENDBRANCH  20  25
ENDBRANCH  16  18
ENDBRANCH   1  16
TORSDOF 6
ENDMDL
MODEL 5
REMARK VINA RESULT:      -6.5      3.860      6.003
REMARK  6 active torsions:
REMARK  status: ('A' for Active; 'I' for Inactive)
REMARK    1  A    between atoms: N_1  and  C_12 
REMARK    2  A    between atoms: N_2  and  C_14 
REMARK    3  A    between atoms: C_4  and  C_13 
REMARK    4  A    between atoms: N_6  and  C_15 
REMARK    5  A    between atoms: C_12  and  C_13 
REMARK    6  A    between atoms: C_15  and  C_16 
ROOT
HETATM    1  C   UNL     1     -39.973 -49.935  13.591  1.00  0.00     0.221 C 
ENDROOT
BRANCH   1   2
HETATM    2  N   UNL     1     -40.973 -51.000  13.727  1.00  0.00    -0.256 N 
HETATM    3  C   UNL     1     -42.124 -50.694  14.432  1.00  0.00     0.334 C 
HETATM    4  N   UNL     1     -43.177 -51.582  14.304  1.00  0.00    -0.279 N 
HETATM    5  O   UNL     1     -42.217 -49.694  15.137  1.00  0.00    -0.246 OA
HETATM    6  C   UNL     1     -42.959 -52.886  13.922  1.00  0.00     0.146 C 
HETATM    7  C   UNL     1     -41.736 -53.298  13.587  1.00  0.00     0.200 C 
HETATM    8  C   UNL     1     -40.623 -52.318  13.464  1.00  0.00     0.292 C 
HETATM    9  F   UNL     1     -41.465 -54.590  13.328  1.00  0.00    -0.199 F 
HETATM   10  O   UNL     1     -39.491 -52.699  13.194  1.00  0.00    -0.264 OA
BRANCH   4  11
HETATM   11  C   UNL     1     -44.510 -51.041  14.517  1.00  0.00     0.232 C 
HETATM   12  O   UNL     1     -45.026 -51.345  15.818  1.00  0.00    -0.366 OA
HETATM   13  C   UNL     1     -46.455 -51.470  15.700  1.00  0.00     0.170 C 
HETATM   14  C   UNL     1     -46.820 -51.337  14.232  1.00  0.00     0.031 C 
HETATM   15  C   UNL     1     -45.517 -51.632  13.538  1.00  0.00     0.056 C 
ENDBRANCH   4  11
ENDBRANCH   1   2
BRANCH   1  16
HETATM   16  C   UNL     1     -39.737 -49.467  12.132  1.00  0.00     0.179 C 
HETATM   17  O   UNL     1     -39.049 -50.144  11.366  1.00  0.00    -0.290 OA
BRANCH  16  18
HETATM   18  C   UNL     1     -40.345 -48.193  11.686  1.00  0.00     0.036 C 
HETATM   19  C   UNL     1     -41.702 -47.921  11.473  1.00  0.00     0.022 C 
HETATM   20  N   UNL     1     -41.797 -46.668  10.872  1.00  0.00    -0.349 N 
HETATM   21  C   UNL     1     -42.888 -48.776  11.778  1.00  0.00     0.069 C 
HETATM   22  C   UNL     1     -40.571 -46.045  10.945  1.00  0.00     0.009 C 
HETATM   23  C   UNL     1     -39.690 -46.955  11.476  1.00  0.00     0.042 C 
HETATM   24  C   UNL     1     -40.300 -44.648  10.510  1.00  0.00     0.068 C 
BRANCH  20  25
HETATM   25  C   UNL     1     -42.997 -46.034  10.317  1.00  0.00     0.174 C 
BRANCH  25  26
HETATM   26  C   UNL     1     -43.676 -46.851   9.252  1.00  0.00     0.001 A 
HETATM   27  S   UNL     1     -45.361 -47.163   9.429  1.00  0.00    -0.105 SA
HETATM   28  C   UNL     1     -45.386 -48.197   8.071  1.00  0.00     0.050 A 
HETATM   29  C   UNL     1     -44.163 -48.257   7.447  1.00  0.00     0.008 A 
HETATM   30  C   UNL     1     -43.187 -47.445   8.101  1.00  0.00     0.017 A 
ENDBRANCH  25  26
ENDBRANCH  20  25
ENDBRANCH  16  18
ENDBRANCH   1  16
TORSDOF 6
ENDMDL
MODEL 6
REMARK VINA RESULT:      -6.4      2.785      4.719
REMARK  6 active torsions:
REMARK  status: ('A' for Active; 'I' for Inactive)
REMARK    1  A    between atoms: N_1  and  C_12 
REMARK    2  A    between atoms: N_2  and  C_14 
REMARK    3  A    between atoms: C_4  and  C_13 
REMARK    4  A    between atoms: N_6  and  C_15 
REMARK    5  A    between atoms: C_12  and  C_13 
REMARK    6  A    between atoms: C_15  and  C_16 
ROOT
HETATM    1  C   UNL     1     -39.620 -52.411  16.152  1.00  0.00     0.221 C 
ENDROOT
BRANCH   1   2
HETATM    2  N   UNL     1     -40.654 -52.908  15.238  1.00  0.00    -0.256 N 
HETATM    3  C   UNL     1     -41.960 -52.887  15.696  1.00  0.00     0.334 C 
HETATM    4  N   UNL     1     -42.948 -53.068  14.745  1.00  0.00    -0.279 N 
HETATM    5  O   UNL     1     -42.238 -52.722  16.879  1.00  0.00    -0.246 OA
HETATM    6  C   UNL     1     -42.673 -53.694  13.550  1.00  0.00     0.146 C 
HETATM    7  C   UNL     1     -41.428 -54.066  13.252  1.00  0.00     0.200 C 
HETATM    8  C   UNL     1     -40.295 -53.665  14.130  1.00  0.00     0.292 C 
HETATM    9  F   UNL     1     -41.144 -54.787  12.153  1.00  0.00    -0.199 F 
HETATM   10  O   UNL     1     -39.156 -54.038  13.879  1.00  0.00    -0.264 OA
BRANCH   4  11
HETATM   11  C   UNL     1     -44.250 -52.494  15.047  1.00  0.00     0.232 C 
HETATM   12  O   UNL     1     -45.278 -53.486  15.148  1.00  0.00    -0.366 OA
HETATM   13  C   UNL     1     -46.507 -52.884  14.704  1.00  0.00     0.170 C 
HETATM   14  C   UNL     1     -46.194 -51.483  14.210  1.00  0.00     0.031 C 
HETATM   15  C   UNL     1     -44.713 -51.547  13.947  1.00  0.00     0.056 C 
ENDBRANCH   4  11
ENDBRANCH   1   2
BRANCH   1  16
HETATM   16  C   UNL     1     -39.150 -50.964  15.855  1.00  0.00     0.179 C 
HETATM   17  O   UNL     1     -38.849 -50.206  16.779  1.00  0.00    -0.290 OA
BRANCH  16  18
HETATM   18  C   UNL     1     -39.080 -50.512  14.446  1.00  0.00     0.036 C 
HETATM   19  C   UNL     1     -40.117 -49.989  13.664  1.00  0.00     0.022 C 
HETATM   20  N   UNL     1     -39.652 -49.887  12.354  1.00  0.00    -0.349 N 
HETATM   21  C   UNL     1     -41.502 -49.613  14.073  1.00  0.00     0.069 C 
HETATM   22  C   UNL     1     -38.288 -50.080  12.349  1.00  0.00     0.009 C 
HETATM   23  C   UNL     1     -37.927 -50.422  13.629  1.00  0.00     0.042 C 
HETATM   24  C   UNL     1     -37.414 -49.938  11.153  1.00  0.00     0.068 C 
BRANCH  20  25
HETATM   25  C   UNL     1     -40.427 -49.547  11.157  1.00  0.00     0.174 C 
BRANCH  25  26
HETATM   26  C   UNL     1     -40.731 -48.080  11.027  1.00  0.00     0.001 A 
HETATM   27  S   UNL     1     -42.235 -47.630  10.317  1.00  0.00    -0.105 SA
HETATM   28  C   UNL     1     -41.832 -45.971  10.339  1.00  0.00     0.050 A 
HETATM   29  C   UNL     1     -40.613 -45.746  10.934  1.00  0.00     0.008 A 
HETATM   30  C   UNL     1     -39.998 -46.958  11.372  1.00  0.00     0.017 A 
ENDBRANCH  25  26
ENDBRANCH  20  25
ENDBRANCH  16  18
ENDBRANCH   1  16
TORSDOF 6
ENDMDL
MODEL 7
REMARK VINA RESULT:      -6.4      2.735      6.250
REMARK  6 active torsions:
REMARK  status: ('A' for Active; 'I' for Inactive)
REMARK    1  A    between atoms: N_1  and  C_12 
REMARK    2  A    between atoms: N_2  and  C_14 
REMARK    3  A    between atoms: C_4  and  C_13 
REMARK    4  A    between atoms: N_6  and  C_15 
REMARK    5  A    between atoms: C_12  and  C_13 
REMARK    6  A    between atoms: C_15  and  C_16 
ROOT
HETATM    1  C   UNL     1     -45.297 -53.307  12.610  1.00  0.00     0.221 C 
ENDROOT
BRANCH   1   2
HETATM    2  N   UNL     1     -44.105 -53.660  13.388  1.00  0.00    -0.256 N 
HETATM    3  C   UNL     1     -42.909 -53.077  13.005  1.00  0.00     0.334 C 
HETATM    4  N   UNL     1     -41.863 -53.170  13.905  1.00  0.00    -0.279 N 
HETATM    5  O   UNL     1     -42.772 -52.508  11.927  1.00  0.00    -0.246 OA
HETATM    6  C   UNL     1     -41.844 -54.156  14.866  1.00  0.00     0.146 C 
HETATM    7  C   UNL     1     -42.874 -54.991  15.000  1.00  0.00     0.200 C 
HETATM    8  C   UNL     1     -44.125 -54.768  14.226  1.00  0.00     0.292 C 
HETATM    9  F   UNL     1     -42.837 -56.039  15.842  1.00  0.00    -0.199 F 
HETATM   10  O   UNL     1     -45.059 -55.555  14.318  1.00  0.00    -0.264 OA
BRANCH   4  11
HETATM   11  C   UNL     1     -40.846 -52.133  13.826  1.00  0.00     0.232 C 
HETATM   12  O   UNL     1     -39.637 -52.594  13.212  1.00  0.00    -0.366 OA
HETATM   13  C   UNL     1     -38.545 -51.873  13.809  1.00  0.00     0.170 C 
HETATM   14  C   UNL     1     -39.106 -51.000  14.918  1.00  0.00     0.031 C 
HETATM   15  C   UNL     1     -40.433 -51.648  15.210  1.00  0.00     0.056 C 
ENDBRANCH   4  11
ENDBRANCH   1   2
BRANCH   1  16
HETATM   16  C   UNL     1     -45.976 -51.985  13.050  1.00  0.00     0.179 C 
HETATM   17  O   UNL     1     -46.455 -51.222  12.209  1.00  0.00    -0.290 OA
BRANCH  16  18
HETATM   18  C   UNL     1     -46.029 -51.656  14.493  1.00  0.00     0.036 C 
HETATM   19  C   UNL     1     -45.096 -50.925  15.238  1.00  0.00     0.022 C 
HETATM   20  N   UNL     1     -45.446 -51.032  16.583  1.00  0.00    -0.349 N 
HETATM   21  C   UNL     1     -43.901 -50.167  14.760  1.00  0.00     0.069 C 
HETATM   22  C   UNL     1     -46.706 -51.583  16.672  1.00  0.00     0.009 C 
HETATM   23  C   UNL     1     -47.083 -51.929  15.398  1.00  0.00     0.042 C 
HETATM   24  C   UNL     1     -47.470 -51.754  17.937  1.00  0.00     0.068 C 
BRANCH  20  25
HETATM   25  C   UNL     1     -44.677 -50.572  17.743  1.00  0.00     0.174 C 
BRANCH  25  26
HETATM   26  C   UNL     1     -43.564 -51.503  18.140  1.00  0.00     0.001 A 
HETATM   27  S   UNL     1     -42.119 -50.807  18.767  1.00  0.00    -0.105 SA
HETATM   28  C   UNL     1     -41.326 -52.318  18.817  1.00  0.00     0.050 A 
HETATM   29  C   UNL     1     -42.154 -53.346  18.433  1.00  0.00     0.008 A 
HETATM   30  C   UNL     1     -43.460 -52.882  18.086  1.00  0.00     0.017 A 
ENDBRANCH  25  26
ENDBRANCH  20  25
ENDBRANCH  16  18
ENDBRANCH   1  16
TORSDOF 6
ENDMDL
MODEL 8
REMARK VINA RESULT:      -6.3      3.768      6.630
REMARK  6 active torsions:
REMARK  status: ('A' for Active; 'I' for Inactive)
REMARK    1  A    between atoms: N_1  and  C_12 
REMARK    2  A    between atoms: N_2  and  C_14 
REMARK    3  A    between atoms: C_4  and  C_13 
REMARK    4  A    between atoms: N_6  and  C_15 
REMARK    5  A    between atoms: C_12  and  C_13 
REMARK    6  A    between atoms: C_15  and  C_16 
ROOT
HETATM    1  C   UNL     1     -39.162 -50.378  14.626  1.00  0.00     0.221 C 
ENDROOT
BRANCH   1   2
HETATM    2  N   UNL     1     -40.379 -49.597  14.382  1.00  0.00    -0.256 N 
HETATM    3  C   UNL     1     -40.319 -48.634  13.389  1.00  0.00     0.334 C 
HETATM    4  N   UNL     1     -41.528 -48.116  12.961  1.00  0.00    -0.279 N 
HETATM    5  O   UNL     1     -39.257 -48.250  12.910  1.00  0.00    -0.246 OA
HETATM    6  C   UNL     1     -42.646 -48.176  13.762  1.00  0.00     0.146 C 
HETATM    7  C   UNL     1     -42.605 -48.807  14.935  1.00  0.00     0.200 C 
HETATM    8  C   UNL     1     -41.403 -49.595  15.321  1.00  0.00     0.292 C 
HETATM    9  F   UNL     1     -43.638 -48.780  15.796  1.00  0.00    -0.199 F 
HETATM   10  O   UNL     1     -41.348 -50.144  16.414  1.00  0.00    -0.264 OA
BRANCH   4  11
HETATM   11  C   UNL     1     -41.563 -47.589  11.606  1.00  0.00     0.232 C 
HETATM   12  O   UNL     1     -41.758 -46.170  11.573  1.00  0.00    -0.366 OA
HETATM   13  C   UNL     1     -42.493 -45.861  10.375  1.00  0.00     0.170 C 
HETATM   14  C   UNL     1     -42.855 -47.169   9.693  1.00  0.00     0.031 C 
HETATM   15  C   UNL     1     -42.723 -48.172  10.808  1.00  0.00     0.056 C 
ENDBRANCH   4  11
ENDBRANCH   1   2
BRANCH   1  16
HETATM   16  C   UNL     1     -39.108 -51.727  13.864  1.00  0.00     0.179 C 
HETATM   17  O   UNL     1     -38.126 -52.015  13.177  1.00  0.00    -0.290 OA
BRANCH  16  18
HETATM   18  C   UNL     1     -40.259 -52.653  13.971  1.00  0.00     0.036 C 
HETATM   19  C   UNL     1     -41.337 -52.784  13.087  1.00  0.00     0.022 C 
HETATM   20  N   UNL     1     -42.275 -53.627  13.680  1.00  0.00    -0.349 N 
HETATM   21  C   UNL     1     -41.536 -52.148  11.751  1.00  0.00     0.069 C 
HETATM   22  C   UNL     1     -41.702 -54.228  14.779  1.00  0.00     0.009 C 
HETATM   23  C   UNL     1     -40.458 -53.668  14.939  1.00  0.00     0.042 C 
HETATM   24  C   UNL     1     -42.351 -55.278  15.609  1.00  0.00     0.068 C 
BRANCH  20  25
HETATM   25  C   UNL     1     -43.630 -53.926  13.206  1.00  0.00     0.174 C 
BRANCH  25  26
HETATM   26  C   UNL     1     -44.698 -53.088  13.854  1.00  0.00     0.001 A 
HETATM   27  S   UNL     1     -46.080 -53.896  14.490  1.00  0.00    -0.105 SA
HETATM   28  C   UNL     1     -46.859 -52.424  14.864  1.00  0.00     0.050 A 
HETATM   29  C   UNL     1     -46.066 -51.337  14.580  1.00  0.00     0.008 A 
HETATM   30  C   UNL     1     -44.801 -51.720  14.040  1.00  0.00     0.017 A 
ENDBRANCH  25  26
ENDBRANCH  20  25
ENDBRANCH  16  18
ENDBRANCH   1  16
TORSDOF 6
ENDMDL
MODEL 9
REMARK VINA RESULT:      -6.3      3.726      6.767
REMARK  6 active torsions:
REMARK  status: ('A' for Active; 'I' for Inactive)
REMARK    1  A    between atoms: N_1  and  C_12 
REMARK    2  A    between atoms: N_2  and  C_14 
REMARK    3  A    between atoms: C_4  and  C_13 
REMARK    4  A    between atoms: N_6  and  C_15 
REMARK    5  A    between atoms: C_12  and  C_13 
REMARK    6  A    between atoms: C_15  and  C_16 
ROOT
HETATM    1  C   UNL     1     -39.037 -51.762  14.631  1.00  0.00     0.221 C 
ENDROOT
BRANCH   1   2
HETATM    2  N   UNL     1     -39.041 -50.867  13.469  1.00  0.00    -0.256 N 
HETATM    3  C   UNL     1     -40.262 -50.335  13.090  1.00  0.00     0.334 C 
HETATM    4  N   UNL     1     -40.222 -49.275  12.202  1.00  0.00    -0.279 N 
HETATM    5  O   UNL     1     -41.328 -50.772  13.511  1.00  0.00    -0.246 OA
HETATM    6  C   UNL     1     -39.129 -49.077  11.388  1.00  0.00     0.146 C 
HETATM    7  C   UNL     1     -38.053 -49.855  11.499  1.00  0.00     0.200 C 
HETATM    8  C   UNL     1     -37.951 -50.840  12.609  1.00  0.00     0.292 C 
HETATM    9  F   UNL     1     -37.020 -49.769  10.641  1.00  0.00    -0.199 F 
HETATM   10  O   UNL     1     -36.980 -51.582  12.691  1.00  0.00    -0.264 OA
BRANCH   4  11
HETATM   11  C   UNL     1     -41.349 -48.357  12.238  1.00  0.00     0.232 C 
HETATM   12  O   UNL     1     -42.164 -48.439  11.063  1.00  0.00    -0.366 OA
HETATM   13  C   UNL     1     -42.712 -47.131  10.823  1.00  0.00     0.170 C 
HETATM   14  C   UNL     1     -42.120 -46.176  11.844  1.00  0.00     0.031 C 
HETATM   15  C   UNL     1     -40.886 -46.906  12.304  1.00  0.00     0.056 C 
ENDBRANCH   4  11
ENDBRANCH   1   2
BRANCH   1  16
HETATM   16  C   UNL     1     -39.402 -53.233  14.302  1.00  0.00     0.179 C 
HETATM   17  O   UNL     1     -38.633 -53.930  13.638  1.00  0.00    -0.290 OA
BRANCH  16  18
HETATM   18  C   UNL     1     -40.689 -53.775  14.792  1.00  0.00     0.036 C 
HETATM   19  C   UNL     1     -41.836 -54.066  14.043  1.00  0.00     0.022 C 
HETATM   20  N   UNL     1     -42.864 -54.365  14.935  1.00  0.00    -0.349 N 
HETATM   21  C   UNL     1     -42.015 -54.052  12.561  1.00  0.00     0.069 C 
HETATM   22  C   UNL     1     -42.329 -54.524  16.194  1.00  0.00     0.009 C 
HETATM   23  C   UNL     1     -40.996 -54.205  16.107  1.00  0.00     0.042 C 
HETATM   24  C   UNL     1     -43.094 -54.957  17.395  1.00  0.00     0.068 C 
BRANCH  20  25
HETATM   25  C   UNL     1     -44.282 -54.570  14.624  1.00  0.00     0.174 C 
BRANCH  25  26
HETATM   26  C   UNL     1     -45.038 -53.295  14.368  1.00  0.00     0.001 A 
HETATM   27  S   UNL     1     -45.344 -52.258  15.709  1.00  0.00    -0.105 SA
HETATM   28  C   UNL     1     -46.307 -51.208  14.770  1.00  0.00     0.050 A 
HETATM   29  C   UNL     1     -46.345 -51.588  13.450  1.00  0.00     0.008 A 
HETATM   30  C   UNL     1     -45.576 -52.767  13.208  1.00  0.00     0.017 A 
ENDBRANCH  25  26
ENDBRANCH  20  25
ENDBRANCH  16  18
ENDBRANCH   1  16
TORSDOF 6
ENDMDL
