MODEL 1
REMARK VINA RESULT:      -6.6      0.000      0.000
REMARK  6 active torsions:
REMARK  status: ('A' for Active; 'I' for Inactive)
REMARK    1  A    between atoms: C_2  and  C_3 
REMARK    2  A    between atoms: C_3  and  C_4 
REMARK    3  A    between atoms: C_8  and  N_9 
REMARK       I    between atoms: N_9  and  C_10 
REMARK       I    between atoms: C_10  and  N_12 
REMARK    4  A    between atoms: N_12  and  C_13 
REMARK    5  A    between atoms: C_13  and  C_14 
REMARK    6  A    between atoms: C_18  and  O_19 
ROOT
HETATM    1  N   UNL     1     -41.218 -48.311  11.392  1.00  0.00    -0.289 N 
HETATM    2  C   UNL     1     -41.170 -49.466  12.116  1.00  0.00     0.322 C 
HETATM    3  O   UNL     1     -40.300 -49.622  12.969  1.00  0.00    -0.247 OA
HETATM    4  N   UNL     1     -42.095 -50.414  11.807  1.00  0.00    -0.342 N 
HETATM    5  H   UNL     1     -40.480 -47.640  11.561  1.00  0.00     0.172 HD
HETATM    6  H   UNL     1     -42.758 -50.181  11.071  1.00  0.00     0.164 HD
ENDROOT
BRANCH   1   7
HETATM    7  C   UNL     1     -42.146 -48.037  10.426  1.00  0.00     0.152 A 
HETATM    8  N   UNL     1     -42.017 -48.218   9.133  1.00  0.00    -0.345 N 
HETATM    9  C   UNL     1     -43.159 -47.778   8.503  1.00  0.00     0.104 A 
ATOM     10  HN  UNL     1     -41.203 -48.620   8.669  1.00  0.00     0.167 HD
HETATM   11  C   UNL     1     -44.117 -47.222   9.327  1.00  0.00     0.001 A 
HETATM   12  S   UNL     1     -43.602 -47.347  10.963  1.00  0.00    -0.057 SA
BRANCH  11  13
HETATM   13  C   UNL     1     -45.413 -46.583   8.954  1.00  0.00     0.047 C 
BRANCH  13  14
HETATM   14  C   UNL     1     -46.596 -47.506   9.239  1.00  0.00     0.001 C 
HETATM   15  C   UNL     1     -46.576 -48.717   8.323  1.00  0.00     0.005 C 
ENDBRANCH  13  14
ENDBRANCH  11  13
ENDBRANCH   1   7
BRANCH   4  16
HETATM   16  C   UNL     1     -42.135 -51.745  12.355  1.00  0.00     0.129 C 
BRANCH  16  17
HETATM   17  C   UNL     1     -43.035 -51.845  13.602  1.00  0.00     0.006 C 
HETATM   18  C   UNL     1     -42.759 -53.091  14.468  1.00  0.00     0.006 C 
HETATM   19  C   UNL     1     -43.195 -54.396  13.804  1.00  0.00     0.003 C 
HETATM   20  C   UNL     1     -44.651 -54.344  13.357  1.00  0.00     0.032 C 
HETATM   21  C   UNL     1     -44.950 -53.115  12.498  1.00  0.00     0.118 C 
HETATM   22  C   UNL     1     -44.516 -51.822  13.192  1.00  0.00     0.038 C 
BRANCH  21  23
HETATM   23  O   UNL     1     -46.344 -53.060  12.216  1.00  0.00    -0.396 OA
HETATM   24  H   UNL     1     -46.654 -53.964  12.044  1.00  0.00     0.210 HD
ENDBRANCH  21  23
ENDBRANCH  16  17
ENDBRANCH   4  16
TORSDOF 6
ENDMDL
MODEL 2
REMARK VINA RESULT:      -6.3      2.783      3.933
REMARK  6 active torsions:
REMARK  status: ('A' for Active; 'I' for Inactive)
REMARK    1  A    between atoms: C_2  and  C_3 
REMARK    2  A    between atoms: C_3  and  C_4 
REMARK    3  A    between atoms: C_8  and  N_9 
REMARK       I    between atoms: N_9  and  C_10 
REMARK       I    between atoms: C_10  and  N_12 
REMARK    4  A    between atoms: N_12  and  C_13 
REMARK    5  A    between atoms: C_13  and  C_14 
REMARK    6  A    between atoms: C_18  and  O_19 
ROOT
HETATM    1  N   UNL     1     -40.808 -51.027  11.365  1.00  0.00    -0.289 N 
HETATM    2  C   UNL     1     -41.596 -51.807  12.158  1.00  0.00     0.322 C 
HETATM    3  O   UNL     1     -41.425 -53.023  12.192  1.00  0.00    -0.247 OA
HETATM    4  N   UNL     1     -42.579 -51.171  12.850  1.00  0.00    -0.342 N 
HETATM    5  H   UNL     1     -40.133 -51.509  10.785  1.00  0.00     0.172 HD
HETATM    6  H   UNL     1     -42.637 -50.161  12.733  1.00  0.00     0.164 HD
ENDROOT
BRANCH   1   7
HETATM    7  C   UNL     1     -40.914 -49.668  11.259  1.00  0.00     0.152 A 
HETATM    8  N   UNL     1     -41.740 -48.998  10.492  1.00  0.00    -0.345 N 
HETATM    9  C   UNL     1     -41.501 -47.651  10.645  1.00  0.00     0.104 A 
ATOM     10  HN  UNL     1     -42.445 -49.408   9.880  1.00  0.00     0.167 HD
HETATM   11  C   UNL     1     -40.460 -47.324  11.491  1.00  0.00     0.001 A 
HETATM   12  S   UNL     1     -39.824 -48.759  12.192  1.00  0.00    -0.057 SA
BRANCH  11  13
HETATM   13  C   UNL     1     -39.898 -45.977  11.804  1.00  0.00     0.047 C 
BRANCH  13  14
HETATM   14  C   UNL     1     -39.939 -45.055  10.586  1.00  0.00     0.001 C 
HETATM   15  C   UNL     1     -40.325 -43.642  10.984  1.00  0.00     0.005 C 
ENDBRANCH  13  14
ENDBRANCH  11  13
ENDBRANCH   1   7
BRANCH   4  16
HETATM   16  C   UNL     1     -43.597 -51.820  13.635  1.00  0.00     0.129 C 
BRANCH  16  17
HETATM   17  C   UNL     1     -44.892 -52.066  12.836  1.00  0.00     0.006 C 
HETATM   18  C   UNL     1     -46.113 -51.300  13.383  1.00  0.00     0.006 C 
HETATM   19  C   UNL     1     -46.606 -51.832  14.728  1.00  0.00     0.003 C 
HETATM   20  C   UNL     1     -46.869 -53.333  14.680  1.00  0.00     0.032 C 
HETATM   21  C   UNL     1     -45.672 -54.114  14.138  1.00  0.00     0.118 C 
HETATM   22  C   UNL     1     -45.208 -53.569  12.785  1.00  0.00     0.038 C 
BRANCH  21  23
HETATM   23  O   UNL     1     -46.022 -55.487  14.003  1.00  0.00    -0.396 OA
HETATM   24  H   UNL     1     -46.124 -55.862  14.894  1.00  0.00     0.210 HD
ENDBRANCH  21  23
ENDBRANCH  16  17
ENDBRANCH   4  16
TORSDOF 6
ENDMDL
MODEL 3
REMARK VINA RESULT:      -6.1      3.072      6.078
REMARK  6 active torsions:
REMARK  status: ('A' for Active; 'I' for Inactive)
REMARK    1  A    between atoms: C_2  and  C_3 
REMARK    2  A    between atoms: C_3  and  C_4 
REMARK    3  A    between atoms: C_8  and  N_9 
REMARK       I    between atoms: N_9  and  C_10 
REMARK       I    between atoms: C_10  and  N_12 
REMARK    4  A    between atoms: N_12  and  C_13 
REMARK    5  A    between atoms: C_13  and  C_14 
REMARK    6  A    between atoms: C_18  and  O_19 
ROOT
HETATM    1  N   UNL     1     -41.577 -52.747  12.995  1.00  0.00    -0.289 N 
HETATM    2  C   UNL     1     -40.735 -51.867  12.382  1.00  0.00     0.322 C 
HETATM    3  O   UNL     1     -39.519 -52.022  12.459  1.00  0.00    -0.247 OA
HETATM    4  N   UNL     1     -41.317 -50.819  11.739  1.00  0.00    -0.342 N 
HETATM    5  H   UNL     1     -41.144 -53.478  13.544  1.00  0.00     0.172 HD
HETATM    6  H   UNL     1     -42.334 -50.784  11.754  1.00  0.00     0.164 HD
ENDROOT
BRANCH   1   7
HETATM    7  C   UNL     1     -42.941 -52.667  12.967  1.00  0.00     0.152 A 
HETATM    8  N   UNL     1     -43.745 -53.188  12.071  1.00  0.00    -0.345 N 
HETATM    9  C   UNL     1     -45.042 -52.845  12.379  1.00  0.00     0.104 A 
ATOM     10  HN  UNL     1     -43.456 -53.755  11.274  1.00  0.00     0.167 HD
HETATM   11  C   UNL     1     -45.196 -52.025  13.478  1.00  0.00     0.001 A 
HETATM   12  S   UNL     1     -43.662 -51.757  14.207  1.00  0.00    -0.057 SA
BRANCH  11  13
HETATM   13  C   UNL     1     -46.445 -51.413  14.020  1.00  0.00     0.047 C 
BRANCH  13  14
HETATM   14  C   UNL     1     -46.998 -52.215  15.197  1.00  0.00     0.001 C 
HETATM   15  C   UNL     1     -47.417 -51.298  16.332  1.00  0.00     0.005 C 
ENDBRANCH  13  14
ENDBRANCH  11  13
ENDBRANCH   1   7
BRANCH   4  16
HETATM   16  C   UNL     1     -40.612 -49.712  11.146  1.00  0.00     0.129 C 
BRANCH  16  17
HETATM   17  C   UNL     1     -40.607 -48.463  12.049  1.00  0.00     0.006 C 
HETATM   18  C   UNL     1     -41.866 -48.330  12.930  1.00  0.00     0.006 C 
HETATM   19  C   UNL     1     -43.126 -47.995  12.135  1.00  0.00     0.003 C 
HETATM   20  C   UNL     1     -42.932 -46.764  11.258  1.00  0.00     0.032 C 
HETATM   21  C   UNL     1     -41.688 -46.871  10.376  1.00  0.00     0.118 C 
HETATM   22  C   UNL     1     -40.438 -47.194  11.199  1.00  0.00     0.038 C 
BRANCH  21  23
HETATM   23  O   UNL     1     -41.494 -45.647   9.676  1.00  0.00    -0.396 OA
HETATM   24  H   UNL     1     -41.395 -45.851   8.731  1.00  0.00     0.210 HD
ENDBRANCH  21  23
ENDBRANCH  16  17
ENDBRANCH   4  16
TORSDOF 6
ENDMDL
MODEL 4
REMARK VINA RESULT:      -6.1      2.685      3.562
REMARK  6 active torsions:
REMARK  status: ('A' for Active; 'I' for Inactive)
REMARK    1  A    between atoms: C_2  and  C_3 
REMARK    2  A    between atoms: C_3  and  C_4 
REMARK    3  A    between atoms: C_8  and  N_9 
REMARK       I    between atoms: N_9  and  C_10 
REMARK       I    between atoms: C_10  and  N_12 
REMARK    4  A    between atoms: N_12  and  C_13 
REMARK    5  A    between atoms: C_13  and  C_14 
REMARK    6  A    between atoms: C_18  and  O_19 
ROOT
HETATM    1  N   UNL     1     -40.166 -50.844  11.537  1.00  0.00    -0.289 N 
HETATM    2  C   UNL     1     -40.941 -51.899  11.920  1.00  0.00     0.322 C 
HETATM    3  O   UNL     1     -40.436 -53.007  12.084  1.00  0.00    -0.247 OA
HETATM    4  N   UNL     1     -42.271 -51.655  12.059  1.00  0.00    -0.342 N 
HETATM    5  H   UNL     1     -39.192 -51.043  11.351  1.00  0.00     0.172 HD
HETATM    6  H   UNL     1     -42.580 -50.701  11.882  1.00  0.00     0.164 HD
ENDROOT
BRANCH   1   7
HETATM    7  C   UNL     1     -40.627 -49.574  11.331  1.00  0.00     0.152 A 
HETATM    8  N   UNL     1     -41.251 -49.122  10.270  1.00  0.00    -0.345 N 
HETATM    9  C   UNL     1     -41.510 -47.780  10.439  1.00  0.00     0.104 A 
ATOM     10  HN  UNL     1     -41.504 -49.675   9.451  1.00  0.00     0.167 HD
HETATM   11  C   UNL     1     -41.031 -47.225  11.608  1.00  0.00     0.001 A 
HETATM   12  S   UNL     1     -40.316 -48.456  12.572  1.00  0.00    -0.057 SA
BRANCH  11  13
HETATM   13  C   UNL     1     -41.070 -45.800  12.050  1.00  0.00     0.047 C 
BRANCH  13  14
HETATM   14  C   UNL     1     -39.747 -45.089  11.770  1.00  0.00     0.001 C 
HETATM   15  C   UNL     1     -39.611 -44.753  10.295  1.00  0.00     0.005 C 
ENDBRANCH  13  14
ENDBRANCH  11  13
ENDBRANCH   1   7
BRANCH   4  16
HETATM   16  C   UNL     1     -43.276 -52.652  12.324  1.00  0.00     0.129 C 
BRANCH  16  17
HETATM   17  C   UNL     1     -43.823 -52.573  13.763  1.00  0.00     0.006 C 
HETATM   18  C   UNL     1     -42.829 -53.072  14.832  1.00  0.00     0.006 C 
HETATM   19  C   UNL     1     -42.603 -54.582  14.788  1.00  0.00     0.003 C 
HETATM   20  C   UNL     1     -43.918 -55.352  14.851  1.00  0.00     0.032 C 
HETATM   21  C   UNL     1     -44.921 -54.873  13.802  1.00  0.00     0.118 C 
HETATM   22  C   UNL     1     -45.137 -53.359  13.877  1.00  0.00     0.038 C 
BRANCH  21  23
HETATM   23  O   UNL     1     -46.163 -55.541  13.992  1.00  0.00    -0.396 OA
HETATM   24  H   UNL     1     -46.523 -55.271  14.853  1.00  0.00     0.210 HD
ENDBRANCH  21  23
ENDBRANCH  16  17
ENDBRANCH   4  16
TORSDOF 6
ENDMDL
MODEL 5
REMARK VINA RESULT:      -5.6      2.636      6.662
REMARK  6 active torsions:
REMARK  status: ('A' for Active; 'I' for Inactive)
REMARK    1  A    between atoms: C_2  and  C_3 
REMARK    2  A    between atoms: C_3  and  C_4 
REMARK    3  A    between atoms: C_8  and  N_9 
REMARK       I    between atoms: N_9  and  C_10 
REMARK       I    between atoms: C_10  and  N_12 
REMARK    4  A    between atoms: N_12  and  C_13 
REMARK    5  A    between atoms: C_13  and  C_14 
REMARK    6  A    between atoms: C_18  and  O_19 
ROOT
HETATM    1  N   UNL     1     -40.648 -51.484  12.155  1.00  0.00    -0.289 N 
HETATM    2  C   UNL     1     -40.554 -50.281  11.521  1.00  0.00     0.322 C 
HETATM    3  O   UNL     1     -39.451 -49.798  11.275  1.00  0.00    -0.247 OA
HETATM    4  N   UNL     1     -41.726 -49.655  11.228  1.00  0.00    -0.342 N 
HETATM    5  H   UNL     1     -39.779 -51.910  12.448  1.00  0.00     0.172 HD
HETATM    6  H   UNL     1     -42.580 -50.142  11.492  1.00  0.00     0.164 HD
ENDROOT
BRANCH   1   7
HETATM    7  C   UNL     1     -41.824 -52.108  12.469  1.00  0.00     0.152 A 
HETATM    8  N   UNL     1     -42.635 -52.727  11.645  1.00  0.00    -0.345 N 
HETATM    9  C   UNL     1     -43.727 -53.182  12.348  1.00  0.00     0.104 A 
ATOM     10  HN  UNL     1     -42.480 -52.852  10.644  1.00  0.00     0.167 HD
HETATM   11  C   UNL     1     -43.750 -52.854  13.688  1.00  0.00     0.001 A 
HETATM   12  S   UNL     1     -42.299 -52.029  14.098  1.00  0.00    -0.057 SA
BRANCH  11  13
HETATM   13  C   UNL     1     -44.819 -53.120  14.696  1.00  0.00     0.047 C 
BRANCH  13  14
HETATM   14  C   UNL     1     -45.996 -53.874  14.081  1.00  0.00     0.001 C 
HETATM   15  C   UNL     1     -45.673 -55.349  13.918  1.00  0.00     0.005 C 
ENDBRANCH  13  14
ENDBRANCH  11  13
ENDBRANCH   1   7
BRANCH   4  16
HETATM   16  C   UNL     1     -41.847 -48.327  10.685  1.00  0.00     0.129 C 
BRANCH  16  17
HETATM   17  C   UNL     1     -43.127 -47.609  11.158  1.00  0.00     0.006 C 
HETATM   18  C   UNL     1     -44.304 -47.726  10.168  1.00  0.00     0.006 C 
HETATM   19  C   UNL     1     -44.093 -46.929   8.883  1.00  0.00     0.003 C 
HETATM   20  C   UNL     1     -43.754 -45.471   9.170  1.00  0.00     0.032 C 
HETATM   21  C   UNL     1     -42.590 -45.330  10.151  1.00  0.00     0.118 C 
HETATM   22  C   UNL     1     -42.833 -46.127  11.435  1.00  0.00     0.038 C 
BRANCH  21  23
HETATM   23  O   UNL     1     -42.403 -43.955  10.473  1.00  0.00    -0.396 OA
HETATM   24  H   UNL     1     -42.871 -43.423   9.807  1.00  0.00     0.210 HD
ENDBRANCH  21  23
ENDBRANCH  16  17
ENDBRANCH   4  16
TORSDOF 6
ENDMDL
MODEL 6
REMARK VINA RESULT:      -5.5      4.583      8.223
REMARK  6 active torsions:
REMARK  status: ('A' for Active; 'I' for Inactive)
REMARK    1  A    between atoms: C_2  and  C_3 
REMARK    2  A    between atoms: C_3  and  C_4 
REMARK    3  A    between atoms: C_8  and  N_9 
REMARK       I    between atoms: N_9  and  C_10 
REMARK       I    between atoms: C_10  and  N_12 
REMARK    4  A    between atoms: N_12  and  C_13 
REMARK    5  A    between atoms: C_13  and  C_14 
REMARK    6  A    between atoms: C_18  and  O_19 
ROOT
HETATM    1  N   UNL     1     -40.947 -49.430  10.680  1.00  0.00    -0.289 N 
HETATM    2  C   UNL     1     -41.432 -48.183  10.422  1.00  0.00     0.322 C 
HETATM    3  O   UNL     1     -42.519 -48.047   9.866  1.00  0.00    -0.247 OA
HETATM    4  N   UNL     1     -40.636 -47.137  10.773  1.00  0.00    -0.342 N 
HETATM    5  H   UNL     1     -41.499 -50.208  10.343  1.00  0.00     0.172 HD
HETATM    6  H   UNL     1     -39.749 -47.370  11.214  1.00  0.00     0.164 HD
ENDROOT
BRANCH   1   7
HETATM    7  C   UNL     1     -39.754 -49.689  11.296  1.00  0.00     0.152 A 
HETATM    8  N   UNL     1     -38.595 -49.893  10.718  1.00  0.00    -0.345 N 
HETATM    9  C   UNL     1     -37.653 -50.161  11.686  1.00  0.00     0.104 A 
ATOM     10  HN  UNL     1     -38.419 -49.859   9.714  1.00  0.00     0.167 HD
HETATM   11  C   UNL     1     -38.127 -50.206  12.981  1.00  0.00     0.001 A 
HETATM   12  S   UNL     1     -39.798 -49.800  12.990  1.00  0.00    -0.057 SA
BRANCH  11  13
HETATM   13  C   UNL     1     -37.391 -50.550  14.233  1.00  0.00     0.047 C 
BRANCH  13  14
HETATM   14  C   UNL     1     -38.115 -50.024  15.472  1.00  0.00     0.001 C 
HETATM   15  C   UNL     1     -37.967 -50.984  16.639  1.00  0.00     0.005 C 
ENDBRANCH  13  14
ENDBRANCH  11  13
ENDBRANCH   1   7
BRANCH   4  16
HETATM   16  C   UNL     1     -40.898 -45.754  10.471  1.00  0.00     0.129 C 
BRANCH  16  17
HETATM   17  C   UNL     1     -41.670 -45.039  11.597  1.00  0.00     0.006 C 
HETATM   18  C   UNL     1     -41.891 -43.535  11.339  1.00  0.00     0.006 C 
HETATM   19  C   UNL     1     -40.607 -42.712  11.424  1.00  0.00     0.003 C 
HETATM   20  C   UNL     1     -39.872 -42.945  12.740  1.00  0.00     0.032 C 
HETATM   21  C   UNL     1     -39.643 -44.430  13.019  1.00  0.00     0.118 C 
HETATM   22  C   UNL     1     -40.947 -45.228  12.940  1.00  0.00     0.038 C 
BRANCH  21  23
HETATM   23  O   UNL     1     -39.067 -44.587  14.312  1.00  0.00    -0.396 OA
HETATM   24  H   UNL     1     -39.617 -44.102  14.949  1.00  0.00     0.210 HD
ENDBRANCH  21  23
ENDBRANCH  16  17
ENDBRANCH   4  16
TORSDOF 6
ENDMDL
MODEL 7
REMARK VINA RESULT:      -5.3      3.590      4.371
REMARK  6 active torsions:
REMARK  status: ('A' for Active; 'I' for Inactive)
REMARK    1  A    between atoms: C_2  and  C_3 
REMARK    2  A    between atoms: C_3  and  C_4 
REMARK    3  A    between atoms: C_8  and  N_9 
REMARK       I    between atoms: N_9  and  C_10 
REMARK       I    between atoms: C_10  and  N_12 
REMARK    4  A    between atoms: N_12  and  C_13 
REMARK    5  A    between atoms: C_13  and  C_14 
REMARK    6  A    between atoms: C_18  and  O_19 
ROOT
HETATM    1  N   UNL     1     -40.294 -45.535  11.433  1.00  0.00    -0.289 N 
HETATM    2  C   UNL     1     -39.791 -45.930  12.637  1.00  0.00     0.322 C 
HETATM    3  O   UNL     1     -38.872 -45.302  13.157  1.00  0.00    -0.247 OA
HETATM    4  N   UNL     1     -40.332 -47.053  13.182  1.00  0.00    -0.342 N 
HETATM    5  H   UNL     1     -39.837 -44.751  10.988  1.00  0.00     0.172 HD
HETATM    6  H   UNL     1     -41.079 -47.500  12.655  1.00  0.00     0.164 HD
ENDROOT
BRANCH   1   7
HETATM    7  C   UNL     1     -41.316 -46.160  10.775  1.00  0.00     0.152 A 
HETATM    8  N   UNL     1     -41.302 -47.364  10.254  1.00  0.00    -0.345 N 
HETATM    9  C   UNL     1     -42.512 -47.603   9.643  1.00  0.00     0.104 A 
ATOM     10  HN  UNL     1     -40.519 -48.017  10.295  1.00  0.00     0.167 HD
HETATM   11  C   UNL     1     -43.408 -46.554   9.668  1.00  0.00     0.001 A 
HETATM   12  S   UNL     1     -42.740 -45.256  10.576  1.00  0.00    -0.057 SA
BRANCH  11  13
HETATM   13  C   UNL     1     -44.755 -46.461   9.032  1.00  0.00     0.047 C 
BRANCH  13  14
HETATM   14  C   UNL     1     -45.469 -47.812   9.030  1.00  0.00     0.001 C 
HETATM   15  C   UNL     1     -46.976 -47.633   8.970  1.00  0.00     0.005 C 
ENDBRANCH  13  14
ENDBRANCH  11  13
ENDBRANCH   1   7
BRANCH   4  16
HETATM   16  C   UNL     1     -39.858 -47.710  14.373  1.00  0.00     0.129 C 
BRANCH  16  17
HETATM   17  C   UNL     1     -40.050 -49.239  14.320  1.00  0.00     0.006 C 
HETATM   18  C   UNL     1     -38.829 -50.035  14.825  1.00  0.00     0.006 C 
HETATM   19  C   UNL     1     -37.626 -49.953  13.887  1.00  0.00     0.003 C 
HETATM   20  C   UNL     1     -37.992 -50.348  12.461  1.00  0.00     0.032 C 
HETATM   21  C   UNL     1     -39.203 -49.573  11.939  1.00  0.00     0.118 C 
HETATM   22  C   UNL     1     -40.397 -49.682  12.890  1.00  0.00     0.038 C 
BRANCH  21  23
HETATM   23  O   UNL     1     -39.569 -50.071  10.656  1.00  0.00    -0.396 OA
HETATM   24  H   UNL     1     -39.827 -49.316  10.102  1.00  0.00     0.210 HD
ENDBRANCH  21  23
ENDBRANCH  16  17
ENDBRANCH   4  16
TORSDOF 6
ENDMDL
MODEL 8
REMARK VINA RESULT:      -5.3      4.295      6.396
REMARK  6 active torsions:
REMARK  status: ('A' for Active; 'I' for Inactive)
REMARK    1  A    between atoms: C_2  and  C_3 
REMARK    2  A    between atoms: C_3  and  C_4 
REMARK    3  A    between atoms: C_8  and  N_9 
REMARK       I    between atoms: N_9  and  C_10 
REMARK       I    between atoms: C_10  and  N_12 
REMARK    4  A    between atoms: N_12  and  C_13 
REMARK    5  A    between atoms: C_13  and  C_14 
REMARK    6  A    between atoms: C_18  and  O_19 
ROOT
HETATM    1  N   UNL     1     -42.145 -53.887  13.249  1.00  0.00    -0.289 N 
HETATM    2  C   UNL     1     -41.011 -53.211  12.908  1.00  0.00     0.322 C 
HETATM    3  O   UNL     1     -39.913 -53.746  13.037  1.00  0.00    -0.247 OA
HETATM    4  N   UNL     1     -41.175 -51.934  12.470  1.00  0.00    -0.342 N 
HETATM    5  H   UNL     1     -42.019 -54.806  13.653  1.00  0.00     0.172 HD
HETATM    6  H   UNL     1     -42.131 -51.590  12.418  1.00  0.00     0.164 HD
ENDROOT
BRANCH   1   7
HETATM    7  C   UNL     1     -43.412 -53.386  13.139  1.00  0.00     0.152 A 
HETATM    8  N   UNL     1     -44.164 -53.365  12.064  1.00  0.00    -0.345 N 
HETATM    9  C   UNL     1     -45.353 -52.738  12.361  1.00  0.00     0.104 A 
ATOM     10  HN  UNL     1     -43.908 -53.752  11.156  1.00  0.00     0.167 HD
HETATM   11  C   UNL     1     -45.462 -52.247  13.646  1.00  0.00     0.001 A 
HETATM   12  S   UNL     1     -44.058 -52.676  14.541  1.00  0.00    -0.057 SA
BRANCH  11  13
HETATM   13  C   UNL     1     -46.572 -51.453  14.251  1.00  0.00     0.047 C 
BRANCH  13  14
HETATM   14  C   UNL     1     -47.199 -52.181  15.439  1.00  0.00     0.001 C 
HETATM   15  C   UNL     1     -47.374 -51.245  16.622  1.00  0.00     0.005 C 
ENDBRANCH  13  14
ENDBRANCH  11  13
ENDBRANCH   1   7
BRANCH   4  16
HETATM   16  C   UNL     1     -40.108 -51.009  12.188  1.00  0.00     0.129 C 
BRANCH  16  17
HETATM   17  C   UNL     1     -40.093 -49.810  13.158  1.00  0.00     0.006 C 
HETATM   18  C   UNL     1     -39.027 -48.750  12.816  1.00  0.00     0.006 C 
HETATM   19  C   UNL     1     -37.598 -49.227  13.069  1.00  0.00     0.003 C 
HETATM   20  C   UNL     1     -37.420 -49.754  14.489  1.00  0.00     0.032 C 
HETATM   21  C   UNL     1     -38.468 -50.805  14.852  1.00  0.00     0.118 C 
HETATM   22  C   UNL     1     -39.890 -50.297  14.602  1.00  0.00     0.038 C 
BRANCH  21  23
HETATM   23  O   UNL     1     -38.326 -51.166  16.222  1.00  0.00    -0.396 OA
HETATM   24  H   UNL     1     -37.909 -50.422  16.688  1.00  0.00     0.210 HD
ENDBRANCH  21  23
ENDBRANCH  16  17
ENDBRANCH   4  16
TORSDOF 6
ENDMDL
MODEL 9
REMARK VINA RESULT:      -5.2      4.086      5.927
REMARK  6 active torsions:
REMARK  status: ('A' for Active; 'I' for Inactive)
REMARK    1  A    between atoms: C_2  and  C_3 
REMARK    2  A    between atoms: C_3  and  C_4 
REMARK    3  A    between atoms: C_8  and  N_9 
REMARK       I    between atoms: N_9  and  C_10 
REMARK       I    between atoms: C_10  and  N_12 
REMARK    4  A    between atoms: N_12  and  C_13 
REMARK    5  A    between atoms: C_13  and  C_14 
REMARK    6  A    between atoms: C_18  and  O_19 
ROOT
HETATM    1  N   UNL     1     -41.478 -51.503  11.986  1.00  0.00    -0.289 N 
HETATM    2  C   UNL     1     -40.334 -51.860  12.636  1.00  0.00     0.322 C 
HETATM    3  O   UNL     1     -39.245 -51.459  12.233  1.00  0.00    -0.247 OA
HETATM    4  N   UNL     1     -40.476 -52.697  13.699  1.00  0.00    -0.342 N 
HETATM    5  H   UNL     1     -41.367 -50.951  11.146  1.00  0.00     0.172 HD
HETATM    6  H   UNL     1     -41.426 -52.977  13.934  1.00  0.00     0.164 HD
ENDROOT
BRANCH   1   7
HETATM    7  C   UNL     1     -42.736 -51.891  12.356  1.00  0.00     0.152 A 
HETATM    8  N   UNL     1     -43.346 -53.006  12.032  1.00  0.00    -0.345 N 
HETATM    9  C   UNL     1     -44.614 -52.996  12.569  1.00  0.00     0.104 A 
ATOM     10  HN  UNL     1     -42.946 -53.759  11.472  1.00  0.00     0.167 HD
HETATM   11  C   UNL     1     -44.962 -51.848  13.250  1.00  0.00     0.001 A 
HETATM   12  S   UNL     1     -43.612 -50.784  13.300  1.00  0.00    -0.057 SA
BRANCH  11  13
HETATM   13  C   UNL     1     -46.272 -51.490  13.869  1.00  0.00     0.047 C 
BRANCH  13  14
HETATM   14  C   UNL     1     -46.490 -52.230  15.188  1.00  0.00     0.001 C 
HETATM   15  C   UNL     1     -47.389 -51.434  16.117  1.00  0.00     0.005 C 
ENDBRANCH  13  14
ENDBRANCH  11  13
ENDBRANCH   1   7
BRANCH   4  16
HETATM   16  C   UNL     1     -39.394 -53.296  14.436  1.00  0.00     0.129 C 
BRANCH  16  17
HETATM   17  C   UNL     1     -39.714 -54.733  14.894  1.00  0.00     0.006 C 
HETATM   18  C   UNL     1     -41.019 -54.847  15.709  1.00  0.00     0.006 C 
HETATM   19  C   UNL     1     -40.921 -54.214  17.096  1.00  0.00     0.003 C 
HETATM   20  C   UNL     1     -39.729 -54.751  17.880  1.00  0.00     0.032 C 
HETATM   21  C   UNL     1     -38.424 -54.651  17.091  1.00  0.00     0.118 C 
HETATM   22  C   UNL     1     -38.546 -55.304  15.712  1.00  0.00     0.038 C 
BRANCH  21  23
HETATM   23  O   UNL     1     -37.376 -55.277  17.823  1.00  0.00    -0.396 OA
HETATM   24  H   UNL     1     -37.348 -56.215  17.569  1.00  0.00     0.210 HD
ENDBRANCH  21  23
ENDBRANCH  16  17
ENDBRANCH   4  16
TORSDOF 6
ENDMDL
