MODEL 1
REMARK VINA RESULT:      -4.9      0.000      0.000
REMARK  3 active torsions:
REMARK  status: ('A' for Active; 'I' for Inactive)
REMARK    1  A    between atoms: O_1  and  C_2 
REMARK    2  A    between atoms: C_2  and  C_3 
REMARK    3  A    between atoms: C_3  and  N_4 
ROOT
HETATM    1  N   UNL     1     -40.990 -53.374  13.923  1.00  0.00    -0.289 N 
HETATM    2  C   UNL     1     -40.829 -52.583  12.806  1.00  0.00     0.373 A 
HETATM    3  O   UNL     1     -39.810 -51.980  12.495  1.00  0.00    -0.237 OA
HETATM    4  O   UNL     1     -42.005 -52.544  12.041  1.00  0.00    -0.259 OA
HETATM    5  C   UNL     1     -42.871 -53.328  12.786  1.00  0.00     0.107 A 
HETATM    6  C   UNL     1     -44.182 -53.606  12.461  1.00  0.00     0.040 A 
HETATM    7  C   UNL     1     -44.907 -54.412  13.345  1.00  0.00     0.003 A 
HETATM    8  C   UNL     1     -44.313 -54.906  14.522  1.00  0.00     0.002 A 
HETATM    9  C   UNL     1     -42.981 -54.610  14.830  1.00  0.00     0.033 A 
HETATM   10  C   UNL     1     -42.289 -53.825  13.935  1.00  0.00     0.073 A 
ENDROOT
BRANCH   1  11
HETATM   11  C   UNL     1     -39.993 -53.618  14.938  1.00  0.00     0.160 C 
BRANCH  11  12
HETATM   12  C   UNL     1     -39.152 -54.865  14.659  1.00  0.00     0.184 C 
BRANCH  12  13
HETATM   13  O   UNL     1     -38.593 -54.811  13.348  1.00  0.00    -0.399 OA
HETATM   14  H   UNL     1     -39.276 -55.134  12.736  1.00  0.00     0.209 HD
ENDBRANCH  12  13
ENDBRANCH  11  12
ENDBRANCH   1  11
TORSDOF 3
ENDMDL
MODEL 2
REMARK VINA RESULT:      -4.9      7.309      8.928
REMARK  3 active torsions:
REMARK  status: ('A' for Active; 'I' for Inactive)
REMARK    1  A    between atoms: O_1  and  C_2 
REMARK    2  A    between atoms: C_2  and  C_3 
REMARK    3  A    between atoms: C_3  and  N_4 
ROOT
HETATM    1  N   UNL     1     -43.291 -46.747   9.500  1.00  0.00    -0.289 N 
HETATM    2  C   UNL     1     -43.276 -45.370   9.555  1.00  0.00     0.373 A 
HETATM    3  O   UNL     1     -44.060 -44.621   8.988  1.00  0.00    -0.237 OA
HETATM    4  O   UNL     1     -42.222 -44.909  10.361  1.00  0.00    -0.259 OA
HETATM    5  C   UNL     1     -41.605 -46.088  10.746  1.00  0.00     0.107 A 
HETATM    6  C   UNL     1     -40.492 -46.182  11.556  1.00  0.00     0.040 A 
HETATM    7  C   UNL     1     -40.002 -47.463  11.830  1.00  0.00     0.003 A 
HETATM    8  C   UNL     1     -40.625 -48.604  11.286  1.00  0.00     0.002 A 
HETATM    9  C   UNL     1     -41.752 -48.482  10.467  1.00  0.00     0.033 A 
HETATM   10  C   UNL     1     -42.219 -47.209  10.226  1.00  0.00     0.073 A 
ENDROOT
BRANCH   1  11
HETATM   11  C   UNL     1     -44.223 -47.553   8.748  1.00  0.00     0.160 C 
BRANCH  11  12
HETATM   12  C   UNL     1     -45.651 -47.479   9.292  1.00  0.00     0.184 C 
BRANCH  12  13
HETATM   13  O   UNL     1     -46.446 -46.599   8.499  1.00  0.00    -0.399 OA
HETATM   14  H   UNL     1     -46.115 -46.665   7.587  1.00  0.00     0.209 HD
ENDBRANCH  12  13
ENDBRANCH  11  12
ENDBRANCH   1  11
TORSDOF 3
ENDMDL
MODEL 3
REMARK VINA RESULT:      -4.7      1.399      2.706
REMARK  3 active torsions:
REMARK  status: ('A' for Active; 'I' for Inactive)
REMARK    1  A    between atoms: O_1  and  C_2 
REMARK    2  A    between atoms: C_2  and  C_3 
REMARK    3  A    between atoms: C_3  and  N_4 
ROOT
HETATM    1  N   UNL     1     -41.322 -53.217  12.791  1.00  0.00    -0.289 N 
HETATM    2  C   UNL     1     -40.412 -53.803  13.643  1.00  0.00     0.373 A 
HETATM    3  O   UNL     1     -39.196 -53.661  13.602  1.00  0.00    -0.237 OA
HETATM    4  O   UNL     1     -41.057 -54.609  14.594  1.00  0.00    -0.259 OA
HETATM    5  C   UNL     1     -42.389 -54.488  14.232  1.00  0.00     0.107 A 
HETATM    6  C   UNL     1     -43.449 -55.104  14.863  1.00  0.00     0.040 A 
HETATM    7  C   UNL     1     -44.728 -54.870  14.347  1.00  0.00     0.003 A 
HETATM    8  C   UNL     1     -44.911 -54.044  13.221  1.00  0.00     0.002 A 
HETATM    9  C   UNL     1     -43.819 -53.431  12.599  1.00  0.00     0.033 A 
HETATM   10  C   UNL     1     -42.574 -53.669  13.137  1.00  0.00     0.073 A 
ENDROOT
BRANCH   1  11
HETATM   11  C   UNL     1     -41.006 -52.346  11.683  1.00  0.00     0.160 C 
BRANCH  11  12
HETATM   12  C   UNL     1     -40.316 -51.053  12.120  1.00  0.00     0.184 C 
BRANCH  12  13
HETATM   13  O   UNL     1     -38.907 -51.140  11.910  1.00  0.00    -0.399 OA
HETATM   14  H   UNL     1     -38.485 -51.012  12.777  1.00  0.00     0.209 HD
ENDBRANCH  12  13
ENDBRANCH  11  12
ENDBRANCH   1  11
TORSDOF 3
ENDMDL
MODEL 4
REMARK VINA RESULT:      -4.6      2.314      3.269
REMARK  3 active torsions:
REMARK  status: ('A' for Active; 'I' for Inactive)
REMARK    1  A    between atoms: O_1  and  C_2 
REMARK    2  A    between atoms: C_2  and  C_3 
REMARK    3  A    between atoms: C_3  and  N_4 
ROOT
HETATM    1  N   UNL     1     -42.792 -52.794  13.833  1.00  0.00    -0.289 N 
HETATM    2  C   UNL     1     -42.598 -54.080  14.287  1.00  0.00     0.373 A 
HETATM    3  O   UNL     1     -41.533 -54.684  14.297  1.00  0.00    -0.237 OA
HETATM    4  O   UNL     1     -43.800 -54.639  14.750  1.00  0.00    -0.259 OA
HETATM    5  C   UNL     1     -44.711 -53.622  14.513  1.00  0.00     0.107 A 
HETATM    6  C   UNL     1     -46.060 -53.674  14.792  1.00  0.00     0.040 A 
HETATM    7  C   UNL     1     -46.828 -52.549  14.473  1.00  0.00     0.003 A 
HETATM    8  C   UNL     1     -46.234 -51.417  13.881  1.00  0.00     0.002 A 
HETATM    9  C   UNL     1     -44.863 -51.389  13.607  1.00  0.00     0.033 A 
HETATM   10  C   UNL     1     -44.131 -52.505  13.944  1.00  0.00     0.073 A 
ENDROOT
BRANCH   1  11
HETATM   11  C   UNL     1     -41.778 -51.933  13.269  1.00  0.00     0.160 C 
BRANCH  11  12
HETATM   12  C   UNL     1     -41.503 -52.223  11.793  1.00  0.00     0.184 C 
BRANCH  12  13
HETATM   13  O   UNL     1     -40.579 -53.301  11.657  1.00  0.00    -0.399 OA
HETATM   14  H   UNL     1     -40.272 -53.294  10.734  1.00  0.00     0.209 HD
ENDBRANCH  12  13
ENDBRANCH  11  12
ENDBRANCH   1  11
TORSDOF 3
ENDMDL
MODEL 5
REMARK VINA RESULT:      -4.5     10.922     11.914
REMARK  3 active torsions:
REMARK  status: ('A' for Active; 'I' for Inactive)
REMARK    1  A    between atoms: O_1  and  C_2 
REMARK    2  A    between atoms: C_2  and  C_3 
REMARK    3  A    between atoms: C_3  and  N_4 
ROOT
HETATM    1  N   UNL     1     -50.685 -56.322  20.738  1.00  0.00    -0.289 N 
HETATM    2  C   UNL     1     -52.055 -56.285  20.592  1.00  0.00     0.373 A 
HETATM    3  O   UNL     1     -52.806 -57.251  20.638  1.00  0.00    -0.237 OA
HETATM    4  O   UNL     1     -52.505 -54.974  20.375  1.00  0.00    -0.259 OA
HETATM    5  C   UNL     1     -51.323 -54.251  20.371  1.00  0.00     0.107 A 
HETATM    6  C   UNL     1     -51.218 -52.888  20.187  1.00  0.00     0.040 A 
HETATM    7  C   UNL     1     -49.934 -52.333  20.205  1.00  0.00     0.003 A 
HETATM    8  C   UNL     1     -48.801 -53.147  20.395  1.00  0.00     0.002 A 
HETATM    9  C   UNL     1     -48.933 -54.527  20.580  1.00  0.00     0.033 A 
HETATM   10  C   UNL     1     -50.210 -55.043  20.570  1.00  0.00     0.073 A 
ENDROOT
BRANCH   1  11
HETATM   11  C   UNL     1     -49.888 -57.506  20.953  1.00  0.00     0.160 C 
BRANCH  11  12
HETATM   12  C   UNL     1     -49.606 -58.277  19.662  1.00  0.00     0.184 C 
BRANCH  12  13
HETATM   13  O   UNL     1     -50.698 -59.138  19.343  1.00  0.00    -0.399 OA
HETATM   14  H   UNL     1     -51.415 -58.572  19.008  1.00  0.00     0.209 HD
ENDBRANCH  12  13
ENDBRANCH  11  12
ENDBRANCH   1  11
TORSDOF 3
ENDMDL
MODEL 6
REMARK VINA RESULT:      -4.5      2.159      2.984
REMARK  3 active torsions:
REMARK  status: ('A' for Active; 'I' for Inactive)
REMARK    1  A    between atoms: O_1  and  C_2 
REMARK    2  A    between atoms: C_2  and  C_3 
REMARK    3  A    between atoms: C_3  and  N_4 
ROOT
HETATM    1  N   UNL     1     -41.374 -54.544  15.355  1.00  0.00    -0.289 N 
HETATM    2  C   UNL     1     -41.877 -55.473  16.240  1.00  0.00     0.373 A 
HETATM    3  O   UNL     1     -41.269 -55.974  17.176  1.00  0.00    -0.237 OA
HETATM    4  O   UNL     1     -43.210 -55.791  15.934  1.00  0.00    -0.259 OA
HETATM    5  C   UNL     1     -43.448 -55.023  14.806  1.00  0.00     0.107 A 
HETATM    6  C   UNL     1     -44.632 -54.980  14.101  1.00  0.00     0.040 A 
HETATM    7  C   UNL     1     -44.682 -54.149  12.976  1.00  0.00     0.003 A 
HETATM    8  C   UNL     1     -43.556 -53.398  12.585  1.00  0.00     0.002 A 
HETATM    9  C   UNL     1     -42.366 -53.459  13.317  1.00  0.00     0.033 A 
HETATM   10  C   UNL     1     -42.351 -54.275  14.426  1.00  0.00     0.073 A 
ENDROOT
BRANCH   1  11
HETATM   11  C   UNL     1     -40.033 -54.009  15.361  1.00  0.00     0.160 C 
BRANCH  11  12
HETATM   12  C   UNL     1     -39.007 -54.964  14.748  1.00  0.00     0.184 C 
BRANCH  12  13
HETATM   13  O   UNL     1     -38.796 -54.657  13.371  1.00  0.00    -0.399 OA
HETATM   14  H   UNL     1     -39.261 -55.338  12.856  1.00  0.00     0.209 HD
ENDBRANCH  12  13
ENDBRANCH  11  12
ENDBRANCH   1  11
TORSDOF 3
ENDMDL
MODEL 7
REMARK VINA RESULT:      -4.4      3.196      5.307
REMARK  3 active torsions:
REMARK  status: ('A' for Active; 'I' for Inactive)
REMARK    1  A    between atoms: O_1  and  C_2 
REMARK    2  A    between atoms: C_2  and  C_3 
REMARK    3  A    between atoms: C_3  and  N_4 
ROOT
HETATM    1  N   UNL     1     -45.350 -53.224  14.203  1.00  0.00    -0.289 N 
HETATM    2  C   UNL     1     -45.603 -54.545  14.504  1.00  0.00     0.373 A 
HETATM    3  O   UNL     1     -46.707 -55.038  14.694  1.00  0.00    -0.237 OA
HETATM    4  O   UNL     1     -44.412 -55.285  14.571  1.00  0.00    -0.259 OA
HETATM    5  C   UNL     1     -43.448 -54.320  14.326  1.00  0.00     0.107 A 
HETATM    6  C   UNL     1     -42.087 -54.539  14.288  1.00  0.00     0.040 A 
HETATM    7  C   UNL     1     -41.265 -53.436  14.034  1.00  0.00     0.003 A 
HETATM    8  C   UNL     1     -41.818 -52.156  13.836  1.00  0.00     0.002 A 
HETATM    9  C   UNL     1     -43.203 -51.960  13.880  1.00  0.00     0.033 A 
HETATM   10  C   UNL     1     -43.987 -53.066  14.119  1.00  0.00     0.073 A 
ENDROOT
BRANCH   1  11
HETATM   11  C   UNL     1     -46.339 -52.180  14.078  1.00  0.00     0.160 C 
BRANCH  11  12
HETATM   12  C   UNL     1     -46.494 -51.676  12.642  1.00  0.00     0.184 C 
BRANCH  12  13
HETATM   13  O   UNL     1     -46.674 -52.768  11.742  1.00  0.00    -0.399 OA
HETATM   14  H   UNL     1     -46.246 -52.518  10.906  1.00  0.00     0.209 HD
ENDBRANCH  12  13
ENDBRANCH  11  12
ENDBRANCH   1  11
TORSDOF 3
ENDMDL
MODEL 8
REMARK VINA RESULT:      -4.4      2.102      3.550
REMARK  3 active torsions:
REMARK  status: ('A' for Active; 'I' for Inactive)
REMARK    1  A    between atoms: O_1  and  C_2 
REMARK    2  A    between atoms: C_2  and  C_3 
REMARK    3  A    between atoms: C_3  and  N_4 
ROOT
HETATM    1  N   UNL     1     -40.830 -50.898  12.724  1.00  0.00    -0.289 N 
HETATM    2  C   UNL     1     -39.677 -51.651  12.652  1.00  0.00     0.373 A 
HETATM    3  O   UNL     1     -38.553 -51.221  12.427  1.00  0.00    -0.237 OA
HETATM    4  O   UNL     1     -39.949 -53.010  12.872  1.00  0.00    -0.259 OA
HETATM    5  C   UNL     1     -41.323 -53.015  13.043  1.00  0.00     0.107 A 
HETATM    6  C   UNL     1     -42.096 -54.132  13.287  1.00  0.00     0.040 A 
HETATM    7  C   UNL     1     -43.476 -53.942  13.423  1.00  0.00     0.003 A 
HETATM    8  C   UNL     1     -44.041 -52.657  13.305  1.00  0.00     0.002 A 
HETATM    9  C   UNL     1     -43.236 -51.541  13.057  1.00  0.00     0.033 A 
HETATM   10  C   UNL     1     -41.881 -51.757  12.941  1.00  0.00     0.073 A 
ENDROOT
BRANCH   1  11
HETATM   11  C   UNL     1     -40.921 -49.470  12.527  1.00  0.00     0.160 C 
BRANCH  11  12
HETATM   12  C   UNL     1     -41.188 -49.084  11.071  1.00  0.00     0.184 C 
BRANCH  12  13
HETATM   13  O   UNL     1     -40.401 -49.883  10.188  1.00  0.00    -0.399 OA
HETATM   14  H   UNL     1     -39.482 -49.827  10.501  1.00  0.00     0.209 HD
ENDBRANCH  12  13
ENDBRANCH  11  12
ENDBRANCH   1  11
TORSDOF 3
ENDMDL
MODEL 9
REMARK VINA RESULT:      -4.3      1.714      4.130
REMARK  3 active torsions:
REMARK  status: ('A' for Active; 'I' for Inactive)
REMARK    1  A    between atoms: O_1  and  C_2 
REMARK    2  A    between atoms: C_2  and  C_3 
REMARK    3  A    between atoms: C_3  and  N_4 
ROOT
HETATM    1  N   UNL     1     -42.729 -53.844  14.153  1.00  0.00    -0.289 N 
HETATM    2  C   UNL     1     -42.398 -53.309  12.926  1.00  0.00     0.373 A 
HETATM    3  O   UNL     1     -43.177 -52.788  12.138  1.00  0.00    -0.237 OA
HETATM    4  O   UNL     1     -41.023 -53.436  12.675  1.00  0.00    -0.259 OA
HETATM    5  C   UNL     1     -40.574 -54.101  13.804  1.00  0.00     0.107 A 
HETATM    6  C   UNL     1     -39.269 -54.476  14.048  1.00  0.00     0.040 A 
HETATM    7  C   UNL     1     -39.006 -55.151  15.244  1.00  0.00     0.003 A 
HETATM    8  C   UNL     1     -40.044 -55.439  16.152  1.00  0.00     0.002 A 
HETATM    9  C   UNL     1     -41.360 -55.049  15.882  1.00  0.00     0.033 A 
HETATM   10  C   UNL     1     -41.586 -54.374  14.703  1.00  0.00     0.073 A 
ENDROOT
BRANCH   1  11
HETATM   11  C   UNL     1     -44.055 -53.903  14.721  1.00  0.00     0.160 C 
BRANCH  11  12
HETATM   12  C   UNL     1     -44.947 -54.946  14.045  1.00  0.00     0.184 C 
BRANCH  12  13
HETATM   13  O   UNL     1     -45.698 -54.354  12.986  1.00  0.00    -0.399 OA
HETATM   14  H   UNL     1     -46.263 -53.672  13.388  1.00  0.00     0.209 HD
ENDBRANCH  12  13
ENDBRANCH  11  12
ENDBRANCH   1  11
TORSDOF 3
ENDMDL
