MODEL 1
REMARK VINA RESULT:      -7.5      0.000      0.000
REMARK  4 active torsions:
REMARK  status: ('A' for Active; 'I' for Inactive)
REMARK       I    between atoms: N_1  and  C_2 
REMARK    1  A    between atoms: C_2  and  C_4 
REMARK    2  A    between atoms: C_7  and  N_8 
REMARK       I    between atoms: N_8  and  C_9 
REMARK       I    between atoms: C_9  and  N_11 
REMARK    3  A    between atoms: N_11  and  C_12 
REMARK    4  A    between atoms: C_16  and  C_18 
ROOT
HETATM    1  N   UNL     1     -41.918 -49.891  11.362  1.00  0.00    -0.308 N 
HETATM    2  C   UNL     1     -41.883 -50.534  12.582  1.00  0.00     0.321 C 
HETATM    3  O   UNL     1     -41.295 -50.136  13.580  1.00  0.00    -0.247 OA
HETATM    4  N   UNL     1     -42.651 -51.679  12.594  1.00  0.00    -0.338 N 
HETATM    5  H   UNL     1     -42.164 -50.448  10.558  1.00  0.00     0.170 HD
HETATM    6  H   UNL     1     -42.682 -52.196  11.729  1.00  0.00     0.164 HD
ENDROOT
BRANCH   1   7
HETATM    7  C   UNL     1     -41.412 -48.590  11.133  1.00  0.00     0.051 A 
HETATM    8  C   UNL     1     -40.240 -48.122  11.725  1.00  0.00     0.033 A 
HETATM    9  C   UNL     1     -39.752 -46.856  11.414  1.00  0.00     0.037 A 
HETATM   10  C   UNL     1     -40.471 -46.079  10.522  1.00  0.00     0.100 A 
HETATM   11  N   UNL     1     -41.659 -46.462   9.964  1.00  0.00    -0.359 N 
HETATM   12  C   UNL     1     -42.096 -47.707  10.296  1.00  0.00     0.118 A 
ATOM     13  HN  UNL     1     -42.184 -45.853   9.337  1.00  0.00     0.165 HD
BRANCH  10  14
HETATM   14  C   UNL     1     -39.916 -44.749  10.112  1.00  0.00     0.266 C 
HETATM   15  N   UNL     1     -38.943 -44.783   9.148  1.00  0.00    -0.365 N 
HETATM   16  H   UNL     1     -38.508 -43.919   8.860  1.00  0.00     0.159 HD
HETATM   17  H   UNL     1     -38.645 -45.671   8.765  1.00  0.00     0.159 HD
HETATM   18  O   UNL     1     -40.285 -43.695  10.611  1.00  0.00    -0.266 OA
ENDBRANCH  10  14
ENDBRANCH   1   7
BRANCH   4  19
HETATM   19  C   UNL     1     -42.823 -52.446  13.833  1.00  0.00     0.086 C 
HETATM   20  C   UNL     1     -42.954 -53.945  13.524  1.00  0.00     0.025 C 
HETATM   21  C   UNL     1     -44.256 -54.270  12.789  1.00  0.00     0.003 C 
HETATM   22  C   UNL     1     -45.490 -53.727  13.514  1.00  0.00     0.014 C 
HETATM   23  C   UNL     1     -45.355 -52.233  13.837  1.00  0.00     0.095 C 
HETATM   24  C   UNL     1     -44.060 -51.993  14.630  1.00  0.00     0.038 C 
BRANCH  23  25
HETATM   25  C   UNL     1     -46.577 -51.667  14.558  1.00  0.00     0.391 C 
HETATM   26  F   UNL     1     -47.351 -52.641  15.086  1.00  0.00    -0.171 F 
HETATM   27  F   UNL     1     -46.246 -50.828  15.563  1.00  0.00    -0.171 F 
HETATM   28  F   UNL     1     -47.352 -50.972  13.691  1.00  0.00    -0.171 F 
ENDBRANCH  23  25
ENDBRANCH   4  19
TORSDOF 4
ENDMDL
MODEL 2
REMARK VINA RESULT:      -7.2      0.843      1.168
REMARK  4 active torsions:
REMARK  status: ('A' for Active; 'I' for Inactive)
REMARK       I    between atoms: N_1  and  C_2 
REMARK    1  A    between atoms: C_2  and  C_4 
REMARK    2  A    between atoms: C_7  and  N_8 
REMARK       I    between atoms: N_8  and  C_9 
REMARK       I    between atoms: C_9  and  N_11 
REMARK    3  A    between atoms: N_11  and  C_12 
REMARK    4  A    between atoms: C_16  and  C_18 
ROOT
HETATM    1  N   UNL     1     -41.940 -50.326  11.786  1.00  0.00    -0.308 N 
HETATM    2  C   UNL     1     -42.024 -50.695  13.112  1.00  0.00     0.321 C 
HETATM    3  O   UNL     1     -41.671 -50.012  14.065  1.00  0.00    -0.247 OA
HETATM    4  N   UNL     1     -42.621 -51.927  13.277  1.00  0.00    -0.338 N 
HETATM    5  H   UNL     1     -41.969 -51.067  11.102  1.00  0.00     0.170 HD
HETATM    6  H   UNL     1     -42.437 -52.605  12.555  1.00  0.00     0.164 HD
ENDROOT
BRANCH   1   7
HETATM    7  C   UNL     1     -41.583 -49.032  11.341  1.00  0.00     0.051 A 
HETATM    8  C   UNL     1     -42.513 -48.125  10.834  1.00  0.00     0.033 A 
HETATM    9  C   UNL     1     -42.116 -46.841  10.471  1.00  0.00     0.037 A 
HETATM   10  C   UNL     1     -40.782 -46.503  10.612  1.00  0.00     0.100 A 
HETATM   11  N   UNL     1     -39.818 -47.372  11.042  1.00  0.00    -0.359 N 
HETATM   12  C   UNL     1     -40.252 -48.616  11.386  1.00  0.00     0.118 A 
ATOM     13  HN  UNL     1     -38.836 -47.106  11.102  1.00  0.00     0.165 HD
BRANCH  10  14
HETATM   14  C   UNL     1     -40.355 -45.100  10.308  1.00  0.00     0.266 C 
HETATM   15  N   UNL     1     -39.217 -44.975   9.556  1.00  0.00    -0.365 N 
HETATM   16  H   UNL     1     -38.863 -44.052   9.351  1.00  0.00     0.159 HD
HETATM   17  H   UNL     1     -38.724 -45.803   9.247  1.00  0.00     0.159 HD
HETATM   18  O   UNL     1     -40.964 -44.120  10.715  1.00  0.00    -0.266 OA
ENDBRANCH  10  14
ENDBRANCH   1   7
BRANCH   4  19
HETATM   19  C   UNL     1     -42.894 -52.447  14.622  1.00  0.00     0.086 C 
HETATM   20  C   UNL     1     -42.945 -53.982  14.605  1.00  0.00     0.025 C 
HETATM   21  C   UNL     1     -44.155 -54.510  13.830  1.00  0.00     0.003 C 
HETATM   22  C   UNL     1     -45.472 -53.901  14.315  1.00  0.00     0.014 C 
HETATM   23  C   UNL     1     -45.419 -52.368  14.347  1.00  0.00     0.095 C 
HETATM   24  C   UNL     1     -44.220 -51.912  15.194  1.00  0.00     0.038 C 
BRANCH  23  25
HETATM   25  C   UNL     1     -46.726 -51.736  14.824  1.00  0.00     0.391 C 
HETATM   26  F   UNL     1     -47.641 -52.666  15.175  1.00  0.00    -0.171 F 
HETATM   27  F   UNL     1     -46.553 -50.921  15.886  1.00  0.00    -0.171 F 
HETATM   28  F   UNL     1     -47.276 -50.994  13.832  1.00  0.00    -0.171 F 
ENDBRANCH  23  25
ENDBRANCH   4  19
TORSDOF 4
ENDMDL
MODEL 3
REMARK VINA RESULT:      -6.6      3.719      8.243
REMARK  4 active torsions:
REMARK  status: ('A' for Active; 'I' for Inactive)
REMARK       I    between atoms: N_1  and  C_2 
REMARK    1  A    between atoms: C_2  and  C_4 
REMARK    2  A    between atoms: C_7  and  N_8 
REMARK       I    between atoms: N_8  and  C_9 
REMARK       I    between atoms: C_9  and  N_11 
REMARK    3  A    between atoms: N_11  and  C_12 
REMARK    4  A    between atoms: C_16  and  C_18 
ROOT
HETATM    1  N   UNL     1     -43.577 -49.846  13.775  1.00  0.00    -0.308 N 
HETATM    2  C   UNL     1     -42.557 -49.619  12.874  1.00  0.00     0.321 C 
HETATM    3  O   UNL     1     -42.026 -50.470  12.170  1.00  0.00    -0.247 OA
HETATM    4  N   UNL     1     -42.217 -48.287  12.789  1.00  0.00    -0.338 N 
HETATM    5  H   UNL     1     -43.713 -49.153  14.495  1.00  0.00     0.170 HD
HETATM    6  H   UNL     1     -42.286 -47.760  13.646  1.00  0.00     0.164 HD
ENDROOT
BRANCH   1   7
HETATM    7  C   UNL     1     -44.271 -51.071  13.898  1.00  0.00     0.051 A 
HETATM    8  C   UNL     1     -45.445 -51.348  13.197  1.00  0.00     0.033 A 
HETATM    9  C   UNL     1     -46.052 -52.596  13.307  1.00  0.00     0.037 A 
HETATM   10  C   UNL     1     -45.470 -53.535  14.140  1.00  0.00     0.100 A 
HETATM   11  N   UNL     1     -44.359 -53.296  14.899  1.00  0.00    -0.359 N 
HETATM   12  C   UNL     1     -43.799 -52.064  14.758  1.00  0.00     0.118 A 
ATOM     13  HN  UNL     1     -43.974 -53.997  15.531  1.00  0.00     0.165 HD
BRANCH  10  14
HETATM   14  C   UNL     1     -46.063 -54.910  14.203  1.00  0.00     0.266 C 
HETATM   15  N   UNL     1     -47.357 -54.979  14.644  1.00  0.00    -0.365 N 
HETATM   16  H   UNL     1     -47.795 -55.883  14.741  1.00  0.00     0.159 HD
HETATM   17  H   UNL     1     -47.847 -54.132  14.902  1.00  0.00     0.159 HD
HETATM   18  O   UNL     1     -45.435 -55.916  13.902  1.00  0.00    -0.266 OA
ENDBRANCH  10  14
ENDBRANCH   1   7
BRANCH   4  19
HETATM   19  C   UNL     1     -41.223 -47.832  11.810  1.00  0.00     0.086 C 
HETATM   20  C   UNL     1     -40.787 -46.392  12.114  1.00  0.00     0.025 C 
HETATM   21  C   UNL     1     -41.916 -45.386  11.881  1.00  0.00     0.003 C 
HETATM   22  C   UNL     1     -42.534 -45.512  10.486  1.00  0.00     0.014 C 
HETATM   23  C   UNL     1     -42.958 -46.953  10.174  1.00  0.00     0.095 C 
HETATM   24  C   UNL     1     -41.758 -47.895  10.367  1.00  0.00     0.038 C 
BRANCH  23  25
HETATM   25  C   UNL     1     -43.581 -47.104   8.787  1.00  0.00     0.391 C 
HETATM   26  F   UNL     1     -43.379 -46.011   8.019  1.00  0.00    -0.171 F 
HETATM   27  F   UNL     1     -43.097 -48.167   8.111  1.00  0.00    -0.171 F 
HETATM   28  F   UNL     1     -44.922 -47.270   8.893  1.00  0.00    -0.171 F 
ENDBRANCH  23  25
ENDBRANCH   4  19
TORSDOF 4
ENDMDL
MODEL 4
REMARK VINA RESULT:      -6.5      1.645      2.136
REMARK  4 active torsions:
REMARK  status: ('A' for Active; 'I' for Inactive)
REMARK       I    between atoms: N_1  and  C_2 
REMARK    1  A    between atoms: C_2  and  C_4 
REMARK    2  A    between atoms: C_7  and  N_8 
REMARK       I    between atoms: N_8  and  C_9 
REMARK       I    between atoms: C_9  and  N_11 
REMARK    3  A    between atoms: N_11  and  C_12 
REMARK    4  A    between atoms: C_16  and  C_18 
ROOT
HETATM    1  N   UNL     1     -40.870 -50.185  12.819  1.00  0.00    -0.308 N 
HETATM    2  C   UNL     1     -41.491 -50.427  14.027  1.00  0.00     0.321 C 
HETATM    3  O   UNL     1     -41.849 -49.572  14.827  1.00  0.00    -0.247 OA
HETATM    4  N   UNL     1     -41.736 -51.767  14.231  1.00  0.00    -0.338 N 
HETATM    5  H   UNL     1     -40.360 -50.950  12.405  1.00  0.00     0.170 HD
HETATM    6  H   UNL     1     -41.047 -52.402  13.859  1.00  0.00     0.164 HD
ENDROOT
BRANCH   1   7
HETATM    7  C   UNL     1     -40.703 -48.900  12.253  1.00  0.00     0.051 A 
HETATM    8  C   UNL     1     -39.956 -47.896  12.869  1.00  0.00     0.033 A 
HETATM    9  C   UNL     1     -39.771 -46.669  12.236  1.00  0.00     0.037 A 
HETATM   10  C   UNL     1     -40.361 -46.475  10.999  1.00  0.00     0.100 A 
HETATM   11  N   UNL     1     -41.155 -47.400  10.381  1.00  0.00    -0.359 N 
HETATM   12  C   UNL     1     -41.307 -48.584  11.036  1.00  0.00     0.118 A 
ATOM     13  HN  UNL     1     -41.606 -47.214   9.485  1.00  0.00     0.165 HD
BRANCH  10  14
HETATM   14  C   UNL     1     -40.100 -45.194  10.268  1.00  0.00     0.266 C 
HETATM   15  N   UNL     1     -39.050 -45.214   9.389  1.00  0.00    -0.365 N 
HETATM   16  H   UNL     1     -38.807 -44.368   8.896  1.00  0.00     0.159 HD
HETATM   17  H   UNL     1     -38.508 -46.061   9.271  1.00  0.00     0.159 HD
HETATM   18  O   UNL     1     -40.763 -44.182  10.450  1.00  0.00    -0.266 OA
ENDBRANCH  10  14
ENDBRANCH   1   7
BRANCH   4  19
HETATM   19  C   UNL     1     -42.483 -52.216  15.413  1.00  0.00     0.086 C 
HETATM   20  C   UNL     1     -41.791 -53.425  16.059  1.00  0.00     0.025 C 
HETATM   21  C   UNL     1     -41.861 -54.671  15.173  1.00  0.00     0.003 C 
HETATM   22  C   UNL     1     -43.290 -54.998  14.734  1.00  0.00     0.014 C 
HETATM   23  C   UNL     1     -43.989 -53.787  14.101  1.00  0.00     0.095 C 
HETATM   24  C   UNL     1     -43.936 -52.597  15.072  1.00  0.00     0.038 C 
BRANCH  23  25
HETATM   25  C   UNL     1     -45.416 -54.091  13.651  1.00  0.00     0.391 C 
HETATM   26  F   UNL     1     -46.325 -53.779  14.601  1.00  0.00    -0.171 F 
HETATM   27  F   UNL     1     -45.762 -53.423  12.529  1.00  0.00    -0.171 F 
HETATM   28  F   UNL     1     -45.554 -55.414  13.391  1.00  0.00    -0.171 F 
ENDBRANCH  23  25
ENDBRANCH   4  19
TORSDOF 4
ENDMDL
MODEL 5
REMARK VINA RESULT:      -6.3      4.142      4.860
REMARK  4 active torsions:
REMARK  status: ('A' for Active; 'I' for Inactive)
REMARK       I    between atoms: N_1  and  C_2 
REMARK    1  A    between atoms: C_2  and  C_4 
REMARK    2  A    between atoms: C_7  and  N_8 
REMARK       I    between atoms: N_8  and  C_9 
REMARK       I    between atoms: C_9  and  N_11 
REMARK    3  A    between atoms: N_11  and  C_12 
REMARK    4  A    between atoms: C_16  and  C_18 
ROOT
HETATM    1  N   UNL     1     -40.732 -50.129  13.389  1.00  0.00    -0.308 N 
HETATM    2  C   UNL     1     -40.872 -51.409  12.893  1.00  0.00     0.321 C 
HETATM    3  O   UNL     1     -41.160 -51.697  11.738  1.00  0.00    -0.247 OA
HETATM    4  N   UNL     1     -40.589 -52.372  13.838  1.00  0.00    -0.338 N 
HETATM    5  H   UNL     1     -40.799 -50.016  14.389  1.00  0.00     0.170 HD
HETATM    6  H   UNL     1     -40.845 -52.146  14.786  1.00  0.00     0.164 HD
ENDROOT
BRANCH   1   7
HETATM    7  C   UNL     1     -40.740 -48.962  12.592  1.00  0.00     0.051 A 
HETATM    8  C   UNL     1     -41.850 -48.125  12.489  1.00  0.00     0.033 A 
HETATM    9  C   UNL     1     -41.781 -46.953  11.741  1.00  0.00     0.037 A 
HETATM   10  C   UNL     1     -40.594 -46.659  11.095  1.00  0.00     0.100 A 
HETATM   11  N   UNL     1     -39.497 -47.474  11.108  1.00  0.00    -0.359 N 
HETATM   12  C   UNL     1     -39.610 -48.608  11.853  1.00  0.00     0.118 A 
ATOM     13  HN  UNL     1     -38.647 -47.248  10.592  1.00  0.00     0.165 HD
BRANCH  10  14
HETATM   14  C   UNL     1     -40.476 -45.360  10.356  1.00  0.00     0.266 C 
HETATM   15  N   UNL     1     -39.364 -45.224   9.568  1.00  0.00    -0.365 N 
HETATM   16  H   UNL     1     -39.216 -44.355   9.076  1.00  0.00     0.159 HD
HETATM   17  H   UNL     1     -38.688 -45.975   9.516  1.00  0.00     0.159 HD
HETATM   18  O   UNL     1     -41.302 -44.464  10.458  1.00  0.00    -0.266 OA
ENDBRANCH  10  14
ENDBRANCH   1   7
BRANCH   4  19
HETATM   19  C   UNL     1     -40.582 -53.793  13.473  1.00  0.00     0.086 C 
HETATM   20  C   UNL     1     -41.952 -54.428  13.755  1.00  0.00     0.025 C 
HETATM   21  C   UNL     1     -42.253 -54.507  15.253  1.00  0.00     0.003 C 
HETATM   22  C   UNL     1     -41.133 -55.193  16.040  1.00  0.00     0.014 C 
HETATM   23  C   UNL     1     -39.762 -54.570  15.749  1.00  0.00     0.095 C 
HETATM   24  C   UNL     1     -39.502 -54.584  14.234  1.00  0.00     0.038 C 
BRANCH  23  25
HETATM   25  C   UNL     1     -38.628 -55.235  16.526  1.00  0.00     0.391 C 
HETATM   26  F   UNL     1     -37.904 -54.339  17.234  1.00  0.00    -0.171 F 
HETATM   27  F   UNL     1     -39.070 -56.170  17.394  1.00  0.00    -0.171 F 
HETATM   28  F   UNL     1     -37.772 -55.849  15.673  1.00  0.00    -0.171 F 
ENDBRANCH  23  25
ENDBRANCH   4  19
TORSDOF 4
ENDMDL
MODEL 6
REMARK VINA RESULT:      -6.2      6.177      7.928
REMARK  4 active torsions:
REMARK  status: ('A' for Active; 'I' for Inactive)
REMARK       I    between atoms: N_1  and  C_2 
REMARK    1  A    between atoms: C_2  and  C_4 
REMARK    2  A    between atoms: C_7  and  N_8 
REMARK       I    between atoms: N_8  and  C_9 
REMARK       I    between atoms: C_9  and  N_11 
REMARK    3  A    between atoms: N_11  and  C_12 
REMARK    4  A    between atoms: C_16  and  C_18 
ROOT
HETATM    1  N   UNL     1     -41.694 -53.810  15.370  1.00  0.00    -0.308 N 
HETATM    2  C   UNL     1     -42.920 -54.402  15.147  1.00  0.00     0.321 C 
HETATM    3  O   UNL     1     -43.154 -55.602  15.219  1.00  0.00    -0.247 OA
HETATM    4  N   UNL     1     -43.909 -53.479  14.886  1.00  0.00    -0.338 N 
HETATM    5  H   UNL     1     -41.557 -52.886  14.990  1.00  0.00     0.170 HD
HETATM    6  H   UNL     1     -43.622 -52.660  14.373  1.00  0.00     0.164 HD
ENDROOT
BRANCH   1   7
HETATM    7  C   UNL     1     -40.563 -54.490  15.876  1.00  0.00     0.051 A 
HETATM    8  C   UNL     1     -39.481 -54.854  15.076  1.00  0.00     0.033 A 
HETATM    9  C   UNL     1     -38.363 -55.464  15.639  1.00  0.00     0.037 A 
HETATM   10  C   UNL     1     -38.369 -55.711  17.001  1.00  0.00     0.100 A 
HETATM   11  N   UNL     1     -39.428 -55.435  17.820  1.00  0.00    -0.359 N 
HETATM   12  C   UNL     1     -40.497 -54.838  17.226  1.00  0.00     0.118 A 
ATOM     13  HN  UNL     1     -39.417 -55.661  18.814  1.00  0.00     0.165 HD
BRANCH  10  14
HETATM   14  C   UNL     1     -37.141 -56.289  17.636  1.00  0.00     0.266 C 
HETATM   15  N   UNL     1     -37.341 -56.967  18.808  1.00  0.00    -0.365 N 
HETATM   16  H   UNL     1     -36.544 -57.345  19.298  1.00  0.00     0.159 HD
HETATM   17  H   UNL     1     -38.275 -57.049  19.190  1.00  0.00     0.159 HD
HETATM   18  O   UNL     1     -36.023 -56.153  17.158  1.00  0.00    -0.266 OA
ENDBRANCH  10  14
ENDBRANCH   1   7
BRANCH   4  19
HETATM   19  C   UNL     1     -45.304 -53.908  14.724  1.00  0.00     0.086 C 
HETATM   20  C   UNL     1     -45.843 -53.479  13.352  1.00  0.00     0.025 C 
HETATM   21  C   UNL     1     -45.983 -51.959  13.237  1.00  0.00     0.003 C 
HETATM   22  C   UNL     1     -46.800 -51.358  14.384  1.00  0.00     0.014 C 
HETATM   23  C   UNL     1     -46.272 -51.798  15.757  1.00  0.00     0.095 C 
HETATM   24  C   UNL     1     -46.220 -53.333  15.820  1.00  0.00     0.038 C 
BRANCH  23  25
HETATM   25  C   UNL     1     -47.069 -51.207  16.918  1.00  0.00     0.391 C 
HETATM   26  F   UNL     1     -46.550 -50.035  17.345  1.00  0.00    -0.171 F 
HETATM   27  F   UNL     1     -48.362 -50.984  16.603  1.00  0.00    -0.171 F 
HETATM   28  F   UNL     1     -47.052 -52.055  17.976  1.00  0.00    -0.171 F 
ENDBRANCH  23  25
ENDBRANCH   4  19
TORSDOF 4
ENDMDL
MODEL 7
REMARK VINA RESULT:      -6.1      5.057      8.723
REMARK  4 active torsions:
REMARK  status: ('A' for Active; 'I' for Inactive)
REMARK       I    between atoms: N_1  and  C_2 
REMARK    1  A    between atoms: C_2  and  C_4 
REMARK    2  A    between atoms: C_7  and  N_8 
REMARK       I    between atoms: N_8  and  C_9 
REMARK       I    between atoms: C_9  and  N_11 
REMARK    3  A    between atoms: N_11  and  C_12 
REMARK    4  A    between atoms: C_16  and  C_18 
ROOT
HETATM    1  N   UNL     1     -41.205 -54.342  15.977  1.00  0.00    -0.308 N 
HETATM    2  C   UNL     1     -41.339 -54.094  14.627  1.00  0.00     0.321 C 
HETATM    3  O   UNL     1     -40.646 -54.580  13.742  1.00  0.00    -0.247 OA
HETATM    4  N   UNL     1     -42.404 -53.266  14.349  1.00  0.00    -0.338 N 
HETATM    5  H   UNL     1     -41.613 -53.670  16.609  1.00  0.00     0.170 HD
HETATM    6  H   UNL     1     -42.597 -52.552  15.035  1.00  0.00     0.164 HD
ENDROOT
BRANCH   1   7
HETATM    7  C   UNL     1     -40.348 -55.325  16.525  1.00  0.00     0.051 A 
HETATM    8  C   UNL     1     -38.982 -55.115  16.712  1.00  0.00     0.033 A 
HETATM    9  C   UNL     1     -38.197 -56.093  17.316  1.00  0.00     0.037 A 
HETATM   10  C   UNL     1     -38.805 -57.274  17.702  1.00  0.00     0.100 A 
HETATM   11  N   UNL     1     -40.124 -57.559  17.484  1.00  0.00    -0.359 N 
HETATM   12  C   UNL     1     -40.853 -56.573  16.892  1.00  0.00     0.118 A 
ATOM     13  HN  UNL     1     -40.537 -58.453  17.747  1.00  0.00     0.165 HD
BRANCH  10  14
HETATM   14  C   UNL     1     -37.992 -58.302  18.430  1.00  0.00     0.266 C 
HETATM   15  N   UNL     1     -36.848 -57.842  19.024  1.00  0.00    -0.365 N 
HETATM   16  H   UNL     1     -36.243 -58.498  19.497  1.00  0.00     0.159 HD
HETATM   17  H   UNL     1     -36.601 -56.863  18.952  1.00  0.00     0.159 HD
HETATM   18  O   UNL     1     -38.310 -59.483  18.480  1.00  0.00    -0.266 OA
ENDBRANCH  10  14
ENDBRANCH   1   7
BRANCH   4  19
HETATM   19  C   UNL     1     -42.773 -52.968  12.960  1.00  0.00     0.086 C 
HETATM   20  C   UNL     1     -42.155 -51.635  12.513  1.00  0.00     0.025 C 
HETATM   21  C   UNL     1     -42.770 -50.440  13.247  1.00  0.00     0.003 C 
HETATM   22  C   UNL     1     -44.298 -50.420  13.156  1.00  0.00     0.014 C 
HETATM   23  C   UNL     1     -44.916 -51.756  13.588  1.00  0.00     0.095 C 
HETATM   24  C   UNL     1     -44.299 -52.899  12.765  1.00  0.00     0.038 C 
BRANCH  23  25
HETATM   25  C   UNL     1     -46.442 -51.759  13.510  1.00  0.00     0.391 C 
HETATM   26  F   UNL     1     -47.000 -50.976  14.459  1.00  0.00    -0.171 F 
HETATM   27  F   UNL     1     -46.903 -51.334  12.315  1.00  0.00    -0.171 F 
HETATM   28  F   UNL     1     -46.918 -53.013  13.703  1.00  0.00    -0.171 F 
ENDBRANCH  23  25
ENDBRANCH   4  19
TORSDOF 4
ENDMDL
MODEL 8
REMARK VINA RESULT:      -6.0      4.235      8.209
REMARK  4 active torsions:
REMARK  status: ('A' for Active; 'I' for Inactive)
REMARK       I    between atoms: N_1  and  C_2 
REMARK    1  A    between atoms: C_2  and  C_4 
REMARK    2  A    between atoms: C_7  and  N_8 
REMARK       I    between atoms: N_8  and  C_9 
REMARK       I    between atoms: C_9  and  N_11 
REMARK    3  A    between atoms: N_11  and  C_12 
REMARK    4  A    between atoms: C_16  and  C_18 
ROOT
HETATM    1  N   UNL     1     -41.219 -51.272  14.780  1.00  0.00    -0.308 N 
HETATM    2  C   UNL     1     -40.256 -50.955  13.843  1.00  0.00     0.321 C 
HETATM    3  O   UNL     1     -40.119 -51.497  12.753  1.00  0.00    -0.247 OA
HETATM    4  N   UNL     1     -39.472 -49.893  14.235  1.00  0.00    -0.338 N 
HETATM    5  H   UNL     1     -41.044 -50.984  15.730  1.00  0.00     0.170 HD
HETATM    6  H   UNL     1     -39.284 -49.826  15.224  1.00  0.00     0.164 HD
ENDROOT
BRANCH   1   7
HETATM    7  C   UNL     1     -42.293 -52.162  14.547  1.00  0.00     0.051 A 
HETATM    8  C   UNL     1     -42.156 -53.547  14.629  1.00  0.00     0.033 A 
HETATM    9  C   UNL     1     -43.262 -54.375  14.455  1.00  0.00     0.037 A 
HETATM   10  C   UNL     1     -44.484 -53.784  14.183  1.00  0.00     0.100 A 
HETATM   11  N   UNL     1     -44.662 -52.438  14.027  1.00  0.00    -0.359 N 
HETATM   12  C   UNL     1     -43.553 -51.669  14.207  1.00  0.00     0.118 A 
ATOM     13  HN  UNL     1     -45.568 -52.035  13.790  1.00  0.00     0.165 HD
BRANCH  10  14
HETATM   14  C   UNL     1     -45.699 -54.655  14.077  1.00  0.00     0.266 C 
HETATM   15  N   UNL     1     -46.900 -54.024  14.269  1.00  0.00    -0.365 N 
HETATM   16  H   UNL     1     -47.749 -54.569  14.245  1.00  0.00     0.159 HD
HETATM   17  H   UNL     1     -46.922 -53.032  14.469  1.00  0.00     0.159 HD
HETATM   18  O   UNL     1     -45.636 -55.856  13.853  1.00  0.00    -0.266 OA
ENDBRANCH  10  14
ENDBRANCH   1   7
BRANCH   4  19
HETATM   19  C   UNL     1     -38.459 -49.340  13.328  1.00  0.00     0.086 C 
HETATM   20  C   UNL     1     -37.600 -48.295  14.054  1.00  0.00     0.025 C 
HETATM   21  C   UNL     1     -38.399 -47.038  14.408  1.00  0.00     0.003 C 
HETATM   22  C   UNL     1     -39.121 -46.443  13.197  1.00  0.00     0.014 C 
HETATM   23  C   UNL     1     -39.969 -47.489  12.462  1.00  0.00     0.095 C 
HETATM   24  C   UNL     1     -39.087 -48.690  12.082  1.00  0.00     0.038 C 
BRANCH  23  25
HETATM   25  C   UNL     1     -40.704 -46.917  11.251  1.00  0.00     0.391 C 
HETATM   26  F   UNL     1     -39.881 -46.208  10.447  1.00  0.00    -0.171 F 
HETATM   27  F   UNL     1     -41.281 -47.874  10.493  1.00  0.00    -0.171 F 
HETATM   28  F   UNL     1     -41.686 -46.075  11.654  1.00  0.00    -0.171 F 
ENDBRANCH  23  25
ENDBRANCH   4  19
TORSDOF 4
ENDMDL
MODEL 9
REMARK VINA RESULT:      -6.0     13.868     14.915
REMARK  4 active torsions:
REMARK  status: ('A' for Active; 'I' for Inactive)
REMARK       I    between atoms: N_1  and  C_2 
REMARK    1  A    between atoms: C_2  and  C_4 
REMARK    2  A    between atoms: C_7  and  N_8 
REMARK       I    between atoms: N_8  and  C_9 
REMARK       I    between atoms: C_9  and  N_11 
REMARK    3  A    between atoms: N_11  and  C_12 
REMARK    4  A    between atoms: C_16  and  C_18 
ROOT
HETATM    1  N   UNL     1     -47.187 -48.810  -2.921  1.00  0.00    -0.308 N 
HETATM    2  C   UNL     1     -47.746 -49.860  -2.223  1.00  0.00     0.321 C 
HETATM    3  O   UNL     1     -47.129 -50.675  -1.548  1.00  0.00    -0.247 OA
HETATM    4  N   UNL     1     -49.121 -49.875  -2.308  1.00  0.00    -0.338 N 
HETATM    5  H   UNL     1     -47.739 -48.409  -3.664  1.00  0.00     0.170 HD
HETATM    6  H   UNL     1     -49.511 -49.560  -3.184  1.00  0.00     0.164 HD
ENDROOT
BRANCH   1   7
HETATM    7  C   UNL     1     -45.831 -48.423  -2.825  1.00  0.00     0.051 A 
HETATM    8  C   UNL     1     -45.342 -47.636  -1.782  1.00  0.00     0.033 A 
HETATM    9  C   UNL     1     -43.984 -47.339  -1.701  1.00  0.00     0.037 A 
HETATM   10  C   UNL     1     -43.148 -47.829  -2.689  1.00  0.00     0.100 A 
HETATM   11  N   UNL     1     -43.582 -48.549  -3.767  1.00  0.00    -0.359 N 
HETATM   12  C   UNL     1     -44.916 -48.816  -3.803  1.00  0.00     0.118 A 
ATOM     13  HN  UNL     1     -42.946 -48.866  -4.498  1.00  0.00     0.165 HD
BRANCH  10  14
HETATM   14  C   UNL     1     -41.673 -47.591  -2.571  1.00  0.00     0.266 C 
HETATM   15  N   UNL     1     -40.944 -47.805  -3.710  1.00  0.00    -0.365 N 
HETATM   16  H   UNL     1     -39.941 -47.694  -3.678  1.00  0.00     0.159 HD
HETATM   17  H   UNL     1     -41.409 -48.106  -4.557  1.00  0.00     0.159 HD
HETATM   18  O   UNL     1     -41.140 -47.245  -1.525  1.00  0.00    -0.266 OA
ENDBRANCH  10  14
ENDBRANCH   1   7
BRANCH   4  19
HETATM   19  C   UNL     1     -49.904 -50.856  -1.548  1.00  0.00     0.086 C 
HETATM   20  C   UNL     1     -51.341 -50.930  -2.084  1.00  0.00     0.025 C 
HETATM   21  C   UNL     1     -52.126 -49.644  -1.808  1.00  0.00     0.003 C 
HETATM   22  C   UNL     1     -52.087 -49.240  -0.332  1.00  0.00     0.014 C 
HETATM   23  C   UNL     1     -50.653 -49.180   0.210  1.00  0.00     0.095 C 
HETATM   24  C   UNL     1     -49.950 -50.524  -0.045  1.00  0.00     0.038 C 
BRANCH  23  25
HETATM   25  C   UNL     1     -50.588 -48.775   1.681  1.00  0.00     0.391 C 
HETATM   26  F   UNL     1     -49.747 -47.736   1.884  1.00  0.00    -0.171 F 
HETATM   27  F   UNL     1     -51.792 -48.419   2.177  1.00  0.00    -0.171 F 
HETATM   28  F   UNL     1     -50.131 -49.806   2.431  1.00  0.00    -0.171 F 
ENDBRANCH  23  25
ENDBRANCH   4  19
TORSDOF 4
ENDMDL
