MODEL 1
REMARK VINA RESULT:      -5.5      0.000      0.000
REMARK  4 active torsions:
REMARK  status: ('A' for Active; 'I' for Inactive)
REMARK    1  A    between atoms: C_2  and  C_3 
REMARK    2  A    between atoms: C_2  and  N_10 
REMARK    3  A    between atoms: C_3  and  N_4 
REMARK       I    between atoms: N_10  and  C_11 
REMARK    4  A    between atoms: C_11  and  C_13 
ROOT
HETATM    1  N   UNL     1     -43.024 -53.567  13.559  1.00  0.00    -0.355 N 
HETATM    2  C   UNL     1     -43.938 -52.607  13.188  1.00  0.00     0.222 C 
HETATM    3  O   UNL     1     -43.614 -51.430  13.057  1.00  0.00    -0.273 OA
HETATM    4  H   UNL     1     -43.309 -54.537  13.635  1.00  0.00     0.162 HD
ENDROOT
BRANCH   1   5
HETATM    5  C   UNL     1     -41.643 -53.204  13.879  1.00  0.00     0.100 C 
HETATM    6  C   UNL     1     -41.079 -54.188  14.905  1.00  0.00     0.034 C 
BRANCH   5   7
HETATM    7  C   UNL     1     -40.738 -53.143  12.644  1.00  0.00     0.172 C 
BRANCH   7   8
HETATM    8  N   UNL     1     -40.332 -51.795  12.293  1.00  0.00    -0.302 N 
HETATM    9  C   UNL     1     -39.290 -51.082  12.815  1.00  0.00     0.111 A 
HETATM   10  C   UNL     1     -39.279 -49.881  12.147  1.00  0.00     0.037 A 
HETATM   11  C   UNL     1     -40.347 -49.970  11.234  1.00  0.00     0.108 A 
HETATM   12  N   UNL     1     -40.995 -51.132  11.326  1.00  0.00    -0.310 N 
ATOM     13  HN  UNL     1     -41.804 -51.446  10.790  1.00  0.00     0.186 HD
ENDBRANCH   7   8
ENDBRANCH   5   7
ENDBRANCH   1   5
BRANCH   2  14
HETATM   14  C   UNL     1     -45.352 -53.119  12.887  1.00  0.00     0.078 C 
HETATM   15  C   UNL     1     -46.356 -51.954  12.846  1.00  0.00     0.014 C 
HETATM   16  C   UNL     1     -46.639 -51.370  14.233  1.00  0.00     0.001 C 
HETATM   17  C   UNL     1     -47.066 -52.442  15.231  1.00  0.00     0.000 C 
HETATM   18  C   UNL     1     -46.096 -53.619  15.268  1.00  0.00     0.001 C 
HETATM   19  C   UNL     1     -45.841 -54.188  13.873  1.00  0.00     0.014 C 
ENDBRANCH   2  14
TORSDOF 4
ENDMDL
MODEL 2
REMARK VINA RESULT:      -5.3      1.516      2.110
REMARK  4 active torsions:
REMARK  status: ('A' for Active; 'I' for Inactive)
REMARK    1  A    between atoms: C_2  and  C_3 
REMARK    2  A    between atoms: C_2  and  N_10 
REMARK    3  A    between atoms: C_3  and  N_4 
REMARK       I    between atoms: N_10  and  C_11 
REMARK    4  A    between atoms: C_11  and  C_13 
ROOT
HETATM    1  N   UNL     1     -43.289 -51.493  12.545  1.00  0.00    -0.355 N 
HETATM    2  C   UNL     1     -44.169 -51.069  13.515  1.00  0.00     0.222 C 
HETATM    3  O   UNL     1     -43.784 -50.448  14.502  1.00  0.00    -0.273 OA
HETATM    4  H   UNL     1     -43.633 -51.981  11.726  1.00  0.00     0.162 HD
ENDROOT
BRANCH   1   5
HETATM    5  C   UNL     1     -41.849 -51.277  12.692  1.00  0.00     0.100 C 
HETATM    6  C   UNL     1     -41.101 -52.569  12.361  1.00  0.00     0.034 C 
BRANCH   5   7
HETATM    7  C   UNL     1     -41.326 -50.122  11.831  1.00  0.00     0.172 C 
BRANCH   7   8
HETATM    8  N   UNL     1     -39.910 -49.863  12.013  1.00  0.00    -0.302 N 
HETATM    9  C   UNL     1     -39.269 -49.539  13.175  1.00  0.00     0.111 A 
HETATM   10  C   UNL     1     -37.937 -49.430  12.858  1.00  0.00     0.037 A 
HETATM   11  C   UNL     1     -37.873 -49.717  11.481  1.00  0.00     0.108 A 
HETATM   12  N   UNL     1     -39.075 -49.974  10.961  1.00  0.00    -0.310 N 
ATOM     13  HN  UNL     1     -39.307 -50.202   9.995  1.00  0.00     0.186 HD
ENDBRANCH   7   8
ENDBRANCH   5   7
ENDBRANCH   1   5
BRANCH   2  14
HETATM   14  C   UNL     1     -45.648 -51.364  13.243  1.00  0.00     0.078 C 
HETATM   15  C   UNL     1     -46.465 -51.305  14.546  1.00  0.00     0.014 C 
HETATM   16  C   UNL     1     -46.185 -52.491  15.471  1.00  0.00     0.001 C 
HETATM   17  C   UNL     1     -46.363 -53.829  14.761  1.00  0.00     0.000 C 
HETATM   18  C   UNL     1     -45.582 -53.898  13.453  1.00  0.00     0.001 C 
HETATM   19  C   UNL     1     -45.888 -52.709  12.544  1.00  0.00     0.014 C 
ENDBRANCH   2  14
TORSDOF 4
ENDMDL
MODEL 3
REMARK VINA RESULT:      -4.8      1.821      2.571
REMARK  4 active torsions:
REMARK  status: ('A' for Active; 'I' for Inactive)
REMARK    1  A    between atoms: C_2  and  C_3 
REMARK    2  A    between atoms: C_2  and  N_10 
REMARK    3  A    between atoms: C_3  and  N_4 
REMARK       I    between atoms: N_10  and  C_11 
REMARK    4  A    between atoms: C_11  and  C_13 
ROOT
HETATM    1  N   UNL     1     -43.187 -54.799  15.078  1.00  0.00    -0.355 N 
HETATM    2  C   UNL     1     -44.241 -54.006  15.473  1.00  0.00     0.222 C 
HETATM    3  O   UNL     1     -44.103 -53.141  16.333  1.00  0.00    -0.273 OA
HETATM    4  H   UNL     1     -43.318 -55.489  14.347  1.00  0.00     0.162 HD
ENDROOT
BRANCH   1   5
HETATM    5  C   UNL     1     -41.879 -54.685  15.723  1.00  0.00     0.100 C 
HETATM    6  C   UNL     1     -41.618 -55.926  16.578  1.00  0.00     0.034 C 
BRANCH   5   7
HETATM    7  C   UNL     1     -40.736 -54.475  14.724  1.00  0.00     0.172 C 
BRANCH   7   8
HETATM    8  N   UNL     1     -41.020 -53.459  13.727  1.00  0.00    -0.302 N 
HETATM    9  C   UNL     1     -41.312 -52.143  13.947  1.00  0.00     0.111 A 
HETATM   10  C   UNL     1     -41.466 -51.575  12.705  1.00  0.00     0.037 A 
HETATM   11  C   UNL     1     -41.237 -52.629  11.800  1.00  0.00     0.108 A 
HETATM   12  N   UNL     1     -40.973 -53.780  12.420  1.00  0.00    -0.310 N 
ATOM     13  HN  UNL     1     -40.780 -54.690  12.002  1.00  0.00     0.186 HD
ENDBRANCH   7   8
ENDBRANCH   5   7
ENDBRANCH   1   5
BRANCH   2  14
HETATM   14  C   UNL     1     -45.559 -54.232  14.723  1.00  0.00     0.078 C 
HETATM   15  C   UNL     1     -45.315 -54.323  13.206  1.00  0.00     0.014 C 
HETATM   16  C   UNL     1     -44.953 -52.970  12.586  1.00  0.00     0.001 C 
HETATM   17  C   UNL     1     -45.977 -51.891  12.924  1.00  0.00     0.000 C 
HETATM   18  C   UNL     1     -46.253 -51.803  14.421  1.00  0.00     0.001 C 
HETATM   19  C   UNL     1     -46.621 -53.163  15.013  1.00  0.00     0.014 C 
ENDBRANCH   2  14
TORSDOF 4
ENDMDL
MODEL 4
REMARK VINA RESULT:      -4.8      2.685      4.175
REMARK  4 active torsions:
REMARK  status: ('A' for Active; 'I' for Inactive)
REMARK    1  A    between atoms: C_2  and  C_3 
REMARK    2  A    between atoms: C_2  and  N_10 
REMARK    3  A    between atoms: C_3  and  N_4 
REMARK       I    between atoms: N_10  and  C_11 
REMARK    4  A    between atoms: C_11  and  C_13 
ROOT
HETATM    1  N   UNL     1     -39.674 -51.588  12.950  1.00  0.00    -0.355 N 
HETATM    2  C   UNL     1     -40.984 -52.006  12.880  1.00  0.00     0.222 C 
HETATM    3  O   UNL     1     -41.914 -51.205  12.903  1.00  0.00    -0.273 OA
HETATM    4  H   UNL     1     -38.922 -52.265  12.903  1.00  0.00     0.162 HD
ENDROOT
BRANCH   1   5
HETATM    5  C   UNL     1     -39.347 -50.172  13.125  1.00  0.00     0.100 C 
HETATM    6  C   UNL     1     -38.182 -50.034  14.107  1.00  0.00     0.034 C 
BRANCH   5   7
HETATM    7  C   UNL     1     -39.019 -49.466  11.805  1.00  0.00     0.172 C 
BRANCH   7   8
HETATM    8  N   UNL     1     -40.101 -48.633  11.314  1.00  0.00    -0.302 N 
HETATM    9  C   UNL     1     -40.265 -47.290  11.505  1.00  0.00     0.111 A 
HETATM   10  C   UNL     1     -41.406 -46.946  10.823  1.00  0.00     0.037 A 
HETATM   11  C   UNL     1     -41.854 -48.148  10.244  1.00  0.00     0.108 A 
HETATM   12  N   UNL     1     -41.064 -49.180  10.547  1.00  0.00    -0.310 N 
ATOM     13  HN  UNL     1     -41.166 -50.155  10.265  1.00  0.00     0.186 HD
ENDBRANCH   7   8
ENDBRANCH   5   7
ENDBRANCH   1   5
BRANCH   2  14
HETATM   14  C   UNL     1     -41.189 -53.515  12.704  1.00  0.00     0.078 C 
HETATM   15  C   UNL     1     -42.609 -53.926  13.133  1.00  0.00     0.014 C 
HETATM   16  C   UNL     1     -42.807 -53.866  14.650  1.00  0.00     0.001 C 
HETATM   17  C   UNL     1     -41.744 -54.663  15.399  1.00  0.00     0.000 C 
HETATM   18  C   UNL     1     -40.329 -54.289  14.970  1.00  0.00     0.001 C 
HETATM   19  C   UNL     1     -40.156 -54.367  13.454  1.00  0.00     0.014 C 
ENDBRANCH   2  14
TORSDOF 4
ENDMDL
MODEL 5
REMARK VINA RESULT:      -4.7      2.603      3.537
REMARK  4 active torsions:
REMARK  status: ('A' for Active; 'I' for Inactive)
REMARK    1  A    between atoms: C_2  and  C_3 
REMARK    2  A    between atoms: C_2  and  N_10 
REMARK    3  A    between atoms: C_3  and  N_4 
REMARK       I    between atoms: N_10  and  C_11 
REMARK    4  A    between atoms: C_11  and  C_13 
ROOT
HETATM    1  N   UNL     1     -43.952 -50.298  12.551  1.00  0.00    -0.355 N 
HETATM    2  C   UNL     1     -44.485 -50.701  13.755  1.00  0.00     0.222 C 
HETATM    3  O   UNL     1     -43.977 -50.367  14.823  1.00  0.00    -0.273 OA
HETATM    4  H   UNL     1     -44.403 -50.564  11.683  1.00  0.00     0.162 HD
ENDROOT
BRANCH   1   5
HETATM    5  C   UNL     1     -42.718 -49.514  12.501  1.00  0.00     0.100 C 
HETATM    6  C   UNL     1     -41.545 -50.426  12.141  1.00  0.00     0.034 C 
BRANCH   5   7
HETATM    7  C   UNL     1     -42.797 -48.335  11.525  1.00  0.00     0.172 C 
BRANCH   7   8
HETATM    8  N   UNL     1     -41.664 -47.434  11.617  1.00  0.00    -0.302 N 
HETATM    9  C   UNL     1     -41.210 -46.785  12.730  1.00  0.00     0.111 A 
HETATM   10  C   UNL     1     -40.098 -46.082  12.334  1.00  0.00     0.037 A 
HETATM   11  C   UNL     1     -39.956 -46.379  10.965  1.00  0.00     0.108 A 
HETATM   12  N   UNL     1     -40.913 -47.197  10.523  1.00  0.00    -0.310 N 
ATOM     13  HN  UNL     1     -41.045 -47.559   9.579  1.00  0.00     0.186 HD
ENDBRANCH   7   8
ENDBRANCH   5   7
ENDBRANCH   1   5
BRANCH   2  14
HETATM   14  C   UNL     1     -45.775 -51.524  13.667  1.00  0.00     0.078 C 
HETATM   15  C   UNL     1     -46.083 -52.200  15.015  1.00  0.00     0.014 C 
HETATM   16  C   UNL     1     -45.124 -53.352  15.328  1.00  0.00     0.001 C 
HETATM   17  C   UNL     1     -45.059 -54.370  14.194  1.00  0.00     0.000 C 
HETATM   18  C   UNL     1     -44.780 -53.715  12.844  1.00  0.00     0.001 C 
HETATM   19  C   UNL     1     -45.757 -52.578  12.552  1.00  0.00     0.014 C 
ENDBRANCH   2  14
TORSDOF 4
ENDMDL
MODEL 6
REMARK VINA RESULT:      -4.7      3.117      5.100
REMARK  4 active torsions:
REMARK  status: ('A' for Active; 'I' for Inactive)
REMARK    1  A    between atoms: C_2  and  C_3 
REMARK    2  A    between atoms: C_2  and  N_10 
REMARK    3  A    between atoms: C_3  and  N_4 
REMARK       I    between atoms: N_10  and  C_11 
REMARK    4  A    between atoms: C_11  and  C_13 
ROOT
HETATM    1  N   UNL     1     -41.151 -50.652  12.145  1.00  0.00    -0.355 N 
HETATM    2  C   UNL     1     -41.657 -51.920  12.320  1.00  0.00     0.222 C 
HETATM    3  O   UNL     1     -42.850 -52.162  12.152  1.00  0.00    -0.273 OA
HETATM    4  H   UNL     1     -40.159 -50.482  12.264  1.00  0.00     0.162 HD
ENDROOT
BRANCH   1   5
HETATM    5  C   UNL     1     -42.031 -49.530  11.819  1.00  0.00     0.100 C 
HETATM    6  C   UNL     1     -42.567 -48.908  13.110  1.00  0.00     0.034 C 
BRANCH   5   7
HETATM    7  C   UNL     1     -41.348 -48.464  10.957  1.00  0.00     0.172 C 
BRANCH   7   8
HETATM    8  N   UNL     1     -42.271 -47.725  10.116  1.00  0.00    -0.302 N 
HETATM    9  C   UNL     1     -42.778 -46.476  10.341  1.00  0.00     0.111 A 
HETATM   10  C   UNL     1     -43.571 -46.187   9.257  1.00  0.00     0.037 A 
HETATM   11  C   UNL     1     -43.470 -47.320   8.428  1.00  0.00     0.108 A 
HETATM   12  N   UNL     1     -42.685 -48.262   8.952  1.00  0.00    -0.310 N 
ATOM     13  HN  UNL     1     -42.451 -49.175   8.562  1.00  0.00     0.186 HD
ENDBRANCH   7   8
ENDBRANCH   5   7
ENDBRANCH   1   5
BRANCH   2  14
HETATM   14  C   UNL     1     -40.630 -53.004  12.666  1.00  0.00     0.078 C 
HETATM   15  C   UNL     1     -41.332 -54.310  13.079  1.00  0.00     0.014 C 
HETATM   16  C   UNL     1     -41.998 -54.211  14.454  1.00  0.00     0.001 C 
HETATM   17  C   UNL     1     -41.028 -53.733  15.529  1.00  0.00     0.000 C 
HETATM   18  C   UNL     1     -40.302 -52.453  15.128  1.00  0.00     0.001 C 
HETATM   19  C   UNL     1     -39.638 -52.583  13.758  1.00  0.00     0.014 C 
ENDBRANCH   2  14
TORSDOF 4
ENDMDL
MODEL 7
REMARK VINA RESULT:      -4.5      1.957      5.450
REMARK  4 active torsions:
REMARK  status: ('A' for Active; 'I' for Inactive)
REMARK    1  A    between atoms: C_2  and  C_3 
REMARK    2  A    between atoms: C_2  and  N_10 
REMARK    3  A    between atoms: C_3  and  N_4 
REMARK       I    between atoms: N_10  and  C_11 
REMARK    4  A    between atoms: C_11  and  C_13 
ROOT
HETATM    1  N   UNL     1     -42.622 -52.493  12.844  1.00  0.00    -0.355 N 
HETATM    2  C   UNL     1     -41.421 -52.150  12.267  1.00  0.00     0.222 C 
HETATM    3  O   UNL     1     -40.589 -53.002  11.965  1.00  0.00    -0.273 OA
HETATM    4  H   UNL     1     -43.304 -51.776  13.061  1.00  0.00     0.162 HD
ENDROOT
BRANCH   1   5
HETATM    5  C   UNL     1     -42.922 -53.885  13.181  1.00  0.00     0.100 C 
HETATM    6  C   UNL     1     -42.530 -54.156  14.635  1.00  0.00     0.034 C 
BRANCH   5   7
HETATM    7  C   UNL     1     -44.391 -54.255  12.947  1.00  0.00     0.172 C 
BRANCH   7   8
HETATM    8  N   UNL     1     -45.303 -53.142  13.143  1.00  0.00    -0.302 N 
HETATM    9  C   UNL     1     -45.744 -52.632  14.330  1.00  0.00     0.111 A 
HETATM   10  C   UNL     1     -46.554 -51.569  14.010  1.00  0.00     0.037 A 
HETATM   11  C   UNL     1     -46.529 -51.513  12.604  1.00  0.00     0.108 A 
HETATM   12  N   UNL     1     -45.774 -52.474  12.072  1.00  0.00    -0.310 N 
ATOM     13  HN  UNL     1     -45.594 -52.661  11.085  1.00  0.00     0.186 HD
ENDBRANCH   7   8
ENDBRANCH   5   7
ENDBRANCH   1   5
BRANCH   2  14
HETATM   14  C   UNL     1     -41.229 -50.658  11.972  1.00  0.00     0.078 C 
HETATM   15  C   UNL     1     -39.736 -50.287  11.984  1.00  0.00     0.014 C 
HETATM   16  C   UNL     1     -39.138 -50.297  13.394  1.00  0.00     0.001 C 
HETATM   17  C   UNL     1     -39.937 -49.431  14.363  1.00  0.00     0.000 C 
HETATM   18  C   UNL     1     -41.425 -49.766  14.346  1.00  0.00     0.001 C 
HETATM   19  C   UNL     1     -41.998 -49.738  12.930  1.00  0.00     0.014 C 
ENDBRANCH   2  14
TORSDOF 4
ENDMDL
MODEL 8
REMARK VINA RESULT:      -4.5     15.899     18.510
REMARK  4 active torsions:
REMARK  status: ('A' for Active; 'I' for Inactive)
REMARK    1  A    between atoms: C_2  and  C_3 
REMARK    2  A    between atoms: C_2  and  N_10 
REMARK    3  A    between atoms: C_3  and  N_4 
REMARK       I    between atoms: N_10  and  C_11 
REMARK    4  A    between atoms: C_11  and  C_13 
ROOT
HETATM    1  N   UNL     1     -26.993 -60.482  17.944  1.00  0.00    -0.355 N 
HETATM    2  C   UNL     1     -28.086 -61.109  17.390  1.00  0.00     0.222 C 
HETATM    3  O   UNL     1     -29.043 -61.453  18.079  1.00  0.00    -0.273 OA
HETATM    4  H   UNL     1     -26.226 -60.183  17.352  1.00  0.00     0.162 HD
ENDROOT
BRANCH   1   5
HETATM    5  C   UNL     1     -26.903 -60.266  19.388  1.00  0.00     0.100 C 
HETATM    6  C   UNL     1     -25.494 -60.613  19.871  1.00  0.00     0.034 C 
BRANCH   5   7
HETATM    7  C   UNL     1     -27.272 -58.838  19.803  1.00  0.00     0.172 C 
BRANCH   7   8
HETATM    8  N   UNL     1     -28.653 -58.700  20.229  1.00  0.00    -0.302 N 
HETATM    9  C   UNL     1     -29.120 -58.606  21.509  1.00  0.00     0.111 A 
HETATM   10  C   UNL     1     -30.481 -58.453  21.407  1.00  0.00     0.037 A 
HETATM   11  C   UNL     1     -30.738 -58.457  20.023  1.00  0.00     0.108 A 
HETATM   12  N   UNL     1     -29.627 -58.615  19.302  1.00  0.00    -0.310 N 
ATOM     13  HN  UNL     1     -29.536 -58.661  18.288  1.00  0.00     0.186 HD
ENDBRANCH   7   8
ENDBRANCH   5   7
ENDBRANCH   1   5
BRANCH   2  14
HETATM   14  C   UNL     1     -28.052 -61.281  15.867  1.00  0.00     0.078 C 
HETATM   15  C   UNL     1     -28.929 -62.468  15.432  1.00  0.00     0.014 C 
HETATM   16  C   UNL     1     -28.316 -63.821  15.806  1.00  0.00     0.001 C 
HETATM   17  C   UNL     1     -26.886 -63.965  15.295  1.00  0.00     0.000 C 
HETATM   18  C   UNL     1     -26.007 -62.784  15.693  1.00  0.00     0.001 C 
HETATM   19  C   UNL     1     -26.636 -61.448  15.300  1.00  0.00     0.014 C 
ENDBRANCH   2  14
TORSDOF 4
ENDMDL
MODEL 9
REMARK VINA RESULT:      -4.5      2.374      4.289
REMARK  4 active torsions:
REMARK  status: ('A' for Active; 'I' for Inactive)
REMARK    1  A    between atoms: C_2  and  C_3 
REMARK    2  A    between atoms: C_2  and  N_10 
REMARK    3  A    between atoms: C_3  and  N_4 
REMARK       I    between atoms: N_10  and  C_11 
REMARK    4  A    between atoms: C_11  and  C_13 
ROOT
HETATM    1  N   UNL     1     -42.548 -52.638  13.976  1.00  0.00    -0.355 N 
HETATM    2  C   UNL     1     -43.795 -52.697  13.396  1.00  0.00     0.222 C 
HETATM    3  O   UNL     1     -44.288 -53.766  13.045  1.00  0.00    -0.273 OA
HETATM    4  H   UNL     1     -42.173 -51.748  14.282  1.00  0.00     0.162 HD
ENDROOT
BRANCH   1   5
HETATM    5  C   UNL     1     -41.735 -53.844  14.131  1.00  0.00     0.100 C 
HETATM    6  C   UNL     1     -40.907 -54.070  12.866  1.00  0.00     0.034 C 
BRANCH   5   7
HETATM    7  C   UNL     1     -40.824 -53.798  15.363  1.00  0.00     0.172 C 
BRANCH   7   8
HETATM    8  N   UNL     1     -40.702 -55.077  16.037  1.00  0.00    -0.302 N 
HETATM    9  C   UNL     1     -39.549 -55.739  16.355  1.00  0.00     0.111 A 
HETATM   10  C   UNL     1     -39.936 -56.880  17.015  1.00  0.00     0.037 A 
HETATM   11  C   UNL     1     -41.341 -56.812  17.054  1.00  0.00     0.108 A 
HETATM   12  N   UNL     1     -41.812 -55.718  16.452  1.00  0.00    -0.310 N 
ATOM     13  HN  UNL     1     -42.784 -55.433  16.334  1.00  0.00     0.186 HD
ENDBRANCH   7   8
ENDBRANCH   5   7
ENDBRANCH   1   5
BRANCH   2  14
HETATM   14  C   UNL     1     -44.540 -51.361  13.286  1.00  0.00     0.078 C 
HETATM   15  C   UNL     1     -44.364 -50.531  14.570  1.00  0.00     0.014 C 
HETATM   16  C   UNL     1     -45.146 -51.106  15.755  1.00  0.00     0.001 C 
HETATM   17  C   UNL     1     -46.619 -51.317  15.422  1.00  0.00     0.000 C 
HETATM   18  C   UNL     1     -46.815 -52.115  14.138  1.00  0.00     0.001 C 
HETATM   19  C   UNL     1     -46.033 -51.515  12.970  1.00  0.00     0.014 C 
ENDBRANCH   2  14
TORSDOF 4
ENDMDL
