MODEL 1
REMARK VINA RESULT:      -3.3      0.000      0.000
REMARK  4 active torsions:
REMARK  status: ('A' for Active; 'I' for Inactive)
REMARK    1  A    between atoms: O_1  and  C_2 
REMARK    2  A    between atoms: C_2  and  O_4 
REMARK    3  A    between atoms: C_10  and  N_21 
REMARK    4  A    between atoms: N_14  and  C_15 
ROOT
HETATM    1  C   UNL     1     -46.831 -65.981  14.808  1.00  0.00     0.278 C 
HETATM    2  O   UNL     1     -46.828 -66.605  13.774  1.00  0.00    -0.620 OA
ENDROOT
BRANCH   1   3
HETATM    3  O   UNL     1     -46.250 -64.794  15.023  1.00  0.00    -0.750 OA
HETATM    4  H   UNL     1     -45.401 -64.952  15.498  1.00  0.00     0.170 HD
ENDBRANCH   1   3
BRANCH   1   5
HETATM    5  O   UNL     1     -47.379 -66.365  15.955  1.00  0.00    -0.750 OA
HETATM    6  H   UNL     1     -46.587 -66.544  16.501  1.00  0.00     0.170 HD
ENDBRANCH   1   5
TORSDOF 4
ENDMDL
MODEL 2
REMARK VINA RESULT:      -3.3      1.007      2.306
REMARK  4 active torsions:
REMARK  status: ('A' for Active; 'I' for Inactive)
REMARK    1  A    between atoms: O_1  and  C_2 
REMARK    2  A    between atoms: C_2  and  O_4 
REMARK    3  A    between atoms: C_10  and  N_21 
REMARK    4  A    between atoms: N_14  and  C_15 
ROOT
HETATM    1  C   UNL     1     -47.275 -66.555  14.847  1.00  0.00     0.278 C 
HETATM    2  O   UNL     1     -46.774 -65.739  15.583  1.00  0.00    -0.620 OA
ENDROOT
BRANCH   1   3
HETATM    3  O   UNL     1     -48.331 -67.332  15.121  1.00  0.00    -0.750 OA
HETATM    4  H   UNL     1     -48.018 -68.266  15.167  1.00  0.00     0.170 HD
ENDBRANCH   1   3
BRANCH   1   5
HETATM    5  O   UNL     1     -46.853 -66.878  13.630  1.00  0.00    -0.750 OA
HETATM    6  H   UNL     1     -45.905 -66.637  13.680  1.00  0.00     0.170 HD
ENDBRANCH   1   5
TORSDOF 4
ENDMDL
MODEL 3
REMARK VINA RESULT:      -3.1     18.126     18.969
REMARK  4 active torsions:
REMARK  status: ('A' for Active; 'I' for Inactive)
REMARK    1  A    between atoms: O_1  and  C_2 
REMARK    2  A    between atoms: C_2  and  O_4 
REMARK    3  A    between atoms: C_10  and  N_21 
REMARK    4  A    between atoms: N_14  and  C_15 
ROOT
HETATM    1  C   UNL     1     -35.850 -51.827   8.679  1.00  0.00     0.278 C 
HETATM    2  O   UNL     1     -36.155 -50.668   8.534  1.00  0.00    -0.620 OA
ENDROOT
BRANCH   1   3
HETATM    3  O   UNL     1     -36.199 -52.620   9.700  1.00  0.00    -0.750 OA
HETATM    4  H   UNL     1     -36.336 -52.052  10.494  1.00  0.00     0.170 HD
ENDBRANCH   1   3
BRANCH   1   5
HETATM    5  O   UNL     1     -35.072 -52.540   7.874  1.00  0.00    -0.750 OA
HETATM    6  H   UNL     1     -34.192 -52.148   8.051  1.00  0.00     0.170 HD
ENDBRANCH   1   5
TORSDOF 4
ENDMDL
MODEL 4
REMARK VINA RESULT:      -3.0      9.134      9.688
REMARK  4 active torsions:
REMARK  status: ('A' for Active; 'I' for Inactive)
REMARK    1  A    between atoms: O_1  and  C_2 
REMARK    2  A    between atoms: C_2  and  O_4 
REMARK    3  A    between atoms: C_10  and  N_21 
REMARK    4  A    between atoms: N_14  and  C_15 
ROOT
HETATM    1  C   UNL     1     -51.486 -59.053  19.582  1.00  0.00     0.278 C 
HETATM    2  O   UNL     1     -52.208 -58.473  20.358  1.00  0.00    -0.620 OA
ENDROOT
BRANCH   1   3
HETATM    3  O   UNL     1     -51.790 -60.153  18.882  1.00  0.00    -0.750 OA
HETATM    4  H   UNL     1     -52.582 -59.953  18.329  1.00  0.00     0.170 HD
ENDBRANCH   1   3
BRANCH   1   5
HETATM    5  O   UNL     1     -50.228 -58.739  19.297  1.00  0.00    -0.750 OA
HETATM    6  H   UNL     1     -49.849 -58.610  20.191  1.00  0.00     0.170 HD
ENDBRANCH   1   5
TORSDOF 4
ENDMDL
MODEL 5
REMARK VINA RESULT:      -3.0     29.355     29.676
REMARK  4 active torsions:
REMARK  status: ('A' for Active; 'I' for Inactive)
REMARK    1  A    between atoms: O_1  and  C_2 
REMARK    2  A    between atoms: C_2  and  O_4 
REMARK    3  A    between atoms: C_10  and  N_21 
REMARK    4  A    between atoms: N_14  and  C_15 
ROOT
HETATM    1  C   UNL     1     -27.107 -53.526  -3.465  1.00  0.00     0.278 C 
HETATM    2  O   UNL     1     -27.821 -52.892  -4.205  1.00  0.00    -0.620 OA
ENDROOT
BRANCH   1   3
HETATM    3  O   UNL     1     -26.952 -54.855  -3.452  1.00  0.00    -0.750 OA
HETATM    4  H   UNL     1     -26.295 -55.079  -2.752  1.00  0.00     0.170 HD
ENDBRANCH   1   3
BRANCH   1   5
HETATM    5  O   UNL     1     -26.361 -53.032  -2.483  1.00  0.00    -0.750 OA
HETATM    6  H   UNL     1     -26.116 -53.844  -1.994  1.00  0.00     0.170 HD
ENDBRANCH   1   5
TORSDOF 4
ENDMDL
MODEL 6
REMARK VINA RESULT:      -3.0      9.132      9.589
REMARK  4 active torsions:
REMARK  status: ('A' for Active; 'I' for Inactive)
REMARK    1  A    between atoms: O_1  and  C_2 
REMARK    2  A    between atoms: C_2  and  O_4 
REMARK    3  A    between atoms: C_10  and  N_21 
REMARK    4  A    between atoms: N_14  and  C_15 
ROOT
HETATM    1  C   UNL     1     -51.522 -59.085  19.578  1.00  0.00     0.278 C 
HETATM    2  O   UNL     1     -52.288 -58.486  20.294  1.00  0.00    -0.620 OA
ENDROOT
BRANCH   1   3
HETATM    3  O   UNL     1     -50.255 -58.748  19.308  1.00  0.00    -0.750 OA
HETATM    4  H   UNL     1     -50.219 -57.770  19.186  1.00  0.00     0.170 HD
ENDBRANCH   1   3
BRANCH   1   5
HETATM    5  O   UNL     1     -51.796 -60.181  18.880  1.00  0.00    -0.750 OA
HETATM    6  H   UNL     1     -51.905 -59.818  17.977  1.00  0.00     0.170 HD
ENDBRANCH   1   5
TORSDOF 4
ENDMDL
MODEL 7
REMARK VINA RESULT:      -2.8     19.533     20.028
REMARK  4 active torsions:
REMARK  status: ('A' for Active; 'I' for Inactive)
REMARK    1  A    between atoms: O_1  and  C_2 
REMARK    2  A    between atoms: C_2  and  O_4 
REMARK    3  A    between atoms: C_10  and  N_21 
REMARK    4  A    between atoms: N_14  and  C_15 
ROOT
HETATM    1  C   UNL     1     -43.520 -47.572   7.916  1.00  0.00     0.278 C 
HETATM    2  O   UNL     1     -44.566 -47.812   8.470  1.00  0.00    -0.620 OA
ENDROOT
BRANCH   1   3
HETATM    3  O   UNL     1     -42.872 -46.400   7.913  1.00  0.00    -0.750 OA
HETATM    4  H   UNL     1     -43.479 -45.717   7.544  1.00  0.00     0.170 HD
ENDBRANCH   1   3
BRANCH   1   5
HETATM    5  O   UNL     1     -42.820 -48.412   7.163  1.00  0.00    -0.750 OA
HETATM    6  H   UNL     1     -43.477 -48.661   6.482  1.00  0.00     0.170 HD
ENDBRANCH   1   5
TORSDOF 4
ENDMDL
MODEL 8
REMARK VINA RESULT:      -2.7     18.732     19.056
REMARK  4 active torsions:
REMARK  status: ('A' for Active; 'I' for Inactive)
REMARK    1  A    between atoms: O_1  and  C_2 
REMARK    2  A    between atoms: C_2  and  O_4 
REMARK    3  A    between atoms: C_10  and  N_21 
REMARK    4  A    between atoms: N_14  and  C_15 
ROOT
HETATM    1  C   UNL     1     -46.378 -47.979   8.699  1.00  0.00     0.278 C 
HETATM    2  O   UNL     1     -47.362 -47.340   8.986  1.00  0.00    -0.620 OA
ENDROOT
BRANCH   1   3
HETATM    3  O   UNL     1     -45.317 -48.204   9.485  1.00  0.00    -0.750 OA
HETATM    4  H   UNL     1     -45.643 -48.586  10.334  1.00  0.00     0.170 HD
ENDBRANCH   1   3
BRANCH   1   5
HETATM    5  O   UNL     1     -46.130 -48.554   7.528  1.00  0.00    -0.750 OA
HETATM    6  H   UNL     1     -46.710 -49.342   7.569  1.00  0.00     0.170 HD
ENDBRANCH   1   5
TORSDOF 4
ENDMDL
MODEL 9
REMARK VINA RESULT:      -2.7     10.767     11.178
REMARK  4 active torsions:
REMARK  status: ('A' for Active; 'I' for Inactive)
REMARK    1  A    between atoms: O_1  and  C_2 
REMARK    2  A    between atoms: C_2  and  O_4 
REMARK    3  A    between atoms: C_10  and  N_21 
REMARK    4  A    between atoms: N_14  and  C_15 
ROOT
HETATM    1  C   UNL     1     -45.643 -55.042  14.037  1.00  0.00     0.278 C 
HETATM    2  O   UNL     1     -44.596 -55.462  14.468  1.00  0.00    -0.620 OA
ENDROOT
BRANCH   1   3
HETATM    3  O   UNL     1     -46.867 -55.328  14.499  1.00  0.00    -0.750 OA
HETATM    4  H   UNL     1     -47.327 -54.477  14.690  1.00  0.00     0.170 HD
ENDBRANCH   1   3
BRANCH   1   5
HETATM    5  O   UNL     1     -45.795 -54.243  12.987  1.00  0.00    -0.750 OA
HETATM    6  H   UNL     1     -46.732 -53.975  13.076  1.00  0.00     0.170 HD
ENDBRANCH   1   5
TORSDOF 4
ENDMDL
