MODEL 1
REMARK VINA RESULT:      -5.7      0.000      0.000
REMARK  4 active torsions:
REMARK  status: ('A' for Active; 'I' for Inactive)
REMARK    1  A    between atoms: C_2  and  C_3 
REMARK    2  A    between atoms: C_2  and  N_10 
REMARK    3  A    between atoms: C_3  and  N_4 
REMARK       I    between atoms: N_10  and  C_11 
REMARK    4  A    between atoms: C_11  and  C_13 
REMARK       I    between atoms: N_17  and  C_18 
ROOT
HETATM    1  N   UNL     1     -41.777 -49.802  11.480  1.00  0.00    -0.353 N 
HETATM    2  C   UNL     1     -42.222 -50.590  12.514  1.00  0.00     0.241 C 
HETATM    3  O   UNL     1     -42.679 -50.128  13.556  1.00  0.00    -0.271 OA
HETATM    4  H   UNL     1     -41.260 -50.264  10.732  1.00  0.00     0.163 HD
ENDROOT
BRANCH   1   5
HETATM    5  C   UNL     1     -41.920 -48.346  11.471  1.00  0.00     0.098 C 
HETATM    6  C   UNL     1     -40.745 -47.749  12.245  1.00  0.00     0.034 C 
BRANCH   5   7
HETATM    7  C   UNL     1     -41.998 -47.783  10.032  1.00  0.00     0.153 C 
BRANCH   7   8
HETATM    8  N   UNL     1     -43.335 -47.732   9.477  1.00  0.00    -0.350 N 
HETATM    9  C   UNL     1     -44.493 -47.553  10.181  1.00  0.00     0.108 A 
HETATM   10  C   UNL     1     -45.485 -47.534   9.228  1.00  0.00     0.106 A 
HETATM   11  N   UNL     1     -44.955 -47.694   7.974  1.00  0.00    -0.361 N 
HETATM   12  C   UNL     1     -43.658 -47.789   8.152  1.00  0.00     0.182 A 
ATOM     13  HN  UNL     1     -45.462 -47.731   7.089  1.00  0.00     0.166 HD
ENDBRANCH   7   8
ENDBRANCH   5   7
ENDBRANCH   1   5
BRANCH   2  14
HETATM   14  C   UNL     1     -42.003 -52.096  12.322  1.00  0.00     0.179 C 
HETATM   15  C   UNL     1     -43.371 -52.789  12.476  1.00  0.00     0.037 C 
HETATM   16  C   UNL     1     -43.121 -54.071  13.263  1.00  0.00     0.022 C 
HETATM   17  C   UNL     1     -41.618 -54.182  13.376  1.00  0.00     0.127 C 
HETATM   18  N   UNL     1     -41.130 -52.820  13.261  1.00  0.00    -0.339 N 
HETATM   19  C   UNL     1     -39.759 -52.654  13.402  1.00  0.00     0.216 C 
HETATM   20  O   UNL     1     -39.025 -53.587  13.735  1.00  0.00    -0.274 OA
HETATM   21  C   UNL     1     -39.181 -51.268  13.291  1.00  0.00     0.117 C 
ENDBRANCH   2  14
TORSDOF 4
ENDMDL
MODEL 2
REMARK VINA RESULT:      -5.6      3.459      5.864
REMARK  4 active torsions:
REMARK  status: ('A' for Active; 'I' for Inactive)
REMARK    1  A    between atoms: C_2  and  C_3 
REMARK    2  A    between atoms: C_2  and  N_10 
REMARK    3  A    between atoms: C_3  and  N_4 
REMARK       I    between atoms: N_10  and  C_11 
REMARK    4  A    between atoms: C_11  and  C_13 
REMARK       I    between atoms: N_17  and  C_18 
ROOT
HETATM    1  N   UNL     1     -43.932 -51.221  13.697  1.00  0.00    -0.353 N 
HETATM    2  C   UNL     1     -44.728 -52.279  13.326  1.00  0.00     0.241 C 
HETATM    3  O   UNL     1     -44.643 -52.826  12.231  1.00  0.00    -0.271 OA
HETATM    4  H   UNL     1     -44.186 -50.724  14.550  1.00  0.00     0.163 HD
ENDROOT
BRANCH   1   5
HETATM    5  C   UNL     1     -42.829 -50.729  12.871  1.00  0.00     0.098 C 
HETATM    6  C   UNL     1     -43.056 -49.239  12.615  1.00  0.00     0.034 C 
BRANCH   5   7
HETATM    7  C   UNL     1     -41.454 -50.990  13.529  1.00  0.00     0.153 C 
BRANCH   7   8
HETATM    8  N   UNL     1     -40.953 -52.339  13.361  1.00  0.00    -0.350 N 
HETATM    9  C   UNL     1     -40.207 -53.040  14.267  1.00  0.00     0.108 A 
HETATM   10  C   UNL     1     -40.010 -54.270  13.685  1.00  0.00     0.106 A 
HETATM   11  N   UNL     1     -40.619 -54.329  12.457  1.00  0.00    -0.361 N 
HETATM   12  C   UNL     1     -41.196 -53.160  12.298  1.00  0.00     0.182 A 
ATOM     13  HN  UNL     1     -40.622 -55.114  11.806  1.00  0.00     0.166 HD
ENDBRANCH   7   8
ENDBRANCH   5   7
ENDBRANCH   1   5
BRANCH   2  14
HETATM   14  C   UNL     1     -45.813 -52.659  14.342  1.00  0.00     0.179 C 
HETATM   15  C   UNL     1     -46.742 -51.440  14.510  1.00  0.00     0.037 C 
HETATM   16  C   UNL     1     -47.074 -51.350  15.995  1.00  0.00     0.022 C 
HETATM   17  C   UNL     1     -46.497 -52.605  16.608  1.00  0.00     0.127 C 
HETATM   18  N   UNL     1     -45.421 -52.999  15.719  1.00  0.00    -0.339 N 
HETATM   19  C   UNL     1     -44.684 -54.107  16.113  1.00  0.00     0.216 C 
HETATM   20  O   UNL     1     -44.852 -54.639  17.213  1.00  0.00    -0.274 OA
HETATM   21  C   UNL     1     -43.553 -54.576  15.237  1.00  0.00     0.117 C 
ENDBRANCH   2  14
TORSDOF 4
ENDMDL
MODEL 3
REMARK VINA RESULT:      -5.5      2.336      3.350
REMARK  4 active torsions:
REMARK  status: ('A' for Active; 'I' for Inactive)
REMARK    1  A    between atoms: C_2  and  C_3 
REMARK    2  A    between atoms: C_2  and  N_10 
REMARK    3  A    between atoms: C_3  and  N_4 
REMARK       I    between atoms: N_10  and  C_11 
REMARK    4  A    between atoms: C_11  and  C_13 
REMARK       I    between atoms: N_17  and  C_18 
ROOT
HETATM    1  N   UNL     1     -42.348 -51.104  12.201  1.00  0.00    -0.353 N 
HETATM    2  C   UNL     1     -43.149 -51.272  13.305  1.00  0.00     0.241 C 
HETATM    3  O   UNL     1     -42.859 -50.830  14.412  1.00  0.00    -0.271 OA
HETATM    4  H   UNL     1     -42.581 -51.647  11.369  1.00  0.00     0.163 HD
ENDROOT
BRANCH   1   5
HETATM    5  C   UNL     1     -41.139 -50.280  12.213  1.00  0.00     0.098 C 
HETATM    6  C   UNL     1     -39.933 -51.209  12.349  1.00  0.00     0.034 C 
BRANCH   5   7
HETATM    7  C   UNL     1     -41.033 -49.391  10.952  1.00  0.00     0.153 C 
BRANCH   7   8
HETATM    8  N   UNL     1     -41.998 -48.312  10.893  1.00  0.00    -0.350 N 
HETATM    9  C   UNL     1     -42.597 -47.827   9.764  1.00  0.00     0.108 A 
HETATM   10  C   UNL     1     -43.454 -46.849  10.212  1.00  0.00     0.106 A 
HETATM   11  N   UNL     1     -43.389 -46.735  11.577  1.00  0.00    -0.361 N 
HETATM   12  C   UNL     1     -42.521 -47.642  11.962  1.00  0.00     0.182 A 
ATOM     13  HN  UNL     1     -43.905 -46.084  12.168  1.00  0.00     0.166 HD
ENDBRANCH   7   8
ENDBRANCH   5   7
ENDBRANCH   1   5
BRANCH   2  14
HETATM   14  C   UNL     1     -44.385 -52.152  13.080  1.00  0.00     0.179 C 
HETATM   15  C   UNL     1     -45.628 -51.247  13.191  1.00  0.00     0.037 C 
HETATM   16  C   UNL     1     -46.680 -52.047  13.951  1.00  0.00     0.022 C 
HETATM   17  C   UNL     1     -46.100 -53.436  14.090  1.00  0.00     0.127 C 
HETATM   18  N   UNL     1     -44.663 -53.253  14.017  1.00  0.00    -0.339 N 
HETATM   19  C   UNL     1     -43.897 -54.398  14.189  1.00  0.00     0.216 C 
HETATM   20  O   UNL     1     -44.404 -55.474  14.513  1.00  0.00    -0.274 OA
HETATM   21  C   UNL     1     -42.397 -54.285  14.122  1.00  0.00     0.117 C 
ENDBRANCH   2  14
TORSDOF 4
ENDMDL
MODEL 4
REMARK VINA RESULT:      -5.4      2.894      4.713
REMARK  4 active torsions:
REMARK  status: ('A' for Active; 'I' for Inactive)
REMARK    1  A    between atoms: C_2  and  C_3 
REMARK    2  A    between atoms: C_2  and  N_10 
REMARK    3  A    between atoms: C_3  and  N_4 
REMARK       I    between atoms: N_10  and  C_11 
REMARK    4  A    between atoms: C_11  and  C_13 
REMARK       I    between atoms: N_17  and  C_18 
ROOT
HETATM    1  N   UNL     1     -41.642 -52.161  13.815  1.00  0.00    -0.353 N 
HETATM    2  C   UNL     1     -42.837 -51.961  14.465  1.00  0.00     0.241 C 
HETATM    3  O   UNL     1     -42.907 -51.623  15.643  1.00  0.00    -0.271 OA
HETATM    4  H   UNL     1     -41.680 -52.603  12.897  1.00  0.00     0.163 HD
ENDROOT
BRANCH   1   5
HETATM    5  C   UNL     1     -40.345 -51.872  14.428  1.00  0.00     0.098 C 
HETATM    6  C   UNL     1     -39.392 -53.016  14.085  1.00  0.00     0.034 C 
BRANCH   5   7
HETATM    7  C   UNL     1     -39.783 -50.506  13.970  1.00  0.00     0.153 C 
BRANCH   7   8
HETATM    8  N   UNL     1     -40.254 -50.064  12.674  1.00  0.00    -0.350 N 
HETATM    9  C   UNL     1     -41.208 -49.112  12.445  1.00  0.00     0.108 A 
HETATM   10  C   UNL     1     -41.283 -49.010  11.076  1.00  0.00     0.106 A 
HETATM   11  N   UNL     1     -40.399 -49.870  10.477  1.00  0.00    -0.361 N 
HETATM   12  C   UNL     1     -39.779 -50.476  11.463  1.00  0.00     0.182 A 
ATOM     13  HN  UNL     1     -40.254 -50.010   9.477  1.00  0.00     0.166 HD
ENDBRANCH   7   8
ENDBRANCH   5   7
ENDBRANCH   1   5
BRANCH   2  14
HETATM   14  C   UNL     1     -44.086 -52.300  13.643  1.00  0.00     0.179 C 
HETATM   15  C   UNL     1     -44.955 -51.028  13.570  1.00  0.00     0.037 C 
HETATM   16  C   UNL     1     -46.402 -51.483  13.726  1.00  0.00     0.022 C 
HETATM   17  C   UNL     1     -46.350 -52.993  13.693  1.00  0.00     0.127 C 
HETATM   18  N   UNL     1     -45.011 -53.334  14.134  1.00  0.00    -0.339 N 
HETATM   19  C   UNL     1     -44.738 -54.690  14.251  1.00  0.00     0.216 C 
HETATM   20  O   UNL     1     -45.620 -55.541  14.116  1.00  0.00    -0.274 OA
HETATM   21  C   UNL     1     -43.367 -55.118  14.701  1.00  0.00     0.117 C 
ENDBRANCH   2  14
TORSDOF 4
ENDMDL
MODEL 5
REMARK VINA RESULT:      -5.4      3.122      4.574
REMARK  4 active torsions:
REMARK  status: ('A' for Active; 'I' for Inactive)
REMARK    1  A    between atoms: C_2  and  C_3 
REMARK    2  A    between atoms: C_2  and  N_10 
REMARK    3  A    between atoms: C_3  and  N_4 
REMARK       I    between atoms: N_10  and  C_11 
REMARK    4  A    between atoms: C_11  and  C_13 
REMARK       I    between atoms: N_17  and  C_18 
ROOT
HETATM    1  N   UNL     1     -43.042 -51.184  12.828  1.00  0.00    -0.353 N 
HETATM    2  C   UNL     1     -42.715 -52.441  12.380  1.00  0.00     0.241 C 
HETATM    3  O   UNL     1     -41.736 -52.664  11.674  1.00  0.00    -0.271 OA
HETATM    4  H   UNL     1     -43.958 -51.067  13.260  1.00  0.00     0.163 HD
ENDROOT
BRANCH   1   5
HETATM    5  C   UNL     1     -42.189 -50.015  12.609  1.00  0.00     0.098 C 
HETATM    6  C   UNL     1     -43.013 -48.763  12.908  1.00  0.00     0.034 C 
BRANCH   5   7
HETATM    7  C   UNL     1     -40.904 -50.069  13.468  1.00  0.00     0.153 C 
BRANCH   7   8
HETATM    8  N   UNL     1     -39.672 -50.126  12.708  1.00  0.00    -0.350 N 
HETATM    9  C   UNL     1     -38.462 -50.564  13.167  1.00  0.00     0.108 A 
HETATM   10  C   UNL     1     -37.620 -50.470  12.084  1.00  0.00     0.106 A 
HETATM   11  N   UNL     1     -38.290 -49.992  10.988  1.00  0.00    -0.361 N 
HETATM   12  C   UNL     1     -39.528 -49.813  11.387  1.00  0.00     0.182 A 
ATOM     13  HN  UNL     1     -37.908 -49.812  10.059  1.00  0.00     0.166 HD
ENDBRANCH   7   8
ENDBRANCH   5   7
ENDBRANCH   1   5
BRANCH   2  14
HETATM   14  C   UNL     1     -43.727 -53.538  12.733  1.00  0.00     0.179 C 
HETATM   15  C   UNL     1     -45.138 -52.964  12.495  1.00  0.00     0.037 C 
HETATM   16  C   UNL     1     -46.008 -53.463  13.644  1.00  0.00     0.022 C 
HETATM   17  C   UNL     1     -45.145 -54.449  14.397  1.00  0.00     0.127 C 
HETATM   18  N   UNL     1     -43.780 -54.050  14.112  1.00  0.00    -0.339 N 
HETATM   19  C   UNL     1     -42.788 -54.778  14.756  1.00  0.00     0.216 C 
HETATM   20  O   UNL     1     -43.059 -55.621  15.614  1.00  0.00    -0.274 OA
HETATM   21  C   UNL     1     -41.348 -54.421  14.505  1.00  0.00     0.117 C 
ENDBRANCH   2  14
TORSDOF 4
ENDMDL
MODEL 6
REMARK VINA RESULT:      -5.3      3.091      4.986
REMARK  4 active torsions:
REMARK  status: ('A' for Active; 'I' for Inactive)
REMARK    1  A    between atoms: C_2  and  C_3 
REMARK    2  A    between atoms: C_2  and  N_10 
REMARK    3  A    between atoms: C_3  and  N_4 
REMARK       I    between atoms: N_10  and  C_11 
REMARK    4  A    between atoms: C_11  and  C_13 
REMARK       I    between atoms: N_17  and  C_18 
ROOT
HETATM    1  N   UNL     1     -43.728 -50.712  13.125  1.00  0.00    -0.353 N 
HETATM    2  C   UNL     1     -43.952 -52.056  12.944  1.00  0.00     0.241 C 
HETATM    3  O   UNL     1     -43.268 -52.751  12.198  1.00  0.00    -0.271 OA
HETATM    4  H   UNL     1     -44.444 -50.184  13.624  1.00  0.00     0.163 HD
ENDROOT
BRANCH   1   5
HETATM    5  C   UNL     1     -42.583 -50.011  12.544  1.00  0.00     0.098 C 
HETATM    6  C   UNL     1     -42.963 -48.541  12.372  1.00  0.00     0.034 C 
BRANCH   5   7
HETATM    7  C   UNL     1     -41.309 -50.171  13.409  1.00  0.00     0.153 C 
BRANCH   7   8
HETATM    8  N   UNL     1     -40.068 -50.153  12.662  1.00  0.00    -0.350 N 
HETATM    9  C   UNL     1     -38.822 -50.404  13.165  1.00  0.00     0.108 A 
HETATM   10  C   UNL     1     -37.981 -50.312  12.081  1.00  0.00     0.106 A 
HETATM   11  N   UNL     1     -38.685 -50.017  10.943  1.00  0.00    -0.361 N 
HETATM   12  C   UNL     1     -39.942 -49.949  11.318  1.00  0.00     0.182 A 
ATOM     13  HN  UNL     1     -38.313 -49.880  10.003  1.00  0.00     0.166 HD
ENDBRANCH   7   8
ENDBRANCH   5   7
ENDBRANCH   1   5
BRANCH   2  14
HETATM   14  C   UNL     1     -45.193 -52.608  13.656  1.00  0.00     0.179 C 
HETATM   15  C   UNL     1     -46.266 -51.501  13.648  1.00  0.00     0.037 C 
HETATM   16  C   UNL     1     -46.941 -51.542  15.015  1.00  0.00     0.022 C 
HETATM   17  C   UNL     1     -46.384 -52.771  15.697  1.00  0.00     0.127 C 
HETATM   18  N   UNL     1     -45.094 -52.997  15.073  1.00  0.00    -0.339 N 
HETATM   19  C   UNL     1     -44.349 -54.050  15.585  1.00  0.00     0.216 C 
HETATM   20  O   UNL     1     -44.707 -54.667  16.591  1.00  0.00    -0.274 OA
HETATM   21  C   UNL     1     -43.001 -54.345  14.983  1.00  0.00     0.117 C 
ENDBRANCH   2  14
TORSDOF 4
ENDMDL
MODEL 7
REMARK VINA RESULT:      -5.3      3.228      6.859
REMARK  4 active torsions:
REMARK  status: ('A' for Active; 'I' for Inactive)
REMARK    1  A    between atoms: C_2  and  C_3 
REMARK    2  A    between atoms: C_2  and  N_10 
REMARK    3  A    between atoms: C_3  and  N_4 
REMARK       I    between atoms: N_10  and  C_11 
REMARK    4  A    between atoms: C_11  and  C_13 
REMARK       I    between atoms: N_17  and  C_18 
ROOT
HETATM    1  N   UNL     1     -39.702 -48.272  11.589  1.00  0.00    -0.353 N 
HETATM    2  C   UNL     1     -40.870 -47.856  10.996  1.00  0.00     0.241 C 
HETATM    3  O   UNL     1     -41.615 -48.615  10.384  1.00  0.00    -0.271 OA
HETATM    4  H   UNL     1     -39.066 -47.549  11.924  1.00  0.00     0.163 HD
ENDROOT
BRANCH   1   5
HETATM    5  C   UNL     1     -39.299 -49.678  11.650  1.00  0.00     0.098 C 
HETATM    6  C   UNL     1     -37.783 -49.746  11.469  1.00  0.00     0.034 C 
BRANCH   5   7
HETATM    7  C   UNL     1     -39.745 -50.348  12.971  1.00  0.00     0.153 C 
BRANCH   7   8
HETATM    8  N   UNL     1     -40.127 -51.740  12.841  1.00  0.00    -0.350 N 
HETATM    9  C   UNL     1     -39.850 -52.737  13.734  1.00  0.00     0.108 A 
HETATM   10  C   UNL     1     -40.445 -53.858  13.204  1.00  0.00     0.106 A 
HETATM   11  N   UNL     1     -41.072 -53.562  12.022  1.00  0.00    -0.361 N 
HETATM   12  C   UNL     1     -40.882 -52.276  11.839  1.00  0.00     0.182 A 
ATOM     13  HN  UNL     1     -41.579 -54.205  11.413  1.00  0.00     0.166 HD
ENDBRANCH   7   8
ENDBRANCH   5   7
ENDBRANCH   1   5
BRANCH   2  14
HETATM   14  C   UNL     1     -41.124 -46.344  11.059  1.00  0.00     0.179 C 
HETATM   15  C   UNL     1     -39.874 -45.638  10.498  1.00  0.00     0.037 C 
HETATM   16  C   UNL     1     -39.631 -44.420  11.383  1.00  0.00     0.022 C 
HETATM   17  C   UNL     1     -40.833 -44.346  12.297  1.00  0.00     0.127 C 
HETATM   18  N   UNL     1     -41.336 -45.705  12.368  1.00  0.00    -0.339 N 
HETATM   19  C   UNL     1     -42.417 -45.907  13.214  1.00  0.00     0.216 C 
HETATM   20  O   UNL     1     -42.835 -45.015  13.955  1.00  0.00    -0.274 OA
HETATM   21  C   UNL     1     -42.995 -47.292  13.335  1.00  0.00     0.117 C 
ENDBRANCH   2  14
TORSDOF 4
ENDMDL
MODEL 8
REMARK VINA RESULT:      -5.0      4.099      6.678
REMARK  4 active torsions:
REMARK  status: ('A' for Active; 'I' for Inactive)
REMARK    1  A    between atoms: C_2  and  C_3 
REMARK    2  A    between atoms: C_2  and  N_10 
REMARK    3  A    between atoms: C_3  and  N_4 
REMARK       I    between atoms: N_10  and  C_11 
REMARK    4  A    between atoms: C_11  and  C_13 
REMARK       I    between atoms: N_17  and  C_18 
ROOT
HETATM    1  N   UNL     1     -43.538 -53.478  15.166  1.00  0.00    -0.353 N 
HETATM    2  C   UNL     1     -44.629 -54.281  14.937  1.00  0.00     0.241 C 
HETATM    3  O   UNL     1     -44.534 -55.441  14.550  1.00  0.00    -0.271 OA
HETATM    4  H   UNL     1     -43.714 -52.485  15.319  1.00  0.00     0.163 HD
ENDROOT
BRANCH   1   5
HETATM    5  C   UNL     1     -42.161 -53.966  15.088  1.00  0.00     0.098 C 
HETATM    6  C   UNL     1     -42.066 -55.254  15.906  1.00  0.00     0.034 C 
BRANCH   5   7
HETATM    7  C   UNL     1     -41.710 -54.188  13.624  1.00  0.00     0.153 C 
BRANCH   7   8
HETATM    8  N   UNL     1     -41.152 -53.015  12.982  1.00  0.00    -0.350 N 
HETATM    9  C   UNL     1     -40.081 -52.288  13.423  1.00  0.00     0.108 A 
HETATM   10  C   UNL     1     -39.905 -51.310  12.472  1.00  0.00     0.106 A 
HETATM   11  N   UNL     1     -40.836 -51.431  11.473  1.00  0.00    -0.361 N 
HETATM   12  C   UNL     1     -41.560 -52.478  11.795  1.00  0.00     0.182 A 
ATOM     13  HN  UNL     1     -40.944 -50.834  10.653  1.00  0.00     0.166 HD
ENDBRANCH   7   8
ENDBRANCH   5   7
ENDBRANCH   1   5
BRANCH   2  14
HETATM   14  C   UNL     1     -45.989 -53.587  15.094  1.00  0.00     0.179 C 
HETATM   15  C   UNL     1     -46.171 -52.642  13.889  1.00  0.00     0.037 C 
HETATM   16  C   UNL     1     -46.807 -51.367  14.432  1.00  0.00     0.022 C 
HETATM   17  C   UNL     1     -47.145 -51.673  15.873  1.00  0.00     0.127 C 
HETATM   18  N   UNL     1     -46.223 -52.722  16.262  1.00  0.00    -0.339 N 
HETATM   19  C   UNL     1     -46.296 -53.133  17.586  1.00  0.00     0.216 C 
HETATM   20  O   UNL     1     -47.009 -52.550  18.406  1.00  0.00    -0.274 OA
HETATM   21  C   UNL     1     -45.371 -54.222  18.060  1.00  0.00     0.117 C 
ENDBRANCH   2  14
TORSDOF 4
ENDMDL
MODEL 9
REMARK VINA RESULT:      -4.9      4.036      5.880
REMARK  4 active torsions:
REMARK  status: ('A' for Active; 'I' for Inactive)
REMARK    1  A    between atoms: C_2  and  C_3 
REMARK    2  A    between atoms: C_2  and  N_10 
REMARK    3  A    between atoms: C_3  and  N_4 
REMARK       I    between atoms: N_10  and  C_11 
REMARK    4  A    between atoms: C_11  and  C_13 
REMARK       I    between atoms: N_17  and  C_18 
ROOT
HETATM    1  N   UNL     1     -41.864 -52.363  13.426  1.00  0.00    -0.353 N 
HETATM    2  C   UNL     1     -42.941 -52.182  14.260  1.00  0.00     0.241 C 
HETATM    3  O   UNL     1     -42.824 -51.968  15.463  1.00  0.00    -0.271 OA
HETATM    4  H   UNL     1     -42.057 -52.703  12.484  1.00  0.00     0.163 HD
ENDROOT
BRANCH   1   5
HETATM    5  C   UNL     1     -40.479 -52.196  13.867  1.00  0.00     0.098 C 
HETATM    6  C   UNL     1     -39.863 -53.585  14.033  1.00  0.00     0.034 C 
BRANCH   5   7
HETATM    7  C   UNL     1     -39.661 -51.324  12.885  1.00  0.00     0.153 C 
BRANCH   7   8
HETATM    8  N   UNL     1     -38.863 -50.293  13.516  1.00  0.00    -0.350 N 
HETATM    9  C   UNL     1     -38.480 -50.261  14.828  1.00  0.00     0.108 A 
HETATM   10  C   UNL     1     -37.712 -49.126  14.942  1.00  0.00     0.106 A 
HETATM   11  N   UNL     1     -37.619 -48.479  13.738  1.00  0.00    -0.361 N 
HETATM   12  C   UNL     1     -38.304 -49.215  12.893  1.00  0.00     0.182 A 
ATOM     13  HN  UNL     1     -37.124 -47.610  13.539  1.00  0.00     0.166 HD
ENDBRANCH   7   8
ENDBRANCH   5   7
ENDBRANCH   1   5
BRANCH   2  14
HETATM   14  C   UNL     1     -44.312 -52.378  13.601  1.00  0.00     0.179 C 
HETATM   15  C   UNL     1     -45.080 -51.046  13.720  1.00  0.00     0.037 C 
HETATM   16  C   UNL     1     -46.524 -51.409  14.048  1.00  0.00     0.022 C 
HETATM   17  C   UNL     1     -46.596 -52.913  13.924  1.00  0.00     0.127 C 
HETATM   18  N   UNL     1     -45.240 -53.375  14.157  1.00  0.00    -0.339 N 
HETATM   19  C   UNL     1     -45.061 -54.751  14.159  1.00  0.00     0.216 C 
HETATM   20  O   UNL     1     -46.017 -55.529  14.099  1.00  0.00    -0.274 OA
HETATM   21  C   UNL     1     -43.680 -55.303  14.391  1.00  0.00     0.117 C 
ENDBRANCH   2  14
TORSDOF 4
ENDMDL
