MODEL 1
REMARK VINA RESULT:      -6.4      0.000      0.000
REMARK  6 active torsions:
REMARK  status: ('A' for Active; 'I' for Inactive)
REMARK    1  A    between atoms: C_2  and  O_3 
REMARK    2  A    between atoms: C_2  and  C_10 
REMARK    3  A    between atoms: O_3  and  C_4 
REMARK    4  A    between atoms: C_4  and  C_5 
REMARK       I    between atoms: C_10  and  N_12 
REMARK    5  A    between atoms: N_12  and  C_13 
REMARK    6  A    between atoms: C_15  and  C_20 
ROOT
HETATM    1  C   UNL     1     -42.939 -47.928  13.140  1.00  0.00     0.251 C 
HETATM    2  O   UNL     1     -42.680 -47.597  14.298  1.00  0.00    -0.270 OA
HETATM    3  N   UNL     1     -43.282 -46.965  12.221  1.00  0.00    -0.320 N 
HETATM    4  H   UNL     1     -43.536 -46.075  12.631  1.00  0.00     0.169 HD
ENDROOT
BRANCH   3   5
HETATM    5  C   UNL     1     -43.549 -47.190  10.898  1.00  0.00     0.104 A 
HETATM    6  C   UNL     1     -44.792 -47.444  10.461  1.00  0.00     0.052 A 
HETATM    7  C   UNL     1     -45.042 -47.817   9.077  1.00  0.00     0.065 A 
HETATM    8  C   UNL     1     -44.020 -47.792   8.201  1.00  0.00     0.107 A 
HETATM    9  N   UNL     1     -42.752 -47.470   8.607  1.00  0.00    -0.331 N 
HETATM   10  C   UNL     1     -42.402 -47.217   9.915  1.00  0.00     0.272 A 
HETATM   11  H   UNL     1     -41.985 -47.473   7.943  1.00  0.00     0.168 HD
HETATM   12  O   UNL     1     -41.239 -47.023  10.250  1.00  0.00    -0.266 OA
BRANCH   7  13
HETATM   13  C   UNL     1     -46.412 -48.289   8.681  1.00  0.00     0.418 C 
HETATM   14  F   UNL     1     -46.469 -48.784   7.421  1.00  0.00    -0.166 F 
HETATM   15  F   UNL     1     -46.857 -49.271   9.509  1.00  0.00    -0.166 F 
HETATM   16  F   UNL     1     -47.323 -47.282   8.749  1.00  0.00    -0.166 F 
ENDBRANCH   7  13
ENDBRANCH   3   5
BRANCH   1  17
HETATM   17  C   UNL     1     -43.079 -49.413  12.712  1.00  0.00     0.209 C 
HETATM   18  C   UNL     1     -41.732 -50.122  12.659  1.00  0.00     0.050 C 
BRANCH  17  19
HETATM   19  O   UNL     1     -44.027 -50.136  13.517  1.00  0.00    -0.374 OA
BRANCH  19  20
HETATM   20  C   UNL     1     -44.025 -51.557  13.309  1.00  0.00     0.200 C 
BRANCH  20  21
HETATM   21  C   UNL     1     -45.195 -52.241  14.024  1.00  0.00     0.145 C 
HETATM   22  C   UNL     1     -46.482 -51.434  14.081  1.00  0.00     0.036 C 
HETATM   23  C   UNL     1     -47.097 -51.789  15.421  1.00  0.00     0.029 C 
HETATM   24  C   UNL     1     -46.114 -52.747  16.061  1.00  0.00     0.168 C 
HETATM   25  O   UNL     1     -44.865 -52.546  15.391  1.00  0.00    -0.384 OA
ENDBRANCH  20  21
ENDBRANCH  19  20
ENDBRANCH  17  19
ENDBRANCH   1  17
TORSDOF 6
ENDMDL
MODEL 2
REMARK VINA RESULT:      -6.4      4.605      7.143
REMARK  6 active torsions:
REMARK  status: ('A' for Active; 'I' for Inactive)
REMARK    1  A    between atoms: C_2  and  O_3 
REMARK    2  A    between atoms: C_2  and  C_10 
REMARK    3  A    between atoms: O_3  and  C_4 
REMARK    4  A    between atoms: C_4  and  C_5 
REMARK       I    between atoms: C_10  and  N_12 
REMARK    5  A    between atoms: N_12  and  C_13 
REMARK    6  A    between atoms: C_15  and  C_20 
ROOT
HETATM    1  C   UNL     1     -41.183 -53.566  13.269  1.00  0.00     0.251 C 
HETATM    2  O   UNL     1     -40.078 -53.884  12.825  1.00  0.00    -0.270 OA
HETATM    3  N   UNL     1     -42.299 -54.257  12.862  1.00  0.00    -0.320 N 
HETATM    4  H   UNL     1     -42.157 -54.821  12.034  1.00  0.00     0.169 HD
ENDROOT
BRANCH   3   5
HETATM    5  C   UNL     1     -43.574 -54.039  13.309  1.00  0.00     0.104 A 
HETATM    6  C   UNL     1     -44.367 -53.110  12.754  1.00  0.00     0.052 A 
HETATM    7  C   UNL     1     -45.667 -52.792  13.325  1.00  0.00     0.065 A 
HETATM    8  C   UNL     1     -46.123 -53.527  14.357  1.00  0.00     0.107 A 
HETATM    9  N   UNL     1     -45.360 -54.527  14.901  1.00  0.00    -0.331 N 
HETATM   10  C   UNL     1     -44.075 -54.820  14.500  1.00  0.00     0.272 A 
HETATM   11  H   UNL     1     -45.704 -55.062  15.691  1.00  0.00     0.168 HD
HETATM   12  O   UNL     1     -43.393 -55.662  15.074  1.00  0.00    -0.266 OA
BRANCH   7  13
HETATM   13  C   UNL     1     -46.430 -51.610  12.797  1.00  0.00     0.418 C 
HETATM   14  F   UNL     1     -47.208 -51.904  11.727  1.00  0.00    -0.166 F 
HETATM   15  F   UNL     1     -47.250 -51.085  13.745  1.00  0.00    -0.166 F 
HETATM   16  F   UNL     1     -45.593 -50.611  12.411  1.00  0.00    -0.166 F 
ENDBRANCH   7  13
ENDBRANCH   3   5
BRANCH   1  17
HETATM   17  C   UNL     1     -41.398 -52.294  14.130  1.00  0.00     0.209 C 
HETATM   18  C   UNL     1     -40.922 -52.485  15.563  1.00  0.00     0.050 C 
BRANCH  17  19
HETATM   19  O   UNL     1     -40.824 -51.117  13.534  1.00  0.00    -0.374 OA
BRANCH  19  20
HETATM   20  C   UNL     1     -39.859 -50.441  14.356  1.00  0.00     0.200 C 
BRANCH  20  21
HETATM   21  C   UNL     1     -38.525 -50.246  13.629  1.00  0.00     0.145 C 
HETATM   22  C   UNL     1     -38.532 -49.196  12.529  1.00  0.00     0.036 C 
HETATM   23  C   UNL     1     -37.588 -49.741  11.475  1.00  0.00     0.029 C 
HETATM   24  C   UNL     1     -37.126 -51.078  12.017  1.00  0.00     0.168 C 
HETATM   25  O   UNL     1     -38.089 -51.465  13.001  1.00  0.00    -0.384 OA
ENDBRANCH  20  21
ENDBRANCH  19  20
ENDBRANCH  17  19
ENDBRANCH   1  17
TORSDOF 6
ENDMDL
MODEL 3
REMARK VINA RESULT:      -6.4      3.497      6.585
REMARK  6 active torsions:
REMARK  status: ('A' for Active; 'I' for Inactive)
REMARK    1  A    between atoms: C_2  and  O_3 
REMARK    2  A    between atoms: C_2  and  C_10 
REMARK    3  A    between atoms: O_3  and  C_4 
REMARK    4  A    between atoms: C_4  and  C_5 
REMARK       I    between atoms: C_10  and  N_12 
REMARK    5  A    between atoms: N_12  and  C_13 
REMARK    6  A    between atoms: C_15  and  C_20 
ROOT
HETATM    1  C   UNL     1     -41.158 -53.446  13.293  1.00  0.00     0.251 C 
HETATM    2  O   UNL     1     -40.033 -53.735  12.881  1.00  0.00    -0.270 OA
HETATM    3  N   UNL     1     -42.238 -54.196  12.894  1.00  0.00    -0.320 N 
HETATM    4  H   UNL     1     -42.058 -54.784  12.090  1.00  0.00     0.169 HD
ENDROOT
BRANCH   3   5
HETATM    5  C   UNL     1     -43.529 -54.012  13.309  1.00  0.00     0.104 A 
HETATM    6  C   UNL     1     -44.330 -53.098  12.742  1.00  0.00     0.052 A 
HETATM    7  C   UNL     1     -45.652 -52.816  13.282  1.00  0.00     0.065 A 
HETATM    8  C   UNL     1     -46.115 -53.571  14.296  1.00  0.00     0.107 A 
HETATM    9  N   UNL     1     -45.342 -54.557  14.850  1.00  0.00    -0.331 N 
HETATM   10  C   UNL     1     -44.041 -54.816  14.481  1.00  0.00     0.272 A 
HETATM   11  H   UNL     1     -45.694 -55.107  15.627  1.00  0.00     0.168 HD
HETATM   12  O   UNL     1     -43.353 -55.646  15.065  1.00  0.00    -0.266 OA
BRANCH   7  13
HETATM   13  C   UNL     1     -46.429 -51.648  12.744  1.00  0.00     0.418 C 
HETATM   14  F   UNL     1     -47.206 -51.962  11.679  1.00  0.00    -0.166 F 
HETATM   15  F   UNL     1     -47.253 -51.124  13.689  1.00  0.00    -0.166 F 
HETATM   16  F   UNL     1     -45.605 -50.644  12.347  1.00  0.00    -0.166 F 
ENDBRANCH   7  13
ENDBRANCH   3   5
BRANCH   1  17
HETATM   17  C   UNL     1     -41.439 -52.152  14.101  1.00  0.00     0.209 C 
HETATM   18  C   UNL     1     -40.952 -52.258  15.539  1.00  0.00     0.050 C 
BRANCH  17  19
HETATM   19  O   UNL     1     -40.929 -50.972  13.454  1.00  0.00    -0.374 OA
BRANCH  19  20
HETATM   20  C   UNL     1     -41.540 -50.673  12.189  1.00  0.00     0.200 C 
BRANCH  20  21
HETATM   21  C   UNL     1     -41.685 -49.164  11.966  1.00  0.00     0.145 C 
HETATM   22  C   UNL     1     -43.083 -48.607  12.184  1.00  0.00     0.036 C 
HETATM   23  C   UNL     1     -43.216 -47.500  11.158  1.00  0.00     0.029 C 
HETATM   24  C   UNL     1     -41.908 -47.511  10.396  1.00  0.00     0.168 C 
HETATM   25  O   UNL     1     -41.325 -48.798  10.622  1.00  0.00    -0.384 OA
ENDBRANCH  20  21
ENDBRANCH  19  20
ENDBRANCH  17  19
ENDBRANCH   1  17
TORSDOF 6
ENDMDL
MODEL 4
REMARK VINA RESULT:      -6.3      4.325      6.031
REMARK  6 active torsions:
REMARK  status: ('A' for Active; 'I' for Inactive)
REMARK    1  A    between atoms: C_2  and  O_3 
REMARK    2  A    between atoms: C_2  and  C_10 
REMARK    3  A    between atoms: O_3  and  C_4 
REMARK    4  A    between atoms: C_4  and  C_5 
REMARK       I    between atoms: C_10  and  N_12 
REMARK    5  A    between atoms: N_12  and  C_13 
REMARK    6  A    between atoms: C_15  and  C_20 
ROOT
HETATM    1  C   UNL     1     -40.983 -50.384  11.782  1.00  0.00     0.251 C 
HETATM    2  O   UNL     1     -40.780 -49.632  10.827  1.00  0.00    -0.270 OA
HETATM    3  N   UNL     1     -40.992 -51.743  11.582  1.00  0.00    -0.320 N 
HETATM    4  H   UNL     1     -41.076 -52.018  10.612  1.00  0.00     0.169 HD
ENDROOT
BRANCH   3   5
HETATM    5  C   UNL     1     -41.160 -52.688  12.559  1.00  0.00     0.104 A 
HETATM    6  C   UNL     1     -42.343 -53.284  12.770  1.00  0.00     0.052 A 
HETATM    7  C   UNL     1     -42.545 -54.181  13.897  1.00  0.00     0.065 A 
HETATM    8  C   UNL     1     -41.489 -54.504  14.668  1.00  0.00     0.107 A 
HETATM    9  N   UNL     1     -40.253 -53.961  14.434  1.00  0.00    -0.331 N 
HETATM   10  C   UNL     1     -39.997 -53.018  13.464  1.00  0.00     0.272 A 
HETATM   11  H   UNL     1     -39.469 -54.196  15.034  1.00  0.00     0.168 HD
HETATM   12  O   UNL     1     -38.896 -52.489  13.347  1.00  0.00    -0.266 OA
BRANCH   7  13
HETATM   13  C   UNL     1     -43.932 -54.663  14.212  1.00  0.00     0.418 C 
HETATM   14  F   UNL     1     -44.789 -54.562  13.167  1.00  0.00    -0.166 F 
HETATM   15  F   UNL     1     -43.930 -55.967  14.593  1.00  0.00    -0.166 F 
HETATM   16  F   UNL     1     -44.480 -53.960  15.238  1.00  0.00    -0.166 F 
ENDBRANCH   7  13
ENDBRANCH   3   5
BRANCH   1  17
HETATM   17  C   UNL     1     -41.416 -49.858  13.175  1.00  0.00     0.209 C 
HETATM   18  C   UNL     1     -40.632 -48.620  13.589  1.00  0.00     0.050 C 
BRANCH  17  19
HETATM   19  O   UNL     1     -42.836 -49.643  13.271  1.00  0.00    -0.374 OA
BRANCH  19  20
HETATM   20  C   UNL     1     -43.380 -49.827  14.588  1.00  0.00     0.200 C 
BRANCH  20  21
HETATM   21  C   UNL     1     -44.450 -50.923  14.616  1.00  0.00     0.145 C 
HETATM   22  C   UNL     1     -45.172 -51.160  13.299  1.00  0.00     0.036 C 
HETATM   23  C   UNL     1     -46.590 -51.516  13.699  1.00  0.00     0.029 C 
HETATM   24  C   UNL     1     -46.604 -51.429  15.211  1.00  0.00     0.168 C 
HETATM   25  O   UNL     1     -45.480 -50.623  15.576  1.00  0.00    -0.384 OA
ENDBRANCH  20  21
ENDBRANCH  19  20
ENDBRANCH  17  19
ENDBRANCH   1  17
TORSDOF 6
ENDMDL
MODEL 5
REMARK VINA RESULT:      -6.2      4.649      5.712
REMARK  6 active torsions:
REMARK  status: ('A' for Active; 'I' for Inactive)
REMARK    1  A    between atoms: C_2  and  O_3 
REMARK    2  A    between atoms: C_2  and  C_10 
REMARK    3  A    between atoms: O_3  and  C_4 
REMARK    4  A    between atoms: C_4  and  C_5 
REMARK       I    between atoms: C_10  and  N_12 
REMARK    5  A    between atoms: N_12  and  C_13 
REMARK    6  A    between atoms: C_15  and  C_20 
ROOT
HETATM    1  C   UNL     1     -42.138 -52.515  14.657  1.00  0.00     0.251 C 
HETATM    2  O   UNL     1     -42.586 -52.866  15.750  1.00  0.00    -0.270 OA
HETATM    3  N   UNL     1     -41.673 -51.232  14.497  1.00  0.00    -0.320 N 
HETATM    4  H   UNL     1     -41.963 -50.593  15.227  1.00  0.00     0.169 HD
ENDROOT
BRANCH   3   5
HETATM    5  C   UNL     1     -41.112 -50.728  13.355  1.00  0.00     0.104 A 
HETATM    6  C   UNL     1     -39.792 -50.803  13.123  1.00  0.00     0.052 A 
HETATM    7  C   UNL     1     -39.191 -50.143  11.975  1.00  0.00     0.065 A 
HETATM    8  C   UNL     1     -39.993 -49.547  11.073  1.00  0.00     0.107 A 
HETATM    9  N   UNL     1     -41.351 -49.513  11.251  1.00  0.00    -0.331 N 
HETATM   10  C   UNL     1     -41.995 -50.010  12.362  1.00  0.00     0.272 A 
HETATM   11  H   UNL     1     -41.945 -49.044  10.575  1.00  0.00     0.168 HD
HETATM   12  O   UNL     1     -43.203 -49.878  12.526  1.00  0.00    -0.266 OA
BRANCH   7  13
HETATM   13  C   UNL     1     -37.693 -50.082  11.866  1.00  0.00     0.418 C 
HETATM   14  F   UNL     1     -37.253 -49.867  10.603  1.00  0.00    -0.166 F 
HETATM   15  F   UNL     1     -37.181 -49.085  12.635  1.00  0.00    -0.166 F 
HETATM   16  F   UNL     1     -37.117 -51.237  12.292  1.00  0.00    -0.166 F 
ENDBRANCH   7  13
ENDBRANCH   3   5
BRANCH   1  17
HETATM   17  C   UNL     1     -42.246 -53.405  13.391  1.00  0.00     0.209 C 
HETATM   18  C   UNL     1     -41.129 -54.438  13.321  1.00  0.00     0.050 C 
BRANCH  17  19
HETATM   19  O   UNL     1     -43.541 -54.014  13.249  1.00  0.00    -0.374 OA
BRANCH  19  20
HETATM   20  C   UNL     1     -44.483 -53.245  12.484  1.00  0.00     0.200 C 
BRANCH  20  21
HETATM   21  C   UNL     1     -45.785 -53.005  13.254  1.00  0.00     0.145 C 
HETATM   22  C   UNL     1     -46.235 -51.554  13.331  1.00  0.00     0.036 C 
HETATM   23  C   UNL     1     -46.877 -51.427  14.699  1.00  0.00     0.029 C 
HETATM   24  C   UNL     1     -46.726 -52.794  15.332  1.00  0.00     0.168 C 
HETATM   25  O   UNL     1     -45.676 -53.452  14.617  1.00  0.00    -0.384 OA
ENDBRANCH  20  21
ENDBRANCH  19  20
ENDBRANCH  17  19
ENDBRANCH   1  17
TORSDOF 6
ENDMDL
MODEL 6
REMARK VINA RESULT:      -6.2      4.932      7.101
REMARK  6 active torsions:
REMARK  status: ('A' for Active; 'I' for Inactive)
REMARK    1  A    between atoms: C_2  and  O_3 
REMARK    2  A    between atoms: C_2  and  C_10 
REMARK    3  A    between atoms: O_3  and  C_4 
REMARK    4  A    between atoms: C_4  and  C_5 
REMARK       I    between atoms: C_10  and  N_12 
REMARK    5  A    between atoms: N_12  and  C_13 
REMARK    6  A    between atoms: C_15  and  C_20 
ROOT
HETATM    1  C   UNL     1     -42.312 -51.856  12.763  1.00  0.00     0.251 C 
HETATM    2  O   UNL     1     -41.483 -51.359  11.999  1.00  0.00    -0.270 OA
HETATM    3  N   UNL     1     -43.648 -51.598  12.572  1.00  0.00    -0.320 N 
HETATM    4  H   UNL     1     -43.835 -50.813  11.960  1.00  0.00     0.169 HD
ENDROOT
BRANCH   3   5
HETATM    5  C   UNL     1     -44.672 -52.119  13.317  1.00  0.00     0.104 A 
HETATM    6  C   UNL     1     -45.256 -51.420  14.302  1.00  0.00     0.052 A 
HETATM    7  C   UNL     1     -46.245 -52.033  15.175  1.00  0.00     0.065 A 
HETATM    8  C   UNL     1     -46.661 -53.285  14.910  1.00  0.00     0.107 A 
HETATM    9  N   UNL     1     -46.129 -53.999  13.868  1.00  0.00    -0.331 N 
HETATM   10  C   UNL     1     -45.109 -53.542  13.063  1.00  0.00     0.272 A 
HETATM   11  H   UNL     1     -46.435 -54.949  13.689  1.00  0.00     0.168 HD
HETATM   12  O   UNL     1     -44.599 -54.247  12.199  1.00  0.00    -0.266 OA
BRANCH   7  13
HETATM   13  C   UNL     1     -46.720 -51.281  16.387  1.00  0.00     0.418 C 
HETATM   14  F   UNL     1     -47.996 -50.836  16.280  1.00  0.00    -0.166 F 
HETATM   15  F   UNL     1     -46.666 -52.054  17.503  1.00  0.00    -0.166 F 
HETATM   16  F   UNL     1     -45.944 -50.192  16.630  1.00  0.00    -0.166 F 
ENDBRANCH   7  13
ENDBRANCH   3   5
BRANCH   1  17
HETATM   17  C   UNL     1     -41.903 -52.615  14.052  1.00  0.00     0.209 C 
HETATM   18  C   UNL     1     -41.388 -54.016  13.752  1.00  0.00     0.050 C 
BRANCH  17  19
HETATM   19  O   UNL     1     -40.976 -51.872  14.864  1.00  0.00    -0.374 OA
BRANCH  19  20
HETATM   20  C   UNL     1     -39.671 -52.464  14.974  1.00  0.00     0.200 C 
BRANCH  20  21
HETATM   21  C   UNL     1     -38.583 -51.564  14.379  1.00  0.00     0.145 C 
HETATM   22  C   UNL     1     -38.910 -50.080  14.354  1.00  0.00     0.036 C 
HETATM   23  C   UNL     1     -38.265 -49.568  13.082  1.00  0.00     0.029 C 
HETATM   24  C   UNL     1     -37.639 -50.790  12.441  1.00  0.00     0.168 C 
HETATM   25  O   UNL     1     -38.296 -51.923  13.015  1.00  0.00    -0.384 OA
ENDBRANCH  20  21
ENDBRANCH  19  20
ENDBRANCH  17  19
ENDBRANCH   1  17
TORSDOF 6
ENDMDL
MODEL 7
REMARK VINA RESULT:      -6.1      5.419      7.583
REMARK  6 active torsions:
REMARK  status: ('A' for Active; 'I' for Inactive)
REMARK    1  A    between atoms: C_2  and  O_3 
REMARK    2  A    between atoms: C_2  and  C_10 
REMARK    3  A    between atoms: O_3  and  C_4 
REMARK    4  A    between atoms: C_4  and  C_5 
REMARK       I    between atoms: C_10  and  N_12 
REMARK    5  A    between atoms: N_12  and  C_13 
REMARK    6  A    between atoms: C_15  and  C_20 
ROOT
HETATM    1  C   UNL     1     -39.813 -53.725  15.236  1.00  0.00     0.251 C 
HETATM    2  O   UNL     1     -38.752 -54.196  15.650  1.00  0.00    -0.270 OA
HETATM    3  N   UNL     1     -40.455 -54.330  14.182  1.00  0.00    -0.320 N 
HETATM    4  H   UNL     1     -39.877 -54.978  13.663  1.00  0.00     0.169 HD
ENDROOT
BRANCH   3   5
HETATM    5  C   UNL     1     -41.655 -53.939  13.654  1.00  0.00     0.104 A 
HETATM    6  C   UNL     1     -42.823 -54.295  14.211  1.00  0.00     0.052 A 
HETATM    7  C   UNL     1     -44.090 -53.991  13.565  1.00  0.00     0.065 A 
HETATM    8  C   UNL     1     -44.087 -53.238  12.449  1.00  0.00     0.107 A 
HETATM    9  N   UNL     1     -42.912 -52.804  11.895  1.00  0.00    -0.331 N 
HETATM   10  C   UNL     1     -41.665 -53.139  12.372  1.00  0.00     0.272 A 
HETATM   11  H   UNL     1     -42.920 -52.253  11.043  1.00  0.00     0.168 HD
HETATM   12  O   UNL     1     -40.636 -52.805  11.793  1.00  0.00    -0.266 OA
BRANCH   7  13
HETATM   13  C   UNL     1     -45.355 -54.584  14.117  1.00  0.00     0.418 C 
HETATM   14  F   UNL     1     -45.375 -54.648  15.470  1.00  0.00    -0.166 F 
HETATM   15  F   UNL     1     -46.445 -53.864  13.742  1.00  0.00    -0.166 F 
HETATM   16  F   UNL     1     -45.550 -55.849  13.661  1.00  0.00    -0.166 F 
ENDBRANCH   7  13
ENDBRANCH   3   5
BRANCH   1  17
HETATM   17  C   UNL     1     -40.367 -52.364  15.732  1.00  0.00     0.209 C 
HETATM   18  C   UNL     1     -40.900 -52.448  17.155  1.00  0.00     0.050 C 
BRANCH  17  19
HETATM   19  O   UNL     1     -39.421 -51.291  15.582  1.00  0.00    -0.374 OA
BRANCH  19  20
HETATM   20  C   UNL     1     -39.630 -50.468  14.422  1.00  0.00     0.200 C 
BRANCH  20  21
HETATM   21  C   UNL     1     -38.341 -50.281  13.615  1.00  0.00     0.145 C 
HETATM   22  C   UNL     1     -38.417 -49.247  12.503  1.00  0.00     0.036 C 
HETATM   23  C   UNL     1     -37.535 -49.804  11.403  1.00  0.00     0.029 C 
HETATM   24  C   UNL     1     -37.037 -51.132  11.935  1.00  0.00     0.168 C 
HETATM   25  O   UNL     1     -37.939 -51.508  12.980  1.00  0.00    -0.384 OA
ENDBRANCH  20  21
ENDBRANCH  19  20
ENDBRANCH  17  19
ENDBRANCH   1  17
TORSDOF 6
ENDMDL
MODEL 8
REMARK VINA RESULT:      -6.0      3.361      6.649
REMARK  6 active torsions:
REMARK  status: ('A' for Active; 'I' for Inactive)
REMARK    1  A    between atoms: C_2  and  O_3 
REMARK    2  A    between atoms: C_2  and  C_10 
REMARK    3  A    between atoms: O_3  and  C_4 
REMARK    4  A    between atoms: C_4  and  C_5 
REMARK       I    between atoms: C_10  and  N_12 
REMARK    5  A    between atoms: N_12  and  C_13 
REMARK    6  A    between atoms: C_15  and  C_20 
ROOT
HETATM    1  C   UNL     1     -41.356 -49.159  13.335  1.00  0.00     0.251 C 
HETATM    2  O   UNL     1     -40.459 -48.528  13.897  1.00  0.00    -0.270 OA
HETATM    3  N   UNL     1     -41.732 -50.385  13.829  1.00  0.00    -0.320 N 
HETATM    4  H   UNL     1     -41.069 -50.790  14.478  1.00  0.00     0.169 HD
ENDROOT
BRANCH   3   5
HETATM    5  C   UNL     1     -42.738 -51.167  13.331  1.00  0.00     0.104 A 
HETATM    6  C   UNL     1     -44.021 -50.973  13.675  1.00  0.00     0.052 A 
HETATM    7  C   UNL     1     -45.062 -51.895  13.248  1.00  0.00     0.065 A 
HETATM    8  C   UNL     1     -44.743 -52.891  12.400  1.00  0.00     0.107 A 
HETATM    9  N   UNL     1     -43.452 -53.072  11.980  1.00  0.00    -0.331 N 
HETATM   10  C   UNL     1     -42.385 -52.320  12.421  1.00  0.00     0.272 A 
HETATM   11  H   UNL     1     -43.218 -53.837  11.356  1.00  0.00     0.168 HD
HETATM   12  O   UNL     1     -41.232 -52.573  12.090  1.00  0.00    -0.266 OA
BRANCH   7  13
HETATM   13  C   UNL     1     -46.444 -51.756  13.822  1.00  0.00     0.418 C 
HETATM   14  F   UNL     1     -47.326 -51.179  12.970  1.00  0.00    -0.166 F 
HETATM   15  F   UNL     1     -46.963 -52.964  14.165  1.00  0.00    -0.166 F 
HETATM   16  F   UNL     1     -46.438 -51.000  14.951  1.00  0.00    -0.166 F 
ENDBRANCH   7  13
ENDBRANCH   3   5
BRANCH   1  17
HETATM   17  C   UNL     1     -41.958 -48.715  11.976  1.00  0.00     0.209 C 
HETATM   18  C   UNL     1     -43.167 -47.807  12.156  1.00  0.00     0.050 C 
BRANCH  17  19
HETATM   19  O   UNL     1     -40.980 -48.129  11.100  1.00  0.00    -0.374 OA
BRANCH  19  20
HETATM   20  C   UNL     1     -41.417 -46.937  10.429  1.00  0.00     0.200 C 
BRANCH  20  21
HETATM   21  C   UNL     1     -40.452 -45.768  10.653  1.00  0.00     0.145 C 
HETATM   22  C   UNL     1     -39.883 -45.657  12.058  1.00  0.00     0.036 C 
HETATM   23  C   UNL     1     -39.756 -44.166  12.302  1.00  0.00     0.029 C 
HETATM   24  C   UNL     1     -40.288 -43.516  11.042  1.00  0.00     0.168 C 
HETATM   25  O   UNL     1     -41.091 -44.505  10.390  1.00  0.00    -0.384 OA
ENDBRANCH  20  21
ENDBRANCH  19  20
ENDBRANCH  17  19
ENDBRANCH   1  17
TORSDOF 6
ENDMDL
MODEL 9
REMARK VINA RESULT:      -6.0      3.482      6.449
REMARK  6 active torsions:
REMARK  status: ('A' for Active; 'I' for Inactive)
REMARK    1  A    between atoms: C_2  and  O_3 
REMARK    2  A    between atoms: C_2  and  C_10 
REMARK    3  A    between atoms: O_3  and  C_4 
REMARK    4  A    between atoms: C_4  and  C_5 
REMARK       I    between atoms: C_10  and  N_12 
REMARK    5  A    between atoms: N_12  and  C_13 
REMARK    6  A    between atoms: C_15  and  C_20 
ROOT
HETATM    1  C   UNL     1     -40.518 -50.412  11.729  1.00  0.00     0.251 C 
HETATM    2  O   UNL     1     -39.813 -49.759  10.958  1.00  0.00    -0.270 OA
HETATM    3  N   UNL     1     -40.822 -51.718  11.426  1.00  0.00    -0.320 N 
HETATM    4  H   UNL     1     -40.644 -51.970  10.462  1.00  0.00     0.169 HD
ENDROOT
BRANCH   3   5
HETATM    5  C   UNL     1     -41.554 -52.566  12.212  1.00  0.00     0.104 A 
HETATM    6  C   UNL     1     -42.895 -52.550  12.211  1.00  0.00     0.052 A 
HETATM    7  C   UNL     1     -43.659 -53.357  13.150  1.00  0.00     0.065 A 
HETATM    8  C   UNL     1     -43.004 -54.218  13.951  1.00  0.00     0.107 A 
HETATM    9  N   UNL     1     -41.636 -54.303  13.926  1.00  0.00    -0.331 N 
HETATM   10  C   UNL     1     -40.829 -53.498  13.154  1.00  0.00     0.272 A 
HETATM   11  H   UNL     1     -41.151 -54.941  14.548  1.00  0.00     0.168 HD
HETATM   12  O   UNL     1     -39.605 -53.543  13.228  1.00  0.00    -0.266 OA
BRANCH   7  13
HETATM   13  C   UNL     1     -45.144 -53.155  13.251  1.00  0.00     0.418 C 
HETATM   14  F   UNL     1     -45.496 -52.141  14.078  1.00  0.00    -0.166 F 
HETATM   15  F   UNL     1     -45.691 -52.879  12.038  1.00  0.00    -0.166 F 
HETATM   16  F   UNL     1     -45.766 -54.272  13.713  1.00  0.00    -0.166 F 
ENDBRANCH   7  13
ENDBRANCH   3   5
BRANCH   1  17
HETATM   17  C   UNL     1     -41.238 -49.769  12.943  1.00  0.00     0.209 C 
HETATM   18  C   UNL     1     -40.325 -49.660  14.157  1.00  0.00     0.050 C 
BRANCH  17  19
HETATM   19  O   UNL     1     -41.847 -48.506  12.623  1.00  0.00    -0.374 OA
BRANCH  19  20
HETATM   20  C   UNL     1     -43.161 -48.606  12.050  1.00  0.00     0.200 C 
BRANCH  20  21
HETATM   21  C   UNL     1     -43.332 -47.675  10.845  1.00  0.00     0.145 C 
HETATM   22  C   UNL     1     -44.729 -47.638  10.246  1.00  0.00     0.036 C 
HETATM   23  C   UNL     1     -44.500 -47.460   8.758  1.00  0.00     0.029 C 
HETATM   24  C   UNL     1     -42.995 -47.440   8.592  1.00  0.00     0.168 C 
HETATM   25  O   UNL     1     -42.455 -48.049   9.768  1.00  0.00    -0.384 OA
ENDBRANCH  20  21
ENDBRANCH  19  20
ENDBRANCH  17  19
ENDBRANCH   1  17
TORSDOF 6
ENDMDL
