MODEL 1
REMARK VINA RESULT:      -6.3      0.000      0.000
REMARK  4 active torsions:
REMARK  status: ('A' for Active; 'I' for Inactive)
REMARK    1  A    between atoms: N_2  and  C_4 
REMARK    2  A    between atoms: C_4  and  C_5 
REMARK    3  A    between atoms: C_5  and  N_6 
REMARK       I    between atoms: N_6  and  C_7 
REMARK       I    between atoms: C_7  and  N_9 
REMARK    4  A    between atoms: N_9  and  C_10 
ROOT
HETATM    1  N   UNL     1     -42.187 -50.905  12.049  1.00  0.00    -0.340 N 
HETATM    2  C   UNL     1     -41.888 -49.547  12.046  1.00  0.00     0.321 C 
HETATM    3  O   UNL     1     -41.637 -48.948  13.081  1.00  0.00    -0.247 OA
HETATM    4  N   UNL     1     -41.981 -49.000  10.786  1.00  0.00    -0.293 N 
HETATM    5  H   UNL     1     -41.822 -51.450  11.280  1.00  0.00     0.164 HD
HETATM    6  H   UNL     1     -42.515 -49.506  10.101  1.00  0.00     0.172 HD
ENDROOT
BRANCH   1   7
HETATM    7  C   UNL     1     -42.185 -51.577  13.345  1.00  0.00     0.166 C 
BRANCH   7   8
HETATM    8  C   UNL     1     -43.571 -52.190  13.805  1.00  0.00     0.174 C 
HETATM    9  C   UNL     1     -44.339 -51.015  14.483  1.00  0.00     0.043 C 
HETATM   10  C   UNL     1     -45.840 -51.211  14.660  1.00  0.00     0.003 C 
HETATM   11  C   UNL     1     -46.546 -51.602  13.369  1.00  0.00     0.000 C 
HETATM   12  C   UNL     1     -45.853 -52.697  12.569  1.00  0.00     0.003 C 
HETATM   13  C   UNL     1     -44.333 -52.553  12.488  1.00  0.00     0.043 C 
BRANCH   8  14
HETATM   14  N   UNL     1     -43.304 -53.393  14.675  1.00  0.00     0.091 N 
HETATM   15  C   UNL     1     -42.361 -54.363  14.091  1.00  0.00     0.310 C 
HETATM   16  C   UNL     1     -42.874 -53.158  16.052  1.00  0.00     0.310 C 
ENDBRANCH   8  14
ENDBRANCH   7   8
ENDBRANCH   1   7
BRANCH   4  17
HETATM   17  C   UNL     1     -41.695 -47.665  10.522  1.00  0.00     0.132 A 
HETATM   18  C   UNL     1     -40.571 -46.965  11.037  1.00  0.00     0.084 A 
HETATM   19  C   UNL     1     -40.672 -45.702  10.507  1.00  0.00     0.076 A 
HETATM   20  C   UNL     1     -39.861 -44.473  10.572  1.00  0.00     0.079 C 
HETATM   21  O   UNL     1     -41.796 -45.631   9.754  1.00  0.00    -0.241 OA
HETATM   22  N   UNL     1     -42.435 -46.849   9.767  1.00  0.00    -0.245 N 
ATOM     23  HN  UNL     1     -43.306 -47.085   9.291  1.00  0.00     0.196 HD
ENDBRANCH   4  17
TORSDOF 4
ENDMDL
MODEL 2
REMARK VINA RESULT:      -6.1      1.379      2.108
REMARK  4 active torsions:
REMARK  status: ('A' for Active; 'I' for Inactive)
REMARK    1  A    between atoms: N_2  and  C_4 
REMARK    2  A    between atoms: C_4  and  C_5 
REMARK    3  A    between atoms: C_5  and  N_6 
REMARK       I    between atoms: N_6  and  C_7 
REMARK       I    between atoms: C_7  and  N_9 
REMARK    4  A    between atoms: N_9  and  C_10 
ROOT
HETATM    1  N   UNL     1     -42.152 -51.188  11.821  1.00  0.00    -0.340 N 
HETATM    2  C   UNL     1     -41.614 -49.914  11.960  1.00  0.00     0.321 C 
HETATM    3  O   UNL     1     -40.853 -49.639  12.875  1.00  0.00    -0.247 OA
HETATM    4  N   UNL     1     -42.096 -49.043  11.007  1.00  0.00    -0.293 N 
HETATM    5  H   UNL     1     -42.245 -51.540  10.878  1.00  0.00     0.164 HD
HETATM    6  H   UNL     1     -42.950 -49.295  10.542  1.00  0.00     0.172 HD
ENDROOT
BRANCH   1   7
HETATM    7  C   UNL     1     -41.762 -52.179  12.820  1.00  0.00     0.166 C 
BRANCH   7   8
HETATM    8  C   UNL     1     -42.922 -52.696  13.766  1.00  0.00     0.174 C 
HETATM    9  C   UNL     1     -44.218 -52.637  12.901  1.00  0.00     0.043 C 
HETATM   10  C   UNL     1     -45.405 -53.443  13.417  1.00  0.00     0.003 C 
HETATM   11  C   UNL     1     -45.055 -54.895  13.712  1.00  0.00     0.000 C 
HETATM   12  C   UNL     1     -43.764 -55.095  14.494  1.00  0.00     0.003 C 
HETATM   13  C   UNL     1     -42.608 -54.203  14.039  1.00  0.00     0.043 C 
BRANCH   8  14
HETATM   14  N   UNL     1     -42.930 -51.864  15.023  1.00  0.00     0.091 N 
HETATM   15  C   UNL     1     -41.592 -51.603  15.583  1.00  0.00     0.310 C 
HETATM   16  C   UNL     1     -43.634 -50.583  14.990  1.00  0.00     0.310 C 
ENDBRANCH   8  14
ENDBRANCH   7   8
ENDBRANCH   1   7
BRANCH   4  17
HETATM   17  C   UNL     1     -41.679 -47.720  10.919  1.00  0.00     0.132 A 
HETATM   18  C   UNL     1     -42.524 -46.594  11.114  1.00  0.00     0.084 A 
HETATM   19  C   UNL     1     -41.700 -45.506  10.957  1.00  0.00     0.076 A 
HETATM   20  C   UNL     1     -41.869 -44.045  11.050  1.00  0.00     0.079 C 
HETATM   21  O   UNL     1     -40.453 -45.941  10.656  1.00  0.00    -0.241 OA
HETATM   22  N   UNL     1     -40.440 -47.316  10.627  1.00  0.00    -0.245 N 
ATOM     23  HN  UNL     1     -39.638 -47.913  10.422  1.00  0.00     0.196 HD
ENDBRANCH   4  17
TORSDOF 4
ENDMDL
MODEL 3
REMARK VINA RESULT:      -6.0      1.940      3.685
REMARK  4 active torsions:
REMARK  status: ('A' for Active; 'I' for Inactive)
REMARK    1  A    between atoms: N_2  and  C_4 
REMARK    2  A    between atoms: C_4  and  C_5 
REMARK    3  A    between atoms: C_5  and  N_6 
REMARK       I    between atoms: N_6  and  C_7 
REMARK       I    between atoms: C_7  and  N_9 
REMARK    4  A    between atoms: N_9  and  C_10 
ROOT
HETATM    1  N   UNL     1     -40.290 -50.294  11.433  1.00  0.00    -0.340 N 
HETATM    2  C   UNL     1     -40.936 -49.071  11.292  1.00  0.00     0.321 C 
HETATM    3  O   UNL     1     -42.152 -48.980  11.366  1.00  0.00    -0.247 OA
HETATM    4  N   UNL     1     -40.055 -48.052  11.005  1.00  0.00    -0.293 N 
HETATM    5  H   UNL     1     -39.412 -50.288  11.933  1.00  0.00     0.164 HD
HETATM    6  H   UNL     1     -39.154 -48.310  10.640  1.00  0.00     0.172 HD
ENDROOT
BRANCH   1   7
HETATM    7  C   UNL     1     -41.135 -51.461  11.673  1.00  0.00     0.166 C 
BRANCH   7   8
HETATM    8  C   UNL     1     -40.991 -52.133  13.100  1.00  0.00     0.174 C 
HETATM    9  C   UNL     1     -40.878 -53.665  12.826  1.00  0.00     0.043 C 
HETATM   10  C   UNL     1     -40.335 -54.511  13.971  1.00  0.00     0.003 C 
HETATM   11  C   UNL     1     -39.013 -53.993  14.519  1.00  0.00     0.000 C 
HETATM   12  C   UNL     1     -38.966 -52.491  14.763  1.00  0.00     0.003 C 
HETATM   13  C   UNL     1     -39.611 -51.653  13.658  1.00  0.00     0.043 C 
BRANCH   8  14
HETATM   14  N   UNL     1     -42.151 -51.701  13.960  1.00  0.00     0.091 N 
HETATM   15  C   UNL     1     -41.945 -50.415  14.649  1.00  0.00     0.310 C 
HETATM   16  C   UNL     1     -43.475 -51.645  13.343  1.00  0.00     0.310 C 
ENDBRANCH   8  14
ENDBRANCH   7   8
ENDBRANCH   1   7
BRANCH   4  17
HETATM   17  C   UNL     1     -40.458 -46.730  10.853  1.00  0.00     0.132 A 
HETATM   18  C   UNL     1     -39.927 -45.636  11.589  1.00  0.00     0.084 A 
HETATM   19  C   UNL     1     -40.588 -44.535  11.104  1.00  0.00     0.076 A 
HETATM   20  C   UNL     1     -40.534 -43.084  11.364  1.00  0.00     0.079 C 
HETATM   21  O   UNL     1     -41.479 -44.935  10.165  1.00  0.00    -0.241 OA
HETATM   22  N   UNL     1     -41.402 -46.300  10.012  1.00  0.00    -0.245 N 
ATOM     23  HN  UNL     1     -41.959 -46.874   9.379  1.00  0.00     0.196 HD
ENDBRANCH   4  17
TORSDOF 4
ENDMDL
MODEL 4
REMARK VINA RESULT:      -5.9      2.506      7.397
REMARK  4 active torsions:
REMARK  status: ('A' for Active; 'I' for Inactive)
REMARK    1  A    between atoms: N_2  and  C_4 
REMARK    2  A    between atoms: C_4  and  C_5 
REMARK    3  A    between atoms: C_5  and  N_6 
REMARK       I    between atoms: N_6  and  C_7 
REMARK       I    between atoms: C_7  and  N_9 
REMARK    4  A    between atoms: N_9  and  C_10 
ROOT
HETATM    1  N   UNL     1     -40.321 -49.201  10.923  1.00  0.00    -0.340 N 
HETATM    2  C   UNL     1     -40.535 -50.208  11.858  1.00  0.00     0.321 C 
HETATM    3  O   UNL     1     -40.157 -50.093  13.015  1.00  0.00    -0.247 OA
HETATM    4  N   UNL     1     -41.136 -51.313  11.299  1.00  0.00    -0.293 N 
HETATM    5  H   UNL     1     -41.063 -49.036  10.258  1.00  0.00     0.164 HD
HETATM    6  H   UNL     1     -41.081 -51.413  10.300  1.00  0.00     0.172 HD
ENDROOT
BRANCH   1   7
HETATM    7  C   UNL     1     -39.626 -48.005  11.391  1.00  0.00     0.166 C 
BRANCH   7   8
HETATM    8  C   UNL     1     -40.507 -46.692  11.488  1.00  0.00     0.174 C 
HETATM    9  C   UNL     1     -40.339 -46.189  12.955  1.00  0.00     0.043 C 
HETATM   10  C   UNL     1     -40.747 -44.744  13.218  1.00  0.00     0.003 C 
HETATM   11  C   UNL     1     -40.091 -43.757  12.263  1.00  0.00     0.000 C 
HETATM   12  C   UNL     1     -40.122 -44.169  10.797  1.00  0.00     0.003 C 
HETATM   13  C   UNL     1     -39.817 -45.647  10.551  1.00  0.00     0.043 C 
BRANCH   8  14
HETATM   14  N   UNL     1     -41.915 -47.020  11.061  1.00  0.00     0.091 N 
HETATM   15  C   UNL     1     -42.891 -47.040  12.165  1.00  0.00     0.310 C 
HETATM   16  C   UNL     1     -42.506 -46.224   9.987  1.00  0.00     0.310 C 
ENDBRANCH   8  14
ENDBRANCH   7   8
ENDBRANCH   1   7
BRANCH   4  17
HETATM   17  C   UNL     1     -41.483 -52.436  12.041  1.00  0.00     0.132 A 
HETATM   18  C   UNL     1     -42.647 -52.540  12.850  1.00  0.00     0.084 A 
HETATM   19  C   UNL     1     -42.600 -53.810  13.370  1.00  0.00     0.076 A 
HETATM   20  C   UNL     1     -43.471 -54.614  14.247  1.00  0.00     0.079 C 
HETATM   21  O   UNL     1     -41.472 -54.421  12.934  1.00  0.00    -0.241 OA
HETATM   22  N   UNL     1     -40.774 -53.566  12.112  1.00  0.00    -0.245 N 
ATOM     23  HN  UNL     1     -39.888 -53.758  11.647  1.00  0.00     0.196 HD
ENDBRANCH   4  17
TORSDOF 4
ENDMDL
MODEL 5
REMARK VINA RESULT:      -5.6      3.728      7.386
REMARK  4 active torsions:
REMARK  status: ('A' for Active; 'I' for Inactive)
REMARK    1  A    between atoms: N_2  and  C_4 
REMARK    2  A    between atoms: C_4  and  C_5 
REMARK    3  A    between atoms: C_5  and  N_6 
REMARK       I    between atoms: N_6  and  C_7 
REMARK       I    between atoms: C_7  and  N_9 
REMARK    4  A    between atoms: N_9  and  C_10 
ROOT
HETATM    1  N   UNL     1     -39.744 -51.228  13.111  1.00  0.00    -0.340 N 
HETATM    2  C   UNL     1     -41.091 -51.507  12.914  1.00  0.00     0.321 C 
HETATM    3  O   UNL     1     -41.878 -50.637  12.574  1.00  0.00    -0.247 OA
HETATM    4  N   UNL     1     -41.396 -52.817  13.210  1.00  0.00    -0.293 N 
HETATM    5  H   UNL     1     -39.086 -51.935  12.811  1.00  0.00     0.164 HD
HETATM    6  H   UNL     1     -40.750 -53.321  13.791  1.00  0.00     0.172 HD
ENDROOT
BRANCH   1   7
HETATM    7  C   UNL     1     -39.318 -49.848  12.892  1.00  0.00     0.166 C 
BRANCH   7   8
HETATM    8  C   UNL     1     -38.918 -49.036  14.191  1.00  0.00     0.174 C 
HETATM    9  C   UNL     1     -38.498 -50.113  15.239  1.00  0.00     0.043 C 
HETATM   10  C   UNL     1     -37.695 -49.608  16.432  1.00  0.00     0.003 C 
HETATM   11  C   UNL     1     -36.477 -48.790  16.027  1.00  0.00     0.000 C 
HETATM   12  C   UNL     1     -36.738 -47.745  14.950  1.00  0.00     0.003 C 
HETATM   13  C   UNL     1     -37.636 -48.227  13.809  1.00  0.00     0.043 C 
BRANCH   8  14
HETATM   14  N   UNL     1     -40.073 -48.150  14.584  1.00  0.00     0.091 N 
HETATM   15  C   UNL     1     -40.752 -47.505  13.447  1.00  0.00     0.310 C 
HETATM   16  C   UNL     1     -41.116 -48.723  15.433  1.00  0.00     0.310 C 
ENDBRANCH   8  14
ENDBRANCH   7   8
ENDBRANCH   1   7
BRANCH   4  17
HETATM   17  C   UNL     1     -42.673 -53.344  13.057  1.00  0.00     0.132 A 
HETATM   18  C   UNL     1     -43.261 -54.298  13.932  1.00  0.00     0.084 A 
HETATM   19  C   UNL     1     -44.518 -54.513  13.421  1.00  0.00     0.076 A 
HETATM   20  C   UNL     1     -45.681 -55.329  13.815  1.00  0.00     0.079 C 
HETATM   21  O   UNL     1     -44.669 -53.769  12.299  1.00  0.00    -0.241 OA
HETATM   22  N   UNL     1     -43.521 -53.046  12.069  1.00  0.00    -0.245 N 
ATOM     23  HN  UNL     1     -43.351 -52.406  11.294  1.00  0.00     0.196 HD
ENDBRANCH   4  17
TORSDOF 4
ENDMDL
MODEL 6
REMARK VINA RESULT:      -5.6      1.462      3.012
REMARK  4 active torsions:
REMARK  status: ('A' for Active; 'I' for Inactive)
REMARK    1  A    between atoms: N_2  and  C_4 
REMARK    2  A    between atoms: C_4  and  C_5 
REMARK    3  A    between atoms: C_5  and  N_6 
REMARK       I    between atoms: N_6  and  C_7 
REMARK       I    between atoms: C_7  and  N_9 
REMARK    4  A    between atoms: N_9  and  C_10 
ROOT
HETATM    1  N   UNL     1     -43.414 -50.880  12.527  1.00  0.00    -0.340 N 
HETATM    2  C   UNL     1     -43.044 -49.543  12.621  1.00  0.00     0.321 C 
HETATM    3  O   UNL     1     -43.022 -48.962  13.695  1.00  0.00    -0.247 OA
HETATM    4  N   UNL     1     -42.789 -48.989  11.386  1.00  0.00    -0.293 N 
HETATM    5  H   UNL     1     -42.903 -51.446  11.863  1.00  0.00     0.164 HD
HETATM    6  H   UNL     1     -43.166 -49.461  10.582  1.00  0.00     0.172 HD
ENDROOT
BRANCH   1   7
HETATM    7  C   UNL     1     -43.773 -51.553  13.772  1.00  0.00     0.166 C 
BRANCH   7   8
HETATM    8  C   UNL     1     -43.017 -52.913  14.062  1.00  0.00     0.174 C 
HETATM    9  C   UNL     1     -42.144 -53.180  12.797  1.00  0.00     0.043 C 
HETATM   10  C   UNL     1     -41.021 -54.198  12.961  1.00  0.00     0.003 C 
HETATM   11  C   UNL     1     -40.118 -53.902  14.150  1.00  0.00     0.000 C 
HETATM   12  C   UNL     1     -40.851 -53.553  15.439  1.00  0.00     0.003 C 
HETATM   13  C   UNL     1     -42.045 -52.616  15.250  1.00  0.00     0.043 C 
BRANCH   8  14
HETATM   14  N   UNL     1     -44.037 -53.974  14.394  1.00  0.00     0.091 N 
HETATM   15  C   UNL     1     -44.730 -53.763  15.677  1.00  0.00     0.310 C 
HETATM   16  C   UNL     1     -45.065 -54.268  13.398  1.00  0.00     0.310 C 
ENDBRANCH   8  14
ENDBRANCH   7   8
ENDBRANCH   1   7
BRANCH   4  17
HETATM   17  C   UNL     1     -42.368 -47.674  11.224  1.00  0.00     0.132 A 
HETATM   18  C   UNL     1     -41.046 -47.288  10.875  1.00  0.00     0.084 A 
HETATM   19  C   UNL     1     -41.089 -45.918  10.802  1.00  0.00     0.076 A 
HETATM   20  C   UNL     1     -40.122 -44.857  10.464  1.00  0.00     0.079 C 
HETATM   21  O   UNL     1     -42.339 -45.501  11.116  1.00  0.00    -0.241 OA
HETATM   22  N   UNL     1     -43.134 -46.591  11.383  1.00  0.00    -0.245 N 
ATOM     23  HN  UNL     1     -44.117 -46.576  11.652  1.00  0.00     0.196 HD
ENDBRANCH   4  17
TORSDOF 4
ENDMDL
MODEL 7
REMARK VINA RESULT:      -5.6      2.847      7.410
REMARK  4 active torsions:
REMARK  status: ('A' for Active; 'I' for Inactive)
REMARK    1  A    between atoms: N_2  and  C_4 
REMARK    2  A    between atoms: C_4  and  C_5 
REMARK    3  A    between atoms: C_5  and  N_6 
REMARK       I    between atoms: N_6  and  C_7 
REMARK       I    between atoms: C_7  and  N_9 
REMARK    4  A    between atoms: N_9  and  C_10 
ROOT
HETATM    1  N   UNL     1     -41.929 -50.149  11.756  1.00  0.00    -0.340 N 
HETATM    2  C   UNL     1     -42.564 -50.964  12.686  1.00  0.00     0.321 C 
HETATM    3  O   UNL     1     -42.763 -50.588  13.832  1.00  0.00    -0.247 OA
HETATM    4  N   UNL     1     -42.854 -52.208  12.171  1.00  0.00    -0.293 N 
HETATM    5  H   UNL     1     -42.277 -50.186  10.808  1.00  0.00     0.164 HD
HETATM    6  H   UNL     1     -42.345 -52.499  11.354  1.00  0.00     0.172 HD
ENDROOT
BRANCH   1   7
HETATM    7  C   UNL     1     -41.514 -48.826  12.215  1.00  0.00     0.166 C 
BRANCH   7   8
HETATM    8  C   UNL     1     -39.951 -48.600  12.341  1.00  0.00     0.174 C 
HETATM    9  C   UNL     1     -39.581 -49.060  13.784  1.00  0.00     0.043 C 
HETATM   10  C   UNL     1     -38.103 -49.327  14.043  1.00  0.00     0.003 C 
HETATM   11  C   UNL     1     -37.484 -50.280  13.030  1.00  0.00     0.000 C 
HETATM   12  C   UNL     1     -37.830 -49.982  11.578  1.00  0.00     0.003 C 
HETATM   13  C   UNL     1     -39.294 -49.608  11.343  1.00  0.00     0.043 C 
BRANCH   8  14
HETATM   14  N   UNL     1     -39.641 -47.162  12.008  1.00  0.00     0.091 N 
HETATM   15  C   UNL     1     -40.440 -46.614  10.898  1.00  0.00     0.310 C 
HETATM   16  C   UNL     1     -39.692 -46.184  13.092  1.00  0.00     0.310 C 
ENDBRANCH   8  14
ENDBRANCH   7   8
ENDBRANCH   1   7
BRANCH   4  17
HETATM   17  C   UNL     1     -43.520 -53.187  12.899  1.00  0.00     0.132 A 
HETATM   18  C   UNL     1     -44.933 -53.281  13.019  1.00  0.00     0.084 A 
HETATM   19  C   UNL     1     -45.145 -54.393  13.795  1.00  0.00     0.076 A 
HETATM   20  C   UNL     1     -46.333 -55.109  14.295  1.00  0.00     0.079 C 
HETATM   21  O   UNL     1     -43.946 -54.917  14.149  1.00  0.00    -0.241 OA
HETATM   22  N   UNL     1     -42.936 -54.165  13.596  1.00  0.00    -0.245 N 
ATOM     23  HN  UNL     1     -41.934 -54.323  13.699  1.00  0.00     0.196 HD
ENDBRANCH   4  17
TORSDOF 4
ENDMDL
MODEL 8
REMARK VINA RESULT:      -5.6      3.885      7.562
REMARK  4 active torsions:
REMARK  status: ('A' for Active; 'I' for Inactive)
REMARK    1  A    between atoms: N_2  and  C_4 
REMARK    2  A    between atoms: C_4  and  C_5 
REMARK    3  A    between atoms: C_5  and  N_6 
REMARK       I    between atoms: N_6  and  C_7 
REMARK       I    between atoms: C_7  and  N_9 
REMARK    4  A    between atoms: N_9  and  C_10 
ROOT
HETATM    1  N   UNL     1     -39.547 -52.265  14.794  1.00  0.00    -0.340 N 
HETATM    2  C   UNL     1     -40.898 -52.362  14.483  1.00  0.00     0.321 C 
HETATM    3  O   UNL     1     -41.652 -51.410  14.618  1.00  0.00    -0.247 OA
HETATM    4  N   UNL     1     -41.249 -53.635  14.093  1.00  0.00    -0.293 N 
HETATM    5  H   UNL     1     -38.906 -52.754  14.184  1.00  0.00     0.164 HD
HETATM    6  H   UNL     1     -40.628 -54.383  14.349  1.00  0.00     0.172 HD
ENDROOT
BRANCH   1   7
HETATM    7  C   UNL     1     -39.075 -50.973  15.285  1.00  0.00     0.166 C 
BRANCH   7   8
HETATM    8  C   UNL     1     -38.244 -50.105  14.254  1.00  0.00     0.174 C 
HETATM    9  C   UNL     1     -37.725 -51.117  13.186  1.00  0.00     0.043 C 
HETATM   10  C   UNL     1     -37.239 -50.514  11.873  1.00  0.00     0.003 C 
HETATM   11  C   UNL     1     -38.255 -49.577  11.236  1.00  0.00     0.000 C 
HETATM   12  C   UNL     1     -38.895 -48.581  12.193  1.00  0.00     0.003 C 
HETATM   13  C   UNL     1     -39.281 -49.171  13.550  1.00  0.00     0.043 C 
BRANCH   8  14
HETATM   14  N   UNL     1     -37.184 -49.340  15.006  1.00  0.00     0.091 N 
HETATM   15  C   UNL     1     -37.684 -48.137  15.694  1.00  0.00     0.310 C 
HETATM   16  C   UNL     1     -36.367 -50.074  15.971  1.00  0.00     0.310 C 
ENDBRANCH   8  14
ENDBRANCH   7   8
ENDBRANCH   1   7
BRANCH   4  17
HETATM   17  C   UNL     1     -42.538 -53.972  13.699  1.00  0.00     0.132 A 
HETATM   18  C   UNL     1     -43.478 -54.657  14.516  1.00  0.00     0.084 A 
HETATM   19  C   UNL     1     -44.609 -54.755  13.743  1.00  0.00     0.076 A 
HETATM   20  C   UNL     1     -45.966 -55.298  13.939  1.00  0.00     0.079 C 
HETATM   21  O   UNL     1     -44.362 -54.200  12.532  1.00  0.00    -0.241 OA
HETATM   22  N   UNL     1     -43.074 -53.718  12.501  1.00  0.00    -0.245 N 
ATOM     23  HN  UNL     1     -42.616 -53.256  11.716  1.00  0.00     0.196 HD
ENDBRANCH   4  17
TORSDOF 4
ENDMDL
MODEL 9
REMARK VINA RESULT:      -5.3      3.533      4.167
REMARK  4 active torsions:
REMARK  status: ('A' for Active; 'I' for Inactive)
REMARK    1  A    between atoms: N_2  and  C_4 
REMARK    2  A    between atoms: C_4  and  C_5 
REMARK    3  A    between atoms: C_5  and  N_6 
REMARK       I    between atoms: N_6  and  C_7 
REMARK       I    between atoms: C_7  and  N_9 
REMARK    4  A    between atoms: N_9  and  C_10 
ROOT
HETATM    1  N   UNL     1     -42.773 -51.144  15.584  1.00  0.00    -0.340 N 
HETATM    2  C   UNL     1     -41.647 -51.576  14.891  1.00  0.00     0.321 C 
HETATM    3  O   UNL     1     -41.326 -52.754  14.869  1.00  0.00    -0.247 OA
HETATM    4  N   UNL     1     -40.954 -50.528  14.327  1.00  0.00    -0.293 N 
HETATM    5  H   UNL     1     -43.316 -50.410  15.152  1.00  0.00     0.164 HD
HETATM    6  H   UNL     1     -41.125 -49.609  14.698  1.00  0.00     0.172 HD
ENDROOT
BRANCH   1   7
HETATM    7  C   UNL     1     -43.549 -52.166  16.280  1.00  0.00     0.166 C 
BRANCH   7   8
HETATM    8  C   UNL     1     -44.963 -52.503  15.653  1.00  0.00     0.174 C 
HETATM    9  C   UNL     1     -45.371 -51.232  14.846  1.00  0.00     0.043 C 
HETATM   10  C   UNL     1     -46.486 -51.418  13.823  1.00  0.00     0.003 C 
HETATM   11  C   UNL     1     -46.227 -52.570  12.862  1.00  0.00     0.000 C 
HETATM   12  C   UNL     1     -45.749 -53.857  13.521  1.00  0.00     0.003 C 
HETATM   13  C   UNL     1     -44.709 -53.652  14.623  1.00  0.00     0.043 C 
BRANCH   8  14
HETATM   14  N   UNL     1     -45.902 -52.910  16.761  1.00  0.00     0.091 N 
HETATM   15  C   UNL     1     -45.451 -54.081  17.534  1.00  0.00     0.310 C 
HETATM   16  C   UNL     1     -46.299 -51.889  17.729  1.00  0.00     0.310 C 
ENDBRANCH   8  14
ENDBRANCH   7   8
ENDBRANCH   1   7
BRANCH   4  17
HETATM   17  C   UNL     1     -39.812 -50.710  13.556  1.00  0.00     0.132 A 
HETATM   18  C   UNL     1     -39.402 -49.845  12.506  1.00  0.00     0.084 A 
HETATM   19  C   UNL     1     -38.228 -50.387  12.044  1.00  0.00     0.076 A 
HETATM   20  C   UNL     1     -37.241 -50.018  11.013  1.00  0.00     0.079 C 
HETATM   21  O   UNL     1     -37.963 -51.518  12.741  1.00  0.00    -0.241 OA
HETATM   22  N   UNL     1     -38.949 -51.722  13.677  1.00  0.00    -0.245 N 
ATOM     23  HN  UNL     1     -39.010 -52.497  14.337  1.00  0.00     0.196 HD
ENDBRANCH   4  17
TORSDOF 4
ENDMDL
