MODEL 1
REMARK VINA RESULT:      -5.6      0.000      0.000
REMARK  6 active torsions:
REMARK  status: ('A' for Active; 'I' for Inactive)
REMARK    1  A    between atoms: C_2  and  C_4 
REMARK    2  A    between atoms: C_4  and  C_5 
REMARK    3  A    between atoms: C_4  and  C_13 
REMARK    4  A    between atoms: C_5  and  N_6 
REMARK       I    between atoms: N_6  and  C_7 
REMARK    5  A    between atoms: C_7  and  C_9 
REMARK    6  A    between atoms: C_9  and  C_10 
ROOT
HETATM    1  C   UNL     1     -41.354 -49.231  11.804  1.00  0.00     0.058 C 
ENDROOT
BRANCH   1   2
HETATM    2  C   UNL     1     -42.240 -48.899  13.049  1.00  0.00    -0.011 C 
HETATM    3  C   UNL     1     -42.702 -47.443  13.160  1.00  0.00     0.010 C 
HETATM    4  C   UNL     1     -43.449 -49.837  13.162  1.00  0.00     0.010 C 
ENDBRANCH   1   2
BRANCH   1   5
HETATM    5  C   UNL     1     -41.376 -48.137  10.699  1.00  0.00     0.133 C 
BRANCH   5   6
HETATM    6  N   UNL     1     -42.546 -48.186   9.841  1.00  0.00    -0.360 N 
HETATM    7  C   UNL     1     -43.101 -47.062   9.272  1.00  0.00     0.217 C 
HETATM    8  O   UNL     1     -42.641 -45.933   9.412  1.00  0.00    -0.274 OA
HETATM    9  H   UNL     1     -43.070 -49.050   9.798  1.00  0.00     0.162 HD
BRANCH   7  10
HETATM   10  C   UNL     1     -44.361 -47.345   8.471  1.00  0.00     0.107 C 
BRANCH  10  11
HETATM   11  C   UNL     1     -45.538 -47.654   9.350  1.00  0.00    -0.006 A 
HETATM   12  C   UNL     1     -46.667 -48.500   8.820  1.00  0.00     0.005 A 
HETATM   13  C   UNL     1     -46.883 -47.035   9.071  1.00  0.00     0.005 A 
ENDBRANCH  10  11
ENDBRANCH   7  10
ENDBRANCH   5   6
ENDBRANCH   1   5
BRANCH   1  14
HETATM   14  C   UNL     1     -39.933 -49.660  12.165  1.00  0.00     0.035 A 
HETATM   15  C   UNL     1     -38.735 -48.963  12.121  1.00  0.00     0.045 A 
HETATM   16  C   UNL     1     -37.745 -49.871  12.522  1.00  0.00     0.109 A 
HETATM   17  N   UNL     1     -38.251 -51.070  12.793  1.00  0.00    -0.310 N 
HETATM   18  N   UNL     1     -39.567 -50.941  12.536  1.00  0.00    -0.301 N 
ATOM     19  HN  UNL     1     -37.755 -51.899  13.120  1.00  0.00     0.186 HD
HETATM   20  C   UNL     1     -40.388 -52.125  12.651  1.00  0.00     0.177 C 
ENDBRANCH   1  14
TORSDOF 6
ENDMDL
MODEL 2
REMARK VINA RESULT:      -5.2      1.520      2.017
REMARK  6 active torsions:
REMARK  status: ('A' for Active; 'I' for Inactive)
REMARK    1  A    between atoms: C_2  and  C_4 
REMARK    2  A    between atoms: C_4  and  C_5 
REMARK    3  A    between atoms: C_4  and  C_13 
REMARK    4  A    between atoms: C_5  and  N_6 
REMARK       I    between atoms: N_6  and  C_7 
REMARK    5  A    between atoms: C_7  and  C_9 
REMARK    6  A    between atoms: C_9  and  C_10 
ROOT
HETATM    1  C   UNL     1     -41.970 -48.884  12.155  1.00  0.00     0.058 C 
ENDROOT
BRANCH   1   2
HETATM    2  C   UNL     1     -41.623 -47.785  13.212  1.00  0.00    -0.011 C 
HETATM    3  C   UNL     1     -40.427 -46.893  12.868  1.00  0.00     0.010 C 
HETATM    4  C   UNL     1     -42.838 -46.914  13.557  1.00  0.00     0.010 C 
ENDBRANCH   1   2
BRANCH   1   5
HETATM    5  C   UNL     1     -41.592 -48.503  10.694  1.00  0.00     0.133 C 
BRANCH   5   6
HETATM    6  N   UNL     1     -42.731 -48.177   9.854  1.00  0.00    -0.360 N 
HETATM    7  C   UNL     1     -43.159 -46.885   9.647  1.00  0.00     0.217 C 
HETATM    8  O   UNL     1     -42.602 -45.901  10.122  1.00  0.00    -0.274 OA
HETATM    9  H   UNL     1     -43.331 -48.932   9.551  1.00  0.00     0.162 HD
BRANCH   7  10
HETATM   10  C   UNL     1     -44.410 -46.790   8.790  1.00  0.00     0.107 C 
BRANCH  10  11
HETATM   11  C   UNL     1     -45.550 -47.587   9.356  1.00  0.00    -0.006 A 
HETATM   12  C   UNL     1     -46.400 -48.431   8.440  1.00  0.00     0.005 A 
HETATM   13  C   UNL     1     -46.975 -47.193   9.068  1.00  0.00     0.005 A 
ENDBRANCH  10  11
ENDBRANCH   7  10
ENDBRANCH   5   6
ENDBRANCH   1   5
BRANCH   1  14
HETATM   14  C   UNL     1     -41.471 -50.276  12.536  1.00  0.00     0.035 A 
HETATM   15  C   UNL     1     -40.333 -50.970  12.152  1.00  0.00     0.045 A 
HETATM   16  C   UNL     1     -40.415 -52.222  12.777  1.00  0.00     0.109 A 
HETATM   17  N   UNL     1     -41.523 -52.345  13.500  1.00  0.00    -0.310 N 
HETATM   18  N   UNL     1     -42.172 -51.178  13.315  1.00  0.00    -0.301 N 
ATOM     19  HN  UNL     1     -41.816 -53.142  14.066  1.00  0.00     0.186 HD
HETATM   20  C   UNL     1     -43.481 -51.041  13.912  1.00  0.00     0.177 C 
ENDBRANCH   1  14
TORSDOF 6
ENDMDL
MODEL 3
REMARK VINA RESULT:      -5.1      1.781      3.492
REMARK  6 active torsions:
REMARK  status: ('A' for Active; 'I' for Inactive)
REMARK    1  A    between atoms: C_2  and  C_4 
REMARK    2  A    between atoms: C_4  and  C_5 
REMARK    3  A    between atoms: C_4  and  C_13 
REMARK    4  A    between atoms: C_5  and  N_6 
REMARK       I    between atoms: N_6  and  C_7 
REMARK    5  A    between atoms: C_7  and  C_9 
REMARK    6  A    between atoms: C_9  and  C_10 
ROOT
HETATM    1  C   UNL     1     -39.840 -50.354  12.335  1.00  0.00     0.058 C 
ENDROOT
BRANCH   1   2
HETATM    2  C   UNL     1     -38.303 -50.631  12.398  1.00  0.00    -0.011 C 
HETATM    3  C   UNL     1     -37.460 -49.918  11.337  1.00  0.00     0.010 C 
HETATM    4  C   UNL     1     -37.725 -50.355  13.792  1.00  0.00     0.010 C 
ENDBRANCH   1   2
BRANCH   1   5
HETATM    5  C   UNL     1     -40.328 -49.785  10.971  1.00  0.00     0.133 C 
BRANCH   5   6
HETATM    6  N   UNL     1     -41.704 -49.320  10.982  1.00  0.00    -0.360 N 
HETATM    7  C   UNL     1     -42.048 -48.005  10.765  1.00  0.00     0.217 C 
HETATM    8  O   UNL     1     -41.233 -47.124  10.512  1.00  0.00    -0.274 OA
HETATM    9  H   UNL     1     -42.417 -49.949  11.328  1.00  0.00     0.162 HD
BRANCH   7  10
HETATM   10  C   UNL     1     -43.538 -47.738  10.893  1.00  0.00     0.107 C 
BRANCH  10  11
HETATM   11  C   UNL     1     -44.093 -47.026   9.693  1.00  0.00    -0.006 A 
HETATM   12  C   UNL     1     -45.317 -47.569   9.000  1.00  0.00     0.005 A 
HETATM   13  C   UNL     1     -43.979 -47.637   8.321  1.00  0.00     0.005 A 
ENDBRANCH  10  11
ENDBRANCH   7  10
ENDBRANCH   5   6
ENDBRANCH   1   5
BRANCH   1  14
HETATM   14  C   UNL     1     -40.692 -51.530  12.808  1.00  0.00     0.035 A 
HETATM   15  C   UNL     1     -40.856 -52.803  12.282  1.00  0.00     0.045 A 
HETATM   16  C   UNL     1     -41.793 -53.443  13.105  1.00  0.00     0.109 A 
HETATM   17  N   UNL     1     -42.220 -52.650  14.082  1.00  0.00    -0.310 N 
HETATM   18  N   UNL     1     -41.577 -51.485  13.869  1.00  0.00    -0.301 N 
ATOM     19  HN  UNL     1     -42.883 -52.874  14.824  1.00  0.00     0.186 HD
HETATM   20  C   UNL     1     -41.909 -50.374  14.732  1.00  0.00     0.177 C 
ENDBRANCH   1  14
TORSDOF 6
ENDMDL
MODEL 4
REMARK VINA RESULT:      -5.1      2.898      4.342
REMARK  6 active torsions:
REMARK  status: ('A' for Active; 'I' for Inactive)
REMARK    1  A    between atoms: C_2  and  C_4 
REMARK    2  A    between atoms: C_4  and  C_5 
REMARK    3  A    between atoms: C_4  and  C_13 
REMARK    4  A    between atoms: C_5  and  N_6 
REMARK       I    between atoms: N_6  and  C_7 
REMARK    5  A    between atoms: C_7  and  C_9 
REMARK    6  A    between atoms: C_9  and  C_10 
ROOT
HETATM    1  C   UNL     1     -44.392 -51.802  12.923  1.00  0.00     0.058 C 
ENDROOT
BRANCH   1   2
HETATM    2  C   UNL     1     -45.911 -52.055  13.197  1.00  0.00    -0.011 C 
HETATM    3  C   UNL     1     -46.484 -51.352  14.430  1.00  0.00     0.010 C 
HETATM    4  C   UNL     1     -46.777 -51.742  11.970  1.00  0.00     0.010 C 
ENDBRANCH   1   2
BRANCH   1   5
HETATM    5  C   UNL     1     -43.898 -50.387  13.342  1.00  0.00     0.133 C 
BRANCH   5   6
HETATM    6  N   UNL     1     -43.458 -49.562  12.231  1.00  0.00    -0.360 N 
HETATM    7  C   UNL     1     -43.048 -48.257  12.389  1.00  0.00     0.217 C 
HETATM    8  O   UNL     1     -42.986 -47.692  13.476  1.00  0.00    -0.274 OA
HETATM    9  H   UNL     1     -43.620 -49.900  11.292  1.00  0.00     0.162 HD
BRANCH   7  10
HETATM   10  C   UNL     1     -42.699 -47.568  11.081  1.00  0.00     0.107 C 
BRANCH  10  11
HETATM   11  C   UNL     1     -43.873 -47.490  10.148  1.00  0.00    -0.006 A 
HETATM   12  C   UNL     1     -43.658 -47.621   8.662  1.00  0.00     0.005 A 
HETATM   13  C   UNL     1     -44.055 -46.296   9.247  1.00  0.00     0.005 A 
ENDBRANCH  10  11
ENDBRANCH   7  10
ENDBRANCH   5   6
ENDBRANCH   1   5
BRANCH   1  14
HETATM   14  C   UNL     1     -43.484 -52.911  13.451  1.00  0.00     0.035 A 
HETATM   15  C   UNL     1     -43.651 -53.796  14.506  1.00  0.00     0.045 A 
HETATM   16  C   UNL     1     -42.477 -54.561  14.557  1.00  0.00     0.109 A 
HETATM   17  N   UNL     1     -41.606 -54.197  13.622  1.00  0.00    -0.310 N 
HETATM   18  N   UNL     1     -42.209 -53.174  12.986  1.00  0.00    -0.301 N 
ATOM     19  HN  UNL     1     -40.689 -54.601  13.430  1.00  0.00     0.186 HD
HETATM   20  C   UNL     1     -41.458 -52.494  11.956  1.00  0.00     0.177 C 
ENDBRANCH   1  14
TORSDOF 6
ENDMDL
MODEL 5
REMARK VINA RESULT:      -5.1      4.338      7.167
REMARK  6 active torsions:
REMARK  status: ('A' for Active; 'I' for Inactive)
REMARK    1  A    between atoms: C_2  and  C_4 
REMARK    2  A    between atoms: C_4  and  C_5 
REMARK    3  A    between atoms: C_4  and  C_13 
REMARK    4  A    between atoms: C_5  and  N_6 
REMARK       I    between atoms: N_6  and  C_7 
REMARK    5  A    between atoms: C_7  and  C_9 
REMARK    6  A    between atoms: C_9  and  C_10 
ROOT
HETATM    1  C   UNL     1     -43.611 -53.128  13.703  1.00  0.00     0.058 C 
ENDROOT
BRANCH   1   2
HETATM    2  C   UNL     1     -43.649 -54.660  14.014  1.00  0.00    -0.011 C 
HETATM    3  C   UNL     1     -42.919 -55.093  15.289  1.00  0.00     0.010 C 
HETATM    4  C   UNL     1     -45.082 -55.209  14.026  1.00  0.00     0.010 C 
ENDBRANCH   1   2
BRANCH   1   5
HETATM    5  C   UNL     1     -43.248 -52.788  12.229  1.00  0.00     0.133 C 
BRANCH   5   6
HETATM    6  N   UNL     1     -42.317 -51.683  12.089  1.00  0.00    -0.360 N 
HETATM    7  C   UNL     1     -40.952 -51.855  12.081  1.00  0.00     0.217 C 
HETATM    8  O   UNL     1     -40.405 -52.951  12.156  1.00  0.00    -0.274 OA
HETATM    9  H   UNL     1     -42.678 -50.741  12.173  1.00  0.00     0.162 HD
BRANCH   7  10
HETATM   10  C   UNL     1     -40.176 -50.551  11.994  1.00  0.00     0.107 C 
BRANCH  10  11
HETATM   11  C   UNL     1     -38.769 -50.692  12.502  1.00  0.00    -0.006 A 
HETATM   12  C   UNL     1     -37.971 -49.459  12.844  1.00  0.00     0.005 A 
HETATM   13  C   UNL     1     -37.602 -50.281  11.642  1.00  0.00     0.005 A 
ENDBRANCH  10  11
ENDBRANCH   7  10
ENDBRANCH   5   6
ENDBRANCH   1   5
BRANCH   1  14
HETATM   14  C   UNL     1     -44.853 -52.379  14.181  1.00  0.00     0.035 A 
HETATM   15  C   UNL     1     -45.990 -51.974  13.495  1.00  0.00     0.045 A 
HETATM   16  C   UNL     1     -46.778 -51.286  14.428  1.00  0.00     0.109 A 
HETATM   17  N   UNL     1     -46.200 -51.231  15.623  1.00  0.00    -0.310 N 
HETATM   18  N   UNL     1     -45.021 -51.860  15.451  1.00  0.00    -0.301 N 
ATOM     19  HN  UNL     1     -46.566 -50.808  16.477  1.00  0.00     0.186 HD
HETATM   20  C   UNL     1     -44.108 -51.883  16.571  1.00  0.00     0.177 C 
ENDBRANCH   1  14
TORSDOF 6
ENDMDL
MODEL 6
REMARK VINA RESULT:      -5.1      2.582      3.488
REMARK  6 active torsions:
REMARK  status: ('A' for Active; 'I' for Inactive)
REMARK    1  A    between atoms: C_2  and  C_4 
REMARK    2  A    between atoms: C_4  and  C_5 
REMARK    3  A    between atoms: C_4  and  C_13 
REMARK    4  A    between atoms: C_5  and  N_6 
REMARK       I    between atoms: N_6  and  C_7 
REMARK    5  A    between atoms: C_7  and  C_9 
REMARK    6  A    between atoms: C_9  and  C_10 
ROOT
HETATM    1  C   UNL     1     -41.177 -45.360  12.434  1.00  0.00     0.058 C 
ENDROOT
BRANCH   1   2
HETATM    2  C   UNL     1     -40.071 -44.490  11.753  1.00  0.00    -0.011 C 
HETATM    3  C   UNL     1     -40.553 -43.175  11.134  1.00  0.00     0.010 C 
HETATM    4  C   UNL     1     -38.892 -44.218  12.697  1.00  0.00     0.010 C 
ENDBRANCH   1   2
BRANCH   1   5
HETATM    5  C   UNL     1     -42.616 -45.081  11.911  1.00  0.00     0.133 C 
BRANCH   5   6
HETATM    6  N   UNL     1     -43.103 -46.068  10.964  1.00  0.00    -0.360 N 
HETATM    7  C   UNL     1     -43.541 -45.737   9.701  1.00  0.00     0.217 C 
HETATM    8  O   UNL     1     -43.528 -44.594   9.256  1.00  0.00    -0.274 OA
HETATM    9  H   UNL     1     -43.286 -47.004  11.302  1.00  0.00     0.162 HD
BRANCH   7  10
HETATM   10  C   UNL     1     -44.069 -46.923   8.912  1.00  0.00     0.107 C 
BRANCH  10  11
HETATM   11  C   UNL     1     -45.310 -47.506   9.523  1.00  0.00    -0.006 A 
HETATM   12  C   UNL     1     -46.239 -48.342   8.679  1.00  0.00     0.005 A 
HETATM   13  C   UNL     1     -46.670 -46.979   9.143  1.00  0.00     0.005 A 
ENDBRANCH  10  11
ENDBRANCH   7  10
ENDBRANCH   5   6
ENDBRANCH   1   5
BRANCH   1  14
HETATM   14  C   UNL     1     -40.850 -46.851  12.458  1.00  0.00     0.035 A 
HETATM   15  C   UNL     1     -40.315 -47.680  11.484  1.00  0.00     0.045 A 
HETATM   16  C   UNL     1     -40.278 -48.964  12.045  1.00  0.00     0.109 A 
HETATM   17  N   UNL     1     -40.764 -48.979  13.283  1.00  0.00    -0.310 N 
HETATM   18  N   UNL     1     -41.143 -47.705  13.506  1.00  0.00    -0.301 N 
ATOM     19  HN  UNL     1     -40.835 -49.774  13.918  1.00  0.00     0.186 HD
HETATM   20  C   UNL     1     -41.806 -47.416  14.757  1.00  0.00     0.177 C 
ENDBRANCH   1  14
TORSDOF 6
ENDMDL
MODEL 7
REMARK VINA RESULT:      -5.1      4.698      6.105
REMARK  6 active torsions:
REMARK  status: ('A' for Active; 'I' for Inactive)
REMARK    1  A    between atoms: C_2  and  C_4 
REMARK    2  A    between atoms: C_4  and  C_5 
REMARK    3  A    between atoms: C_4  and  C_13 
REMARK    4  A    between atoms: C_5  and  N_6 
REMARK       I    between atoms: N_6  and  C_7 
REMARK    5  A    between atoms: C_7  and  C_9 
REMARK    6  A    between atoms: C_9  and  C_10 
ROOT
HETATM    1  C   UNL     1     -42.545 -54.093  13.909  1.00  0.00     0.058 C 
ENDROOT
BRANCH   1   2
HETATM    2  C   UNL     1     -42.854 -54.385  15.414  1.00  0.00    -0.011 C 
HETATM    3  C   UNL     1     -42.311 -55.711  15.953  1.00  0.00     0.010 C 
HETATM    4  C   UNL     1     -42.411 -53.233  16.326  1.00  0.00     0.010 C 
ENDBRANCH   1   2
BRANCH   1   5
HETATM    5  C   UNL     1     -43.807 -53.809  13.045  1.00  0.00     0.133 C 
BRANCH   5   6
HETATM    6  N   UNL     1     -44.804 -52.986  13.705  1.00  0.00    -0.360 N 
HETATM    7  C   UNL     1     -45.896 -52.466  13.047  1.00  0.00     0.217 C 
HETATM    8  O   UNL     1     -46.139 -52.679  11.864  1.00  0.00    -0.274 OA
HETATM    9  H   UNL     1     -44.599 -52.642  14.634  1.00  0.00     0.162 HD
BRANCH   7  10
HETATM   10  C   UNL     1     -46.765 -51.579  13.922  1.00  0.00     0.107 C 
BRANCH  10  11
HETATM   11  C   UNL     1     -46.662 -51.936  15.376  1.00  0.00    -0.006 A 
HETATM   12  C   UNL     1     -47.600 -51.302  16.372  1.00  0.00     0.005 A 
HETATM   13  C   UNL     1     -46.144 -50.933  16.375  1.00  0.00     0.005 A 
ENDBRANCH  10  11
ENDBRANCH   7  10
ENDBRANCH   5   6
ENDBRANCH   1   5
BRANCH   1  14
HETATM   14  C   UNL     1     -41.456 -53.041  13.704  1.00  0.00     0.035 A 
HETATM   15  C   UNL     1     -41.539 -51.706  13.340  1.00  0.00     0.045 A 
HETATM   16  C   UNL     1     -40.219 -51.243  13.260  1.00  0.00     0.109 A 
HETATM   17  N   UNL     1     -39.339 -52.202  13.535  1.00  0.00    -0.310 N 
HETATM   18  N   UNL     1     -40.097 -53.292  13.764  1.00  0.00    -0.301 N 
ATOM     19  HN  UNL     1     -38.322 -52.128  13.566  1.00  0.00     0.186 HD
HETATM   20  C   UNL     1     -39.412 -54.542  14.004  1.00  0.00     0.177 C 
ENDBRANCH   1  14
TORSDOF 6
ENDMDL
MODEL 8
REMARK VINA RESULT:      -5.0      3.594      5.986
REMARK  6 active torsions:
REMARK  status: ('A' for Active; 'I' for Inactive)
REMARK    1  A    between atoms: C_2  and  C_4 
REMARK    2  A    between atoms: C_4  and  C_5 
REMARK    3  A    between atoms: C_4  and  C_13 
REMARK    4  A    between atoms: C_5  and  N_6 
REMARK       I    between atoms: N_6  and  C_7 
REMARK    5  A    between atoms: C_7  and  C_9 
REMARK    6  A    between atoms: C_9  and  C_10 
ROOT
HETATM    1  C   UNL     1     -41.854 -52.704  13.049  1.00  0.00     0.058 C 
ENDROOT
BRANCH   1   2
HETATM    2  C   UNL     1     -41.461 -54.033  13.773  1.00  0.00    -0.011 C 
HETATM    3  C   UNL     1     -39.971 -54.385  13.741  1.00  0.00     0.010 C 
HETATM    4  C   UNL     1     -41.974 -54.075  15.218  1.00  0.00     0.010 C 
ENDBRANCH   1   2
BRANCH   1   5
HETATM    5  C   UNL     1     -41.111 -52.470  11.702  1.00  0.00     0.133 C 
BRANCH   5   6
HETATM    6  N   UNL     1     -40.626 -51.113  11.523  1.00  0.00    -0.360 N 
HETATM    7  C   UNL     1     -39.411 -50.685  12.008  1.00  0.00     0.217 C 
HETATM    8  O   UNL     1     -38.623 -51.414  12.601  1.00  0.00    -0.274 OA
HETATM    9  H   UNL     1     -41.275 -50.416  11.180  1.00  0.00     0.162 HD
BRANCH   7  10
HETATM   10  C   UNL     1     -39.144 -49.209  11.762  1.00  0.00     0.107 C 
BRANCH  10  11
HETATM   11  C   UNL     1     -40.412 -48.417  11.624  1.00  0.00    -0.006 A 
HETATM   12  C   UNL     1     -40.346 -46.956  11.258  1.00  0.00     0.005 A 
HETATM   13  C   UNL     1     -40.770 -47.364  12.641  1.00  0.00     0.005 A 
ENDBRANCH  10  11
ENDBRANCH   7  10
ENDBRANCH   5   6
ENDBRANCH   1   5
BRANCH   1  14
HETATM   14  C   UNL     1     -43.363 -52.504  12.920  1.00  0.00     0.035 A 
HETATM   15  C   UNL     1     -44.360 -53.367  12.489  1.00  0.00     0.045 A 
HETATM   16  C   UNL     1     -45.553 -52.632  12.536  1.00  0.00     0.109 A 
HETATM   17  N   UNL     1     -45.353 -51.385  12.950  1.00  0.00    -0.310 N 
HETATM   18  N   UNL     1     -44.021 -51.308  13.141  1.00  0.00    -0.301 N 
ATOM     19  HN  UNL     1     -46.049 -50.653  13.090  1.00  0.00     0.186 HD
HETATM   20  C   UNL     1     -43.473 -50.023  13.512  1.00  0.00     0.177 C 
ENDBRANCH   1  14
TORSDOF 6
ENDMDL
MODEL 9
REMARK VINA RESULT:      -4.9      5.360      7.157
REMARK  6 active torsions:
REMARK  status: ('A' for Active; 'I' for Inactive)
REMARK    1  A    between atoms: C_2  and  C_4 
REMARK    2  A    between atoms: C_4  and  C_5 
REMARK    3  A    between atoms: C_4  and  C_13 
REMARK    4  A    between atoms: C_5  and  N_6 
REMARK       I    between atoms: N_6  and  C_7 
REMARK    5  A    between atoms: C_7  and  C_9 
REMARK    6  A    between atoms: C_9  and  C_10 
ROOT
HETATM    1  C   UNL     1     -41.796 -54.221  14.621  1.00  0.00     0.058 C 
ENDROOT
BRANCH   1   2
HETATM    2  C   UNL     1     -40.337 -54.425  15.147  1.00  0.00    -0.011 C 
HETATM    3  C   UNL     1     -40.151 -55.570  16.147  1.00  0.00     0.010 C 
HETATM    4  C   UNL     1     -39.328 -54.568  14.000  1.00  0.00     0.010 C 
ENDBRANCH   1   2
BRANCH   1   5
HETATM    5  C   UNL     1     -42.867 -55.057  15.378  1.00  0.00     0.133 C 
BRANCH   5   6
HETATM    6  N   UNL     1     -44.143 -54.382  15.534  1.00  0.00    -0.360 N 
HETATM    7  C   UNL     1     -45.252 -54.702  14.784  1.00  0.00     0.217 C 
HETATM    8  O   UNL     1     -45.270 -55.600  13.948  1.00  0.00    -0.274 OA
HETATM    9  H   UNL     1     -44.171 -53.537  16.089  1.00  0.00     0.162 HD
BRANCH   7  10
HETATM   10  C   UNL     1     -46.454 -53.818  15.069  1.00  0.00     0.107 C 
BRANCH  10  11
HETATM   11  C   UNL     1     -46.092 -52.361  15.112  1.00  0.00    -0.006 A 
HETATM   12  C   UNL     1     -47.131 -51.343  15.508  1.00  0.00     0.005 A 
HETATM   13  C   UNL     1     -46.647 -51.405  14.087  1.00  0.00     0.005 A 
ENDBRANCH  10  11
ENDBRANCH   7  10
ENDBRANCH   5   6
ENDBRANCH   1   5
BRANCH   1  14
HETATM   14  C   UNL     1     -42.196 -52.752  14.491  1.00  0.00     0.035 A 
HETATM   15  C   UNL     1     -42.071 -51.694  15.379  1.00  0.00     0.045 A 
HETATM   16  C   UNL     1     -42.650 -50.587  14.744  1.00  0.00     0.109 A 
HETATM   17  N   UNL     1     -43.129 -50.896  13.543  1.00  0.00    -0.310 N 
HETATM   18  N   UNL     1     -42.883 -52.215  13.418  1.00  0.00    -0.301 N 
ATOM     19  HN  UNL     1     -43.579 -50.276  12.870  1.00  0.00     0.186 HD
HETATM   20  C   UNL     1     -43.379 -52.876  12.232  1.00  0.00     0.177 C 
ENDBRANCH   1  14
TORSDOF 6
ENDMDL
