MODEL 1
REMARK VINA RESULT:      -6.6      0.000      0.000
REMARK  5 active torsions:
REMARK  status: ('A' for Active; 'I' for Inactive)
REMARK    1  A    between atoms: C_2  and  C_3 
REMARK       I    between atoms: C_2  and  N_13 
REMARK    2  A    between atoms: C_3  and  N_4 
REMARK    3  A    between atoms: N_4  and  C_5 
REMARK    4  A    between atoms: C_5  and  C_6 
REMARK    5  A    between atoms: C_6  and  N_7 
ROOT
HETATM    1  O   UNL     1     -43.390 -49.323  12.475  1.00  0.00    -0.271 OA
HETATM    2  C   UNL     1     -42.223 -49.286  12.088  1.00  0.00     0.248 C 
HETATM    3  N   UNL     1     -41.330 -50.369  12.127  1.00  0.00    -0.341 N 
HETATM    4  C   UNL     1     -39.912 -50.259  11.730  1.00  0.00     0.152 C 
HETATM    5  C   UNL     1     -38.996 -51.077  12.636  1.00  0.00     0.188 C 
HETATM    6  O   UNL     1     -39.430 -52.432  12.722  1.00  0.00    -0.382 OA
HETATM    7  C   UNL     1     -40.774 -52.505  13.234  1.00  0.00     0.144 C 
HETATM    8  C   UNL     1     -41.107 -53.984  13.389  1.00  0.00     0.034 C 
HETATM    9  C   UNL     1     -42.546 -54.191  13.834  1.00  0.00     0.003 C 
HETATM   10  C   UNL     1     -43.515 -53.520  12.871  1.00  0.00     0.002 C 
HETATM   11  C   UNL     1     -43.217 -52.029  12.724  1.00  0.00     0.028 C 
HETATM   12  C   UNL     1     -41.768 -51.778  12.287  1.00  0.00     0.116 C 
ENDROOT
BRANCH   2  13
HETATM   13  C   UNL     1     -41.615 -47.988  11.557  1.00  0.00     0.372 C 
BRANCH  13  14
HETATM   14  N   UNL     1     -41.686 -47.850  10.095  1.00  0.00     0.093 N 
HETATM   15  H   UNL     1     -41.798 -48.782   9.689  1.00  0.00     0.316 HD
BRANCH  14  16
HETATM   16  C   UNL     1     -42.819 -46.980   9.732  1.00  0.00     0.291 C 
BRANCH  16  17
HETATM   17  C   UNL     1     -43.389 -47.277   8.335  1.00  0.00     0.178 C 
BRANCH  17  18
HETATM   18  N   UNL     1     -44.747 -47.770   8.392  1.00  0.00    -0.302 N 
HETATM   19  C   UNL     1     -45.612 -47.654   9.435  1.00  0.00     0.111 A 
HETATM   20  C   UNL     1     -46.741 -48.343   9.063  1.00  0.00     0.037 A 
HETATM   21  C   UNL     1     -46.447 -48.852   7.784  1.00  0.00     0.108 A 
HETATM   22  N   UNL     1     -45.229 -48.504   7.369  1.00  0.00    -0.310 N 
ATOM     23  HN  UNL     1     -44.771 -48.738   6.488  1.00  0.00     0.186 HD
ENDBRANCH  17  18
ENDBRANCH  16  17
ENDBRANCH  14  16
ENDBRANCH  13  14
ENDBRANCH   2  13
TORSDOF 5
ENDMDL
MODEL 2
REMARK VINA RESULT:      -6.3      2.500      4.368
REMARK  5 active torsions:
REMARK  status: ('A' for Active; 'I' for Inactive)
REMARK    1  A    between atoms: C_2  and  C_3 
REMARK       I    between atoms: C_2  and  N_13 
REMARK    2  A    between atoms: C_3  and  N_4 
REMARK    3  A    between atoms: N_4  and  C_5 
REMARK    4  A    between atoms: C_5  and  C_6 
REMARK    5  A    between atoms: C_6  and  N_7 
ROOT
HETATM    1  O   UNL     1     -42.724 -50.342  12.555  1.00  0.00    -0.271 OA
HETATM    2  C   UNL     1     -42.283 -51.490  12.591  1.00  0.00     0.248 C 
HETATM    3  N   UNL     1     -42.958 -52.591  13.141  1.00  0.00    -0.341 N 
HETATM    4  C   UNL     1     -42.359 -53.937  13.240  1.00  0.00     0.152 C 
HETATM    5  C   UNL     1     -42.729 -54.637  14.544  1.00  0.00     0.188 C 
HETATM    6  O   UNL     1     -44.141 -54.660  14.737  1.00  0.00    -0.382 OA
HETATM    7  C   UNL     1     -44.672 -53.321  14.763  1.00  0.00     0.144 C 
HETATM    8  C   UNL     1     -46.159 -53.443  15.078  1.00  0.00     0.034 C 
HETATM    9  C   UNL     1     -46.852 -52.090  15.035  1.00  0.00     0.003 C 
HETATM   10  C   UNL     1     -46.642 -51.413  13.688  1.00  0.00     0.002 C 
HETATM   11  C   UNL     1     -45.157 -51.255  13.366  1.00  0.00     0.028 C 
HETATM   12  C   UNL     1     -44.418 -52.598  13.412  1.00  0.00     0.116 C 
ENDROOT
BRANCH   2  13
HETATM   13  C   UNL     1     -40.886 -51.810  12.059  1.00  0.00     0.372 C 
BRANCH  13  14
HETATM   14  N   UNL     1     -39.838 -50.905  12.553  1.00  0.00     0.093 N 
HETATM   15  H   UNL     1     -39.040 -51.471  12.853  1.00  0.00     0.316 HD
BRANCH  14  16
HETATM   16  C   UNL     1     -39.447 -49.968  11.484  1.00  0.00     0.291 C 
BRANCH  16  17
HETATM   17  C   UNL     1     -39.672 -48.494  11.859  1.00  0.00     0.178 C 
BRANCH  17  18
HETATM   18  N   UNL     1     -40.733 -47.889  11.085  1.00  0.00    -0.302 N 
HETATM   19  C   UNL     1     -41.117 -46.584  11.111  1.00  0.00     0.111 A 
HETATM   20  C   UNL     1     -42.208 -46.498  10.280  1.00  0.00     0.037 A 
HETATM   21  C   UNL     1     -42.411 -47.812   9.817  1.00  0.00     0.108 A 
HETATM   22  N   UNL     1     -41.511 -48.666  10.306  1.00  0.00    -0.310 N 
ATOM     23  HN  UNL     1     -41.431 -49.668  10.132  1.00  0.00     0.186 HD
ENDBRANCH  17  18
ENDBRANCH  16  17
ENDBRANCH  14  16
ENDBRANCH  13  14
ENDBRANCH   2  13
TORSDOF 5
ENDMDL
MODEL 3
REMARK VINA RESULT:      -6.2      1.702      2.494
REMARK  5 active torsions:
REMARK  status: ('A' for Active; 'I' for Inactive)
REMARK    1  A    between atoms: C_2  and  C_3 
REMARK       I    between atoms: C_2  and  N_13 
REMARK    2  A    between atoms: C_3  and  N_4 
REMARK    3  A    between atoms: N_4  and  C_5 
REMARK    4  A    between atoms: C_5  and  C_6 
REMARK    5  A    between atoms: C_6  and  N_7 
ROOT
HETATM    1  O   UNL     1     -43.164 -49.822  12.572  1.00  0.00    -0.271 OA
HETATM    2  C   UNL     1     -42.173 -50.503  12.312  1.00  0.00     0.248 C 
HETATM    3  N   UNL     1     -42.068 -51.885  12.541  1.00  0.00    -0.341 N 
HETATM    4  C   UNL     1     -40.830 -52.651  12.293  1.00  0.00     0.152 C 
HETATM    5  C   UNL     1     -40.588 -53.714  13.360  1.00  0.00     0.188 C 
HETATM    6  O   UNL     1     -41.725 -54.561  13.513  1.00  0.00    -0.382 OA
HETATM    7  C   UNL     1     -42.886 -53.791  13.880  1.00  0.00     0.144 C 
HETATM    8  C   UNL     1     -44.015 -54.786  14.124  1.00  0.00     0.034 C 
HETATM    9  C   UNL     1     -45.328 -54.080  14.425  1.00  0.00     0.003 C 
HETATM   10  C   UNL     1     -45.695 -53.113  13.308  1.00  0.00     0.002 C 
HETATM   11  C   UNL     1     -44.588 -52.089  13.068  1.00  0.00     0.028 C 
HETATM   12  C   UNL     1     -43.242 -52.763  12.772  1.00  0.00     0.116 C 
ENDROOT
BRANCH   2  13
HETATM   13  C   UNL     1     -40.908 -49.862  11.742  1.00  0.00     0.372 C 
BRANCH  13  14
HETATM   14  N   UNL     1     -41.145 -49.034  10.550  1.00  0.00     0.093 N 
HETATM   15  H   UNL     1     -42.108 -49.185  10.240  1.00  0.00     0.316 HD
BRANCH  14  16
HETATM   16  C   UNL     1     -40.913 -47.616  10.876  1.00  0.00     0.291 C 
BRANCH  16  17
HETATM   17  C   UNL     1     -42.171 -46.899  11.393  1.00  0.00     0.178 C 
BRANCH  17  18
HETATM   18  N   UNL     1     -43.236 -46.891  10.416  1.00  0.00    -0.302 N 
HETATM   19  C   UNL     1     -43.441 -45.962   9.442  1.00  0.00     0.111 A 
HETATM   20  C   UNL     1     -44.612 -46.324   8.821  1.00  0.00     0.037 A 
HETATM   21  C   UNL     1     -45.043 -47.475   9.508  1.00  0.00     0.108 A 
HETATM   22  N   UNL     1     -44.205 -47.825  10.484  1.00  0.00    -0.310 N 
ATOM     23  HN  UNL     1     -44.280 -48.612  11.129  1.00  0.00     0.186 HD
ENDBRANCH  17  18
ENDBRANCH  16  17
ENDBRANCH  14  16
ENDBRANCH  13  14
ENDBRANCH   2  13
TORSDOF 5
ENDMDL
MODEL 4
REMARK VINA RESULT:      -6.0      2.248      3.606
REMARK  5 active torsions:
REMARK  status: ('A' for Active; 'I' for Inactive)
REMARK    1  A    between atoms: C_2  and  C_3 
REMARK       I    between atoms: C_2  and  N_13 
REMARK    2  A    between atoms: C_3  and  N_4 
REMARK    3  A    between atoms: N_4  and  C_5 
REMARK    4  A    between atoms: C_5  and  C_6 
REMARK    5  A    between atoms: C_6  and  N_7 
ROOT
HETATM    1  O   UNL     1     -42.314 -52.733  11.719  1.00  0.00    -0.271 OA
HETATM    2  C   UNL     1     -42.107 -51.910  12.610  1.00  0.00     0.248 C 
HETATM    3  N   UNL     1     -42.850 -51.811  13.798  1.00  0.00    -0.341 N 
HETATM    4  C   UNL     1     -42.622 -50.755  14.805  1.00  0.00     0.152 C 
HETATM    5  C   UNL     1     -43.927 -50.246  15.410  1.00  0.00     0.188 C 
HETATM    6  O   UNL     1     -44.713 -51.320  15.921  1.00  0.00    -0.382 OA
HETATM    7  C   UNL     1     -45.022 -52.266  14.880  1.00  0.00     0.144 C 
HETATM    8  C   UNL     1     -45.946 -53.311  15.493  1.00  0.00     0.034 C 
HETATM    9  C   UNL     1     -46.266 -54.424  14.508  1.00  0.00     0.003 C 
HETATM   10  C   UNL     1     -44.990 -55.072  13.987  1.00  0.00     0.002 C 
HETATM   11  C   UNL     1     -44.063 -54.045  13.341  1.00  0.00     0.028 C 
HETATM   12  C   UNL     1     -43.727 -52.897  14.302  1.00  0.00     0.116 C 
ENDROOT
BRANCH   2  13
HETATM   13  C   UNL     1     -41.008 -50.857  12.465  1.00  0.00     0.372 C 
BRANCH  13  14
HETATM   14  N   UNL     1     -40.797 -50.402  11.083  1.00  0.00     0.093 N 
HETATM   15  H   UNL     1     -41.472 -50.879  10.481  1.00  0.00     0.316 HD
BRANCH  14  16
HETATM   16  C   UNL     1     -40.969 -48.940  11.010  1.00  0.00     0.291 C 
BRANCH  16  17
HETATM   17  C   UNL     1     -42.394 -48.478  11.361  1.00  0.00     0.178 C 
BRANCH  17  18
HETATM   18  N   UNL     1     -43.100 -47.964  10.209  1.00  0.00    -0.302 N 
HETATM   19  C   UNL     1     -44.326 -47.372  10.204  1.00  0.00     0.111 A 
HETATM   20  C   UNL     1     -44.618 -47.129   8.883  1.00  0.00     0.037 A 
HETATM   21  C   UNL     1     -43.510 -47.629   8.172  1.00  0.00     0.108 A 
HETATM   22  N   UNL     1     -42.579 -48.140   8.979  1.00  0.00    -0.310 N 
ATOM     23  HN  UNL     1     -41.687 -48.564   8.725  1.00  0.00     0.186 HD
ENDBRANCH  17  18
ENDBRANCH  16  17
ENDBRANCH  14  16
ENDBRANCH  13  14
ENDBRANCH   2  13
TORSDOF 5
ENDMDL
MODEL 5
REMARK VINA RESULT:      -5.8      3.652      5.944
REMARK  5 active torsions:
REMARK  status: ('A' for Active; 'I' for Inactive)
REMARK    1  A    between atoms: C_2  and  C_3 
REMARK       I    between atoms: C_2  and  N_13 
REMARK    2  A    between atoms: C_3  and  N_4 
REMARK    3  A    between atoms: N_4  and  C_5 
REMARK    4  A    between atoms: C_5  and  C_6 
REMARK    5  A    between atoms: C_6  and  N_7 
ROOT
HETATM    1  O   UNL     1     -42.908 -50.402  12.996  1.00  0.00    -0.271 OA
HETATM    2  C   UNL     1     -42.507 -51.564  12.936  1.00  0.00     0.248 C 
HETATM    3  N   UNL     1     -43.188 -52.674  13.459  1.00  0.00    -0.341 N 
HETATM    4  C   UNL     1     -42.632 -54.043  13.441  1.00  0.00     0.152 C 
HETATM    5  C   UNL     1     -42.950 -54.810  14.721  1.00  0.00     0.188 C 
HETATM    6  O   UNL     1     -44.348 -54.799  14.997  1.00  0.00    -0.382 OA
HETATM    7  C   UNL     1     -44.829 -53.448  15.134  1.00  0.00     0.144 C 
HETATM    8  C   UNL     1     -46.298 -53.542  15.530  1.00  0.00     0.034 C 
HETATM    9  C   UNL     1     -46.945 -52.168  15.611  1.00  0.00     0.003 C 
HETATM   10  C   UNL     1     -46.789 -51.415  14.296  1.00  0.00     0.002 C 
HETATM   11  C   UNL     1     -45.321 -51.285  13.896  1.00  0.00     0.028 C 
HETATM   12  C   UNL     1     -44.628 -52.652  13.816  1.00  0.00     0.116 C 
ENDROOT
BRANCH   2  13
HETATM   13  C   UNL     1     -41.155 -51.895  12.302  1.00  0.00     0.372 C 
BRANCH  13  14
HETATM   14  N   UNL     1     -40.763 -50.979  11.222  1.00  0.00     0.093 N 
HETATM   15  H   UNL     1     -41.556 -50.369  11.013  1.00  0.00     0.316 HD
BRANCH  14  16
HETATM   16  C   UNL     1     -39.589 -50.191  11.640  1.00  0.00     0.291 C 
BRANCH  16  17
HETATM   17  C   UNL     1     -39.932 -48.733  11.992  1.00  0.00     0.178 C 
BRANCH  17  18
HETATM   18  N   UNL     1     -39.010 -48.172  12.953  1.00  0.00    -0.302 N 
HETATM   19  C   UNL     1     -37.919 -48.784  13.489  1.00  0.00     0.111 A 
HETATM   20  C   UNL     1     -37.407 -47.900  14.408  1.00  0.00     0.037 A 
HETATM   21  C   UNL     1     -38.275 -46.792  14.363  1.00  0.00     0.108 A 
HETATM   22  N   UNL     1     -39.256 -46.954  13.474  1.00  0.00    -0.310 N 
ATOM     23  HN  UNL     1     -40.012 -46.309  13.245  1.00  0.00     0.186 HD
ENDBRANCH  17  18
ENDBRANCH  16  17
ENDBRANCH  14  16
ENDBRANCH  13  14
ENDBRANCH   2  13
TORSDOF 5
ENDMDL
MODEL 6
REMARK VINA RESULT:      -5.6      3.054      7.136
REMARK  5 active torsions:
REMARK  status: ('A' for Active; 'I' for Inactive)
REMARK    1  A    between atoms: C_2  and  C_3 
REMARK       I    between atoms: C_2  and  N_13 
REMARK    2  A    between atoms: C_3  and  N_4 
REMARK    3  A    between atoms: N_4  and  C_5 
REMARK    4  A    between atoms: C_5  and  C_6 
REMARK    5  A    between atoms: C_6  and  N_7 
ROOT
HETATM    1  O   UNL     1     -41.641 -48.138  14.078  1.00  0.00    -0.271 OA
HETATM    2  C   UNL     1     -41.977 -48.257  12.901  1.00  0.00     0.248 C 
HETATM    3  N   UNL     1     -41.657 -47.348  11.880  1.00  0.00    -0.341 N 
HETATM    4  C   UNL     1     -42.150 -47.485  10.495  1.00  0.00     0.152 C 
HETATM    5  C   UNL     1     -42.514 -46.137   9.878  1.00  0.00     0.188 C 
HETATM    6  O   UNL     1     -41.431 -45.215   9.977  1.00  0.00    -0.382 OA
HETATM    7  C   UNL     1     -41.061 -45.010  11.353  1.00  0.00     0.144 C 
HETATM    8  C   UNL     1     -39.978 -43.937  11.364  1.00  0.00     0.034 C 
HETATM    9  C   UNL     1     -39.435 -43.704  12.765  1.00  0.00     0.003 C 
HETATM   10  C   UNL     1     -38.915 -45.000  13.371  1.00  0.00     0.002 C 
HETATM   11  C   UNL     1     -39.994 -46.079  13.396  1.00  0.00     0.028 C 
HETATM   12  C   UNL     1     -40.577 -46.336  12.000  1.00  0.00     0.116 C 
ENDROOT
BRANCH   2  13
HETATM   13  C   UNL     1     -42.847 -49.430  12.449  1.00  0.00     0.372 C 
BRANCH  13  14
HETATM   14  N   UNL     1     -42.085 -50.561  11.899  1.00  0.00     0.093 N 
HETATM   15  H   UNL     1     -41.292 -50.188  11.371  1.00  0.00     0.316 HD
BRANCH  14  16
HETATM   16  C   UNL     1     -41.625 -51.430  12.997  1.00  0.00     0.291 C 
BRANCH  16  17
HETATM   17  C   UNL     1     -40.195 -51.959  12.792  1.00  0.00     0.178 C 
BRANCH  17  18
HETATM   18  N   UNL     1     -39.232 -50.890  12.652  1.00  0.00    -0.302 N 
HETATM   19  C   UNL     1     -38.772 -50.073  13.639  1.00  0.00     0.111 A 
HETATM   20  C   UNL     1     -37.946 -49.167  13.019  1.00  0.00     0.037 A 
HETATM   21  C   UNL     1     -37.989 -49.514  11.655  1.00  0.00     0.108 A 
HETATM   22  N   UNL     1     -38.774 -50.567  11.426  1.00  0.00    -0.310 N 
ATOM     23  HN  UNL     1     -38.979 -51.020  10.535  1.00  0.00     0.186 HD
ENDBRANCH  17  18
ENDBRANCH  16  17
ENDBRANCH  14  16
ENDBRANCH  13  14
ENDBRANCH   2  13
TORSDOF 5
ENDMDL
MODEL 7
REMARK VINA RESULT:      -5.5      3.219      6.756
REMARK  5 active torsions:
REMARK  status: ('A' for Active; 'I' for Inactive)
REMARK    1  A    between atoms: C_2  and  C_3 
REMARK       I    between atoms: C_2  and  N_13 
REMARK    2  A    between atoms: C_3  and  N_4 
REMARK    3  A    between atoms: N_4  and  C_5 
REMARK    4  A    between atoms: C_5  and  C_6 
REMARK    5  A    between atoms: C_6  and  N_7 
ROOT
HETATM    1  O   UNL     1     -40.026 -48.241  13.208  1.00  0.00    -0.271 OA
HETATM    2  C   UNL     1     -40.649 -48.255  12.147  1.00  0.00     0.248 C 
HETATM    3  N   UNL     1     -40.986 -47.114  11.401  1.00  0.00    -0.341 N 
HETATM    4  C   UNL     1     -41.809 -47.166  10.176  1.00  0.00     0.152 C 
HETATM    5  C   UNL     1     -42.776 -45.990  10.082  1.00  0.00     0.188 C 
HETATM    6  O   UNL     1     -42.093 -44.746  10.221  1.00  0.00    -0.382 OA
HETATM    7  C   UNL     1     -41.407 -44.682  11.485  1.00  0.00     0.144 C 
HETATM    8  C   UNL     1     -40.801 -43.287  11.588  1.00  0.00     0.034 C 
HETATM    9  C   UNL     1     -39.963 -43.131  12.847  1.00  0.00     0.003 C 
HETATM   10  C   UNL     1     -38.876 -44.195  12.913  1.00  0.00     0.002 C 
HETATM   11  C   UNL     1     -39.465 -45.602  12.841  1.00  0.00     0.028 C 
HETATM   12  C   UNL     1     -40.330 -45.796  11.589  1.00  0.00     0.116 C 
ENDROOT
BRANCH   2  13
HETATM   13  C   UNL     1     -41.168 -49.567  11.559  1.00  0.00     0.372 C 
BRANCH  13  14
HETATM   14  N   UNL     1     -42.437 -50.022  12.145  1.00  0.00     0.093 N 
HETATM   15  H   UNL     1     -43.169 -49.932  11.437  1.00  0.00     0.316 HD
BRANCH  14  16
HETATM   16  C   UNL     1     -42.305 -51.421  12.591  1.00  0.00     0.291 C 
BRANCH  16  17
HETATM   17  C   UNL     1     -43.096 -51.725  13.875  1.00  0.00     0.178 C 
BRANCH  17  18
HETATM   18  N   UNL     1     -44.524 -51.686  13.660  1.00  0.00    -0.302 N 
HETATM   19  C   UNL     1     -45.469 -51.263  14.543  1.00  0.00     0.111 A 
HETATM   20  C   UNL     1     -46.679 -51.488  13.932  1.00  0.00     0.037 A 
HETATM   21  C   UNL     1     -46.353 -52.067  12.690  1.00  0.00     0.108 A 
HETATM   22  N   UNL     1     -45.037 -52.189  12.519  1.00  0.00    -0.310 N 
ATOM     23  HN  UNL     1     -44.537 -52.572  11.717  1.00  0.00     0.186 HD
ENDBRANCH  17  18
ENDBRANCH  16  17
ENDBRANCH  14  16
ENDBRANCH  13  14
ENDBRANCH   2  13
TORSDOF 5
ENDMDL
MODEL 8
REMARK VINA RESULT:      -5.4      2.217      3.693
REMARK  5 active torsions:
REMARK  status: ('A' for Active; 'I' for Inactive)
REMARK    1  A    between atoms: C_2  and  C_3 
REMARK       I    between atoms: C_2  and  N_13 
REMARK    2  A    between atoms: C_3  and  N_4 
REMARK    3  A    between atoms: N_4  and  C_5 
REMARK    4  A    between atoms: C_5  and  C_6 
REMARK    5  A    between atoms: C_6  and  N_7 
ROOT
HETATM    1  O   UNL     1     -42.896 -50.342  13.053  1.00  0.00    -0.271 OA
HETATM    2  C   UNL     1     -41.836 -50.014  12.519  1.00  0.00     0.248 C 
HETATM    3  N   UNL     1     -40.649 -50.762  12.569  1.00  0.00    -0.341 N 
HETATM    4  C   UNL     1     -39.376 -50.293  11.985  1.00  0.00     0.152 C 
HETATM    5  C   UNL     1     -38.176 -50.655  12.855  1.00  0.00     0.188 C 
HETATM    6  O   UNL     1     -38.153 -52.050  13.150  1.00  0.00    -0.382 OA
HETATM    7  C   UNL     1     -39.358 -52.445  13.833  1.00  0.00     0.144 C 
HETATM    8  C   UNL     1     -39.195 -53.916  14.198  1.00  0.00     0.034 C 
HETATM    9  C   UNL     1     -40.454 -54.475  14.843  1.00  0.00     0.003 C 
HETATM   10  C   UNL     1     -41.663 -54.276  13.940  1.00  0.00     0.002 C 
HETATM   11  C   UNL     1     -41.861 -52.803  13.586  1.00  0.00     0.028 C 
HETATM   12  C   UNL     1     -40.607 -52.198  12.944  1.00  0.00     0.116 C 
ENDROOT
BRANCH   2  13
HETATM   13  C   UNL     1     -41.714 -48.687  11.770  1.00  0.00     0.372 C 
BRANCH  13  14
HETATM   14  N   UNL     1     -42.255 -48.722  10.403  1.00  0.00     0.093 N 
HETATM   15  H   UNL     1     -43.111 -49.282  10.411  1.00  0.00     0.316 HD
BRANCH  14  16
HETATM   16  C   UNL     1     -42.527 -47.349   9.942  1.00  0.00     0.291 C 
BRANCH  16  17
HETATM   17  C   UNL     1     -42.608 -46.328  11.090  1.00  0.00     0.178 C 
BRANCH  17  18
HETATM   18  N   UNL     1     -41.617 -45.284  10.964  1.00  0.00    -0.302 N 
HETATM   19  C   UNL     1     -40.335 -45.427  10.528  1.00  0.00     0.111 A 
HETATM   20  C   UNL     1     -39.755 -44.188  10.661  1.00  0.00     0.037 A 
HETATM   21  C   UNL     1     -40.767 -43.374  11.203  1.00  0.00     0.108 A 
HETATM   22  N   UNL     1     -41.907 -44.039  11.390  1.00  0.00    -0.310 N 
ATOM     23  HN  UNL     1     -42.789 -43.689  11.765  1.00  0.00     0.186 HD
ENDBRANCH  17  18
ENDBRANCH  16  17
ENDBRANCH  14  16
ENDBRANCH  13  14
ENDBRANCH   2  13
TORSDOF 5
ENDMDL
MODEL 9
REMARK VINA RESULT:      -5.4      3.853      6.135
REMARK  5 active torsions:
REMARK  status: ('A' for Active; 'I' for Inactive)
REMARK    1  A    between atoms: C_2  and  C_3 
REMARK       I    between atoms: C_2  and  N_13 
REMARK    2  A    between atoms: C_3  and  N_4 
REMARK    3  A    between atoms: N_4  and  C_5 
REMARK    4  A    between atoms: C_5  and  C_6 
REMARK    5  A    between atoms: C_6  and  N_7 
ROOT
HETATM    1  O   UNL     1     -39.347 -53.573  13.526  1.00  0.00    -0.271 OA
HETATM    2  C   UNL     1     -40.481 -53.226  13.197  1.00  0.00     0.248 C 
HETATM    3  N   UNL     1     -40.855 -51.912  12.874  1.00  0.00    -0.341 N 
HETATM    4  C   UNL     1     -42.246 -51.522  12.566  1.00  0.00     0.152 C 
HETATM    5  C   UNL     1     -42.604 -50.158  13.148  1.00  0.00     0.188 C 
HETATM    6  O   UNL     1     -41.663 -49.163  12.750  1.00  0.00    -0.382 OA
HETATM    7  C   UNL     1     -40.335 -49.517  13.181  1.00  0.00     0.144 C 
HETATM    8  C   UNL     1     -39.426 -48.353  12.807  1.00  0.00     0.034 C 
HETATM    9  C   UNL     1     -37.970 -48.654  13.127  1.00  0.00     0.003 C 
HETATM   10  C   UNL     1     -37.515 -49.934  12.439  1.00  0.00     0.002 C 
HETATM   11  C   UNL     1     -38.397 -51.120  12.824  1.00  0.00     0.028 C 
HETATM   12  C   UNL     1     -39.878 -50.850  12.528  1.00  0.00     0.116 C 
ENDROOT
BRANCH   2  13
HETATM   13  C   UNL     1     -41.630 -54.234  13.160  1.00  0.00     0.372 C 
BRANCH  13  14
HETATM   14  N   UNL     1     -42.076 -54.679  14.488  1.00  0.00     0.093 N 
HETATM   15  H   UNL     1     -41.676 -54.051  15.189  1.00  0.00     0.316 HD
BRANCH  14  16
HETATM   16  C   UNL     1     -43.548 -54.664  14.548  1.00  0.00     0.291 C 
BRANCH  16  17
HETATM   17  C   UNL     1     -44.116 -53.399  15.215  1.00  0.00     0.178 C 
BRANCH  17  18
HETATM   18  N   UNL     1     -45.149 -52.778  14.418  1.00  0.00    -0.302 N 
HETATM   19  C   UNL     1     -45.460 -53.061  13.124  1.00  0.00     0.111 A 
HETATM   20  C   UNL     1     -46.442 -52.167  12.771  1.00  0.00     0.037 A 
HETATM   21  C   UNL     1     -46.638 -51.377  13.920  1.00  0.00     0.108 A 
HETATM   22  N   UNL     1     -45.851 -51.747  14.930  1.00  0.00    -0.310 N 
ATOM     23  HN  UNL     1     -45.793 -51.346  15.865  1.00  0.00     0.186 HD
ENDBRANCH  17  18
ENDBRANCH  16  17
ENDBRANCH  14  16
ENDBRANCH  13  14
ENDBRANCH   2  13
TORSDOF 5
ENDMDL
