MODEL 1
REMARK VINA RESULT:      -5.6      0.000      0.000
REMARK  3 active torsions:
REMARK  status: ('A' for Active; 'I' for Inactive)
REMARK    1  A    between atoms: O_2  and  C_3 
REMARK    2  A    between atoms: C_6  and  N_7 
REMARK       I    between atoms: N_7  and  C_8 
REMARK       I    between atoms: C_8  and  N_10 
REMARK    3  A    between atoms: N_10  and  C_11 
ROOT
HETATM    1  N   UNL     1     -41.549 -49.693  11.048  1.00  0.00    -0.308 N 
HETATM    2  C   UNL     1     -42.293 -50.253  12.062  1.00  0.00     0.321 C 
HETATM    3  O   UNL     1     -42.952 -49.637  12.889  1.00  0.00    -0.247 OA
HETATM    4  N   UNL     1     -42.180 -51.629  12.095  1.00  0.00    -0.338 N 
HETATM    5  H   UNL     1     -41.222 -50.312  10.323  1.00  0.00     0.170 HD
HETATM    6  H   UNL     1     -42.094 -52.089  11.202  1.00  0.00     0.164 HD
ENDROOT
BRANCH   1   7
HETATM    7  C   UNL     1     -41.280 -48.314  10.903  1.00  0.00     0.051 A 
HETATM    8  C   UNL     1     -40.197 -47.676  11.505  1.00  0.00     0.035 A 
HETATM    9  C   UNL     1     -39.982 -46.316  11.289  1.00  0.00     0.058 A 
HETATM   10  C   UNL     1     -40.860 -45.632  10.470  1.00  0.00     0.141 A 
HETATM   11  N   UNL     1     -41.920 -46.209   9.863  1.00  0.00    -0.345 N 
HETATM   12  C   UNL     1     -42.097 -47.533  10.089  1.00  0.00     0.119 A 
ATOM     13  HN  UNL     1     -42.554 -45.676   9.267  1.00  0.00     0.167 HD
BRANCH  10  14
HETATM   14  O   UNL     1     -40.581 -44.296  10.268  1.00  0.00    -0.341 OA
HETATM   15  C   UNL     1     -40.326 -43.592  11.477  1.00  0.00     0.211 C 
ENDBRANCH  10  14
ENDBRANCH   1   7
BRANCH   4  16
HETATM   16  C   UNL     1     -42.869 -52.359  13.146  1.00  0.00     0.086 C 
HETATM   17  C   UNL     1     -41.927 -53.241  13.983  1.00  0.00     0.025 C 
HETATM   18  C   UNL     1     -42.688 -54.526  14.294  1.00  0.00     0.002 C 
HETATM   19  C   UNL     1     -44.092 -54.321  13.746  1.00  0.00     0.002 C 
HETATM   20  C   UNL     1     -43.908 -53.334  12.604  1.00  0.00     0.025 C 
ENDBRANCH   4  16
TORSDOF 3
ENDMDL
MODEL 2
REMARK VINA RESULT:      -5.3      2.884      6.711
REMARK  3 active torsions:
REMARK  status: ('A' for Active; 'I' for Inactive)
REMARK    1  A    between atoms: O_2  and  C_3 
REMARK    2  A    between atoms: C_6  and  N_7 
REMARK       I    between atoms: N_7  and  C_8 
REMARK       I    between atoms: C_8  and  N_10 
REMARK    3  A    between atoms: N_10  and  C_11 
ROOT
HETATM    1  N   UNL     1     -40.776 -49.667  10.730  1.00  0.00    -0.308 N 
HETATM    2  C   UNL     1     -41.698 -48.680  10.995  1.00  0.00     0.321 C 
HETATM    3  O   UNL     1     -42.069 -48.328  12.107  1.00  0.00    -0.247 OA
HETATM    4  N   UNL     1     -42.227 -48.135   9.841  1.00  0.00    -0.338 N 
HETATM    5  H   UNL     1     -40.414 -49.717   9.791  1.00  0.00     0.170 HD
HETATM    6  H   UNL     1     -41.598 -48.058   9.057  1.00  0.00     0.164 HD
ENDROOT
BRANCH   1   7
HETATM    7  C   UNL     1     -40.241 -50.557  11.687  1.00  0.00     0.051 A 
HETATM    8  C   UNL     1     -39.037 -50.336  12.352  1.00  0.00     0.035 A 
HETATM    9  C   UNL     1     -38.589 -51.249  13.306  1.00  0.00     0.058 A 
HETATM   10  C   UNL     1     -39.368 -52.359  13.571  1.00  0.00     0.141 A 
HETATM   11  N   UNL     1     -40.543 -52.614  12.954  1.00  0.00    -0.345 N 
HETATM   12  C   UNL     1     -40.951 -51.704  12.036  1.00  0.00     0.119 A 
ATOM     13  HN  UNL     1     -41.094 -53.445  13.168  1.00  0.00     0.167 HD
BRANCH  10  14
HETATM   14  O   UNL     1     -38.892 -53.212  14.545  1.00  0.00    -0.341 OA
HETATM   15  C   UNL     1     -38.916 -52.639  15.847  1.00  0.00     0.211 C 
ENDBRANCH  10  14
ENDBRANCH   1   7
BRANCH   4  16
HETATM   16  C   UNL     1     -43.255 -47.115   9.961  1.00  0.00     0.086 C 
HETATM   17  C   UNL     1     -44.681 -47.686   9.893  1.00  0.00     0.025 C 
HETATM   18  C   UNL     1     -45.519 -46.684   9.105  1.00  0.00     0.002 C 
HETATM   19  C   UNL     1     -44.606 -45.497   8.836  1.00  0.00     0.002 C 
HETATM   20  C   UNL     1     -43.208 -46.094   8.829  1.00  0.00     0.025 C 
ENDBRANCH   4  16
TORSDOF 3
ENDMDL
MODEL 3
REMARK VINA RESULT:      -5.2      2.027      7.723
REMARK  3 active torsions:
REMARK  status: ('A' for Active; 'I' for Inactive)
REMARK    1  A    between atoms: O_2  and  C_3 
REMARK    2  A    between atoms: C_6  and  N_7 
REMARK       I    between atoms: N_7  and  C_8 
REMARK       I    between atoms: C_8  and  N_10 
REMARK    3  A    between atoms: N_10  and  C_11 
ROOT
HETATM    1  N   UNL     1     -41.948 -51.516  11.852  1.00  0.00    -0.308 N 
HETATM    2  C   UNL     1     -42.005 -50.189  12.212  1.00  0.00     0.321 C 
HETATM    3  O   UNL     1     -42.152 -49.763  13.350  1.00  0.00    -0.247 OA
HETATM    4  N   UNL     1     -41.932 -49.347  11.120  1.00  0.00    -0.338 N 
HETATM    5  H   UNL     1     -41.624 -51.726  10.922  1.00  0.00     0.170 HD
HETATM    6  H   UNL     1     -41.340 -49.652  10.363  1.00  0.00     0.164 HD
ENDROOT
BRANCH   1   7
HETATM    7  C   UNL     1     -42.227 -52.604  12.709  1.00  0.00     0.051 A 
HETATM    8  C   UNL     1     -41.267 -53.213  13.514  1.00  0.00     0.035 A 
HETATM    9  C   UNL     1     -41.627 -54.263  14.356  1.00  0.00     0.058 A 
HETATM   10  C   UNL     1     -42.948 -54.672  14.371  1.00  0.00     0.141 A 
HETATM   11  N   UNL     1     -43.913 -54.109  13.612  1.00  0.00    -0.345 N 
HETATM   12  C   UNL     1     -43.530 -53.087  12.809  1.00  0.00     0.119 A 
ATOM     13  HN  UNL     1     -44.879 -54.436  13.641  1.00  0.00     0.167 HD
BRANCH  10  14
HETATM   14  O   UNL     1     -43.254 -55.694  15.245  1.00  0.00    -0.341 OA
HETATM   15  C   UNL     1     -42.285 -55.856  16.274  1.00  0.00     0.211 C 
ENDBRANCH  10  14
ENDBRANCH   1   7
BRANCH   4  16
HETATM   16  C   UNL     1     -42.033 -47.914  11.337  1.00  0.00     0.086 C 
HETATM   17  C   UNL     1     -43.079 -47.240  10.434  1.00  0.00     0.025 C 
HETATM   18  C   UNL     1     -42.502 -45.889  10.024  1.00  0.00     0.002 C 
HETATM   19  C   UNL     1     -41.195 -45.745  10.789  1.00  0.00     0.002 C 
HETATM   20  C   UNL     1     -40.737 -47.176  11.020  1.00  0.00     0.025 C 
ENDBRANCH   4  16
TORSDOF 3
ENDMDL
MODEL 4
REMARK VINA RESULT:      -5.0      1.491      1.762
REMARK  3 active torsions:
REMARK  status: ('A' for Active; 'I' for Inactive)
REMARK    1  A    between atoms: O_2  and  C_3 
REMARK    2  A    between atoms: C_6  and  N_7 
REMARK       I    between atoms: N_7  and  C_8 
REMARK       I    between atoms: C_8  and  N_10 
REMARK    3  A    between atoms: N_10  and  C_11 
ROOT
HETATM    1  N   UNL     1     -43.406 -49.291  12.152  1.00  0.00    -0.308 N 
HETATM    2  C   UNL     1     -43.090 -50.405  12.896  1.00  0.00     0.321 C 
HETATM    3  O   UNL     1     -42.061 -50.567  13.539  1.00  0.00    -0.247 OA
HETATM    4  N   UNL     1     -44.056 -51.387  12.802  1.00  0.00    -0.338 N 
HETATM    5  H   UNL     1     -44.360 -49.202  11.840  1.00  0.00     0.170 HD
HETATM    6  H   UNL     1     -45.009 -51.067  12.731  1.00  0.00     0.164 HD
ENDROOT
BRANCH   1   7
HETATM    7  C   UNL     1     -42.522 -48.228  11.865  1.00  0.00     0.051 A 
HETATM    8  C   UNL     1     -42.271 -47.178  12.746  1.00  0.00     0.035 A 
HETATM    9  C   UNL     1     -41.361 -46.180  12.401  1.00  0.00     0.058 A 
HETATM   10  C   UNL     1     -40.722 -46.266  11.179  1.00  0.00     0.141 A 
HETATM   11  N   UNL     1     -40.930 -47.266  10.294  1.00  0.00    -0.345 N 
HETATM   12  C   UNL     1     -41.817 -48.222  10.663  1.00  0.00     0.119 A 
ATOM     13  HN  UNL     1     -40.446 -47.299   9.396  1.00  0.00     0.167 HD
BRANCH  10  14
HETATM   14  O   UNL     1     -39.809 -45.269  10.903  1.00  0.00    -0.341 OA
HETATM   15  C   UNL     1     -40.358 -43.962  11.029  1.00  0.00     0.211 C 
ENDBRANCH  10  14
ENDBRANCH   1   7
BRANCH   4  16
HETATM   16  C   UNL     1     -43.837 -52.647  13.492  1.00  0.00     0.086 C 
HETATM   17  C   UNL     1     -44.342 -53.865  12.699  1.00  0.00     0.025 C 
HETATM   18  C   UNL     1     -44.942 -54.833  13.714  1.00  0.00     0.002 C 
HETATM   19  C   UNL     1     -44.666 -54.227  15.081  1.00  0.00     0.002 C 
HETATM   20  C   UNL     1     -44.584 -52.732  14.819  1.00  0.00     0.025 C 
ENDBRANCH   4  16
TORSDOF 3
ENDMDL
MODEL 5
REMARK VINA RESULT:      -5.0      1.735      2.383
REMARK  3 active torsions:
REMARK  status: ('A' for Active; 'I' for Inactive)
REMARK    1  A    between atoms: O_2  and  C_3 
REMARK    2  A    between atoms: C_6  and  N_7 
REMARK       I    between atoms: N_7  and  C_8 
REMARK       I    between atoms: C_8  and  N_10 
REMARK    3  A    between atoms: N_10  and  C_11 
ROOT
HETATM    1  N   UNL     1     -40.737 -50.933  11.048  1.00  0.00    -0.308 N 
HETATM    2  C   UNL     1     -41.011 -51.774  12.103  1.00  0.00     0.321 C 
HETATM    3  O   UNL     1     -41.334 -51.425  13.230  1.00  0.00    -0.247 OA
HETATM    4  N   UNL     1     -40.829 -53.103  11.772  1.00  0.00    -0.338 N 
HETATM    5  H   UNL     1     -40.682 -51.348  10.132  1.00  0.00     0.170 HD
HETATM    6  H   UNL     1     -41.068 -53.363  10.828  1.00  0.00     0.164 HD
ENDROOT
BRANCH   1   7
HETATM    7  C   UNL     1     -40.610 -49.529  11.140  1.00  0.00     0.051 A 
HETATM    8  C   UNL     1     -41.557 -48.638  10.640  1.00  0.00     0.035 A 
HETATM    9  C   UNL     1     -41.374 -47.265  10.797  1.00  0.00     0.058 A 
HETATM   10  C   UNL     1     -40.242 -46.823  11.457  1.00  0.00     0.141 A 
HETATM   11  N   UNL     1     -39.299 -47.649  11.961  1.00  0.00    -0.345 N 
HETATM   12  C   UNL     1     -39.512 -48.978  11.796  1.00  0.00     0.119 A 
ATOM     13  HN  UNL     1     -38.472 -47.292  12.439  1.00  0.00     0.167 HD
BRANCH  10  14
HETATM   14  O   UNL     1     -40.127 -45.457  11.610  1.00  0.00    -0.341 OA
HETATM   15  C   UNL     1     -39.702 -44.798  10.422  1.00  0.00     0.211 C 
ENDBRANCH  10  14
ENDBRANCH   1   7
BRANCH   4  16
HETATM   16  C   UNL     1     -41.030 -54.110  12.801  1.00  0.00     0.086 C 
HETATM   17  C   UNL     1     -42.450 -54.094  13.390  1.00  0.00     0.025 C 
HETATM   18  C   UNL     1     -42.310 -54.373  14.883  1.00  0.00     0.002 C 
HETATM   19  C   UNL     1     -40.836 -54.670  15.115  1.00  0.00     0.002 C 
HETATM   20  C   UNL     1     -40.122 -53.908  14.010  1.00  0.00     0.025 C 
ENDBRANCH   4  16
TORSDOF 3
ENDMDL
MODEL 6
REMARK VINA RESULT:      -5.0      2.107      7.575
REMARK  3 active torsions:
REMARK  status: ('A' for Active; 'I' for Inactive)
REMARK    1  A    between atoms: O_2  and  C_3 
REMARK    2  A    between atoms: C_6  and  N_7 
REMARK       I    between atoms: N_7  and  C_8 
REMARK       I    between atoms: C_8  and  N_10 
REMARK    3  A    between atoms: N_10  and  C_11 
ROOT
HETATM    1  N   UNL     1     -41.812 -49.702  13.177  1.00  0.00    -0.308 N 
HETATM    2  C   UNL     1     -42.041 -48.454  12.643  1.00  0.00     0.321 C 
HETATM    3  O   UNL     1     -43.084 -48.078  12.125  1.00  0.00    -0.247 OA
HETATM    4  N   UNL     1     -40.921 -47.647  12.702  1.00  0.00    -0.338 N 
HETATM    5  H   UNL     1     -40.990 -49.814  13.748  1.00  0.00     0.170 HD
HETATM    6  H   UNL     1     -40.332 -47.763  13.512  1.00  0.00     0.164 HD
ENDROOT
BRANCH   1   7
HETATM    7  C   UNL     1     -42.680 -50.810  13.053  1.00  0.00     0.051 A 
HETATM    8  C   UNL     1     -43.929 -50.878  13.666  1.00  0.00     0.035 A 
HETATM    9  C   UNL     1     -44.741 -51.994  13.472  1.00  0.00     0.058 A 
HETATM   10  C   UNL     1     -44.277 -53.013  12.662  1.00  0.00     0.141 A 
HETATM   11  N   UNL     1     -43.075 -52.990  12.046  1.00  0.00    -0.345 N 
HETATM   12  C   UNL     1     -42.313 -51.888  12.251  1.00  0.00     0.119 A 
ATOM     13  HN  UNL     1     -42.757 -53.761  11.458  1.00  0.00     0.167 HD
BRANCH  10  14
HETATM   14  O   UNL     1     -45.133 -54.079  12.481  1.00  0.00    -0.341 OA
HETATM   15  C   UNL     1     -45.295 -54.869  13.653  1.00  0.00     0.211 C 
ENDBRANCH  10  14
ENDBRANCH   1   7
BRANCH   4  16
HETATM   16  C   UNL     1     -40.993 -46.314  12.129  1.00  0.00     0.086 C 
HETATM   17  C   UNL     1     -40.462 -46.249  10.687  1.00  0.00     0.025 C 
HETATM   18  C   UNL     1     -39.716 -44.925  10.552  1.00  0.00     0.002 C 
HETATM   19  C   UNL     1     -39.930 -44.190  11.867  1.00  0.00     0.002 C 
HETATM   20  C   UNL     1     -40.142 -45.299  12.885  1.00  0.00     0.025 C 
ENDBRANCH   4  16
TORSDOF 3
ENDMDL
MODEL 7
REMARK VINA RESULT:      -4.8      2.799      7.573
REMARK  3 active torsions:
REMARK  status: ('A' for Active; 'I' for Inactive)
REMARK    1  A    between atoms: O_2  and  C_3 
REMARK    2  A    between atoms: C_6  and  N_7 
REMARK       I    between atoms: N_7  and  C_8 
REMARK       I    between atoms: C_8  and  N_10 
REMARK    3  A    between atoms: N_10  and  C_11 
ROOT
HETATM    1  N   UNL     1     -39.414 -48.032  11.291  1.00  0.00    -0.308 N 
HETATM    2  C   UNL     1     -39.907 -46.930  11.952  1.00  0.00     0.321 C 
HETATM    3  O   UNL     1     -40.047 -46.826  13.164  1.00  0.00    -0.247 OA
HETATM    4  N   UNL     1     -40.297 -45.930  11.083  1.00  0.00    -0.338 N 
HETATM    5  H   UNL     1     -39.164 -47.913  10.323  1.00  0.00     0.170 HD
HETATM    6  H   UNL     1     -39.742 -45.826  10.248  1.00  0.00     0.164 HD
ENDROOT
BRANCH   1   7
HETATM    7  C   UNL     1     -39.154 -49.287  11.885  1.00  0.00     0.051 A 
HETATM    8  C   UNL     1     -37.901 -49.667  12.360  1.00  0.00     0.035 A 
HETATM    9  C   UNL     1     -37.732 -50.913  12.962  1.00  0.00     0.058 A 
HETATM   10  C   UNL     1     -38.830 -51.745  13.072  1.00  0.00     0.141 A 
HETATM   11  N   UNL     1     -40.063 -51.419  12.629  1.00  0.00    -0.345 N 
HETATM   12  C   UNL     1     -40.194 -50.198  12.055  1.00  0.00     0.119 A 
ATOM     13  HN  UNL     1     -40.854 -52.057  12.721  1.00  0.00     0.167 HD
BRANCH  10  14
HETATM   14  O   UNL     1     -38.611 -52.953  13.702  1.00  0.00    -0.341 OA
HETATM   15  C   UNL     1     -39.797 -53.725  13.852  1.00  0.00     0.211 C 
ENDBRANCH  10  14
ENDBRANCH   1   7
BRANCH   4  16
HETATM   16  C   UNL     1     -40.889 -44.722  11.632  1.00  0.00     0.086 C 
HETATM   17  C   UNL     1     -42.410 -44.645  11.417  1.00  0.00     0.025 C 
HETATM   18  C   UNL     1     -42.738 -43.187  11.113  1.00  0.00     0.002 C 
HETATM   19  C   UNL     1     -41.433 -42.423  11.278  1.00  0.00     0.002 C 
HETATM   20  C   UNL     1     -40.356 -43.453  10.977  1.00  0.00     0.025 C 
ENDBRANCH   4  16
TORSDOF 3
ENDMDL
MODEL 8
REMARK VINA RESULT:      -4.8      6.029      8.000
REMARK  3 active torsions:
REMARK  status: ('A' for Active; 'I' for Inactive)
REMARK    1  A    between atoms: O_2  and  C_3 
REMARK    2  A    between atoms: C_6  and  N_7 
REMARK       I    between atoms: N_7  and  C_8 
REMARK       I    between atoms: C_8  and  N_10 
REMARK    3  A    between atoms: N_10  and  C_11 
ROOT
HETATM    1  N   UNL     1     -41.089 -52.810  14.758  1.00  0.00    -0.308 N 
HETATM    2  C   UNL     1     -42.434 -53.040  14.941  1.00  0.00     0.321 C 
HETATM    3  O   UNL     1     -42.921 -53.865  15.702  1.00  0.00    -0.247 OA
HETATM    4  N   UNL     1     -43.215 -52.259  14.112  1.00  0.00    -0.338 N 
HETATM    5  H   UNL     1     -40.830 -51.974  14.259  1.00  0.00     0.170 HD
HETATM    6  H   UNL     1     -42.871 -51.331  13.922  1.00  0.00     0.164 HD
ENDROOT
BRANCH   1   7
HETATM    7  C   UNL     1     -40.049 -53.607  15.285  1.00  0.00     0.051 A 
HETATM    8  C   UNL     1     -39.614 -53.526  16.606  1.00  0.00     0.035 A 
HETATM    9  C   UNL     1     -38.601 -54.369  17.059  1.00  0.00     0.058 A 
HETATM   10  C   UNL     1     -38.053 -55.277  16.172  1.00  0.00     0.141 A 
HETATM   11  N   UNL     1     -38.445 -55.394  14.884  1.00  0.00    -0.345 N 
HETATM   12  C   UNL     1     -39.436 -54.563  14.478  1.00  0.00     0.119 A 
ATOM     13  HN  UNL     1     -38.018 -56.071  14.252  1.00  0.00     0.167 HD
BRANCH  10  14
HETATM   14  O   UNL     1     -37.076 -56.106  16.683  1.00  0.00    -0.341 OA
HETATM   15  C   UNL     1     -37.100 -56.185  18.103  1.00  0.00     0.211 C 
ENDBRANCH  10  14
ENDBRANCH   1   7
BRANCH   4  16
HETATM   16  C   UNL     1     -44.658 -52.428  14.152  1.00  0.00     0.086 C 
HETATM   17  C   UNL     1     -45.299 -52.469  12.755  1.00  0.00     0.025 C 
HETATM   18  C   UNL     1     -46.624 -51.720  12.857  1.00  0.00     0.002 C 
HETATM   19  C   UNL     1     -46.791 -51.367  14.327  1.00  0.00     0.002 C 
HETATM   20  C   UNL     1     -45.368 -51.276  14.854  1.00  0.00     0.025 C 
ENDBRANCH   4  16
TORSDOF 3
ENDMDL
MODEL 9
REMARK VINA RESULT:      -4.7      1.935      2.636
REMARK  3 active torsions:
REMARK  status: ('A' for Active; 'I' for Inactive)
REMARK    1  A    between atoms: O_2  and  C_3 
REMARK    2  A    between atoms: C_6  and  N_7 
REMARK       I    between atoms: N_7  and  C_8 
REMARK       I    between atoms: C_8  and  N_10 
REMARK    3  A    between atoms: N_10  and  C_11 
ROOT
HETATM    1  N   UNL     1     -41.625 -49.692  13.118  1.00  0.00    -0.308 N 
HETATM    2  C   UNL     1     -41.643 -51.059  12.959  1.00  0.00     0.321 C 
HETATM    3  O   UNL     1     -41.776 -51.653  11.897  1.00  0.00    -0.247 OA
HETATM    4  N   UNL     1     -41.547 -51.726  14.164  1.00  0.00    -0.338 N 
HETATM    5  H   UNL     1     -41.310 -49.336  14.006  1.00  0.00     0.170 HD
HETATM    6  H   UNL     1     -40.966 -51.295  14.866  1.00  0.00     0.164 HD
ENDROOT
BRANCH   1   7
HETATM    7  C   UNL     1     -41.935 -48.752  12.109  1.00  0.00     0.051 A 
HETATM    8  C   UNL     1     -43.220 -48.264  11.883  1.00  0.00     0.035 A 
HETATM    9  C   UNL     1     -43.440 -47.315  10.887  1.00  0.00     0.058 A 
HETATM   10  C   UNL     1     -42.360 -46.876  10.145  1.00  0.00     0.141 A 
HETATM   11  N   UNL     1     -41.096 -47.318  10.331  1.00  0.00    -0.345 N 
HETATM   12  C   UNL     1     -40.917 -48.236  11.311  1.00  0.00     0.119 A 
ATOM     13  HN  UNL     1     -40.319 -46.978   9.763  1.00  0.00     0.167 HD
BRANCH  10  14
HETATM   14  O   UNL     1     -42.630 -45.914   9.194  1.00  0.00    -0.341 OA
HETATM   15  C   UNL     1     -44.009 -45.842   8.852  1.00  0.00     0.211 C 
ENDBRANCH  10  14
ENDBRANCH   1   7
BRANCH   4  16
HETATM   16  C   UNL     1     -41.606 -53.178  14.162  1.00  0.00     0.086 C 
HETATM   17  C   UNL     1     -43.041 -53.724  14.264  1.00  0.00     0.025 C 
HETATM   18  C   UNL     1     -42.979 -54.959  15.156  1.00  0.00     0.002 C 
HETATM   19  C   UNL     1     -41.505 -55.185  15.454  1.00  0.00     0.002 C 
HETATM   20  C   UNL     1     -40.886 -53.800  15.354  1.00  0.00     0.025 C 
ENDBRANCH   4  16
TORSDOF 3
ENDMDL
