MODEL 1
REMARK VINA RESULT:      -6.9      0.000      0.000
REMARK  7 active torsions:
REMARK  status: ('A' for Active; 'I' for Inactive)
REMARK    1  A    between atoms: C_2  and  N_3 
REMARK    2  A    between atoms: C_2  and  C_6 
REMARK    3  A    between atoms: N_3  and  C_4 
REMARK    4  A    between atoms: N_15  and  C_16 
REMARK    5  A    between atoms: C_16  and  C_17 
REMARK    6  A    between atoms: C_17  and  O_18 
REMARK    7  A    between atoms: O_18  and  C_19 
ROOT
HETATM    1  C   UNL     1     -41.327 -49.002  11.412  1.00  0.00     0.107 A 
HETATM    2  N   UNL     1     -40.117 -48.848  10.907  1.00  0.00    -0.342 N 
ATOM      3  HN  UNL     1     -39.850 -48.243  10.132  1.00  0.00     0.167 HD
HETATM    4  C   UNL     1     -39.293 -49.663  11.633  1.00  0.00     0.060 A 
HETATM    5  C   UNL     1     -37.908 -49.862  11.489  1.00  0.00     0.032 A 
HETATM    6  C   UNL     1     -37.247 -50.750  12.343  1.00  0.00     0.002 A 
HETATM    7  C   UNL     1     -37.957 -51.437  13.317  1.00  0.00     0.002 A 
HETATM    8  C   UNL     1     -39.334 -51.253  13.465  1.00  0.00     0.032 A 
HETATM    9  C   UNL     1     -40.002 -50.351  12.617  1.00  0.00     0.062 A 
HETATM   10  N   UNL     1     -41.310 -49.901  12.477  1.00  0.00    -0.331 N 
ENDROOT
BRANCH  10  11
HETATM   11  C   UNL     1     -42.489 -50.244  13.274  1.00  0.00     0.157 C 
BRANCH  11  12
HETATM   12  C   UNL     1     -43.096 -51.612  12.989  1.00  0.00     0.196 C 
BRANCH  12  13
HETATM   13  O   UNL     1     -44.521 -51.614  12.918  1.00  0.00    -0.349 OA
BRANCH  13  14
HETATM   14  C   UNL     1     -45.111 -52.760  13.426  1.00  0.00     0.074 A 
HETATM   15  C   UNL     1     -44.652 -54.067  13.196  1.00  0.00     0.037 A 
HETATM   16  C   UNL     1     -45.310 -55.172  13.741  1.00  0.00     0.003 A 
HETATM   17  C   UNL     1     -46.435 -54.986  14.531  1.00  0.00     0.001 A 
HETATM   18  C   UNL     1     -46.902 -53.695  14.774  1.00  0.00     0.009 A 
HETATM   19  C   UNL     1     -46.249 -52.574  14.228  1.00  0.00    -0.029 A 
HETATM   20  C   UNL     1     -46.793 -51.199  14.492  1.00  0.00     0.051 C 
ENDBRANCH  13  14
ENDBRANCH  12  13
ENDBRANCH  11  12
ENDBRANCH  10  11
BRANCH   1  21
HETATM   21  C   UNL     1     -42.553 -48.292  10.895  1.00  0.00     0.147 C 
HETATM   22  C   UNL     1     -42.658 -46.893  11.496  1.00  0.00     0.040 C 
BRANCH  21  23
HETATM   23  N   UNL     1     -42.419 -48.194   9.450  1.00  0.00    -0.357 N 
HETATM   24  H   UNL     1     -41.548 -48.525   9.052  1.00  0.00     0.162 HD
BRANCH  23  25
HETATM   25  C   UNL     1     -43.347 -47.576   8.663  1.00  0.00     0.349 C 
HETATM   26  O   UNL     1     -43.669 -47.930   7.537  1.00  0.00    -0.284 OA
ENDBRANCH  23  25
ENDBRANCH  21  23
ENDBRANCH   1  21
TORSDOF 7
ENDMDL
MODEL 2
REMARK VINA RESULT:      -6.6      1.840      2.230
REMARK  7 active torsions:
REMARK  status: ('A' for Active; 'I' for Inactive)
REMARK    1  A    between atoms: C_2  and  N_3 
REMARK    2  A    between atoms: C_2  and  C_6 
REMARK    3  A    between atoms: N_3  and  C_4 
REMARK    4  A    between atoms: N_15  and  C_16 
REMARK    5  A    between atoms: C_16  and  C_17 
REMARK    6  A    between atoms: C_17  and  O_18 
REMARK    7  A    between atoms: O_18  and  C_19 
ROOT
HETATM    1  C   UNL     1     -40.258 -47.705  11.589  1.00  0.00     0.107 A 
HETATM    2  N   UNL     1     -39.062 -48.049  11.149  1.00  0.00    -0.342 N 
ATOM      3  HN  UNL     1     -38.523 -47.586  10.417  1.00  0.00     0.167 HD
HETATM    4  C   UNL     1     -38.691 -49.150  11.869  1.00  0.00     0.060 A 
HETATM    5  C   UNL     1     -37.501 -49.897  11.779  1.00  0.00     0.032 A 
HETATM    6  C   UNL     1     -37.317 -51.001  12.616  1.00  0.00     0.002 A 
HETATM    7  C   UNL     1     -38.305 -51.361  13.522  1.00  0.00     0.002 A 
HETATM    8  C   UNL     1     -39.493 -50.631  13.615  1.00  0.00     0.032 A 
HETATM    9  C   UNL     1     -39.679 -49.511  12.784  1.00  0.00     0.062 A 
HETATM   10  N   UNL     1     -40.677 -48.560  12.607  1.00  0.00    -0.331 N 
ENDROOT
BRANCH  10  11
HETATM   11  C   UNL     1     -41.940 -48.409  13.330  1.00  0.00     0.157 C 
BRANCH  11  12
HETATM   12  C   UNL     1     -42.992 -49.472  13.039  1.00  0.00     0.196 C 
BRANCH  12  13
HETATM   13  O   UNL     1     -43.108 -50.471  14.052  1.00  0.00    -0.349 OA
BRANCH  13  14
HETATM   14  C   UNL     1     -44.412 -50.827  14.349  1.00  0.00     0.074 A 
HETATM   15  C   UNL     1     -45.358 -51.267  13.408  1.00  0.00     0.037 A 
HETATM   16  C   UNL     1     -46.659 -51.600  13.789  1.00  0.00     0.003 A 
HETATM   17  C   UNL     1     -47.034 -51.505  15.121  1.00  0.00     0.001 A 
HETATM   18  C   UNL     1     -46.108 -51.075  16.071  1.00  0.00     0.009 A 
HETATM   19  C   UNL     1     -44.795 -50.733  15.697  1.00  0.00    -0.029 A 
HETATM   20  C   UNL     1     -43.829 -50.252  16.743  1.00  0.00     0.051 C 
ENDBRANCH  13  14
ENDBRANCH  12  13
ENDBRANCH  11  12
ENDBRANCH  10  11
BRANCH   1  21
HETATM   21  C   UNL     1     -41.051 -46.540  11.053  1.00  0.00     0.147 C 
HETATM   22  C   UNL     1     -40.120 -45.435  10.560  1.00  0.00     0.040 C 
BRANCH  21  23
HETATM   23  N   UNL     1     -41.851 -47.034   9.943  1.00  0.00    -0.357 N 
HETATM   24  H   UNL     1     -41.456 -47.797   9.404  1.00  0.00     0.162 HD
BRANCH  23  25
HETATM   25  C   UNL     1     -43.013 -46.438   9.547  1.00  0.00     0.349 C 
HETATM   26  O   UNL     1     -43.167 -45.802   8.513  1.00  0.00    -0.284 OA
ENDBRANCH  23  25
ENDBRANCH  21  23
ENDBRANCH   1  21
TORSDOF 7
ENDMDL
MODEL 3
REMARK VINA RESULT:      -6.4      3.363      7.993
REMARK  7 active torsions:
REMARK  status: ('A' for Active; 'I' for Inactive)
REMARK    1  A    between atoms: C_2  and  N_3 
REMARK    2  A    between atoms: C_2  and  C_6 
REMARK    3  A    between atoms: N_3  and  C_4 
REMARK    4  A    between atoms: N_15  and  C_16 
REMARK    5  A    between atoms: C_16  and  C_17 
REMARK    6  A    between atoms: C_17  and  O_18 
REMARK    7  A    between atoms: O_18  and  C_19 
ROOT
HETATM    1  C   UNL     1     -40.816 -53.781  13.879  1.00  0.00     0.107 A 
HETATM    2  N   UNL     1     -41.562 -54.486  14.709  1.00  0.00    -0.342 N 
ATOM      3  HN  UNL     1     -41.246 -54.989  15.538  1.00  0.00     0.167 HD
HETATM    4  C   UNL     1     -42.841 -54.408  14.235  1.00  0.00     0.060 A 
HETATM    5  C   UNL     1     -44.009 -54.990  14.762  1.00  0.00     0.032 A 
HETATM    6  C   UNL     1     -45.232 -54.786  14.117  1.00  0.00     0.002 A 
HETATM    7  C   UNL     1     -45.290 -54.023  12.959  1.00  0.00     0.002 A 
HETATM    8  C   UNL     1     -44.136 -53.446  12.422  1.00  0.00     0.032 A 
HETATM    9  C   UNL     1     -42.904 -53.637  13.075  1.00  0.00     0.062 A 
HETATM   10  N   UNL     1     -41.594 -53.222  12.866  1.00  0.00    -0.331 N 
ENDROOT
BRANCH  10  11
HETATM   11  C   UNL     1     -41.064 -52.348  11.819  1.00  0.00     0.157 C 
BRANCH  11  12
HETATM   12  C   UNL     1     -41.163 -50.854  12.101  1.00  0.00     0.196 C 
BRANCH  12  13
HETATM   13  O   UNL     1     -40.073 -50.090  11.587  1.00  0.00    -0.349 OA
BRANCH  13  14
HETATM   14  C   UNL     1     -39.490 -49.241  12.513  1.00  0.00     0.074 A 
HETATM   15  C   UNL     1     -40.122 -48.125  13.086  1.00  0.00     0.037 A 
HETATM   16  C   UNL     1     -39.461 -47.313  14.011  1.00  0.00     0.003 A 
HETATM   17  C   UNL     1     -38.157 -47.610  14.381  1.00  0.00     0.001 A 
HETATM   18  C   UNL     1     -37.516 -48.716  13.826  1.00  0.00     0.009 A 
HETATM   19  C   UNL     1     -38.171 -49.539  12.892  1.00  0.00    -0.029 A 
HETATM   20  C   UNL     1     -37.442 -50.711  12.297  1.00  0.00     0.051 C 
ENDBRANCH  13  14
ENDBRANCH  12  13
ENDBRANCH  11  12
ENDBRANCH  10  11
BRANCH   1  21
HETATM   21  C   UNL     1     -39.325 -53.610  14.022  1.00  0.00     0.147 C 
HETATM   22  C   UNL     1     -39.001 -52.593  15.113  1.00  0.00     0.040 C 
BRANCH  21  23
HETATM   23  N   UNL     1     -38.774 -54.907  14.386  1.00  0.00    -0.357 N 
HETATM   24  H   UNL     1     -38.689 -55.588  13.640  1.00  0.00     0.162 HD
BRANCH  23  25
HETATM   25  C   UNL     1     -38.497 -55.256  15.676  1.00  0.00     0.349 C 
HETATM   26  O   UNL     1     -37.701 -56.119  16.020  1.00  0.00    -0.284 OA
ENDBRANCH  23  25
ENDBRANCH  21  23
ENDBRANCH   1  21
TORSDOF 7
ENDMDL
MODEL 4
REMARK VINA RESULT:      -6.4      2.198      4.624
REMARK  7 active torsions:
REMARK  status: ('A' for Active; 'I' for Inactive)
REMARK    1  A    between atoms: C_2  and  N_3 
REMARK    2  A    between atoms: C_2  and  C_6 
REMARK    3  A    between atoms: N_3  and  C_4 
REMARK    4  A    between atoms: N_15  and  C_16 
REMARK    5  A    between atoms: C_16  and  C_17 
REMARK    6  A    between atoms: C_17  and  O_18 
REMARK    7  A    between atoms: O_18  and  C_19 
ROOT
HETATM    1  C   UNL     1     -39.700 -49.205  11.813  1.00  0.00     0.107 A 
HETATM    2  N   UNL     1     -39.525 -47.964  11.400  1.00  0.00    -0.342 N 
ATOM      3  HN  UNL     1     -38.640 -47.462  11.329  1.00  0.00     0.167 HD
HETATM    4  C   UNL     1     -40.766 -47.485  11.088  1.00  0.00     0.060 A 
HETATM    5  C   UNL     1     -41.120 -46.212  10.603  1.00  0.00     0.032 A 
HETATM    6  C   UNL     1     -42.462 -45.922  10.344  1.00  0.00     0.002 A 
HETATM    7  C   UNL     1     -43.439 -46.881  10.574  1.00  0.00     0.002 A 
HETATM    8  C   UNL     1     -43.101 -48.146  11.062  1.00  0.00     0.032 A 
HETATM    9  C   UNL     1     -41.750 -48.448  11.312  1.00  0.00     0.062 A 
HETATM   10  N   UNL     1     -41.047 -49.560  11.761  1.00  0.00    -0.331 N 
ENDROOT
BRANCH  10  11
HETATM   11  C   UNL     1     -41.554 -50.888  12.110  1.00  0.00     0.157 C 
BRANCH  11  12
HETATM   12  C   UNL     1     -42.471 -50.940  13.325  1.00  0.00     0.196 C 
BRANCH  12  13
HETATM   13  O   UNL     1     -43.862 -50.870  13.010  1.00  0.00    -0.349 OA
BRANCH  13  14
HETATM   14  C   UNL     1     -44.695 -50.935  14.114  1.00  0.00     0.074 A 
HETATM   15  C   UNL     1     -44.318 -50.599  15.425  1.00  0.00     0.037 A 
HETATM   16  C   UNL     1     -45.220 -50.699  16.487  1.00  0.00     0.003 A 
HETATM   17  C   UNL     1     -46.517 -51.132  16.252  1.00  0.00     0.001 A 
HETATM   18  C   UNL     1     -46.911 -51.465  14.957  1.00  0.00     0.009 A 
HETATM   19  C   UNL     1     -46.010 -51.371  13.880  1.00  0.00    -0.029 A 
HETATM   20  C   UNL     1     -46.462 -51.759  12.501  1.00  0.00     0.051 C 
ENDBRANCH  13  14
ENDBRANCH  12  13
ENDBRANCH  11  12
ENDBRANCH  10  11
BRANCH   1  21
HETATM   21  C   UNL     1     -38.582 -50.106  12.273  1.00  0.00     0.147 C 
HETATM   22  C   UNL     1     -37.427 -50.085  11.276  1.00  0.00     0.040 C 
BRANCH  21  23
HETATM   23  N   UNL     1     -38.124 -49.606  13.560  1.00  0.00    -0.357 N 
HETATM   24  H   UNL     1     -37.326 -48.980  13.545  1.00  0.00     0.162 HD
BRANCH  23  25
HETATM   25  C   UNL     1     -38.639 -50.038  14.747  1.00  0.00     0.349 C 
HETATM   26  O   UNL     1     -39.342 -51.027  14.896  1.00  0.00    -0.284 OA
ENDBRANCH  23  25
ENDBRANCH  21  23
ENDBRANCH   1  21
TORSDOF 7
ENDMDL
MODEL 5
REMARK VINA RESULT:      -6.2      2.784      4.146
REMARK  7 active torsions:
REMARK  status: ('A' for Active; 'I' for Inactive)
REMARK    1  A    between atoms: C_2  and  N_3 
REMARK    2  A    between atoms: C_2  and  C_6 
REMARK    3  A    between atoms: N_3  and  C_4 
REMARK    4  A    between atoms: N_15  and  C_16 
REMARK    5  A    between atoms: C_16  and  C_17 
REMARK    6  A    between atoms: C_17  and  O_18 
REMARK    7  A    between atoms: O_18  and  C_19 
ROOT
HETATM    1  C   UNL     1     -39.441 -50.890  13.000  1.00  0.00     0.107 A 
HETATM    2  N   UNL     1     -38.692 -51.643  13.784  1.00  0.00    -0.342 N 
ATOM      3  HN  UNL     1     -37.720 -51.478  14.044  1.00  0.00     0.167 HD
HETATM    4  C   UNL     1     -39.480 -52.689  14.177  1.00  0.00     0.060 A 
HETATM    5  C   UNL     1     -39.150 -53.768  15.016  1.00  0.00     0.032 A 
HETATM    6  C   UNL     1     -40.113 -54.743  15.295  1.00  0.00     0.002 A 
HETATM    7  C   UNL     1     -41.381 -54.649  14.738  1.00  0.00     0.002 A 
HETATM    8  C   UNL     1     -41.718 -53.585  13.898  1.00  0.00     0.032 A 
HETATM    9  C   UNL     1     -40.757 -52.594  13.624  1.00  0.00     0.062 A 
HETATM   10  N   UNL     1     -40.725 -51.419  12.882  1.00  0.00    -0.331 N 
ENDROOT
BRANCH  10  11
HETATM   11  C   UNL     1     -41.801 -50.786  12.118  1.00  0.00     0.157 C 
BRANCH  11  12
HETATM   12  C   UNL     1     -42.714 -49.864  12.914  1.00  0.00     0.196 C 
BRANCH  12  13
HETATM   13  O   UNL     1     -42.992 -50.318  14.239  1.00  0.00    -0.349 OA
BRANCH  13  14
HETATM   14  C   UNL     1     -44.299 -50.728  14.434  1.00  0.00     0.074 A 
HETATM   15  C   UNL     1     -45.150 -51.203  13.423  1.00  0.00     0.037 A 
HETATM   16  C   UNL     1     -46.463 -51.592  13.702  1.00  0.00     0.003 A 
HETATM   17  C   UNL     1     -46.943 -51.516  15.001  1.00  0.00     0.001 A 
HETATM   18  C   UNL     1     -46.111 -51.051  16.019  1.00  0.00     0.009 A 
HETATM   19  C   UNL     1     -44.789 -50.654  15.749  1.00  0.00    -0.029 A 
HETATM   20  C   UNL     1     -43.927 -50.137  16.866  1.00  0.00     0.051 C 
ENDBRANCH  13  14
ENDBRANCH  12  13
ENDBRANCH  11  12
ENDBRANCH  10  11
BRANCH   1  21
HETATM   21  C   UNL     1     -38.957 -49.628  12.331  1.00  0.00     0.147 C 
HETATM   22  C   UNL     1     -37.846 -48.976  13.149  1.00  0.00     0.040 C 
BRANCH  21  23
HETATM   23  N   UNL     1     -38.444 -50.001  11.021  1.00  0.00    -0.357 N 
HETATM   24  H   UNL     1     -39.132 -50.241  10.317  1.00  0.00     0.162 HD
BRANCH  23  25
HETATM   25  C   UNL     1     -37.112 -50.151  10.765  1.00  0.00     0.349 C 
HETATM   26  O   UNL     1     -36.602 -50.164   9.653  1.00  0.00    -0.284 OA
ENDBRANCH  23  25
ENDBRANCH  21  23
ENDBRANCH   1  21
TORSDOF 7
ENDMDL
MODEL 6
REMARK VINA RESULT:      -6.1      2.359      2.827
REMARK  7 active torsions:
REMARK  status: ('A' for Active; 'I' for Inactive)
REMARK    1  A    between atoms: C_2  and  N_3 
REMARK    2  A    between atoms: C_2  and  C_6 
REMARK    3  A    between atoms: N_3  and  C_4 
REMARK    4  A    between atoms: N_15  and  C_16 
REMARK    5  A    between atoms: C_16  and  C_17 
REMARK    6  A    between atoms: C_17  and  O_18 
REMARK    7  A    between atoms: O_18  and  C_19 
ROOT
HETATM    1  C   UNL     1     -40.426 -48.376  11.932  1.00  0.00     0.107 A 
HETATM    2  N   UNL     1     -39.850 -47.372  12.566  1.00  0.00    -0.342 N 
ATOM      3  HN  UNL     1     -40.054 -46.379  12.454  1.00  0.00     0.167 HD
HETATM    4  C   UNL     1     -38.925 -47.929  13.404  1.00  0.00     0.060 A 
HETATM    5  C   UNL     1     -38.047 -47.284  14.295  1.00  0.00     0.032 A 
HETATM    6  C   UNL     1     -37.169 -48.047  15.070  1.00  0.00     0.002 A 
HETATM    7  C   UNL     1     -37.158 -49.430  14.952  1.00  0.00     0.002 A 
HETATM    8  C   UNL     1     -38.020 -50.081  14.066  1.00  0.00     0.032 A 
HETATM    9  C   UNL     1     -38.915 -49.319  13.293  1.00  0.00     0.062 A 
HETATM   10  N   UNL     1     -39.902 -49.596  12.354  1.00  0.00    -0.331 N 
ENDROOT
BRANCH  10  11
HETATM   11  C   UNL     1     -40.370 -50.896  11.870  1.00  0.00     0.157 C 
BRANCH  11  12
HETATM   12  C   UNL     1     -41.584 -51.464  12.592  1.00  0.00     0.196 C 
BRANCH  12  13
HETATM   13  O   UNL     1     -41.869 -52.826  12.271  1.00  0.00    -0.349 OA
BRANCH  13  14
HETATM   14  C   UNL     1     -42.079 -53.634  13.375  1.00  0.00     0.074 A 
HETATM   15  C   UNL     1     -41.087 -54.006  14.298  1.00  0.00     0.037 A 
HETATM   16  C   UNL     1     -41.380 -54.834  15.384  1.00  0.00     0.003 A 
HETATM   17  C   UNL     1     -42.674 -55.298  15.569  1.00  0.00     0.001 A 
HETATM   18  C   UNL     1     -43.673 -54.935  14.666  1.00  0.00     0.009 A 
HETATM   19  C   UNL     1     -43.389 -54.105  13.567  1.00  0.00    -0.029 A 
HETATM   20  C   UNL     1     -44.485 -53.752  12.602  1.00  0.00     0.051 C 
ENDBRANCH  13  14
ENDBRANCH  12  13
ENDBRANCH  11  12
ENDBRANCH  10  11
BRANCH   1  21
HETATM   21  C   UNL     1     -41.507 -48.208  10.894  1.00  0.00     0.147 C 
HETATM   22  C   UNL     1     -42.882 -48.135  11.554  1.00  0.00     0.040 C 
BRANCH  21  23
HETATM   23  N   UNL     1     -41.240 -46.965  10.187  1.00  0.00    -0.357 N 
HETATM   24  H   UNL     1     -40.289 -46.821   9.867  1.00  0.00     0.162 HD
BRANCH  23  25
HETATM   25  C   UNL     1     -42.169 -45.972  10.061  1.00  0.00     0.349 C 
HETATM   26  O   UNL     1     -42.787 -45.707   9.040  1.00  0.00    -0.284 OA
ENDBRANCH  23  25
ENDBRANCH  21  23
ENDBRANCH   1  21
TORSDOF 7
ENDMDL
MODEL 7
REMARK VINA RESULT:      -6.1      3.283      7.853
REMARK  7 active torsions:
REMARK  status: ('A' for Active; 'I' for Inactive)
REMARK    1  A    between atoms: C_2  and  N_3 
REMARK    2  A    between atoms: C_2  and  C_6 
REMARK    3  A    between atoms: N_3  and  C_4 
REMARK    4  A    between atoms: N_15  and  C_16 
REMARK    5  A    between atoms: C_16  and  C_17 
REMARK    6  A    between atoms: C_17  and  O_18 
REMARK    7  A    between atoms: O_18  and  C_19 
ROOT
HETATM    1  C   UNL     1     -40.831 -53.811  13.864  1.00  0.00     0.107 A 
HETATM    2  N   UNL     1     -41.589 -54.545  14.657  1.00  0.00    -0.342 N 
ATOM      3  HN  UNL     1     -41.282 -55.098  15.456  1.00  0.00     0.167 HD
HETATM    4  C   UNL     1     -42.868 -54.416  14.191  1.00  0.00     0.060 A 
HETATM    5  C   UNL     1     -44.046 -55.001  14.690  1.00  0.00     0.032 A 
HETATM    6  C   UNL     1     -45.266 -54.738  14.059  1.00  0.00     0.002 A 
HETATM    7  C   UNL     1     -45.310 -53.912  12.945  1.00  0.00     0.002 A 
HETATM    8  C   UNL     1     -44.145 -53.330  12.437  1.00  0.00     0.032 A 
HETATM    9  C   UNL     1     -42.917 -53.582  13.075  1.00  0.00     0.062 A 
HETATM   10  N   UNL     1     -41.599 -53.183  12.885  1.00  0.00    -0.331 N 
ENDROOT
BRANCH  10  11
HETATM   11  C   UNL     1     -41.053 -52.264  11.886  1.00  0.00     0.157 C 
BRANCH  11  12
HETATM   12  C   UNL     1     -40.923 -50.813  12.331  1.00  0.00     0.196 C 
BRANCH  12  13
HETATM   13  O   UNL     1     -40.635 -49.900  11.273  1.00  0.00    -0.349 OA
BRANCH  13  14
HETATM   14  C   UNL     1     -40.412 -48.600  11.692  1.00  0.00     0.074 A 
HETATM   15  C   UNL     1     -39.489 -48.224  12.682  1.00  0.00     0.037 A 
HETATM   16  C   UNL     1     -39.329 -46.887  13.054  1.00  0.00     0.003 A 
HETATM   17  C   UNL     1     -40.086 -45.903  12.434  1.00  0.00     0.001 A 
HETATM   18  C   UNL     1     -41.003 -46.257  11.445  1.00  0.00     0.009 A 
HETATM   19  C   UNL     1     -41.175 -47.601  11.065  1.00  0.00    -0.029 A 
HETATM   20  C   UNL     1     -42.189 -47.949  10.012  1.00  0.00     0.051 C 
ENDBRANCH  13  14
ENDBRANCH  12  13
ENDBRANCH  11  12
ENDBRANCH  10  11
BRANCH   1  21
HETATM   21  C   UNL     1     -39.336 -53.679  14.012  1.00  0.00     0.147 C 
HETATM   22  C   UNL     1     -38.989 -52.638  15.073  1.00  0.00     0.040 C 
BRANCH  21  23
HETATM   23  N   UNL     1     -38.824 -54.979  14.419  1.00  0.00    -0.357 N 
HETATM   24  H   UNL     1     -38.818 -55.705  13.711  1.00  0.00     0.162 HD
BRANCH  23  25
HETATM   25  C   UNL     1     -38.485 -55.269  15.709  1.00  0.00     0.349 C 
HETATM   26  O   UNL     1     -37.692 -56.132  16.055  1.00  0.00    -0.284 OA
ENDBRANCH  23  25
ENDBRANCH  21  23
ENDBRANCH   1  21
TORSDOF 7
ENDMDL
MODEL 8
REMARK VINA RESULT:      -6.0      4.158      8.836
REMARK  7 active torsions:
REMARK  status: ('A' for Active; 'I' for Inactive)
REMARK    1  A    between atoms: C_2  and  N_3 
REMARK    2  A    between atoms: C_2  and  C_6 
REMARK    3  A    between atoms: N_3  and  C_4 
REMARK    4  A    between atoms: N_15  and  C_16 
REMARK    5  A    between atoms: C_16  and  C_17 
REMARK    6  A    between atoms: C_17  and  O_18 
REMARK    7  A    between atoms: O_18  and  C_19 
ROOT
HETATM    1  C   UNL     1     -41.708 -47.871  10.746  1.00  0.00     0.107 A 
HETATM    2  N   UNL     1     -42.861 -48.506  10.638  1.00  0.00    -0.342 N 
ATOM      3  HN  UNL     1     -43.061 -49.463  10.927  1.00  0.00     0.167 HD
HETATM    4  C   UNL     1     -43.731 -47.624  10.061  1.00  0.00     0.060 A 
HETATM    5  C   UNL     1     -45.086 -47.817   9.731  1.00  0.00     0.032 A 
HETATM    6  C   UNL     1     -45.805 -46.775   9.140  1.00  0.00     0.002 A 
HETATM    7  C   UNL     1     -45.184 -45.563   8.871  1.00  0.00     0.002 A 
HETATM    8  C   UNL     1     -43.837 -45.363   9.188  1.00  0.00     0.032 A 
HETATM    9  C   UNL     1     -43.112 -46.404   9.796  1.00  0.00     0.062 A 
HETATM   10  N   UNL     1     -41.812 -46.569  10.260  1.00  0.00    -0.331 N 
ENDROOT
BRANCH  10  11
HETATM   11  C   UNL     1     -40.716 -45.599  10.286  1.00  0.00     0.157 C 
BRANCH  11  12
HETATM   12  C   UNL     1     -40.839 -44.501  11.333  1.00  0.00     0.196 C 
BRANCH  12  13
HETATM   13  O   UNL     1     -40.830 -43.178  10.796  1.00  0.00    -0.349 OA
BRANCH  13  14
HETATM   14  C   UNL     1     -41.799 -42.345  11.328  1.00  0.00     0.074 A 
HETATM   15  C   UNL     1     -43.159 -42.368  10.974  1.00  0.00     0.037 A 
HETATM   16  C   UNL     1     -44.074 -41.487  11.554  1.00  0.00     0.003 A 
HETATM   17  C   UNL     1     -43.643 -40.570  12.502  1.00  0.00     0.001 A 
HETATM   18  C   UNL     1     -42.299 -40.535  12.869  1.00  0.00     0.009 A 
HETATM   19  C   UNL     1     -41.367 -41.417  12.290  1.00  0.00    -0.029 A 
HETATM   20  C   UNL     1     -39.922 -41.336  12.692  1.00  0.00     0.051 C 
ENDBRANCH  13  14
ENDBRANCH  12  13
ENDBRANCH  11  12
ENDBRANCH  10  11
BRANCH   1  21
HETATM   21  C   UNL     1     -40.458 -48.486  11.323  1.00  0.00     0.147 C 
HETATM   22  C   UNL     1     -40.482 -48.427  12.848  1.00  0.00     0.040 C 
BRANCH  21  23
HETATM   23  N   UNL     1     -40.418 -49.874  10.889  1.00  0.00    -0.357 N 
HETATM   24  H   UNL     1     -40.444 -50.037   9.889  1.00  0.00     0.162 HD
BRANCH  23  25
HETATM   25  C   UNL     1     -40.471 -50.922  11.761  1.00  0.00     0.349 C 
HETATM   26  O   UNL     1     -41.238 -51.872  11.682  1.00  0.00    -0.284 OA
ENDBRANCH  23  25
ENDBRANCH  21  23
ENDBRANCH   1  21
TORSDOF 7
ENDMDL
MODEL 9
REMARK VINA RESULT:      -6.0      2.151      3.430
REMARK  7 active torsions:
REMARK  status: ('A' for Active; 'I' for Inactive)
REMARK    1  A    between atoms: C_2  and  N_3 
REMARK    2  A    between atoms: C_2  and  C_6 
REMARK    3  A    between atoms: N_3  and  C_4 
REMARK    4  A    between atoms: N_15  and  C_16 
REMARK    5  A    between atoms: C_16  and  C_17 
REMARK    6  A    between atoms: C_17  and  O_18 
REMARK    7  A    between atoms: O_18  and  C_19 
ROOT
HETATM    1  C   UNL     1     -40.107 -50.621  12.741  1.00  0.00     0.107 A 
HETATM    2  N   UNL     1     -39.481 -51.774  12.590  1.00  0.00    -0.342 N 
ATOM      3  HN  UNL     1     -38.748 -51.989  11.915  1.00  0.00     0.167 HD
HETATM    4  C   UNL     1     -40.012 -52.623  13.521  1.00  0.00     0.060 A 
HETATM    5  C   UNL     1     -39.686 -53.969  13.768  1.00  0.00     0.032 A 
HETATM    6  C   UNL     1     -40.357 -54.666  14.778  1.00  0.00     0.002 A 
HETATM    7  C   UNL     1     -41.343 -54.035  15.523  1.00  0.00     0.002 A 
HETATM    8  C   UNL     1     -41.680 -52.701  15.282  1.00  0.00     0.032 A 
HETATM    9  C   UNL     1     -41.000 -51.990  14.276  1.00  0.00     0.062 A 
HETATM   10  N   UNL     1     -41.038 -50.694  13.776  1.00  0.00    -0.331 N 
ENDROOT
BRANCH  10  11
HETATM   11  C   UNL     1     -41.856 -49.563  14.217  1.00  0.00     0.157 C 
BRANCH  11  12
HETATM   12  C   UNL     1     -43.239 -49.471  13.587  1.00  0.00     0.196 C 
BRANCH  12  13
HETATM   13  O   UNL     1     -43.941 -50.713  13.535  1.00  0.00    -0.349 OA
BRANCH  13  14
HETATM   14  C   UNL     1     -44.885 -50.871  14.535  1.00  0.00     0.074 A 
HETATM   15  C   UNL     1     -44.671 -50.581  15.893  1.00  0.00     0.037 A 
HETATM   16  C   UNL     1     -45.676 -50.776  16.843  1.00  0.00     0.003 A 
HETATM   17  C   UNL     1     -46.915 -51.259  16.448  1.00  0.00     0.001 A 
HETATM   18  C   UNL     1     -47.147 -51.548  15.104  1.00  0.00     0.009 A 
HETATM   19  C   UNL     1     -46.141 -51.359  14.138  1.00  0.00    -0.029 A 
HETATM   20  C   UNL     1     -46.419 -51.702  12.702  1.00  0.00     0.051 C 
ENDBRANCH  13  14
ENDBRANCH  12  13
ENDBRANCH  11  12
ENDBRANCH  10  11
BRANCH   1  21
HETATM   21  C   UNL     1     -39.836 -49.399  11.900  1.00  0.00     0.147 C 
HETATM   22  C   UNL     1     -38.387 -49.384  11.422  1.00  0.00     0.040 C 
BRANCH  21  23
HETATM   23  N   UNL     1     -40.728 -49.457  10.752  1.00  0.00    -0.357 N 
HETATM   24  H   UNL     1     -40.635 -50.265  10.146  1.00  0.00     0.162 HD
BRANCH  23  25
HETATM   25  C   UNL     1     -41.565 -48.434  10.414  1.00  0.00     0.349 C 
HETATM   26  O   UNL     1     -41.748 -47.421  11.074  1.00  0.00    -0.284 OA
ENDBRANCH  23  25
ENDBRANCH  21  23
ENDBRANCH   1  21
TORSDOF 7
ENDMDL
