MODEL 1
REMARK VINA RESULT:      -7.1      0.000      0.000
REMARK  3 active torsions:
REMARK  status: ('A' for Active; 'I' for Inactive)
REMARK    1  A    between atoms: C_2  and  N_3 
REMARK    2  A    between atoms: C_8  and  N_9 
REMARK       I    between atoms: N_9  and  C_10 
REMARK       I    between atoms: C_10  and  N_12 
REMARK    3  A    between atoms: N_12  and  C_13 
ROOT
HETATM    1  N   UNL     1     -41.984 -49.552  11.402  1.00  0.00    -0.304 N 
HETATM    2  C   UNL     1     -42.738 -50.046  12.436  1.00  0.00     0.321 C 
HETATM    3  O   UNL     1     -43.386 -49.386  13.241  1.00  0.00    -0.247 OA
HETATM    4  N   UNL     1     -42.729 -51.415  12.498  1.00  0.00    -0.337 N 
HETATM    5  H   UNL     1     -41.543 -50.194  10.756  1.00  0.00     0.171 HD
HETATM    6  H   UNL     1     -41.953 -51.869  12.039  1.00  0.00     0.164 HD
ENDROOT
BRANCH   1   7
HETATM    7  C   UNL     1     -41.871 -48.220  11.057  1.00  0.00     0.102 A 
HETATM    8  C   UNL     1     -40.566 -47.529  11.314  1.00  0.00     0.201 A 
HETATM    9  C   UNL     1     -40.430 -46.119  10.859  1.00  0.00     0.074 A 
HETATM   10  O   UNL     1     -39.634 -48.113  11.866  1.00  0.00    -0.286 OA
HETATM   11  C   UNL     1     -41.465 -45.554  10.229  1.00  0.00     0.094 A 
HETATM   12  N   UNL     1     -42.673 -46.187   9.996  1.00  0.00    -0.364 N 
HETATM   13  C   UNL     1     -42.814 -47.490  10.454  1.00  0.00     0.124 A 
BRANCH  12  14
HETATM   14  C   UNL     1     -43.686 -45.655   9.070  1.00  0.00     0.123 C 
HETATM   15  C   UNL     1     -44.862 -46.623   8.979  1.00  0.00     0.027 C 
ENDBRANCH  12  14
ENDBRANCH   1   7
BRANCH   4  16
HETATM   16  C   UNL     1     -43.373 -52.080  13.645  1.00  0.00     0.103 C 
HETATM   17  C   UNL     1     -44.428 -53.191  13.336  1.00  0.00     0.041 C 
HETATM   18  C   UNL     1     -45.801 -53.811  13.550  1.00  0.00     0.035 C 
HETATM   19  C   UNL     1     -43.897 -53.737  14.739  1.00  0.00     0.138 C 
HETATM   20  C   UNL     1     -45.418 -55.262  13.933  1.00  0.00     0.168 C 
HETATM   21  O   UNL     1     -44.319 -55.107  14.850  1.00  0.00    -0.385 OA
HETATM   22  C   UNL     1     -42.502 -53.279  14.257  1.00  0.00     0.007 C 
HETATM   23  C   UNL     1     -41.404 -52.697  15.152  1.00  0.00     0.014 C 
HETATM   24  C   UNL     1     -41.831 -54.393  13.441  1.00  0.00     0.014 C 
HETATM   25  C   UNL     1     -40.092 -53.289  14.614  1.00  0.00     0.001 C 
HETATM   26  C   UNL     1     -40.417 -53.899  13.260  1.00  0.00     0.001 C 
ENDBRANCH   4  16
TORSDOF 3
ENDMDL
MODEL 2
REMARK VINA RESULT:      -7.1      1.863      7.871
REMARK  3 active torsions:
REMARK  status: ('A' for Active; 'I' for Inactive)
REMARK    1  A    between atoms: C_2  and  N_3 
REMARK    2  A    between atoms: C_8  and  N_9 
REMARK       I    between atoms: N_9  and  C_10 
REMARK       I    between atoms: C_10  and  N_12 
REMARK    3  A    between atoms: N_12  and  C_13 
ROOT
HETATM    1  N   UNL     1     -42.173 -51.279  11.770  1.00  0.00    -0.304 N 
HETATM    2  C   UNL     1     -42.242 -49.980  12.208  1.00  0.00     0.321 C 
HETATM    3  O   UNL     1     -42.239 -49.608  13.376  1.00  0.00    -0.247 OA
HETATM    4  N   UNL     1     -42.298 -49.072  11.184  1.00  0.00    -0.337 N 
HETATM    5  H   UNL     1     -42.115 -51.466  10.778  1.00  0.00     0.171 HD
HETATM    6  H   UNL     1     -42.617 -49.433  10.296  1.00  0.00     0.164 HD
ENDROOT
BRANCH   1   7
HETATM    7  C   UNL     1     -42.033 -52.391  12.576  1.00  0.00     0.102 A 
HETATM    8  C   UNL     1     -40.648 -52.825  12.950  1.00  0.00     0.201 A 
HETATM    9  C   UNL     1     -40.514 -53.972  13.888  1.00  0.00     0.074 A 
HETATM   10  O   UNL     1     -39.658 -52.242  12.511  1.00  0.00    -0.286 OA
HETATM   11  C   UNL     1     -41.630 -54.537  14.362  1.00  0.00     0.094 A 
HETATM   12  N   UNL     1     -42.909 -54.143  14.014  1.00  0.00    -0.364 N 
HETATM   13  C   UNL     1     -43.035 -53.097  13.109  1.00  0.00     0.124 A 
BRANCH  12  14
HETATM   14  C   UNL     1     -44.107 -54.583  14.747  1.00  0.00     0.123 C 
HETATM   15  C   UNL     1     -45.179 -55.037  13.761  1.00  0.00     0.027 C 
ENDBRANCH  12  14
ENDBRANCH   1   7
BRANCH   4  16
HETATM   16  C   UNL     1     -42.525 -47.651  11.503  1.00  0.00     0.103 C 
HETATM   17  C   UNL     1     -41.310 -46.677  11.359  1.00  0.00     0.041 C 
HETATM   18  C   UNL     1     -40.422 -45.576  11.917  1.00  0.00     0.035 C 
HETATM   19  C   UNL     1     -42.492 -45.649  11.050  1.00  0.00     0.138 C 
HETATM   20  C   UNL     1     -40.505 -44.520  10.787  1.00  0.00     0.168 C 
HETATM   21  O   UNL     1     -41.900 -44.494  10.432  1.00  0.00    -0.385 OA
HETATM   22  C   UNL     1     -43.154 -46.817  10.287  1.00  0.00     0.007 C 
HETATM   23  C   UNL     1     -44.659 -47.089  10.216  1.00  0.00     0.014 C 
HETATM   24  C   UNL     1     -42.654 -46.853   8.835  1.00  0.00     0.014 C 
HETATM   25  C   UNL     1     -44.916 -47.557   8.776  1.00  0.00     0.001 C 
HETATM   26  C   UNL     1     -43.555 -47.866   8.173  1.00  0.00     0.001 C 
ENDBRANCH   4  16
TORSDOF 3
ENDMDL
MODEL 3
REMARK VINA RESULT:      -7.1      2.600      3.800
REMARK  3 active torsions:
REMARK  status: ('A' for Active; 'I' for Inactive)
REMARK    1  A    between atoms: C_2  and  N_3 
REMARK    2  A    between atoms: C_8  and  N_9 
REMARK       I    between atoms: N_9  and  C_10 
REMARK       I    between atoms: C_10  and  N_12 
REMARK    3  A    between atoms: N_12  and  C_13 
ROOT
HETATM    1  N   UNL     1     -42.305 -48.463  10.355  1.00  0.00    -0.304 N 
HETATM    2  C   UNL     1     -42.260 -49.109  11.566  1.00  0.00     0.321 C 
HETATM    3  O   UNL     1     -42.998 -48.905  12.523  1.00  0.00    -0.247 OA
HETATM    4  N   UNL     1     -41.284 -50.068  11.624  1.00  0.00    -0.337 N 
HETATM    5  H   UNL     1     -41.688 -48.761   9.610  1.00  0.00     0.171 HD
HETATM    6  H   UNL     1     -40.530 -49.967  10.960  1.00  0.00     0.164 HD
ENDROOT
BRANCH   1   7
HETATM    7  C   UNL     1     -43.231 -47.507   9.989  1.00  0.00     0.102 A 
HETATM    8  C   UNL     1     -42.739 -46.125   9.683  1.00  0.00     0.201 A 
HETATM    9  C   UNL     1     -43.735 -45.128   9.208  1.00  0.00     0.074 A 
HETATM   10  O   UNL     1     -41.550 -45.831   9.803  1.00  0.00    -0.286 OA
HETATM   11  C   UNL     1     -45.005 -45.521   9.059  1.00  0.00     0.094 A 
HETATM   12  N   UNL     1     -45.463 -46.794   9.347  1.00  0.00    -0.364 N 
HETATM   13  C   UNL     1     -44.541 -47.715   9.827  1.00  0.00     0.124 A 
BRANCH  12  14
HETATM   14  C   UNL     1     -46.784 -47.282   8.919  1.00  0.00     0.123 C 
HETATM   15  C   UNL     1     -46.760 -48.803   8.800  1.00  0.00     0.027 C 
ENDBRANCH  12  14
ENDBRANCH   1   7
BRANCH   4  16
HETATM   16  C   UNL     1     -41.022 -50.738  12.911  1.00  0.00     0.103 C 
HETATM   17  C   UNL     1     -40.738 -52.275  12.879  1.00  0.00     0.041 C 
HETATM   18  C   UNL     1     -40.997 -53.681  13.398  1.00  0.00     0.035 C 
HETATM   19  C   UNL     1     -39.883 -51.891  14.171  1.00  0.00     0.138 C 
HETATM   20  C   UNL     1     -39.563 -54.133  13.770  1.00  0.00     0.168 C 
HETATM   21  O   UNL     1     -38.995 -52.990  14.436  1.00  0.00    -0.385 OA
HETATM   22  C   UNL     1     -39.498 -50.612  13.395  1.00  0.00     0.007 C 
HETATM   23  C   UNL     1     -39.280 -49.231  14.018  1.00  0.00     0.014 C 
HETATM   24  C   UNL     1     -38.265 -50.875  12.519  1.00  0.00     0.014 C 
HETATM   25  C   UNL     1     -38.088 -48.630  13.257  1.00  0.00     0.001 C 
HETATM   26  C   UNL     1     -37.876 -49.502  12.030  1.00  0.00     0.001 C 
ENDBRANCH   4  16
TORSDOF 3
ENDMDL
MODEL 4
REMARK VINA RESULT:      -6.7      1.227      2.302
REMARK  3 active torsions:
REMARK  status: ('A' for Active; 'I' for Inactive)
REMARK    1  A    between atoms: C_2  and  N_3 
REMARK    2  A    between atoms: C_8  and  N_9 
REMARK       I    between atoms: N_9  and  C_10 
REMARK       I    between atoms: C_10  and  N_12 
REMARK    3  A    between atoms: N_12  and  C_13 
ROOT
HETATM    1  N   UNL     1     -42.091 -49.375  11.408  1.00  0.00    -0.304 N 
HETATM    2  C   UNL     1     -42.766 -49.881  12.491  1.00  0.00     0.321 C 
HETATM    3  O   UNL     1     -43.195 -49.237  13.442  1.00  0.00    -0.247 OA
HETATM    4  N   UNL     1     -42.952 -51.236  12.420  1.00  0.00    -0.337 N 
HETATM    5  H   UNL     1     -41.841 -49.992  10.646  1.00  0.00     0.171 HD
HETATM    6  H   UNL     1     -42.320 -51.734  11.810  1.00  0.00     0.164 HD
ENDROOT
BRANCH   1   7
HETATM    7  C   UNL     1     -41.829 -48.039  11.178  1.00  0.00     0.102 A 
HETATM    8  C   UNL     1     -42.797 -47.261  10.339  1.00  0.00     0.201 A 
HETATM    9  C   UNL     1     -42.548 -45.804  10.171  1.00  0.00     0.074 A 
HETATM   10  O   UNL     1     -43.772 -47.805   9.823  1.00  0.00    -0.286 OA
HETATM   11  C   UNL     1     -41.493 -45.266  10.791  1.00  0.00     0.094 A 
HETATM   12  N   UNL     1     -40.594 -45.982  11.561  1.00  0.00    -0.364 N 
HETATM   13  C   UNL     1     -40.804 -47.349  11.687  1.00  0.00     0.124 A 
BRANCH  12  14
HETATM   14  C   UNL     1     -39.615 -45.337  12.451  1.00  0.00     0.123 C 
HETATM   15  C   UNL     1     -39.215 -46.302  13.564  1.00  0.00     0.027 C 
ENDBRANCH  12  14
ENDBRANCH   1   7
BRANCH   4  16
HETATM   16  C   UNL     1     -43.529 -51.937  13.581  1.00  0.00     0.103 C 
HETATM   17  C   UNL     1     -44.569 -53.069  13.297  1.00  0.00     0.041 C 
HETATM   18  C   UNL     1     -45.915 -53.728  13.560  1.00  0.00     0.035 C 
HETATM   19  C   UNL     1     -43.963 -53.626  14.666  1.00  0.00     0.138 C 
HETATM   20  C   UNL     1     -45.480 -55.175  13.899  1.00  0.00     0.168 C 
HETATM   21  O   UNL     1     -44.346 -55.007  14.770  1.00  0.00    -0.385 OA
HETATM   22  C   UNL     1     -42.603 -53.124  14.133  1.00  0.00     0.007 C 
HETATM   23  C   UNL     1     -41.481 -52.530  14.990  1.00  0.00     0.014 C 
HETATM   24  C   UNL     1     -41.940 -54.206  13.269  1.00  0.00     0.014 C 
HETATM   25  C   UNL     1     -40.180 -53.079  14.386  1.00  0.00     0.001 C 
HETATM   26  C   UNL     1     -40.548 -53.673  13.036  1.00  0.00     0.001 C 
ENDBRANCH   4  16
TORSDOF 3
ENDMDL
MODEL 5
REMARK VINA RESULT:      -6.6      2.467      6.790
REMARK  3 active torsions:
REMARK  status: ('A' for Active; 'I' for Inactive)
REMARK    1  A    between atoms: C_2  and  N_3 
REMARK    2  A    between atoms: C_8  and  N_9 
REMARK       I    between atoms: N_9  and  C_10 
REMARK       I    between atoms: C_10  and  N_12 
REMARK    3  A    between atoms: N_12  and  C_13 
ROOT
HETATM    1  N   UNL     1     -42.292 -52.467  11.859  1.00  0.00    -0.304 N 
HETATM    2  C   UNL     1     -41.759 -51.225  12.103  1.00  0.00     0.321 C 
HETATM    3  O   UNL     1     -42.033 -50.492  13.047  1.00  0.00    -0.247 OA
HETATM    4  N   UNL     1     -40.830 -50.849  11.169  1.00  0.00    -0.337 N 
HETATM    5  H   UNL     1     -41.942 -53.014  11.083  1.00  0.00     0.171 HD
HETATM    6  H   UNL     1     -40.886 -51.324  10.280  1.00  0.00     0.164 HD
ENDROOT
BRANCH   1   7
HETATM    7  C   UNL     1     -43.192 -53.127  12.672  1.00  0.00     0.102 A 
HETATM    8  C   UNL     1     -42.665 -54.169  13.612  1.00  0.00     0.201 A 
HETATM    9  C   UNL     1     -43.632 -54.812  14.541  1.00  0.00     0.074 A 
HETATM   10  O   UNL     1     -41.472 -54.469  13.626  1.00  0.00    -0.286 OA
HETATM   11  C   UNL     1     -44.908 -54.412  14.504  1.00  0.00     0.094 A 
HETATM   12  N   UNL     1     -45.398 -53.456  13.633  1.00  0.00    -0.364 N 
HETATM   13  C   UNL     1     -44.504 -52.883  12.739  1.00  0.00     0.124 A 
BRANCH  12  14
HETATM   14  C   UNL     1     -46.725 -52.837  13.792  1.00  0.00     0.123 C 
HETATM   15  C   UNL     1     -46.571 -51.421  14.340  1.00  0.00     0.027 C 
ENDBRANCH  12  14
ENDBRANCH   1   7
BRANCH   4  16
HETATM   16  C   UNL     1     -40.284 -49.481  11.220  1.00  0.00     0.103 C 
HETATM   17  C   UNL     1     -40.924 -48.486  12.242  1.00  0.00     0.041 C 
HETATM   18  C   UNL     1     -41.529 -47.129  12.569  1.00  0.00     0.035 C 
HETATM   19  C   UNL     1     -39.447 -47.883  12.200  1.00  0.00     0.138 C 
HETATM   20  C   UNL     1     -40.641 -46.681  13.756  1.00  0.00     0.168 C 
HETATM   21  O   UNL     1     -39.305 -47.024  13.345  1.00  0.00    -0.385 OA
HETATM   22  C   UNL     1     -38.973 -49.352  12.134  1.00  0.00     0.007 C 
HETATM   23  C   UNL     1     -37.760 -49.856  11.348  1.00  0.00     0.014 C 
HETATM   24  C   UNL     1     -38.821 -49.924  13.551  1.00  0.00     0.014 C 
HETATM   25  C   UNL     1     -37.117 -50.927  12.244  1.00  0.00     0.001 C 
HETATM   26  C   UNL     1     -38.133 -51.247  13.329  1.00  0.00     0.001 C 
ENDBRANCH   4  16
TORSDOF 3
ENDMDL
MODEL 6
REMARK VINA RESULT:      -6.5      1.934      3.702
REMARK  3 active torsions:
REMARK  status: ('A' for Active; 'I' for Inactive)
REMARK    1  A    between atoms: C_2  and  N_3 
REMARK    2  A    between atoms: C_8  and  N_9 
REMARK       I    between atoms: N_9  and  C_10 
REMARK       I    between atoms: C_10  and  N_12 
REMARK    3  A    between atoms: N_12  and  C_13 
ROOT
HETATM    1  N   UNL     1     -42.427 -48.717  12.922  1.00  0.00    -0.304 N 
HETATM    2  C   UNL     1     -42.338 -50.065  12.676  1.00  0.00     0.321 C 
HETATM    3  O   UNL     1     -41.574 -50.609  11.886  1.00  0.00    -0.247 OA
HETATM    4  N   UNL     1     -43.203 -50.806  13.437  1.00  0.00    -0.337 N 
HETATM    5  H   UNL     1     -43.049 -48.384  13.647  1.00  0.00     0.171 HD
HETATM    6  H   UNL     1     -43.998 -50.306  13.808  1.00  0.00     0.164 HD
ENDROOT
BRANCH   1   7
HETATM    7  C   UNL     1     -41.628 -47.744  12.356  1.00  0.00     0.102 A 
HETATM    8  C   UNL     1     -41.932 -47.303  10.956  1.00  0.00     0.201 A 
HETATM    9  C   UNL     1     -41.117 -46.195  10.390  1.00  0.00     0.074 A 
HETATM   10  O   UNL     1     -42.834 -47.828  10.305  1.00  0.00    -0.286 OA
HETATM   11  C   UNL     1     -40.178 -45.639  11.163  1.00  0.00     0.094 A 
HETATM   12  N   UNL     1     -39.891 -46.048  12.453  1.00  0.00    -0.364 N 
HETATM   13  C   UNL     1     -40.625 -47.109  12.969  1.00  0.00     0.124 A 
BRANCH  12  14
HETATM   14  C   UNL     1     -39.060 -45.256  13.375  1.00  0.00     0.123 C 
HETATM   15  C   UNL     1     -39.162 -43.776  13.020  1.00  0.00     0.027 C 
ENDBRANCH  12  14
ENDBRANCH   1   7
BRANCH   4  16
HETATM   16  C   UNL     1     -43.323 -52.251  13.174  1.00  0.00     0.103 C 
HETATM   17  C   UNL     1     -42.764 -53.230  14.257  1.00  0.00     0.041 C 
HETATM   18  C   UNL     1     -41.923 -54.438  14.643  1.00  0.00     0.035 C 
HETATM   19  C   UNL     1     -43.923 -54.153  13.662  1.00  0.00     0.138 C 
HETATM   20  C   UNL     1     -42.960 -55.292  15.413  1.00  0.00     0.168 C 
HETATM   21  O   UNL     1     -44.150 -55.212  14.608  1.00  0.00    -0.385 OA
HETATM   22  C   UNL     1     -44.754 -52.855  13.575  1.00  0.00     0.007 C 
HETATM   23  C   UNL     1     -45.766 -52.524  12.474  1.00  0.00     0.014 C 
HETATM   24  C   UNL     1     -45.482 -52.601  14.903  1.00  0.00     0.014 C 
HETATM   25  C   UNL     1     -46.926 -51.819  13.194  1.00  0.00     0.001 C 
HETATM   26  C   UNL     1     -46.420 -51.464  14.583  1.00  0.00     0.001 C 
ENDBRANCH   4  16
TORSDOF 3
ENDMDL
MODEL 7
REMARK VINA RESULT:      -6.5      1.405      2.742
REMARK  3 active torsions:
REMARK  status: ('A' for Active; 'I' for Inactive)
REMARK    1  A    between atoms: C_2  and  N_3 
REMARK    2  A    between atoms: C_8  and  N_9 
REMARK       I    between atoms: N_9  and  C_10 
REMARK       I    between atoms: C_10  and  N_12 
REMARK    3  A    between atoms: N_12  and  C_13 
ROOT
HETATM    1  N   UNL     1     -42.598 -48.941  13.049  1.00  0.00    -0.304 N 
HETATM    2  C   UNL     1     -42.320 -50.270  12.847  1.00  0.00     0.321 C 
HETATM    3  O   UNL     1     -41.802 -50.758  11.849  1.00  0.00    -0.247 OA
HETATM    4  N   UNL     1     -42.666 -51.057  13.913  1.00  0.00    -0.337 N 
HETATM    5  H   UNL     1     -42.967 -48.641  13.943  1.00  0.00     0.171 HD
HETATM    6  H   UNL     1     -43.357 -50.668  14.539  1.00  0.00     0.164 HD
ENDROOT
BRANCH   1   7
HETATM    7  C   UNL     1     -42.290 -47.915  12.179  1.00  0.00     0.102 A 
HETATM    8  C   UNL     1     -40.921 -47.309  12.256  1.00  0.00     0.201 A 
HETATM    9  C   UNL     1     -40.573 -46.263  11.256  1.00  0.00     0.074 A 
HETATM   10  O   UNL     1     -40.109 -47.674  13.104  1.00  0.00    -0.286 OA
HETATM   11  C   UNL     1     -41.486 -45.939  10.334  1.00  0.00     0.094 A 
HETATM   12  N   UNL     1     -42.752 -46.493  10.264  1.00  0.00    -0.364 N 
HETATM   13  C   UNL     1     -43.091 -47.440  11.221  1.00  0.00     0.124 A 
BRANCH  12  14
HETATM   14  C   UNL     1     -43.630 -46.331   9.094  1.00  0.00     0.123 C 
HETATM   15  C   UNL     1     -43.557 -47.579   8.218  1.00  0.00     0.027 C 
ENDBRANCH  12  14
ENDBRANCH   1   7
BRANCH   4  16
HETATM   16  C   UNL     1     -42.563 -52.521  13.780  1.00  0.00     0.103 C 
HETATM   17  C   UNL     1     -42.266 -53.345  15.075  1.00  0.00     0.041 C 
HETATM   18  C   UNL     1     -41.470 -54.410  15.815  1.00  0.00     0.035 C 
HETATM   19  C   UNL     1     -43.097 -54.443  14.268  1.00  0.00     0.138 C 
HETATM   20  C   UNL     1     -42.605 -55.327  16.334  1.00  0.00     0.168 C 
HETATM   21  O   UNL     1     -43.498 -55.452  15.211  1.00  0.00    -0.385 OA
HETATM   22  C   UNL     1     -43.984 -53.265  13.806  1.00  0.00     0.007 C 
HETATM   23  C   UNL     1     -44.642 -53.140  12.429  1.00  0.00     0.014 C 
HETATM   24  C   UNL     1     -45.100 -53.008  14.829  1.00  0.00     0.014 C 
HETATM   25  C   UNL     1     -46.027 -52.533  12.700  1.00  0.00     0.001 C 
HETATM   26  C   UNL     1     -46.001 -52.020  14.131  1.00  0.00     0.001 C 
ENDBRANCH   4  16
TORSDOF 3
ENDMDL
MODEL 8
REMARK VINA RESULT:      -6.2      1.990      7.807
REMARK  3 active torsions:
REMARK  status: ('A' for Active; 'I' for Inactive)
REMARK    1  A    between atoms: C_2  and  N_3 
REMARK    2  A    between atoms: C_8  and  N_9 
REMARK       I    between atoms: N_9  and  C_10 
REMARK       I    between atoms: C_10  and  N_12 
REMARK    3  A    between atoms: N_12  and  C_13 
ROOT
HETATM    1  N   UNL     1     -43.109 -51.083  13.813  1.00  0.00    -0.304 N 
HETATM    2  C   UNL     1     -42.565 -50.552  12.670  1.00  0.00     0.321 C 
HETATM    3  O   UNL     1     -41.763 -51.104  11.925  1.00  0.00    -0.247 OA
HETATM    4  N   UNL     1     -43.023 -49.290  12.396  1.00  0.00    -0.337 N 
HETATM    5  H   UNL     1     -43.815 -50.561  14.316  1.00  0.00     0.171 HD
HETATM    6  H   UNL     1     -43.406 -48.783  13.180  1.00  0.00     0.164 HD
ENDROOT
BRANCH   1   7
HETATM    7  C   UNL     1     -42.887 -52.359  14.290  1.00  0.00     0.102 A 
HETATM    8  C   UNL     1     -43.986 -53.369  14.151  1.00  0.00     0.201 A 
HETATM    9  C   UNL     1     -43.703 -54.761  14.591  1.00  0.00     0.074 A 
HETATM   10  O   UNL     1     -45.077 -53.060  13.675  1.00  0.00    -0.286 OA
HETATM   11  C   UNL     1     -42.483 -55.042  15.062  1.00  0.00     0.094 A 
HETATM   12  N   UNL     1     -41.469 -54.110  15.198  1.00  0.00    -0.364 N 
HETATM   13  C   UNL     1     -41.745 -52.802  14.823  1.00  0.00     0.124 A 
BRANCH  12  14
HETATM   14  C   UNL     1     -40.068 -54.488  15.451  1.00  0.00     0.123 C 
HETATM   15  C   UNL     1     -39.292 -54.501  14.138  1.00  0.00     0.027 C 
ENDBRANCH  12  14
ENDBRANCH   1   7
BRANCH   4  16
HETATM   16  C   UNL     1     -42.414 -48.539  11.284  1.00  0.00     0.103 C 
HETATM   17  C   UNL     1     -43.373 -47.738  10.344  1.00  0.00     0.041 C 
HETATM   18  C   UNL     1     -43.852 -47.361   8.950  1.00  0.00     0.035 C 
HETATM   19  C   UNL     1     -42.072 -46.823  10.209  1.00  0.00     0.138 C 
HETATM   20  C   UNL     1     -43.754 -45.816   9.006  1.00  0.00     0.168 C 
HETATM   21  O   UNL     1     -42.491 -45.566   9.651  1.00  0.00    -0.385 OA
HETATM   22  C   UNL     1     -41.866 -47.095  11.716  1.00  0.00     0.007 C 
HETATM   23  C   UNL     1     -40.510 -47.259  12.408  1.00  0.00     0.014 C 
HETATM   24  C   UNL     1     -42.641 -46.066  12.551  1.00  0.00     0.014 C 
HETATM   25  C   UNL     1     -40.663 -46.551  13.763  1.00  0.00     0.001 C 
HETATM   26  C   UNL     1     -42.151 -46.308  13.957  1.00  0.00     0.001 C 
ENDBRANCH   4  16
TORSDOF 3
ENDMDL
MODEL 9
REMARK VINA RESULT:      -6.1      2.196      7.675
REMARK  3 active torsions:
REMARK  status: ('A' for Active; 'I' for Inactive)
REMARK    1  A    between atoms: C_2  and  N_3 
REMARK    2  A    between atoms: C_8  and  N_9 
REMARK       I    between atoms: N_9  and  C_10 
REMARK       I    between atoms: C_10  and  N_12 
REMARK    3  A    between atoms: N_12  and  C_13 
ROOT
HETATM    1  N   UNL     1     -41.045 -50.499  13.614  1.00  0.00    -0.304 N 
HETATM    2  C   UNL     1     -41.055 -49.910  12.374  1.00  0.00     0.321 C 
HETATM    3  O   UNL     1     -40.798 -50.460  11.308  1.00  0.00    -0.247 OA
HETATM    4  N   UNL     1     -41.410 -48.588  12.413  1.00  0.00    -0.337 N 
HETATM    5  H   UNL     1     -41.340 -49.964  14.421  1.00  0.00     0.171 HD
HETATM    6  H   UNL     1     -41.292 -48.128  13.305  1.00  0.00     0.164 HD
ENDROOT
BRANCH   1   7
HETATM    7  C   UNL     1     -40.797 -51.834  13.866  1.00  0.00     0.102 A 
HETATM    8  C   UNL     1     -39.373 -52.273  14.018  1.00  0.00     0.201 A 
HETATM    9  C   UNL     1     -39.124 -53.696  14.374  1.00  0.00     0.074 A 
HETATM   10  O   UNL     1     -38.443 -51.481  13.871  1.00  0.00    -0.286 OA
HETATM   11  C   UNL     1     -40.179 -54.497  14.560  1.00  0.00     0.094 A 
HETATM   12  N   UNL     1     -41.495 -54.096  14.413  1.00  0.00    -0.364 N 
HETATM   13  C   UNL     1     -41.727 -52.777  14.044  1.00  0.00     0.124 A 
BRANCH  12  14
HETATM   14  C   UNL     1     -42.632 -54.902  14.887  1.00  0.00     0.123 C 
HETATM   15  C   UNL     1     -43.902 -54.486  14.151  1.00  0.00     0.027 C 
ENDBRANCH  12  14
ENDBRANCH   1   7
BRANCH   4  16
HETATM   16  C   UNL     1     -41.319 -47.790  11.177  1.00  0.00     0.103 C 
HETATM   17  C   UNL     1     -42.640 -47.546  10.377  1.00  0.00     0.041 C 
HETATM   18  C   UNL     1     -43.417 -47.550   9.069  1.00  0.00     0.035 C 
HETATM   19  C   UNL     1     -41.857 -46.213   9.976  1.00  0.00     0.138 C 
HETATM   20  C   UNL     1     -43.951 -46.097   9.031  1.00  0.00     0.168 C 
HETATM   21  O   UNL     1     -42.825 -45.297   9.437  1.00  0.00    -0.385 OA
HETATM   22  C   UNL     1     -41.354 -46.207  11.437  1.00  0.00     0.007 C 
HETATM   23  C   UNL     1     -39.969 -45.742  11.894  1.00  0.00     0.014 C 
HETATM   24  C   UNL     1     -42.360 -45.480  12.341  1.00  0.00     0.014 C 
HETATM   25  C   UNL     1     -40.211 -45.002  13.219  1.00  0.00     0.001 C 
HETATM   26  C   UNL     1     -41.627 -45.345  13.652  1.00  0.00     0.001 C 
ENDBRANCH   4  16
TORSDOF 3
ENDMDL
