MODEL 1
REMARK VINA RESULT:      -6.0      0.000      0.000
REMARK  3 active torsions:
REMARK  status: ('A' for Active; 'I' for Inactive)
REMARK    1  A    between atoms: C_6  and  N_7 
REMARK    2  A    between atoms: N_14  and  C_15 
REMARK    3  A    between atoms: C_15  and  C_16 
ROOT
HETATM    1  C   UNL     1     -40.451 -46.761  13.240  1.00  0.00     0.069 C 
HETATM    2  C   UNL     1     -41.318 -46.719  12.026  1.00  0.00     0.016 A 
HETATM    3  C   UNL     1     -42.115 -45.688  11.533  1.00  0.00    -0.022 A 
HETATM    4  C   UNL     1     -42.291 -44.329  12.118  1.00  0.00     0.051 C 
HETATM    5  C   UNL     1     -42.735 -46.164  10.329  1.00  0.00     0.054 A 
HETATM    6  C   UNL     1     -43.628 -45.655   9.369  1.00  0.00     0.093 A 
HETATM    7  N   UNL     1     -43.972 -46.426   8.320  1.00  0.00    -0.343 N 
ATOM      8  HN  UNL     1     -44.610 -46.081   7.604  1.00  0.00     0.167 HD
HETATM    9  C   UNL     1     -43.450 -47.664   8.244  1.00  0.00     0.183 A 
HETATM   10  N   UNL     1     -42.599 -48.261   9.092  1.00  0.00    -0.338 N 
ATOM     11  HN  UNL     1     -42.236 -49.206   8.967  1.00  0.00     0.168 HD
HETATM   12  C   UNL     1     -42.284 -47.460  10.127  1.00  0.00     0.122 A 
HETATM   13  N   UNL     1     -41.453 -47.798  11.170  1.00  0.00    -0.333 N 
ENDROOT
BRANCH  13  14
HETATM   14  C   UNL     1     -40.734 -49.061  11.248  1.00  0.00     0.162 C 
BRANCH  14  15
HETATM   15  C   UNL     1     -41.288 -50.102  12.225  1.00  0.00     0.139 C 
HETATM   16  C   UNL     1     -41.114 -51.565  11.855  1.00  0.00     0.035 C 
HETATM   17  C   UNL     1     -42.296 -52.260  12.500  1.00  0.00     0.029 C 
HETATM   18  C   UNL     1     -43.138 -51.148  13.089  1.00  0.00     0.168 C 
HETATM   19  O   UNL     1     -42.689 -49.932  12.482  1.00  0.00    -0.384 OA
ENDBRANCH  14  15
ENDBRANCH  13  14
BRANCH   6  20
HETATM   20  N   UNL     1     -44.178 -44.380   9.409  1.00  0.00    -0.288 NA
HETATM   21  H   UNL     1     -45.148 -44.330   9.140  1.00  0.00     0.125 HD
HETATM   22  H   UNL     1     -43.933 -43.923  10.280  1.00  0.00     0.125 HD
ENDBRANCH   6  20
TORSDOF 3
ENDMDL
MODEL 2
REMARK VINA RESULT:      -5.9      4.566      7.373
REMARK  3 active torsions:
REMARK  status: ('A' for Active; 'I' for Inactive)
REMARK    1  A    between atoms: C_6  and  N_7 
REMARK    2  A    between atoms: N_14  and  C_15 
REMARK    3  A    between atoms: C_15  and  C_16 
ROOT
HETATM    1  C   UNL     1     -40.030 -54.428  14.129  1.00  0.00     0.069 C 
HETATM    2  C   UNL     1     -41.487 -54.179  13.921  1.00  0.00     0.016 A 
HETATM    3  C   UNL     1     -42.583 -54.619  14.662  1.00  0.00    -0.022 A 
HETATM    4  C   UNL     1     -42.559 -55.469  15.884  1.00  0.00     0.051 C 
HETATM    5  C   UNL     1     -43.762 -54.086  14.039  1.00  0.00     0.054 A 
HETATM    6  C   UNL     1     -45.149 -54.142  14.263  1.00  0.00     0.093 A 
HETATM    7  N   UNL     1     -45.973 -53.461  13.444  1.00  0.00    -0.343 N 
ATOM      8  HN  UNL     1     -46.982 -53.476  13.586  1.00  0.00     0.167 HD
HETATM    9  C   UNL     1     -45.427 -52.760  12.433  1.00  0.00     0.183 A 
HETATM   10  N   UNL     1     -44.130 -52.634  12.115  1.00  0.00    -0.338 N 
ATOM     11  HN  UNL     1     -43.783 -52.076  11.334  1.00  0.00     0.168 HD
HETATM   12  C   UNL     1     -43.341 -53.333  12.954  1.00  0.00     0.122 A 
HETATM   13  N   UNL     1     -41.971 -53.417  12.872  1.00  0.00    -0.333 N 
ENDROOT
BRANCH  13  14
HETATM   14  C   UNL     1     -41.177 -52.685  11.896  1.00  0.00     0.162 C 
BRANCH  14  15
HETATM   15  C   UNL     1     -40.510 -51.396  12.386  1.00  0.00     0.139 C 
HETATM   16  C   UNL     1     -40.807 -50.123  11.613  1.00  0.00     0.035 C 
HETATM   17  C   UNL     1     -39.563 -49.276  11.791  1.00  0.00     0.029 C 
HETATM   18  C   UNL     1     -38.587 -50.156  12.541  1.00  0.00     0.168 C 
HETATM   19  O   UNL     1     -39.080 -51.495  12.434  1.00  0.00    -0.384 OA
ENDBRANCH  14  15
ENDBRANCH  13  14
BRANCH   6  20
HETATM   20  N   UNL     1     -45.748 -54.846  15.301  1.00  0.00    -0.288 NA
HETATM   21  H   UNL     1     -45.236 -54.832  16.170  1.00  0.00     0.125 HD
HETATM   22  H   UNL     1     -46.732 -54.609  15.359  1.00  0.00     0.125 HD
ENDBRANCH   6  20
TORSDOF 3
ENDMDL
MODEL 3
REMARK VINA RESULT:      -5.7      4.860      7.126
REMARK  3 active torsions:
REMARK  status: ('A' for Active; 'I' for Inactive)
REMARK    1  A    between atoms: C_6  and  N_7 
REMARK    2  A    between atoms: N_14  and  C_15 
REMARK    3  A    between atoms: C_15  and  C_16 
ROOT
HETATM    1  C   UNL     1     -43.351 -55.329  14.936  1.00  0.00     0.069 C 
HETATM    2  C   UNL     1     -42.514 -54.293  14.263  1.00  0.00     0.016 A 
HETATM    3  C   UNL     1     -41.212 -53.879  14.539  1.00  0.00    -0.022 A 
HETATM    4  C   UNL     1     -40.312 -54.396  15.607  1.00  0.00     0.051 C 
HETATM    5  C   UNL     1     -40.876 -52.859  13.586  1.00  0.00     0.054 A 
HETATM    6  C   UNL     1     -39.763 -52.045  13.312  1.00  0.00     0.093 A 
HETATM    7  N   UNL     1     -39.818 -51.190  12.273  1.00  0.00    -0.343 N 
ATOM      8  HN  UNL     1     -39.023 -50.593  12.044  1.00  0.00     0.167 HD
HETATM    9  C   UNL     1     -40.949 -51.146  11.545  1.00  0.00     0.183 A 
HETATM   10  N   UNL     1     -42.071 -51.862  11.709  1.00  0.00    -0.338 N 
ATOM     11  HN  UNL     1     -42.894 -51.782  11.111  1.00  0.00     0.168 HD
HETATM   12  C   UNL     1     -41.978 -52.700  12.759  1.00  0.00     0.122 A 
HETATM   13  N   UNL     1     -42.971 -53.547  13.191  1.00  0.00    -0.333 N 
ENDROOT
BRANCH  13  14
HETATM   14  C   UNL     1     -44.248 -53.703  12.509  1.00  0.00     0.162 C 
BRANCH  14  15
HETATM   15  C   UNL     1     -45.432 -52.923  13.088  1.00  0.00     0.139 C 
HETATM   16  C   UNL     1     -45.137 -51.562  13.695  1.00  0.00     0.035 C 
HETATM   17  C   UNL     1     -46.196 -51.389  14.765  1.00  0.00     0.029 C 
HETATM   18  C   UNL     1     -46.950 -52.702  14.793  1.00  0.00     0.168 C 
HETATM   19  O   UNL     1     -46.136 -53.654  14.101  1.00  0.00    -0.384 OA
ENDBRANCH  14  15
ENDBRANCH  13  14
BRANCH   6  20
HETATM   20  N   UNL     1     -38.576 -52.071  14.033  1.00  0.00    -0.288 NA
HETATM   21  H   UNL     1     -38.692 -52.102  15.034  1.00  0.00     0.125 HD
HETATM   22  H   UNL     1     -37.943 -52.755  13.636  1.00  0.00     0.125 HD
ENDBRANCH   6  20
TORSDOF 3
ENDMDL
MODEL 4
REMARK VINA RESULT:      -5.5      2.616      5.758
REMARK  3 active torsions:
REMARK  status: ('A' for Active; 'I' for Inactive)
REMARK    1  A    between atoms: C_6  and  N_7 
REMARK    2  A    between atoms: N_14  and  C_15 
REMARK    3  A    between atoms: C_15  and  C_16 
ROOT
HETATM    1  C   UNL     1     -39.689 -47.632  11.537  1.00  0.00     0.069 C 
HETATM    2  C   UNL     1     -40.338 -48.938  11.852  1.00  0.00     0.016 A 
HETATM    3  C   UNL     1     -39.763 -50.183  12.103  1.00  0.00    -0.022 A 
HETATM    4  C   UNL     1     -38.312 -50.517  12.122  1.00  0.00     0.051 C 
HETATM    5  C   UNL     1     -40.834 -51.104  12.361  1.00  0.00     0.054 A 
HETATM    6  C   UNL     1     -40.953 -52.471  12.669  1.00  0.00     0.093 A 
HETATM    7  N   UNL     1     -42.178 -52.991  12.877  1.00  0.00    -0.343 N 
ATOM      8  HN  UNL     1     -42.295 -53.977  13.110  1.00  0.00     0.167 HD
HETATM    9  C   UNL     1     -43.242 -52.174  12.768  1.00  0.00     0.183 A 
HETATM   10  N   UNL     1     -43.258 -50.865  12.477  1.00  0.00    -0.338 N 
ATOM     11  HN  UNL     1     -44.107 -50.302  12.419  1.00  0.00     0.168 HD
HETATM   12  C   UNL     1     -42.017 -50.385  12.272  1.00  0.00     0.122 A 
HETATM   13  N   UNL     1     -41.711 -49.087  11.937  1.00  0.00    -0.333 N 
ENDROOT
BRANCH  13  14
HETATM   14  C   UNL     1     -42.704 -48.028  11.834  1.00  0.00     0.162 C 
BRANCH  14  15
HETATM   15  C   UNL     1     -43.177 -47.671  10.421  1.00  0.00     0.139 C 
HETATM   16  C   UNL     1     -42.733 -46.332   9.858  1.00  0.00     0.035 C 
HETATM   17  C   UNL     1     -43.845 -45.935   8.908  1.00  0.00     0.029 C 
HETATM   18  C   UNL     1     -44.909 -46.999   9.077  1.00  0.00     0.168 C 
HETATM   19  O   UNL     1     -44.605 -47.691  10.292  1.00  0.00    -0.384 OA
ENDBRANCH  14  15
ENDBRANCH  13  14
BRANCH   6  20
HETATM   20  N   UNL     1     -39.879 -53.342  12.800  1.00  0.00    -0.288 NA
HETATM   21  H   UNL     1     -39.897 -54.132  12.173  1.00  0.00     0.125 HD
HETATM   22  H   UNL     1     -39.011 -52.820  12.833  1.00  0.00     0.125 HD
ENDBRANCH   6  20
TORSDOF 3
ENDMDL
MODEL 5
REMARK VINA RESULT:      -5.5      1.599      2.062
REMARK  3 active torsions:
REMARK  status: ('A' for Active; 'I' for Inactive)
REMARK    1  A    between atoms: C_6  and  N_7 
REMARK    2  A    between atoms: N_14  and  C_15 
REMARK    3  A    between atoms: C_15  and  C_16 
ROOT
HETATM    1  C   UNL     1     -38.284 -48.118  13.723  1.00  0.00     0.069 C 
HETATM    2  C   UNL     1     -39.322 -47.751  12.715  1.00  0.00     0.016 A 
HETATM    3  C   UNL     1     -39.812 -46.497  12.353  1.00  0.00    -0.022 A 
HETATM    4  C   UNL     1     -39.397 -45.177  12.903  1.00  0.00     0.051 C 
HETATM    5  C   UNL     1     -40.793 -46.702  11.326  1.00  0.00     0.054 A 
HETATM    6  C   UNL     1     -41.644 -45.894  10.551  1.00  0.00     0.093 A 
HETATM    7  N   UNL     1     -42.438 -46.473   9.630  1.00  0.00    -0.343 N 
ATOM      8  HN  UNL     1     -43.059 -45.912   9.047  1.00  0.00     0.167 HD
HETATM    9  C   UNL     1     -42.389 -47.811   9.500  1.00  0.00     0.183 A 
HETATM   10  N   UNL     1     -41.629 -48.684  10.178  1.00  0.00    -0.338 N 
ATOM     11  HN  UNL     1     -41.637 -49.693  10.021  1.00  0.00     0.168 HD
HETATM   12  C   UNL     1     -40.855 -48.067  11.091  1.00  0.00     0.122 A 
HETATM   13  N   UNL     1     -39.986 -48.695  11.952  1.00  0.00    -0.333 N 
ENDROOT
BRANCH  13  14
HETATM   14  C   UNL     1     -39.732 -50.128  11.934  1.00  0.00     0.162 C 
BRANCH  14  15
HETATM   15  C   UNL     1     -40.712 -51.006  12.718  1.00  0.00     0.139 C 
HETATM   16  C   UNL     1     -40.217 -52.370  13.167  1.00  0.00     0.035 C 
HETATM   17  C   UNL     1     -41.465 -53.228  13.208  1.00  0.00     0.029 C 
HETATM   18  C   UNL     1     -42.571 -52.348  12.664  1.00  0.00     0.168 C 
HETATM   19  O   UNL     1     -41.931 -51.252  12.004  1.00  0.00    -0.384 OA
ENDBRANCH  14  15
ENDBRANCH  13  14
BRANCH   6  20
HETATM   20  N   UNL     1     -41.715 -44.510  10.649  1.00  0.00    -0.288 NA
HETATM   21  H   UNL     1     -42.572 -44.106  10.304  1.00  0.00     0.125 HD
HETATM   22  H   UNL     1     -41.420 -44.211  11.572  1.00  0.00     0.125 HD
ENDBRANCH   6  20
TORSDOF 3
ENDMDL
MODEL 6
REMARK VINA RESULT:      -5.3      4.006      5.796
REMARK  3 active torsions:
REMARK  status: ('A' for Active; 'I' for Inactive)
REMARK    1  A    between atoms: C_6  and  N_7 
REMARK    2  A    between atoms: N_14  and  C_15 
REMARK    3  A    between atoms: C_15  and  C_16 
ROOT
HETATM    1  C   UNL     1     -39.484 -53.688  15.323  1.00  0.00     0.069 C 
HETATM    2  C   UNL     1     -39.542 -52.542  14.368  1.00  0.00     0.016 A 
HETATM    3  C   UNL     1     -38.827 -51.345  14.365  1.00  0.00    -0.022 A 
HETATM    4  C   UNL     1     -37.793 -50.913  15.345  1.00  0.00     0.051 C 
HETATM    5  C   UNL     1     -39.257 -50.594  13.220  1.00  0.00     0.054 A 
HETATM    6  C   UNL     1     -38.955 -49.346  12.645  1.00  0.00     0.093 A 
HETATM    7  N   UNL     1     -39.572 -48.984  11.504  1.00  0.00    -0.343 N 
ATOM      8  HN  UNL     1     -39.367 -48.089  11.060  1.00  0.00     0.167 HD
HETATM    9  C   UNL     1     -40.465 -49.835  10.967  1.00  0.00     0.183 A 
HETATM   10  N   UNL     1     -40.839 -51.041  11.419  1.00  0.00    -0.338 N 
ATOM     11  HN  UNL     1     -41.522 -51.641  10.954  1.00  0.00     0.168 HD
HETATM   12  C   UNL     1     -40.204 -51.364  12.562  1.00  0.00     0.122 A 
HETATM   13  N   UNL     1     -40.392 -52.524  13.277  1.00  0.00    -0.333 N 
ENDROOT
BRANCH  13  14
HETATM   14  C   UNL     1     -41.262 -53.605  12.839  1.00  0.00     0.162 C 
BRANCH  14  15
HETATM   15  C   UNL     1     -42.676 -53.624  13.427  1.00  0.00     0.139 C 
HETATM   16  C   UNL     1     -42.973 -54.667  14.491  1.00  0.00     0.035 C 
HETATM   17  C   UNL     1     -44.453 -54.952  14.337  1.00  0.00     0.029 C 
HETATM   18  C   UNL     1     -44.886 -54.157  13.123  1.00  0.00     0.168 C 
HETATM   19  O   UNL     1     -43.691 -53.793  12.427  1.00  0.00    -0.384 OA
ENDBRANCH  14  15
ENDBRANCH  13  14
BRANCH   6  20
HETATM   20  N   UNL     1     -38.032 -48.447  13.164  1.00  0.00    -0.288 NA
HETATM   21  H   UNL     1     -38.355 -47.493  13.215  1.00  0.00     0.125 HD
HETATM   22  H   UNL     1     -37.617 -48.823  14.009  1.00  0.00     0.125 HD
ENDBRANCH   6  20
TORSDOF 3
ENDMDL
MODEL 7
REMARK VINA RESULT:      -5.3      5.646      7.659
REMARK  3 active torsions:
REMARK  status: ('A' for Active; 'I' for Inactive)
REMARK    1  A    between atoms: C_6  and  N_7 
REMARK    2  A    between atoms: N_14  and  C_15 
REMARK    3  A    between atoms: C_15  and  C_16 
ROOT
HETATM    1  C   UNL     1     -42.312 -55.958  16.527  1.00  0.00     0.069 C 
HETATM    2  C   UNL     1     -42.307 -55.087  15.315  1.00  0.00     0.016 A 
HETATM    3  C   UNL     1     -43.369 -54.651  14.525  1.00  0.00    -0.022 A 
HETATM    4  C   UNL     1     -44.814 -54.956  14.713  1.00  0.00     0.051 C 
HETATM    5  C   UNL     1     -42.819 -53.825  13.487  1.00  0.00     0.054 A 
HETATM    6  C   UNL     1     -43.314 -53.097  12.391  1.00  0.00     0.093 A 
HETATM    7  N   UNL     1     -42.455 -52.394  11.629  1.00  0.00    -0.343 N 
ATOM      8  HN  UNL     1     -42.786 -51.850  10.833  1.00  0.00     0.167 HD
HETATM    9  C   UNL     1     -41.148 -52.429  11.948  1.00  0.00     0.183 A 
HETATM   10  N   UNL     1     -40.557 -53.085  12.958  1.00  0.00    -0.338 N 
ATOM     11  HN  UNL     1     -39.554 -53.061  13.146  1.00  0.00     0.168 HD
HETATM   12  C   UNL     1     -41.448 -53.778  13.691  1.00  0.00     0.122 A 
HETATM   13  N   UNL     1     -41.144 -54.564  14.777  1.00  0.00    -0.333 N 
ENDROOT
BRANCH  13  14
HETATM   14  C   UNL     1     -39.802 -54.689  15.329  1.00  0.00     0.162 C 
BRANCH  14  15
HETATM   15  C   UNL     1     -39.287 -53.501  16.147  1.00  0.00     0.139 C 
HETATM   16  C   UNL     1     -40.277 -52.811  17.070  1.00  0.00     0.035 C 
HETATM   17  C   UNL     1     -39.793 -51.377  17.137  1.00  0.00     0.029 C 
HETATM   18  C   UNL     1     -38.640 -51.301  16.159  1.00  0.00     0.168 C 
HETATM   19  O   UNL     1     -38.733 -52.462  15.328  1.00  0.00    -0.384 OA
ENDBRANCH  14  15
ENDBRANCH  13  14
BRANCH   6  20
HETATM   20  N   UNL     1     -44.656 -53.028  12.037  1.00  0.00    -0.288 NA
HETATM   21  H   UNL     1     -45.274 -53.571  12.621  1.00  0.00     0.125 HD
HETATM   22  H   UNL     1     -44.925 -52.064  11.878  1.00  0.00     0.125 HD
ENDBRANCH   6  20
TORSDOF 3
ENDMDL
MODEL 8
REMARK VINA RESULT:      -5.2      3.795      6.804
REMARK  3 active torsions:
REMARK  status: ('A' for Active; 'I' for Inactive)
REMARK    1  A    between atoms: C_6  and  N_7 
REMARK    2  A    between atoms: N_14  and  C_15 
REMARK    3  A    between atoms: C_15  and  C_16 
ROOT
HETATM    1  C   UNL     1     -40.891 -52.602  15.142  1.00  0.00     0.069 C 
HETATM    2  C   UNL     1     -42.267 -52.676  14.567  1.00  0.00     0.016 A 
HETATM    3  C   UNL     1     -43.147 -53.754  14.493  1.00  0.00    -0.022 A 
HETATM    4  C   UNL     1     -42.918 -55.138  14.994  1.00  0.00     0.051 C 
HETATM    5  C   UNL     1     -44.344 -53.286  13.853  1.00  0.00     0.054 A 
HETATM    6  C   UNL     1     -45.582 -53.835  13.475  1.00  0.00     0.093 A 
HETATM    7  N   UNL     1     -46.502 -53.041  12.896  1.00  0.00    -0.343 N 
ATOM      8  HN  UNL     1     -47.412 -53.409  12.619  1.00  0.00     0.167 HD
HETATM    9  C   UNL     1     -46.188 -51.748  12.693  1.00  0.00     0.183 A 
HETATM   10  N   UNL     1     -45.048 -51.112  13.002  1.00  0.00    -0.338 N 
ATOM     11  HN  UNL     1     -44.880 -50.121  12.826  1.00  0.00     0.168 HD
HETATM   12  C   UNL     1     -44.154 -51.940  13.574  1.00  0.00     0.122 A 
HETATM   13  N   UNL     1     -42.889 -51.587  13.982  1.00  0.00    -0.333 N 
ENDROOT
BRANCH  13  14
HETATM   14  C   UNL     1     -42.373 -50.228  13.914  1.00  0.00     0.162 C 
BRANCH  14  15
HETATM   15  C   UNL     1     -41.598 -49.853  12.648  1.00  0.00     0.139 C 
HETATM   16  C   UNL     1     -40.280 -49.119  12.830  1.00  0.00     0.035 C 
HETATM   17  C   UNL     1     -40.142 -48.277  11.579  1.00  0.00     0.029 C 
HETATM   18  C   UNL     1     -41.436 -48.479  10.819  1.00  0.00     0.168 C 
HETATM   19  O   UNL     1     -42.367 -49.048  11.743  1.00  0.00    -0.384 OA
ENDBRANCH  14  15
ENDBRANCH  13  14
BRANCH   6  20
HETATM   20  N   UNL     1     -45.945 -55.161  13.677  1.00  0.00    -0.288 NA
HETATM   21  H   UNL     1     -45.897 -55.470  14.636  1.00  0.00     0.125 HD
HETATM   22  H   UNL     1     -46.809 -55.363  13.187  1.00  0.00     0.125 HD
ENDBRANCH   6  20
TORSDOF 3
ENDMDL
MODEL 9
REMARK VINA RESULT:      -5.1      5.631      7.581
REMARK  3 active torsions:
REMARK  status: ('A' for Active; 'I' for Inactive)
REMARK    1  A    between atoms: C_6  and  N_7 
REMARK    2  A    between atoms: N_14  and  C_15 
REMARK    3  A    between atoms: C_15  and  C_16 
ROOT
HETATM    1  C   UNL     1     -39.634 -54.022  16.562  1.00  0.00     0.069 C 
HETATM    2  C   UNL     1     -40.509 -53.724  15.390  1.00  0.00     0.016 A 
HETATM    3  C   UNL     1     -40.238 -52.987  14.238  1.00  0.00    -0.022 A 
HETATM    4  C   UNL     1     -38.963 -52.301  13.888  1.00  0.00     0.051 C 
HETATM    5  C   UNL     1     -41.420 -53.017  13.423  1.00  0.00     0.054 A 
HETATM    6  C   UNL     1     -41.816 -52.493  12.180  1.00  0.00     0.093 A 
HETATM    7  N   UNL     1     -43.049 -52.772  11.715  1.00  0.00    -0.343 N 
ATOM      8  HN  UNL     1     -43.362 -52.414  10.813  1.00  0.00     0.167 HD
HETATM    9  C   UNL     1     -43.856 -53.537  12.473  1.00  0.00     0.183 A 
HETATM   10  N   UNL     1     -43.597 -54.086  13.669  1.00  0.00    -0.338 N 
ATOM     11  HN  UNL     1     -44.258 -54.666  14.188  1.00  0.00     0.168 HD
HETATM   12  C   UNL     1     -42.359 -53.781  14.100  1.00  0.00     0.122 A 
HETATM   13  N   UNL     1     -41.812 -54.179  15.297  1.00  0.00    -0.333 N 
ENDROOT
BRANCH  13  14
HETATM   14  C   UNL     1     -42.489 -55.063  16.236  1.00  0.00     0.162 C 
BRANCH  14  15
HETATM   15  C   UNL     1     -43.540 -54.418  17.144  1.00  0.00     0.139 C 
HETATM   16  C   UNL     1     -43.692 -54.987  18.544  1.00  0.00     0.035 C 
HETATM   17  C   UNL     1     -45.144 -54.737  18.898  1.00  0.00     0.029 C 
HETATM   18  C   UNL     1     -45.764 -54.160  17.642  1.00  0.00     0.168 C 
HETATM   19  O   UNL     1     -44.856 -54.440  16.573  1.00  0.00    -0.384 OA
ENDBRANCH  14  15
ENDBRANCH  13  14
BRANCH   6  20
HETATM   20  N   UNL     1     -41.008 -51.710  11.365  1.00  0.00    -0.288 NA
HETATM   21  H   UNL     1     -40.279 -51.210  11.850  1.00  0.00     0.125 HD
HETATM   22  H   UNL     1     -40.719 -52.240  10.550  1.00  0.00     0.125 HD
ENDBRANCH   6  20
TORSDOF 3
ENDMDL
