MODEL 1
REMARK VINA RESULT:      -6.4      0.000      0.000
REMARK  7 active torsions:
REMARK  status: ('A' for Active; 'I' for Inactive)
REMARK    1  A    between atoms: O_1  and  C_2 
REMARK    2  A    between atoms: C_2  and  C_3 
REMARK    3  A    between atoms: C_2  and  C_11 
REMARK    4  A    between atoms: C_3  and  O_4 
REMARK    5  A    between atoms: O_4  and  C_5 
REMARK    6  A    between atoms: C_11  and  N_12 
REMARK    7  A    between atoms: C_16  and  C_20 
ROOT
HETATM    1  N   UNL     1     -41.591 -50.377  12.334  1.00  0.00    -0.308 N 
HETATM    2  C   UNL     1     -42.903 -50.042  12.591  1.00  0.00     0.186 A 
HETATM    3  N   UNL     1     -43.532 -49.023  12.107  1.00  0.00    -0.355 N 
ATOM      4  HN  UNL     1     -44.511 -48.844  12.327  1.00  0.00     0.166 HD
HETATM    5  C   UNL     1     -42.818 -48.195  11.286  1.00  0.00     0.019 A 
HETATM    6  C   UNL     1     -41.540 -48.399  10.955  1.00  0.00     0.100 A 
HETATM    7  C   UNL     1     -40.859 -49.595  11.466  1.00  0.00     0.250 A 
HETATM    8  O   UNL     1     -39.724 -49.811  11.044  1.00  0.00    -0.268 OA
ENDROOT
BRANCH   1   9
HETATM    9  C   UNL     1     -41.090 -51.636  12.914  1.00  0.00     0.166 C 
BRANCH   9  10
HETATM   10  C   UNL     1     -41.599 -52.946  12.302  1.00  0.00     0.161 C 
BRANCH  10  11
HETATM   11  O   UNL     1     -40.501 -53.662  11.721  1.00  0.00    -0.392 OA
HETATM   12  H   UNL     1     -39.700 -53.347  12.179  1.00  0.00     0.210 HD
ENDBRANCH  10  11
BRANCH  10  13
HETATM   13  C   UNL     1     -42.256 -53.879  13.316  1.00  0.00     0.209 C 
BRANCH  13  14
HETATM   14  O   UNL     1     -43.604 -54.165  12.947  1.00  0.00    -0.349 OA
BRANCH  14  15
HETATM   15  C   UNL     1     -44.507 -53.235  13.392  1.00  0.00     0.068 A 
HETATM   16  C   UNL     1     -45.463 -52.822  12.466  1.00  0.00     0.037 A 
HETATM   17  C   UNL     1     -46.421 -51.871  12.824  1.00  0.00     0.003 A 
HETATM   18  C   UNL     1     -46.434 -51.344  14.115  1.00  0.00     0.000 A 
HETATM   19  C   UNL     1     -45.500 -51.777  15.051  1.00  0.00     0.003 A 
HETATM   20  C   UNL     1     -44.543 -52.726  14.693  1.00  0.00     0.037 A 
ENDBRANCH  14  15
ENDBRANCH  13  14
ENDBRANCH  10  13
ENDBRANCH   9  10
ENDBRANCH   1   9
BRANCH   5  21
HETATM   21  C   UNL     1     -43.508 -47.041  10.649  1.00  0.00     0.036 C 
HETATM   22  C   UNL     1     -44.729 -47.383   9.749  1.00  0.00     0.011 C 
HETATM   23  C   UNL     1     -44.309 -46.192   8.866  1.00  0.00     0.001 C 
HETATM   24  C   UNL     1     -42.872 -46.419   9.379  1.00  0.00     0.011 C 
ENDBRANCH   5  21
TORSDOF 7
ENDMDL
MODEL 2
REMARK VINA RESULT:      -6.2      2.035      2.574
REMARK  7 active torsions:
REMARK  status: ('A' for Active; 'I' for Inactive)
REMARK    1  A    between atoms: O_1  and  C_2 
REMARK    2  A    between atoms: C_2  and  C_3 
REMARK    3  A    between atoms: C_2  and  C_11 
REMARK    4  A    between atoms: C_3  and  O_4 
REMARK    5  A    between atoms: O_4  and  C_5 
REMARK    6  A    between atoms: C_11  and  N_12 
REMARK    7  A    between atoms: C_16  and  C_20 
ROOT
HETATM    1  N   UNL     1     -40.997 -49.819  12.027  1.00  0.00    -0.308 N 
HETATM    2  C   UNL     1     -39.892 -49.192  11.496  1.00  0.00     0.186 A 
HETATM    3  N   UNL     1     -39.852 -47.981  11.047  1.00  0.00    -0.355 N 
ATOM      4  HN  UNL     1     -38.991 -47.573  10.682  1.00  0.00     0.166 HD
HETATM    5  C   UNL     1     -41.022 -47.274  11.086  1.00  0.00     0.019 A 
HETATM    6  C   UNL     1     -42.166 -47.760  11.573  1.00  0.00     0.100 A 
HETATM    7  C   UNL     1     -42.179 -49.117  12.133  1.00  0.00     0.250 A 
HETATM    8  O   UNL     1     -43.218 -49.483  12.679  1.00  0.00    -0.268 OA
ENDROOT
BRANCH   1   9
HETATM    9  C   UNL     1     -40.807 -51.177  12.569  1.00  0.00     0.166 C 
BRANCH   9  10
HETATM   10  C   UNL     1     -41.564 -52.321  11.886  1.00  0.00     0.161 C 
BRANCH  10  11
HETATM   11  O   UNL     1     -40.634 -53.327  11.465  1.00  0.00    -0.392 OA
HETATM   12  H   UNL     1     -41.095 -53.857  10.788  1.00  0.00     0.210 HD
ENDBRANCH  10  11
BRANCH  10  13
HETATM   13  C   UNL     1     -42.584 -53.005  12.792  1.00  0.00     0.209 C 
BRANCH  13  14
HETATM   14  O   UNL     1     -43.876 -53.021  12.185  1.00  0.00    -0.349 OA
BRANCH  14  15
HETATM   15  C   UNL     1     -44.909 -52.973  13.084  1.00  0.00     0.068 A 
HETATM   16  C   UNL     1     -45.552 -51.743  13.210  1.00  0.00     0.037 A 
HETATM   17  C   UNL     1     -46.612 -51.594  14.107  1.00  0.00     0.003 A 
HETATM   18  C   UNL     1     -47.041 -52.680  14.867  1.00  0.00     0.000 A 
HETATM   19  C   UNL     1     -46.421 -53.917  14.723  1.00  0.00     0.003 A 
HETATM   20  C   UNL     1     -45.362 -54.066  13.827  1.00  0.00     0.037 A 
ENDBRANCH  14  15
ENDBRANCH  13  14
ENDBRANCH  10  13
ENDBRANCH   9  10
ENDBRANCH   1   9
BRANCH   5  21
HETATM   21  C   UNL     1     -41.020 -45.854  10.641  1.00  0.00     0.036 C 
HETATM   22  C   UNL     1     -39.631 -45.242  10.305  1.00  0.00     0.011 C 
HETATM   23  C   UNL     1     -40.175 -43.909  10.856  1.00  0.00     0.001 C 
HETATM   24  C   UNL     1     -41.134 -44.750  11.725  1.00  0.00     0.011 C 
ENDBRANCH   5  21
TORSDOF 7
ENDMDL
MODEL 3
REMARK VINA RESULT:      -6.2      1.742      6.032
REMARK  7 active torsions:
REMARK  status: ('A' for Active; 'I' for Inactive)
REMARK    1  A    between atoms: O_1  and  C_2 
REMARK    2  A    between atoms: C_2  and  C_3 
REMARK    3  A    between atoms: C_2  and  C_11 
REMARK    4  A    between atoms: C_3  and  O_4 
REMARK    5  A    between atoms: O_4  and  C_5 
REMARK    6  A    between atoms: C_11  and  N_12 
REMARK    7  A    between atoms: C_16  and  C_20 
ROOT
HETATM    1  N   UNL     1     -41.368 -50.924  12.706  1.00  0.00    -0.308 N 
HETATM    2  C   UNL     1     -42.734 -50.756  12.760  1.00  0.00     0.186 A 
HETATM    3  N   UNL     1     -43.611 -51.702  12.817  1.00  0.00    -0.355 N 
ATOM      4  HN  UNL     1     -44.610 -51.504  12.873  1.00  0.00     0.166 HD
HETATM    5  C   UNL     1     -43.133 -52.983  12.797  1.00  0.00     0.019 A 
HETATM    6  C   UNL     1     -41.834 -53.289  12.744  1.00  0.00     0.100 A 
HETATM    7  C   UNL     1     -40.849 -52.201  12.741  1.00  0.00     0.250 A 
HETATM    8  O   UNL     1     -39.664 -52.523  12.812  1.00  0.00    -0.268 OA
ENDROOT
BRANCH   1   9
HETATM    9  C   UNL     1     -40.536 -49.707  12.740  1.00  0.00     0.166 C 
BRANCH   9  10
HETATM   10  C   UNL     1     -40.090 -49.119  11.396  1.00  0.00     0.161 C 
BRANCH  10  11
HETATM   11  O   UNL     1     -40.411 -50.036  10.342  1.00  0.00    -0.392 OA
HETATM   12  H   UNL     1     -40.923 -50.756  10.755  1.00  0.00     0.210 HD
ENDBRANCH  10  11
BRANCH  10  13
HETATM   13  C   UNL     1     -40.764 -47.793  11.057  1.00  0.00     0.209 C 
BRANCH  13  14
HETATM   14  O   UNL     1     -42.138 -47.805  11.443  1.00  0.00    -0.349 OA
BRANCH  14  15
HETATM   15  C   UNL     1     -43.009 -47.742  10.387  1.00  0.00     0.068 A 
HETATM   16  C   UNL     1     -44.361 -47.660  10.716  1.00  0.00     0.037 A 
HETATM   17  C   UNL     1     -45.325 -47.599   9.707  1.00  0.00     0.003 A 
HETATM   18  C   UNL     1     -44.937 -47.603   8.369  1.00  0.00     0.000 A 
HETATM   19  C   UNL     1     -43.587 -47.655   8.037  1.00  0.00     0.003 A 
HETATM   20  C   UNL     1     -42.624 -47.716   9.045  1.00  0.00     0.037 A 
ENDBRANCH  14  15
ENDBRANCH  13  14
ENDBRANCH  10  13
ENDBRANCH   9  10
ENDBRANCH   1   9
BRANCH   5  21
HETATM   21  C   UNL     1     -44.093 -54.112  12.924  1.00  0.00     0.036 C 
HETATM   22  C   UNL     1     -45.566 -53.728  13.240  1.00  0.00     0.011 C 
HETATM   23  C   UNL     1     -45.643 -55.029  14.064  1.00  0.00     0.001 C 
HETATM   24  C   UNL     1     -44.117 -54.904  14.257  1.00  0.00     0.011 C 
ENDBRANCH   5  21
TORSDOF 7
ENDMDL
MODEL 4
REMARK VINA RESULT:      -6.1      3.378      5.587
REMARK  7 active torsions:
REMARK  status: ('A' for Active; 'I' for Inactive)
REMARK    1  A    between atoms: O_1  and  C_2 
REMARK    2  A    between atoms: C_2  and  C_3 
REMARK    3  A    between atoms: C_2  and  C_11 
REMARK    4  A    between atoms: C_3  and  O_4 
REMARK    5  A    between atoms: O_4  and  C_5 
REMARK    6  A    between atoms: C_11  and  N_12 
REMARK    7  A    between atoms: C_16  and  C_20 
ROOT
HETATM    1  N   UNL     1     -41.955 -53.884  15.607  1.00  0.00    -0.308 N 
HETATM    2  C   UNL     1     -41.982 -52.607  16.122  1.00  0.00     0.186 A 
HETATM    3  N   UNL     1     -43.019 -52.007  16.605  1.00  0.00    -0.355 N 
ATOM      4  HN  UNL     1     -42.963 -51.064  16.987  1.00  0.00     0.166 HD
HETATM    5  C   UNL     1     -44.196 -52.702  16.577  1.00  0.00     0.019 A 
HETATM    6  C   UNL     1     -44.313 -53.946  16.105  1.00  0.00     0.100 A 
HETATM    7  C   UNL     1     -43.112 -54.634  15.616  1.00  0.00     0.250 A 
HETATM    8  O   UNL     1     -43.238 -55.816  15.301  1.00  0.00    -0.268 OA
ENDROOT
BRANCH   1   9
HETATM    9  C   UNL     1     -40.645 -54.417  15.191  1.00  0.00     0.166 C 
BRANCH   9  10
HETATM   10  C   UNL     1     -40.073 -53.922  13.857  1.00  0.00     0.161 C 
BRANCH  10  11
HETATM   11  O   UNL     1     -38.951 -54.732  13.486  1.00  0.00    -0.392 OA
HETATM   12  H   UNL     1     -38.980 -55.517  14.064  1.00  0.00     0.210 HD
ENDBRANCH  10  11
BRANCH  10  13
HETATM   13  C   UNL     1     -41.072 -53.985  12.705  1.00  0.00     0.209 C 
BRANCH  13  14
HETATM   14  O   UNL     1     -41.406 -52.676  12.247  1.00  0.00    -0.349 OA
BRANCH  14  15
HETATM   15  C   UNL     1     -42.683 -52.289  12.561  1.00  0.00     0.068 A 
HETATM   16  C   UNL     1     -43.676 -53.248  12.365  1.00  0.00     0.037 A 
HETATM   17  C   UNL     1     -45.009 -52.944  12.650  1.00  0.00     0.003 A 
HETATM   18  C   UNL     1     -45.348 -51.687  13.148  1.00  0.00     0.000 A 
HETATM   19  C   UNL     1     -44.356 -50.739  13.373  1.00  0.00     0.003 A 
HETATM   20  C   UNL     1     -43.025 -51.041  13.089  1.00  0.00     0.037 A 
ENDBRANCH  14  15
ENDBRANCH  13  14
ENDBRANCH  10  13
ENDBRANCH   9  10
ENDBRANCH   1   9
BRANCH   5  21
HETATM   21  C   UNL     1     -45.411 -52.086  17.177  1.00  0.00     0.036 C 
HETATM   22  C   UNL     1     -46.765 -52.436  16.499  1.00  0.00     0.011 C 
HETATM   23  C   UNL     1     -47.221 -51.007  16.854  1.00  0.00     0.001 C 
HETATM   24  C   UNL     1     -45.730 -50.610  16.825  1.00  0.00     0.011 C 
ENDBRANCH   5  21
TORSDOF 7
ENDMDL
MODEL 5
REMARK VINA RESULT:      -6.0      3.134      5.103
REMARK  7 active torsions:
REMARK  status: ('A' for Active; 'I' for Inactive)
REMARK    1  A    between atoms: O_1  and  C_2 
REMARK    2  A    between atoms: C_2  and  C_3 
REMARK    3  A    between atoms: C_2  and  C_11 
REMARK    4  A    between atoms: C_3  and  O_4 
REMARK    5  A    between atoms: O_4  and  C_5 
REMARK    6  A    between atoms: C_11  and  N_12 
REMARK    7  A    between atoms: C_16  and  C_20 
ROOT
HETATM    1  N   UNL     1     -45.786 -52.071  14.401  1.00  0.00    -0.308 N 
HETATM    2  C   UNL     1     -45.584 -51.566  13.136  1.00  0.00     0.186 A 
HETATM    3  N   UNL     1     -44.630 -50.770  12.783  1.00  0.00    -0.355 N 
ATOM      4  HN  UNL     1     -44.529 -50.448  11.821  1.00  0.00     0.166 HD
HETATM    5  C   UNL     1     -43.760 -50.382  13.765  1.00  0.00     0.019 A 
HETATM    6  C   UNL     1     -43.841 -50.794  15.032  1.00  0.00     0.100 A 
HETATM    7  C   UNL     1     -44.896 -51.745  15.403  1.00  0.00     0.250 A 
HETATM    8  O   UNL     1     -44.865 -52.192  16.548  1.00  0.00    -0.268 OA
ENDROOT
BRANCH   1   9
HETATM    9  C   UNL     1     -46.884 -53.040  14.574  1.00  0.00     0.166 C 
BRANCH   9  10
HETATM   10  C   UNL     1     -46.500 -54.501  14.836  1.00  0.00     0.161 C 
BRANCH  10  11
HETATM   11  O   UNL     1     -47.637 -55.344  14.608  1.00  0.00    -0.392 OA
HETATM   12  H   UNL     1     -48.387 -54.745  14.431  1.00  0.00     0.210 HD
ENDBRANCH  10  11
BRANCH  10  13
HETATM   13  C   UNL     1     -45.379 -55.009  13.934  1.00  0.00     0.209 C 
BRANCH  13  14
HETATM   14  O   UNL     1     -44.241 -55.397  14.703  1.00  0.00    -0.349 OA
BRANCH  14  15
HETATM   15  C   UNL     1     -43.096 -54.717  14.377  1.00  0.00     0.068 A 
HETATM   16  C   UNL     1     -42.079 -54.744  15.329  1.00  0.00     0.037 A 
HETATM   17  C   UNL     1     -40.877 -54.074  15.090  1.00  0.00     0.003 A 
HETATM   18  C   UNL     1     -40.686 -53.390  13.891  1.00  0.00     0.000 A 
HETATM   19  C   UNL     1     -41.688 -53.386  12.926  1.00  0.00     0.003 A 
HETATM   20  C   UNL     1     -42.888 -54.055  13.164  1.00  0.00     0.037 A 
ENDBRANCH  14  15
ENDBRANCH  13  14
ENDBRANCH  10  13
ENDBRANCH   9  10
ENDBRANCH   1   9
BRANCH   5  21
HETATM   21  C   UNL     1     -42.605 -49.517  13.403  1.00  0.00     0.036 C 
HETATM   22  C   UNL     1     -41.855 -49.886  12.092  1.00  0.00     0.011 C 
HETATM   23  C   UNL     1     -40.566 -49.413  12.791  1.00  0.00     0.001 C 
HETATM   24  C   UNL     1     -41.255 -49.762  14.127  1.00  0.00     0.011 C 
ENDBRANCH   5  21
TORSDOF 7
ENDMDL
MODEL 6
REMARK VINA RESULT:      -6.0      3.302      5.484
REMARK  7 active torsions:
REMARK  status: ('A' for Active; 'I' for Inactive)
REMARK    1  A    between atoms: O_1  and  C_2 
REMARK    2  A    between atoms: C_2  and  C_3 
REMARK    3  A    between atoms: C_2  and  C_11 
REMARK    4  A    between atoms: C_3  and  O_4 
REMARK    5  A    between atoms: O_4  and  C_5 
REMARK    6  A    between atoms: C_11  and  N_12 
REMARK    7  A    between atoms: C_16  and  C_20 
ROOT
HETATM    1  N   UNL     1     -42.427 -54.051  13.409  1.00  0.00    -0.308 N 
HETATM    2  C   UNL     1     -43.207 -53.138  12.735  1.00  0.00     0.186 A 
HETATM    3  N   UNL     1     -44.396 -52.764  13.071  1.00  0.00    -0.355 N 
ATOM      4  HN  UNL     1     -44.911 -52.068  12.533  1.00  0.00     0.166 HD
HETATM    5  C   UNL     1     -44.930 -53.350  14.185  1.00  0.00     0.019 A 
HETATM    6  C   UNL     1     -44.286 -54.251  14.931  1.00  0.00     0.100 A 
HETATM    7  C   UNL     1     -42.912 -54.619  14.568  1.00  0.00     0.250 A 
HETATM    8  O   UNL     1     -42.311 -55.359  15.345  1.00  0.00    -0.268 OA
ENDROOT
BRANCH   1   9
HETATM    9  C   UNL     1     -41.057 -54.269  12.909  1.00  0.00     0.166 C 
BRANCH   9  10
HETATM   10  C   UNL     1     -39.900 -53.769  13.782  1.00  0.00     0.161 C 
BRANCH  10  11
HETATM   11  O   UNL     1     -38.689 -54.431  13.397  1.00  0.00    -0.392 OA
HETATM   12  H   UNL     1     -38.465 -55.034  14.130  1.00  0.00     0.210 HD
ENDBRANCH  10  11
BRANCH  10  13
HETATM   13  C   UNL     1     -39.648 -52.268  13.659  1.00  0.00     0.209 C 
BRANCH  13  14
HETATM   14  O   UNL     1     -39.825 -51.617  14.916  1.00  0.00    -0.349 OA
BRANCH  14  15
HETATM   15  C   UNL     1     -41.079 -51.093  15.095  1.00  0.00     0.068 A 
HETATM   16  C   UNL     1     -41.514 -50.203  14.115  1.00  0.00     0.037 A 
HETATM   17  C   UNL     1     -42.775 -49.612  14.215  1.00  0.00     0.003 A 
HETATM   18  C   UNL     1     -43.610 -49.923  15.287  1.00  0.00     0.000 A 
HETATM   19  C   UNL     1     -43.191 -50.834  16.252  1.00  0.00     0.003 A 
HETATM   20  C   UNL     1     -41.931 -51.425  16.152  1.00  0.00     0.037 A 
ENDBRANCH  14  15
ENDBRANCH  13  14
ENDBRANCH  10  13
ENDBRANCH   9  10
ENDBRANCH   1   9
BRANCH   5  21
HETATM   21  C   UNL     1     -46.272 -52.912  14.656  1.00  0.00     0.036 C 
HETATM   22  C   UNL     1     -46.641 -51.425  14.391  1.00  0.00     0.011 C 
HETATM   23  C   UNL     1     -47.412 -51.462  15.725  1.00  0.00     0.001 C 
HETATM   24  C   UNL     1     -46.445 -52.583  16.162  1.00  0.00     0.011 C 
ENDBRANCH   5  21
TORSDOF 7
ENDMDL
MODEL 7
REMARK VINA RESULT:      -5.9      2.879      5.384
REMARK  7 active torsions:
REMARK  status: ('A' for Active; 'I' for Inactive)
REMARK    1  A    between atoms: O_1  and  C_2 
REMARK    2  A    between atoms: C_2  and  C_3 
REMARK    3  A    between atoms: C_2  and  C_11 
REMARK    4  A    between atoms: C_3  and  O_4 
REMARK    5  A    between atoms: O_4  and  C_5 
REMARK    6  A    between atoms: C_11  and  N_12 
REMARK    7  A    between atoms: C_16  and  C_20 
ROOT
HETATM    1  N   UNL     1     -40.156 -51.817  12.787  1.00  0.00    -0.308 N 
HETATM    2  C   UNL     1     -40.925 -52.511  11.880  1.00  0.00     0.186 A 
HETATM    3  N   UNL     1     -41.857 -53.357  12.169  1.00  0.00    -0.355 N 
ATOM      4  HN  UNL     1     -42.401 -53.824  11.444  1.00  0.00     0.166 HD
HETATM    5  C   UNL     1     -42.077 -53.596  13.498  1.00  0.00     0.019 A 
HETATM    6  C   UNL     1     -41.403 -52.995  14.481  1.00  0.00     0.100 A 
HETATM    7  C   UNL     1     -40.389 -51.992  14.135  1.00  0.00     0.250 A 
HETATM    8  O   UNL     1     -39.876 -51.375  15.067  1.00  0.00    -0.268 OA
ENDROOT
BRANCH   1   9
HETATM    9  C   UNL     1     -39.206 -50.826  12.249  1.00  0.00     0.166 C 
BRANCH   9  10
HETATM   10  C   UNL     1     -39.793 -49.594  11.550  1.00  0.00     0.161 C 
BRANCH  10  11
HETATM   11  O   UNL     1     -40.488 -50.000  10.364  1.00  0.00    -0.392 OA
HETATM   12  H   UNL     1     -41.436 -50.000  10.592  1.00  0.00     0.210 HD
ENDBRANCH  10  11
BRANCH  10  13
HETATM   13  C   UNL     1     -40.790 -48.822  12.411  1.00  0.00     0.209 C 
BRANCH  13  14
HETATM   14  O   UNL     1     -42.132 -49.164  12.069  1.00  0.00    -0.349 OA
BRANCH  14  15
HETATM   15  C   UNL     1     -42.882 -49.590  13.135  1.00  0.00     0.068 A 
HETATM   16  C   UNL     1     -42.540 -49.053  14.375  1.00  0.00     0.037 A 
HETATM   17  C   UNL     1     -43.242 -49.433  15.521  1.00  0.00     0.003 A 
HETATM   18  C   UNL     1     -44.297 -50.338  15.425  1.00  0.00     0.000 A 
HETATM   19  C   UNL     1     -44.660 -50.853  14.185  1.00  0.00     0.003 A 
HETATM   20  C   UNL     1     -43.960 -50.474  13.040  1.00  0.00     0.037 A 
ENDBRANCH  14  15
ENDBRANCH  13  14
ENDBRANCH  10  13
ENDBRANCH   9  10
ENDBRANCH   1   9
BRANCH   5  21
HETATM   21  C   UNL     1     -43.180 -54.514  13.891  1.00  0.00     0.036 C 
HETATM   22  C   UNL     1     -44.530 -54.325  13.142  1.00  0.00     0.011 C 
HETATM   23  C   UNL     1     -45.224 -54.719  14.461  1.00  0.00     0.001 C 
HETATM   24  C   UNL     1     -43.969 -54.192  15.188  1.00  0.00     0.011 C 
ENDBRANCH   5  21
TORSDOF 7
ENDMDL
MODEL 8
REMARK VINA RESULT:      -5.9      3.350      6.242
REMARK  7 active torsions:
REMARK  status: ('A' for Active; 'I' for Inactive)
REMARK    1  A    between atoms: O_1  and  C_2 
REMARK    2  A    between atoms: C_2  and  C_3 
REMARK    3  A    between atoms: C_2  and  C_11 
REMARK    4  A    between atoms: C_3  and  O_4 
REMARK    5  A    between atoms: O_4  and  C_5 
REMARK    6  A    between atoms: C_11  and  N_12 
REMARK    7  A    between atoms: C_16  and  C_20 
ROOT
HETATM    1  N   UNL     1     -42.284 -53.720  13.484  1.00  0.00    -0.308 N 
HETATM    2  C   UNL     1     -42.978 -54.541  14.345  1.00  0.00     0.186 A 
HETATM    3  N   UNL     1     -44.150 -54.308  14.834  1.00  0.00    -0.355 N 
ATOM      4  HN  UNL     1     -44.614 -54.971  15.454  1.00  0.00     0.166 HD
HETATM    5  C   UNL     1     -44.738 -53.125  14.478  1.00  0.00     0.019 A 
HETATM    6  C   UNL     1     -44.177 -52.236  13.654  1.00  0.00     0.100 A 
HETATM    7  C   UNL     1     -42.871 -52.546  13.060  1.00  0.00     0.250 A 
HETATM    8  O   UNL     1     -42.443 -51.760  12.217  1.00  0.00    -0.268 OA
ENDROOT
BRANCH   1   9
HETATM    9  C   UNL     1     -40.996 -54.216  12.968  1.00  0.00     0.166 C 
BRANCH   9  10
HETATM   10  C   UNL     1     -39.824 -54.294  13.953  1.00  0.00     0.161 C 
BRANCH  10  11
HETATM   11  O   UNL     1     -38.732 -54.995  13.345  1.00  0.00    -0.392 OA
HETATM   12  H   UNL     1     -38.487 -54.482  12.553  1.00  0.00     0.210 HD
ENDBRANCH  10  11
BRANCH  10  13
HETATM   13  C   UNL     1     -39.296 -52.927  14.382  1.00  0.00     0.209 C 
BRANCH  13  14
HETATM   14  O   UNL     1     -38.349 -52.427  13.439  1.00  0.00    -0.349 OA
BRANCH  14  15
HETATM   15  C   UNL     1     -38.397 -51.067  13.275  1.00  0.00     0.068 A 
HETATM   16  C   UNL     1     -39.233 -50.604  12.261  1.00  0.00     0.037 A 
HETATM   17  C   UNL     1     -39.342 -49.234  12.013  1.00  0.00     0.003 A 
HETATM   18  C   UNL     1     -38.628 -48.325  12.792  1.00  0.00     0.000 A 
HETATM   19  C   UNL     1     -37.816 -48.782  13.825  1.00  0.00     0.003 A 
HETATM   20  C   UNL     1     -37.707 -50.150  14.072  1.00  0.00     0.037 A 
ENDBRANCH  14  15
ENDBRANCH  13  14
ENDBRANCH  10  13
ENDBRANCH   9  10
ENDBRANCH   1   9
BRANCH   5  21
HETATM   21  C   UNL     1     -46.114 -52.831  14.961  1.00  0.00     0.036 C 
HETATM   22  C   UNL     1     -46.684 -51.431  14.598  1.00  0.00     0.011 C 
HETATM   23  C   UNL     1     -47.411 -51.464  15.957  1.00  0.00     0.001 C 
HETATM   24  C   UNL     1     -46.294 -52.411  16.443  1.00  0.00     0.011 C 
ENDBRANCH   5  21
TORSDOF 7
ENDMDL
MODEL 9
REMARK VINA RESULT:      -5.7      2.575      5.494
REMARK  7 active torsions:
REMARK  status: ('A' for Active; 'I' for Inactive)
REMARK    1  A    between atoms: O_1  and  C_2 
REMARK    2  A    between atoms: C_2  and  C_3 
REMARK    3  A    between atoms: C_2  and  C_11 
REMARK    4  A    between atoms: C_3  and  O_4 
REMARK    5  A    between atoms: O_4  and  C_5 
REMARK    6  A    between atoms: C_11  and  N_12 
REMARK    7  A    between atoms: C_16  and  C_20 
ROOT
HETATM    1  N   UNL     1     -41.538 -54.070  15.187  1.00  0.00    -0.308 N 
HETATM    2  C   UNL     1     -42.202 -54.525  14.069  1.00  0.00     0.186 A 
HETATM    3  N   UNL     1     -43.401 -54.201  13.716  1.00  0.00    -0.355 N 
ATOM      4  HN  UNL     1     -43.825 -54.564  12.863  1.00  0.00     0.166 HD
HETATM    5  C   UNL     1     -44.073 -53.345  14.545  1.00  0.00     0.019 A 
HETATM    6  C   UNL     1     -43.551 -52.829  15.660  1.00  0.00     0.100 A 
HETATM    7  C   UNL     1     -42.166 -53.162  16.014  1.00  0.00     0.250 A 
HETATM    8  O   UNL     1     -41.683 -52.575  16.981  1.00  0.00    -0.268 OA
ENDROOT
BRANCH   1   9
HETATM    9  C   UNL     1     -40.137 -54.492  15.359  1.00  0.00     0.166 C 
BRANCH   9  10
HETATM   10  C   UNL     1     -39.078 -53.790  14.500  1.00  0.00     0.161 C 
BRANCH  10  11
HETATM   11  O   UNL     1     -38.870 -54.534  13.293  1.00  0.00    -0.392 OA
HETATM   12  H   UNL     1     -38.887 -53.883  12.567  1.00  0.00     0.210 HD
ENDBRANCH  10  11
BRANCH  10  13
HETATM   13  C   UNL     1     -39.467 -52.372  14.091  1.00  0.00     0.209 C 
BRANCH  13  14
HETATM   14  O   UNL     1     -39.798 -52.314  12.704  1.00  0.00    -0.349 OA
BRANCH  14  15
HETATM   15  C   UNL     1     -40.512 -51.198  12.353  1.00  0.00     0.068 A 
HETATM   16  C   UNL     1     -41.781 -51.083  12.919  1.00  0.00     0.037 A 
HETATM   17  C   UNL     1     -42.587 -49.984  12.614  1.00  0.00     0.003 A 
HETATM   18  C   UNL     1     -42.118 -48.990  11.757  1.00  0.00     0.000 A 
HETATM   19  C   UNL     1     -40.841 -49.087  11.214  1.00  0.00     0.003 A 
HETATM   20  C   UNL     1     -40.036 -50.184  11.518  1.00  0.00     0.037 A 
ENDBRANCH  14  15
ENDBRANCH  13  14
ENDBRANCH  10  13
ENDBRANCH   9  10
ENDBRANCH   1   9
BRANCH   5  21
HETATM   21  C   UNL     1     -45.434 -52.886  14.156  1.00  0.00     0.036 C 
HETATM   22  C   UNL     1     -45.702 -52.749  12.630  1.00  0.00     0.011 C 
HETATM   23  C   UNL     1     -46.609 -51.552  12.979  1.00  0.00     0.001 C 
HETATM   24  C   UNL     1     -45.747 -51.370  14.247  1.00  0.00     0.011 C 
ENDBRANCH   5  21
TORSDOF 7
ENDMDL
