MODEL 1
REMARK VINA RESULT:      -6.4      0.000      0.000
REMARK  5 active torsions:
REMARK  status: ('A' for Active; 'I' for Inactive)
REMARK    1  A    between atoms: C_2  and  C_4 
REMARK    2  A    between atoms: C_4  and  C_5 
REMARK    3  A    between atoms: C_5  and  N_6 
REMARK    4  A    between atoms: C_9  and  N_10 
REMARK       I    between atoms: N_10  and  C_11 
REMARK       I    between atoms: C_11  and  N_13 
REMARK    5  A    between atoms: N_13  and  C_14 
ROOT
HETATM    1  N   UNL     1     -40.444 -50.954  11.204  1.00  0.00    -0.294 N 
HETATM    2  C   UNL     1     -40.958 -51.909  12.053  1.00  0.00     0.322 C 
HETATM    3  O   UNL     1     -40.654 -53.089  11.912  1.00  0.00    -0.247 OA
HETATM    4  N   UNL     1     -41.807 -51.443  13.014  1.00  0.00    -0.334 N 
HETATM    5  H   UNL     1     -39.835 -51.313  10.485  1.00  0.00     0.172 HD
HETATM    6  H   UNL     1     -41.922 -50.432  12.976  1.00  0.00     0.165 HD
ENDROOT
BRANCH   1   7
HETATM    7  C   UNL     1     -40.692 -49.597  11.240  1.00  0.00     0.125 A 
HETATM    8  C   UNL     1     -39.918 -48.621  11.909  1.00  0.00     0.069 A 
HETATM    9  C   UNL     1     -40.552 -47.421  11.655  1.00  0.00     0.114 A 
HETATM   10  N   UNL     1     -41.618 -47.725  10.862  1.00  0.00    -0.302 N 
HETATM   11  N   UNL     1     -41.727 -49.033  10.612  1.00  0.00    -0.284 N 
ATOM     12  HN  UNL     1     -42.447 -49.500  10.059  1.00  0.00     0.188 HD
BRANCH  10  13
HETATM   13  C   UNL     1     -42.605 -46.832  10.287  1.00  0.00     0.148 C 
BRANCH  13  14
HETATM   14  C   UNL     1     -43.992 -47.452  10.128  1.00  0.00     0.025 C 
BRANCH  14  15
HETATM   15  C   UNL     1     -44.594 -47.370   8.710  1.00  0.00    -0.021 C 
HETATM   16  C   UNL     1     -43.677 -47.970   7.644  1.00  0.00     0.009 C 
HETATM   17  C   UNL     1     -45.947 -48.085   8.686  1.00  0.00     0.009 C 
ENDBRANCH  14  15
ENDBRANCH  13  14
ENDBRANCH  10  13
ENDBRANCH   1   7
BRANCH   4  18
HETATM   18  C   UNL     1     -42.567 -52.181  14.028  1.00  0.00     0.035 C 
HETATM   19  C   UNL     1     -41.618 -52.621  15.151  1.00  0.00     0.039 C 
HETATM   20  C   UNL     1     -43.152 -53.449  13.359  1.00  0.00     0.057 C 
HETATM   21  C   UNL     1     -44.310 -53.129  12.420  1.00  0.00     0.170 C 
HETATM   22  O   UNL     1     -45.320 -52.396  13.106  1.00  0.00    -0.391 OA
HETATM   23  C   UNL     1     -44.831 -51.136  13.566  1.00  0.00     0.170 C 
HETATM   24  C   UNL     1     -43.716 -51.327  14.588  1.00  0.00     0.057 C 
ENDBRANCH   4  18
TORSDOF 5
ENDMDL
MODEL 2
REMARK VINA RESULT:      -6.2      3.256      5.054
REMARK  5 active torsions:
REMARK  status: ('A' for Active; 'I' for Inactive)
REMARK    1  A    between atoms: C_2  and  C_4 
REMARK    2  A    between atoms: C_4  and  C_5 
REMARK    3  A    between atoms: C_5  and  N_6 
REMARK    4  A    between atoms: C_9  and  N_10 
REMARK       I    between atoms: N_10  and  C_11 
REMARK       I    between atoms: C_11  and  N_13 
REMARK    5  A    between atoms: N_13  and  C_14 
ROOT
HETATM    1  N   UNL     1     -43.203 -53.769  12.311  1.00  0.00    -0.294 N 
HETATM    2  C   UNL     1     -44.400 -53.638  12.978  1.00  0.00     0.322 C 
HETATM    3  O   UNL     1     -45.314 -54.430  12.770  1.00  0.00    -0.247 OA
HETATM    4  N   UNL     1     -44.477 -52.585  13.842  1.00  0.00    -0.334 N 
HETATM    5  H   UNL     1     -43.165 -54.538  11.659  1.00  0.00     0.172 HD
HETATM    6  H   UNL     1     -43.611 -52.052  13.885  1.00  0.00     0.165 HD
ENDROOT
BRANCH   1   7
HETATM    7  C   UNL     1     -42.091 -52.961  12.441  1.00  0.00     0.125 A 
HETATM    8  C   UNL     1     -40.997 -53.175  13.309  1.00  0.00     0.069 A 
HETATM    9  C   UNL     1     -40.143 -52.114  13.081  1.00  0.00     0.114 A 
HETATM   10  N   UNL     1     -40.736 -51.362  12.112  1.00  0.00    -0.302 N 
HETATM   11  N   UNL     1     -41.918 -51.848  11.723  1.00  0.00    -0.284 N 
ATOM     12  HN  UNL     1     -42.551 -51.454  11.027  1.00  0.00     0.188 HD
BRANCH  10  13
HETATM   13  C   UNL     1     -40.255 -50.146  11.485  1.00  0.00     0.148 C 
BRANCH  13  14
HETATM   14  C   UNL     1     -39.694 -49.117  12.467  1.00  0.00     0.025 C 
BRANCH  14  15
HETATM   15  C   UNL     1     -38.155 -49.048  12.544  1.00  0.00    -0.021 C 
HETATM   16  C   UNL     1     -37.608 -49.545  13.883  1.00  0.00     0.009 C 
HETATM   17  C   UNL     1     -37.547 -49.867  11.403  1.00  0.00     0.009 C 
ENDBRANCH  14  15
ENDBRANCH  13  14
ENDBRANCH  10  13
ENDBRANCH   1   7
BRANCH   4  18
HETATM   18  C   UNL     1     -45.607 -52.124  14.656  1.00  0.00     0.035 C 
HETATM   19  C   UNL     1     -46.672 -51.504  13.741  1.00  0.00     0.039 C 
HETATM   20  C   UNL     1     -45.089 -51.025  15.616  1.00  0.00     0.057 C 
HETATM   21  C   UNL     1     -44.235 -51.594  16.744  1.00  0.00     0.170 C 
HETATM   22  O   UNL     1     -44.951 -52.601  17.452  1.00  0.00    -0.391 OA
HETATM   23  C   UNL     1     -45.270 -53.707  16.609  1.00  0.00     0.170 C 
HETATM   24  C   UNL     1     -46.201 -53.279  15.481  1.00  0.00     0.057 C 
ENDBRANCH   4  18
TORSDOF 5
ENDMDL
MODEL 3
REMARK VINA RESULT:      -6.0      2.964      5.326
REMARK  5 active torsions:
REMARK  status: ('A' for Active; 'I' for Inactive)
REMARK    1  A    between atoms: C_2  and  C_4 
REMARK    2  A    between atoms: C_4  and  C_5 
REMARK    3  A    between atoms: C_5  and  N_6 
REMARK    4  A    between atoms: C_9  and  N_10 
REMARK       I    between atoms: N_10  and  C_11 
REMARK       I    between atoms: C_11  and  N_13 
REMARK    5  A    between atoms: N_13  and  C_14 
ROOT
HETATM    1  N   UNL     1     -40.881 -51.724  11.393  1.00  0.00    -0.294 N 
HETATM    2  C   UNL     1     -40.476 -50.462  11.770  1.00  0.00     0.322 C 
HETATM    3  O   UNL     1     -39.785 -49.784  11.017  1.00  0.00    -0.247 OA
HETATM    4  N   UNL     1     -40.885 -50.061  13.009  1.00  0.00    -0.334 N 
HETATM    5  H   UNL     1     -40.555 -52.018  10.486  1.00  0.00     0.172 HD
HETATM    6  H   UNL     1     -41.461 -50.759  13.474  1.00  0.00     0.165 HD
ENDROOT
BRANCH   1   7
HETATM    7  C   UNL     1     -41.657 -52.596  12.129  1.00  0.00     0.125 A 
HETATM    8  C   UNL     1     -41.205 -53.466  13.146  1.00  0.00     0.069 A 
HETATM    9  C   UNL     1     -42.335 -54.128  13.585  1.00  0.00     0.114 A 
HETATM   10  N   UNL     1     -43.367 -53.624  12.851  1.00  0.00    -0.302 N 
HETATM   11  N   UNL     1     -42.978 -52.710  11.959  1.00  0.00    -0.284 N 
ATOM     12  HN  UNL     1     -43.563 -52.207  11.291  1.00  0.00     0.188 HD
BRANCH  10  13
HETATM   13  C   UNL     1     -44.777 -53.956  12.923  1.00  0.00     0.148 C 
BRANCH  13  14
HETATM   14  C   UNL     1     -45.513 -53.304  14.093  1.00  0.00     0.025 C 
BRANCH  14  15
HETATM   15  C   UNL     1     -45.949 -51.842  13.869  1.00  0.00    -0.021 C 
HETATM   16  C   UNL     1     -46.631 -51.630  12.516  1.00  0.00     0.009 C 
HETATM   17  C   UNL     1     -46.892 -51.410  14.993  1.00  0.00     0.009 C 
ENDBRANCH  14  15
ENDBRANCH  13  14
ENDBRANCH  10  13
ENDBRANCH   1   7
BRANCH   4  18
HETATM   18  C   UNL     1     -40.587 -48.823  13.735  1.00  0.00     0.035 C 
HETATM   19  C   UNL     1     -39.094 -48.789  14.090  1.00  0.00     0.039 C 
HETATM   20  C   UNL     1     -41.402 -48.832  15.052  1.00  0.00     0.057 C 
HETATM   21  C   UNL     1     -42.888 -48.587  14.817  1.00  0.00     0.170 C 
HETATM   22  O   UNL     1     -43.086 -47.373  14.098  1.00  0.00    -0.391 OA
HETATM   23  C   UNL     1     -42.491 -47.431  12.802  1.00  0.00     0.170 C 
HETATM   24  C   UNL     1     -40.979 -47.588  12.906  1.00  0.00     0.057 C 
ENDBRANCH   4  18
TORSDOF 5
ENDMDL
MODEL 4
REMARK VINA RESULT:      -6.0      1.954      3.521
REMARK  5 active torsions:
REMARK  status: ('A' for Active; 'I' for Inactive)
REMARK    1  A    between atoms: C_2  and  C_4 
REMARK    2  A    between atoms: C_4  and  C_5 
REMARK    3  A    between atoms: C_5  and  N_6 
REMARK    4  A    between atoms: C_9  and  N_10 
REMARK       I    between atoms: N_10  and  C_11 
REMARK       I    between atoms: C_11  and  N_13 
REMARK    5  A    between atoms: N_13  and  C_14 
ROOT
HETATM    1  N   UNL     1     -42.864 -52.954  11.909  1.00  0.00    -0.294 N 
HETATM    2  C   UNL     1     -44.027 -53.116  12.628  1.00  0.00     0.322 C 
HETATM    3  O   UNL     1     -44.804 -54.023  12.350  1.00  0.00    -0.247 OA
HETATM    4  N   UNL     1     -44.231 -52.207  13.625  1.00  0.00    -0.334 N 
HETATM    5  H   UNL     1     -42.734 -53.618  11.161  1.00  0.00     0.172 HD
HETATM    6  H   UNL     1     -43.466 -51.540  13.708  1.00  0.00     0.165 HD
ENDROOT
BRANCH   1   7
HETATM    7  C   UNL     1     -41.899 -51.987  12.106  1.00  0.00     0.125 A 
HETATM    8  C   UNL     1     -40.633 -52.176  12.705  1.00  0.00     0.069 A 
HETATM    9  C   UNL     1     -40.029 -50.934  12.674  1.00  0.00     0.114 A 
HETATM   10  N   UNL     1     -40.921 -50.104  12.064  1.00  0.00    -0.302 N 
HETATM   11  N   UNL     1     -42.059 -50.716  11.726  1.00  0.00    -0.284 N 
ATOM     12  HN  UNL     1     -42.875 -50.302  11.275  1.00  0.00     0.188 HD
BRANCH  10  13
HETATM   13  C   UNL     1     -40.783 -48.693  11.756  1.00  0.00     0.148 C 
BRANCH  13  14
HETATM   14  C   UNL     1     -41.645 -48.222  10.586  1.00  0.00     0.025 C 
BRANCH  14  15
HETATM   15  C   UNL     1     -42.739 -47.194  10.942  1.00  0.00    -0.021 C 
HETATM   16  C   UNL     1     -44.077 -47.499  10.268  1.00  0.00     0.009 C 
HETATM   17  C   UNL     1     -42.926 -47.150  12.460  1.00  0.00     0.009 C 
ENDBRANCH  14  15
ENDBRANCH  13  14
ENDBRANCH  10  13
ENDBRANCH   1   7
BRANCH   4  18
HETATM   18  C   UNL     1     -45.375 -52.054  14.530  1.00  0.00     0.035 C 
HETATM   19  C   UNL     1     -46.586 -51.545  13.736  1.00  0.00     0.039 C 
HETATM   20  C   UNL     1     -45.006 -50.989  15.593  1.00  0.00     0.057 C 
HETATM   21  C   UNL     1     -43.998 -51.510  16.611  1.00  0.00     0.170 C 
HETATM   22  O   UNL     1     -44.479 -52.702  17.224  1.00  0.00    -0.391 OA
HETATM   23  C   UNL     1     -44.645 -53.750  16.269  1.00  0.00     0.170 C 
HETATM   24  C   UNL     1     -45.703 -53.380  15.235  1.00  0.00     0.057 C 
ENDBRANCH   4  18
TORSDOF 5
ENDMDL
MODEL 5
REMARK VINA RESULT:      -6.0      3.515      5.810
REMARK  5 active torsions:
REMARK  status: ('A' for Active; 'I' for Inactive)
REMARK    1  A    between atoms: C_2  and  C_4 
REMARK    2  A    between atoms: C_4  and  C_5 
REMARK    3  A    between atoms: C_5  and  N_6 
REMARK    4  A    between atoms: C_9  and  N_10 
REMARK       I    between atoms: N_10  and  C_11 
REMARK       I    between atoms: C_11  and  N_13 
REMARK    5  A    between atoms: N_13  and  C_14 
ROOT
HETATM    1  N   UNL     1     -40.838 -51.609  11.315  1.00  0.00    -0.294 N 
HETATM    2  C   UNL     1     -40.219 -50.481  11.804  1.00  0.00     0.322 C 
HETATM    3  O   UNL     1     -39.602 -49.737  11.048  1.00  0.00    -0.247 OA
HETATM    4  N   UNL     1     -40.337 -50.284  13.149  1.00  0.00    -0.334 N 
HETATM    5  H   UNL     1     -40.726 -51.756  10.323  1.00  0.00     0.172 HD
HETATM    6  H   UNL     1     -40.898 -51.004  13.601  1.00  0.00     0.165 HD
ENDROOT
BRANCH   1   7
HETATM    7  C   UNL     1     -41.565 -52.533  12.038  1.00  0.00     0.125 A 
HETATM    8  C   UNL     1     -41.042 -53.514  12.910  1.00  0.00     0.069 A 
HETATM    9  C   UNL     1     -42.143 -54.188  13.399  1.00  0.00     0.114 A 
HETATM   10  N   UNL     1     -43.227 -53.585  12.833  1.00  0.00    -0.302 N 
HETATM   11  N   UNL     1     -42.899 -52.595  12.000  1.00  0.00    -0.284 N 
ATOM     12  HN  UNL     1     -43.532 -52.011  11.452  1.00  0.00     0.188 HD
BRANCH  10  13
HETATM   13  C   UNL     1     -44.633 -53.886  13.022  1.00  0.00     0.148 C 
BRANCH  13  14
HETATM   14  C   UNL     1     -45.258 -53.212  14.242  1.00  0.00     0.025 C 
BRANCH  14  15
HETATM   15  C   UNL     1     -46.553 -52.419  13.968  1.00  0.00    -0.021 C 
HETATM   16  C   UNL     1     -46.876 -51.416  15.076  1.00  0.00     0.009 C 
HETATM   17  C   UNL     1     -46.433 -51.688  12.630  1.00  0.00     0.009 C 
ENDBRANCH  14  15
ENDBRANCH  13  14
ENDBRANCH  10  13
ENDBRANCH   1   7
BRANCH   4  18
HETATM   18  C   UNL     1     -39.760 -49.234  13.995  1.00  0.00     0.035 C 
HETATM   19  C   UNL     1     -40.398 -47.885  13.635  1.00  0.00     0.039 C 
HETATM   20  C   UNL     1     -38.243 -49.153  13.690  1.00  0.00     0.057 C 
HETATM   21  C   UNL     1     -37.472 -50.336  14.265  1.00  0.00     0.170 C 
HETATM   22  O   UNL     1     -37.710 -50.453  15.664  1.00  0.00    -0.391 OA
HETATM   23  C   UNL     1     -39.085 -50.715  15.940  1.00  0.00     0.170 C 
HETATM   24  C   UNL     1     -39.960 -49.553  15.486  1.00  0.00     0.057 C 
ENDBRANCH   4  18
TORSDOF 5
ENDMDL
MODEL 6
REMARK VINA RESULT:      -5.6      4.090      5.376
REMARK  5 active torsions:
REMARK  status: ('A' for Active; 'I' for Inactive)
REMARK    1  A    between atoms: C_2  and  C_4 
REMARK    2  A    between atoms: C_4  and  C_5 
REMARK    3  A    between atoms: C_5  and  N_6 
REMARK    4  A    between atoms: C_9  and  N_10 
REMARK       I    between atoms: N_10  and  C_11 
REMARK       I    between atoms: C_11  and  N_13 
REMARK    5  A    between atoms: N_13  and  C_14 
ROOT
HETATM    1  N   UNL     1     -39.773 -54.455  13.388  1.00  0.00    -0.294 N 
HETATM    2  C   UNL     1     -39.494 -54.846  14.678  1.00  0.00     0.322 C 
HETATM    3  O   UNL     1     -38.526 -55.563  14.912  1.00  0.00    -0.247 OA
HETATM    4  N   UNL     1     -40.362 -54.393  15.629  1.00  0.00    -0.334 N 
HETATM    5  H   UNL     1     -39.138 -54.813  12.691  1.00  0.00     0.172 HD
HETATM    6  H   UNL     1     -41.092 -53.800  15.239  1.00  0.00     0.165 HD
ENDROOT
BRANCH   1   7
HETATM    7  C   UNL     1     -40.818 -53.653  12.975  1.00  0.00     0.125 A 
HETATM    8  C   UNL     1     -40.726 -52.310  12.547  1.00  0.00     0.069 A 
HETATM    9  C   UNL     1     -42.020 -51.940  12.236  1.00  0.00     0.114 A 
HETATM   10  N   UNL     1     -42.785 -53.044  12.465  1.00  0.00    -0.302 N 
HETATM   11  N   UNL     1     -42.083 -54.083  12.924  1.00  0.00    -0.284 N 
ATOM     12  HN  UNL     1     -42.435 -55.005  13.179  1.00  0.00     0.188 HD
BRANCH  10  13
HETATM   13  C   UNL     1     -44.214 -53.211  12.278  1.00  0.00     0.148 C 
BRANCH  13  14
HETATM   14  C   UNL     1     -45.052 -52.824  13.496  1.00  0.00     0.025 C 
BRANCH  14  15
HETATM   15  C   UNL     1     -45.956 -51.588  13.311  1.00  0.00    -0.021 C 
HETATM   16  C   UNL     1     -46.843 -51.686  12.069  1.00  0.00     0.009 C 
HETATM   17  C   UNL     1     -46.829 -51.402  14.554  1.00  0.00     0.009 C 
ENDBRANCH  14  15
ENDBRANCH  13  14
ENDBRANCH  10  13
ENDBRANCH   1   7
BRANCH   4  18
HETATM   18  C   UNL     1     -40.395 -54.663  17.069  1.00  0.00     0.035 C 
HETATM   19  C   UNL     1     -39.072 -54.210  17.702  1.00  0.00     0.039 C 
HETATM   20  C   UNL     1     -40.530 -56.194  17.267  1.00  0.00     0.057 C 
HETATM   21  C   UNL     1     -41.926 -56.702  16.924  1.00  0.00     0.170 C 
HETATM   22  O   UNL     1     -42.911 -55.998  17.674  1.00  0.00    -0.391 OA
HETATM   23  C   UNL     1     -42.914 -54.607  17.355  1.00  0.00     0.170 C 
HETATM   24  C   UNL     1     -41.588 -53.960  17.737  1.00  0.00     0.057 C 
ENDBRANCH   4  18
TORSDOF 5
ENDMDL
MODEL 7
REMARK VINA RESULT:      -5.6      3.373      6.478
REMARK  5 active torsions:
REMARK  status: ('A' for Active; 'I' for Inactive)
REMARK    1  A    between atoms: C_2  and  C_4 
REMARK    2  A    between atoms: C_4  and  C_5 
REMARK    3  A    between atoms: C_5  and  N_6 
REMARK    4  A    between atoms: C_9  and  N_10 
REMARK       I    between atoms: N_10  and  C_11 
REMARK       I    between atoms: C_11  and  N_13 
REMARK    5  A    between atoms: N_13  and  C_14 
ROOT
HETATM    1  N   UNL     1     -41.288 -47.548  10.269  1.00  0.00    -0.294 N 
HETATM    2  C   UNL     1     -41.411 -46.240  10.682  1.00  0.00     0.322 C 
HETATM    3  O   UNL     1     -41.545 -45.341   9.858  1.00  0.00    -0.247 OA
HETATM    4  N   UNL     1     -41.359 -46.044  12.032  1.00  0.00    -0.334 N 
HETATM    5  H   UNL     1     -41.305 -47.678   9.269  1.00  0.00     0.172 HD
HETATM    6  H   UNL     1     -41.257 -46.915  12.549  1.00  0.00     0.165 HD
ENDROOT
BRANCH   1   7
HETATM    7  C   UNL     1     -41.134 -48.658  11.075  1.00  0.00     0.125 A 
HETATM    8  C   UNL     1     -39.922 -49.134  11.624  1.00  0.00     0.069 A 
HETATM    9  C   UNL     1     -40.270 -50.254  12.353  1.00  0.00     0.114 A 
HETATM   10  N   UNL     1     -41.621 -50.373  12.225  1.00  0.00    -0.302 N 
HETATM   11  N   UNL     1     -42.159 -49.430  11.448  1.00  0.00    -0.284 N 
ATOM     12  HN  UNL     1     -43.141 -49.321  11.194  1.00  0.00     0.188 HD
BRANCH  10  13
HETATM   13  C   UNL     1     -42.503 -51.366  12.808  1.00  0.00     0.148 C 
BRANCH  13  14
HETATM   14  C   UNL     1     -43.898 -50.842  13.146  1.00  0.00     0.025 C 
BRANCH  14  15
HETATM   15  C   UNL     1     -44.994 -51.919  13.284  1.00  0.00    -0.021 C 
HETATM   16  C   UNL     1     -46.336 -51.473  12.701  1.00  0.00     0.009 C 
HETATM   17  C   UNL     1     -44.536 -53.206  12.595  1.00  0.00     0.009 C 
ENDBRANCH  14  15
ENDBRANCH  13  14
ENDBRANCH  10  13
ENDBRANCH   1   7
BRANCH   4  18
HETATM   18  C   UNL     1     -41.398 -44.794  12.797  1.00  0.00     0.035 C 
HETATM   19  C   UNL     1     -42.596 -43.953  12.336  1.00  0.00     0.039 C 
HETATM   20  C   UNL     1     -40.101 -44.004  12.490  1.00  0.00     0.057 C 
HETATM   21  C   UNL     1     -38.875 -44.621  13.154  1.00  0.00     0.170 C 
HETATM   22  O   UNL     1     -39.079 -44.748  14.558  1.00  0.00    -0.391 OA
HETATM   23  C   UNL     1     -40.164 -45.629  14.850  1.00  0.00     0.170 C 
HETATM   24  C   UNL     1     -41.476 -45.072  14.307  1.00  0.00     0.057 C 
ENDBRANCH   4  18
TORSDOF 5
ENDMDL
MODEL 8
REMARK VINA RESULT:      -5.6      4.134      5.939
REMARK  5 active torsions:
REMARK  status: ('A' for Active; 'I' for Inactive)
REMARK    1  A    between atoms: C_2  and  C_4 
REMARK    2  A    between atoms: C_4  and  C_5 
REMARK    3  A    between atoms: C_5  and  N_6 
REMARK    4  A    between atoms: C_9  and  N_10 
REMARK       I    between atoms: N_10  and  C_11 
REMARK       I    between atoms: C_11  and  N_13 
REMARK    5  A    between atoms: N_13  and  C_14 
ROOT
HETATM    1  N   UNL     1     -42.635 -52.706  11.800  1.00  0.00    -0.294 N 
HETATM    2  C   UNL     1     -41.384 -52.762  12.373  1.00  0.00     0.322 C 
HETATM    3  O   UNL     1     -40.381 -52.614  11.683  1.00  0.00    -0.247 OA
HETATM    4  N   UNL     1     -41.366 -53.002  13.717  1.00  0.00    -0.334 N 
HETATM    5  H   UNL     1     -42.636 -52.550  10.803  1.00  0.00     0.172 HD
HETATM    6  H   UNL     1     -42.301 -53.083  14.111  1.00  0.00     0.165 HD
ENDROOT
BRANCH   1   7
HETATM    7  C   UNL     1     -43.847 -52.851  12.444  1.00  0.00     0.125 A 
HETATM    8  C   UNL     1     -44.440 -54.068  12.849  1.00  0.00     0.069 A 
HETATM    9  C   UNL     1     -45.631 -53.707  13.449  1.00  0.00     0.114 A 
HETATM   10  N   UNL     1     -45.677 -52.347  13.392  1.00  0.00    -0.302 N 
HETATM   11  N   UNL     1     -44.618 -51.812  12.778  1.00  0.00    -0.284 N 
ATOM     12  HN  UNL     1     -44.437 -50.824  12.603  1.00  0.00     0.188 HD
BRANCH  10  13
HETATM   13  C   UNL     1     -46.702 -51.452  13.896  1.00  0.00     0.148 C 
BRANCH  13  14
HETATM   14  C   UNL     1     -47.069 -51.685  15.361  1.00  0.00     0.025 C 
BRANCH  14  15
HETATM   15  C   UNL     1     -46.161 -50.981  16.390  1.00  0.00    -0.021 C 
HETATM   16  C   UNL     1     -46.933 -50.471  17.607  1.00  0.00     0.009 C 
HETATM   17  C   UNL     1     -45.061 -51.943  16.845  1.00  0.00     0.009 C 
ENDBRANCH  14  15
ENDBRANCH  13  14
ENDBRANCH  10  13
ENDBRANCH   1   7
BRANCH   4  18
HETATM   18  C   UNL     1     -40.224 -53.181  14.618  1.00  0.00     0.035 C 
HETATM   19  C   UNL     1     -39.457 -54.451  14.220  1.00  0.00     0.039 C 
HETATM   20  C   UNL     1     -40.771 -53.372  16.054  1.00  0.00     0.057 C 
HETATM   21  C   UNL     1     -41.308 -52.074  16.648  1.00  0.00     0.170 C 
HETATM   22  O   UNL     1     -40.310 -51.059  16.609  1.00  0.00    -0.391 OA
HETATM   23  C   UNL     1     -39.934 -50.746  15.268  1.00  0.00     0.170 C 
HETATM   24  C   UNL     1     -39.298 -51.953  14.588  1.00  0.00     0.057 C 
ENDBRANCH   4  18
TORSDOF 5
ENDMDL
MODEL 9
REMARK VINA RESULT:      -5.5      3.217      5.726
REMARK  5 active torsions:
REMARK  status: ('A' for Active; 'I' for Inactive)
REMARK    1  A    between atoms: C_2  and  C_4 
REMARK    2  A    between atoms: C_4  and  C_5 
REMARK    3  A    between atoms: C_5  and  N_6 
REMARK    4  A    between atoms: C_9  and  N_10 
REMARK       I    between atoms: N_10  and  C_11 
REMARK       I    between atoms: C_11  and  N_13 
REMARK    5  A    between atoms: N_13  and  C_14 
ROOT
HETATM    1  N   UNL     1     -41.241 -54.179  13.485  1.00  0.00    -0.294 N 
HETATM    2  C   UNL     1     -40.447 -53.054  13.439  1.00  0.00     0.322 C 
HETATM    3  O   UNL     1     -39.251 -53.152  13.183  1.00  0.00    -0.247 OA
HETATM    4  N   UNL     1     -41.083 -51.877  13.706  1.00  0.00    -0.334 N 
HETATM    5  H   UNL     1     -40.756 -55.045  13.307  1.00  0.00     0.172 HD
HETATM    6  H   UNL     1     -42.077 -52.002  13.882  1.00  0.00     0.165 HD
ENDROOT
BRANCH   1   7
HETATM    7  C   UNL     1     -42.593 -54.225  13.755  1.00  0.00     0.125 A 
HETATM    8  C   UNL     1     -43.216 -54.952  14.794  1.00  0.00     0.069 A 
HETATM    9  C   UNL     1     -44.564 -54.684  14.666  1.00  0.00     0.114 A 
HETATM   10  N   UNL     1     -44.672 -53.828  13.611  1.00  0.00    -0.302 N 
HETATM   11  N   UNL     1     -43.498 -53.549  13.040  1.00  0.00    -0.284 N 
ATOM     12  HN  UNL     1     -43.328 -52.949  12.233  1.00  0.00     0.188 HD
BRANCH  10  13
HETATM   13  C   UNL     1     -45.866 -53.214  13.060  1.00  0.00     0.148 C 
BRANCH  13  14
HETATM   14  C   UNL     1     -45.920 -51.696  13.224  1.00  0.00     0.025 C 
BRANCH  14  15
HETATM   15  C   UNL     1     -46.287 -51.195  14.636  1.00  0.00    -0.021 C 
HETATM   16  C   UNL     1     -47.196 -52.167  15.388  1.00  0.00     0.009 C 
HETATM   17  C   UNL     1     -45.009 -50.957  15.442  1.00  0.00     0.009 C 
ENDBRANCH  14  15
ENDBRANCH  13  14
ENDBRANCH  10  13
ENDBRANCH   1   7
BRANCH   4  18
HETATM   18  C   UNL     1     -40.535 -50.520  13.800  1.00  0.00     0.035 C 
HETATM   19  C   UNL     1     -39.656 -50.413  15.054  1.00  0.00     0.039 C 
HETATM   20  C   UNL     1     -41.721 -49.534  13.951  1.00  0.00     0.057 C 
HETATM   21  C   UNL     1     -42.499 -49.359  12.652  1.00  0.00     0.170 C 
HETATM   22  O   UNL     1     -41.627 -48.958  11.599  1.00  0.00    -0.391 OA
HETATM   23  C   UNL     1     -40.640 -49.953  11.330  1.00  0.00     0.170 C 
HETATM   24  C   UNL     1     -39.734 -50.158  12.539  1.00  0.00     0.057 C 
ENDBRANCH   4  18
TORSDOF 5
ENDMDL
