MODEL 1
REMARK VINA RESULT:      -6.6      0.000      0.000
REMARK  5 active torsions:
REMARK  status: ('A' for Active; 'I' for Inactive)
REMARK    1  A    between atoms: O_3  and  C_4 
REMARK    2  A    between atoms: C_4  and  C_6 
REMARK    3  A    between atoms: C_6  and  N_7 
REMARK    4  A    between atoms: C_9  and  C_10 
REMARK    5  A    between atoms: C_10  and  C_11 
ROOT
HETATM    1  N   UNL     2     -40.346 -48.765  11.720  1.00  0.00    -0.275 N 
HETATM    2  C   UNL     2     -41.467 -49.035  11.029  1.00  0.00     0.134 A 
HETATM    3  C   UNL     2     -41.720 -47.924  10.259  1.00  0.00     0.043 A 
HETATM    4  N   UNL     2     -40.757 -47.011  10.507  1.00  0.00    -0.287 N 
ATOM      5  HN  UNL     2     -40.674 -46.086  10.085  1.00  0.00     0.184 HD
HETATM    6  N   UNL     2     -39.940 -47.546  11.404  1.00  0.00    -0.020 NA
ENDROOT
BRANCH   3   7
HETATM    7  C   UNL     2     -42.838 -47.746   9.277  1.00  0.00     0.094 C 
BRANCH   7   8
HETATM    8  C   UNL     2     -44.056 -47.057   9.909  1.00  0.00     0.184 A 
HETATM    9  N   UNL     2     -45.262 -47.853   9.800  1.00  0.00    -0.329 N 
HETATM   10  C   UNL     2     -46.182 -47.149   9.108  1.00  0.00     0.323 A 
HETATM   11  H   UNL     2     -45.409 -48.789  10.203  1.00  0.00     0.165 HD
HETATM   12  O   UNL     2     -47.306 -47.558   8.874  1.00  0.00    -0.247 OA
HETATM   13  N   UNL     2     -45.735 -45.948   8.705  1.00  0.00    -0.278 N 
HETATM   14  C   UNL     2     -44.470 -45.832   9.145  1.00  0.00     0.248 A 
HETATM   15  H   UNL     2     -46.264 -45.245   8.168  1.00  0.00     0.173 HD
HETATM   16  O   UNL     2     -43.778 -44.845   8.953  1.00  0.00    -0.271 OA
ENDBRANCH   7   8
ENDBRANCH   3   7
BRANCH   1  17
HETATM   17  C   UNL     2     -39.663 -49.655  12.651  1.00  0.00     0.255 C 
BRANCH  17  18
HETATM   18  C   UNL     2     -38.539 -50.371  11.952  1.00  0.00     0.159 C 
HETATM   19  O   UNL     2     -37.986 -51.314  12.495  1.00  0.00    -0.649 OA
BRANCH  18  20
HETATM   20  O   UNL     2     -38.131 -49.979  10.726  1.00  0.00    -0.775 OA
HETATM   21  H   UNL     2     -37.197 -49.818  10.530  1.00  0.00     0.167 HD
ENDBRANCH  18  20
ENDBRANCH  17  18
ENDBRANCH   1  17
TORSDOF 5
ENDMDL
MODEL 2
REMARK VINA RESULT:      -6.1      2.422      2.671
REMARK  5 active torsions:
REMARK  status: ('A' for Active; 'I' for Inactive)
REMARK    1  A    between atoms: O_3  and  C_4 
REMARK    2  A    between atoms: C_4  and  C_6 
REMARK    3  A    between atoms: C_6  and  N_7 
REMARK    4  A    between atoms: C_9  and  C_10 
REMARK    5  A    between atoms: C_10  and  C_11 
ROOT
HETATM    1  N   UNL     2     -41.116 -50.690  12.250  1.00  0.00    -0.275 N 
HETATM    2  C   UNL     2     -41.760 -49.511  12.302  1.00  0.00     0.134 A 
HETATM    3  C   UNL     2     -41.112 -48.681  11.417  1.00  0.00     0.043 A 
HETATM    4  N   UNL     2     -40.094 -49.369  10.860  1.00  0.00    -0.287 N 
ATOM      5  HN  UNL     2     -39.434 -49.021  10.165  1.00  0.00     0.184 HD
HETATM    6  N   UNL     2     -40.116 -50.585  11.390  1.00  0.00    -0.020 NA
ENDROOT
BRANCH   3   7
HETATM    7  C   UNL     2     -41.476 -47.267  11.079  1.00  0.00     0.094 C 
BRANCH   7   8
HETATM    8  C   UNL     2     -42.865 -47.169  10.431  1.00  0.00     0.184 A 
HETATM    9  N   UNL     2     -43.083 -48.194   9.430  1.00  0.00    -0.329 N 
HETATM   10  C   UNL     2     -43.329 -47.595   8.246  1.00  0.00     0.323 A 
HETATM   11  H   UNL     2     -43.079 -49.211   9.592  1.00  0.00     0.165 HD
HETATM   12  O   UNL     2     -43.570 -48.207   7.219  1.00  0.00    -0.247 OA
HETATM   13  N   UNL     2     -43.286 -46.254   8.313  1.00  0.00    -0.278 N 
HETATM   14  C   UNL     2     -43.008 -45.934   9.588  1.00  0.00     0.248 A 
HETATM   15  H   UNL     2     -43.446 -45.595   7.537  1.00  0.00     0.173 HD
HETATM   16  O   UNL     2     -42.909 -44.784   9.988  1.00  0.00    -0.271 OA
ENDBRANCH   7   8
ENDBRANCH   3   7
BRANCH   1  17
HETATM   17  C   UNL     2     -41.456 -51.899  12.990  1.00  0.00     0.255 C 
BRANCH  17  18
HETATM   18  C   UNL     2     -40.614 -53.051  12.512  1.00  0.00     0.159 C 
HETATM   19  O   UNL     2     -39.873 -53.628  13.293  1.00  0.00    -0.649 OA
BRANCH  18  20
HETATM   20  O   UNL     2     -40.664 -53.454  11.225  1.00  0.00    -0.775 OA
HETATM   21  H   UNL     2     -41.507 -53.609  10.775  1.00  0.00     0.167 HD
ENDBRANCH  18  20
ENDBRANCH  17  18
ENDBRANCH   1  17
TORSDOF 5
ENDMDL
MODEL 3
REMARK VINA RESULT:      -6.0      5.010      6.350
REMARK  5 active torsions:
REMARK  status: ('A' for Active; 'I' for Inactive)
REMARK    1  A    between atoms: O_3  and  C_4 
REMARK    2  A    between atoms: C_4  and  C_6 
REMARK    3  A    between atoms: C_6  and  N_7 
REMARK    4  A    between atoms: C_9  and  C_10 
REMARK    5  A    between atoms: C_10  and  C_11 
ROOT
HETATM    1  N   UNL     2     -40.525 -51.545  12.677  1.00  0.00    -0.275 N 
HETATM    2  C   UNL     2     -41.568 -51.831  13.475  1.00  0.00     0.134 A 
HETATM    3  C   UNL     2     -41.976 -53.100  13.133  1.00  0.00     0.043 A 
HETATM    4  N   UNL     2     -41.181 -53.545  12.138  1.00  0.00    -0.287 N 
ATOM      5  HN  UNL     2     -41.237 -54.452  11.675  1.00  0.00     0.184 HD
HETATM    6  N   UNL     2     -40.313 -52.577  11.876  1.00  0.00    -0.020 NA
ENDROOT
BRANCH   3   7
HETATM    7  C   UNL     2     -43.080 -53.891  13.766  1.00  0.00     0.094 C 
BRANCH   7   8
HETATM    8  C   UNL     2     -44.296 -54.029  12.838  1.00  0.00     0.184 A 
HETATM    9  N   UNL     2     -44.713 -52.759  12.278  1.00  0.00    -0.329 N 
HETATM   10  C   UNL     2     -45.987 -52.520  12.653  1.00  0.00     0.323 A 
HETATM   11  H   UNL     2     -44.147 -52.147  11.673  1.00  0.00     0.165 HD
HETATM   12  O   UNL     2     -46.615 -51.532  12.313  1.00  0.00    -0.247 OA
HETATM   13  N   UNL     2     -46.498 -53.487  13.434  1.00  0.00    -0.278 N 
HETATM   14  C   UNL     2     -45.538 -54.414  13.589  1.00  0.00     0.248 A 
HETATM   15  H   UNL     2     -47.448 -53.515  13.832  1.00  0.00     0.173 HD
HETATM   16  O   UNL     2     -45.687 -55.435  14.242  1.00  0.00    -0.271 OA
ENDBRANCH   7   8
ENDBRANCH   3   7
BRANCH   1  17
HETATM   17  C   UNL     2     -39.734 -50.321  12.687  1.00  0.00     0.255 C 
BRANCH  17  18
HETATM   18  C   UNL     2     -40.064 -49.482  11.483  1.00  0.00     0.159 C 
HETATM   19  O   UNL     2     -40.085 -48.265  11.576  1.00  0.00    -0.649 OA
BRANCH  18  20
HETATM   20  O   UNL     2     -40.341 -50.061  10.295  1.00  0.00    -0.775 OA
HETATM   21  H   UNL     2     -39.651 -50.224   9.637  1.00  0.00     0.167 HD
ENDBRANCH  18  20
ENDBRANCH  17  18
ENDBRANCH   1  17
TORSDOF 5
ENDMDL
MODEL 4
REMARK VINA RESULT:      -5.8      3.388      6.499
REMARK  5 active torsions:
REMARK  status: ('A' for Active; 'I' for Inactive)
REMARK    1  A    between atoms: O_3  and  C_4 
REMARK    2  A    between atoms: C_4  and  C_6 
REMARK    3  A    between atoms: C_6  and  N_7 
REMARK    4  A    between atoms: C_9  and  C_10 
REMARK    5  A    between atoms: C_10  and  C_11 
ROOT
HETATM    1  N   UNL     2     -42.446 -48.021  10.983  1.00  0.00    -0.275 N 
HETATM    2  C   UNL     2     -42.490 -48.910  11.989  1.00  0.00     0.134 A 
HETATM    3  C   UNL     2     -41.493 -49.824  11.738  1.00  0.00     0.043 A 
HETATM    4  N   UNL     2     -40.878 -49.472  10.589  1.00  0.00    -0.287 N 
ATOM      5  HN  UNL     2     -40.097 -49.956  10.145  1.00  0.00     0.184 HD
HETATM    6  N   UNL     2     -41.482 -48.377  10.148  1.00  0.00    -0.020 NA
ENDROOT
BRANCH   3   7
HETATM    7  C   UNL     2     -41.106 -50.991  12.594  1.00  0.00     0.094 C 
BRANCH   7   8
HETATM    8  C   UNL     2     -41.419 -52.333  11.915  1.00  0.00     0.184 A 
HETATM    9  N   UNL     2     -42.842 -52.553  11.753  1.00  0.00    -0.329 N 
HETATM   10  C   UNL     2     -43.182 -53.679  12.415  1.00  0.00     0.323 A 
HETATM   11  H   UNL     2     -43.488 -51.968  11.205  1.00  0.00     0.165 HD
HETATM   12  O   UNL     2     -44.315 -54.129  12.440  1.00  0.00    -0.247 OA
HETATM   13  N   UNL     2     -42.143 -54.259  13.039  1.00  0.00    -0.278 N 
HETATM   14  C   UNL     2     -41.062 -53.502  12.787  1.00  0.00     0.248 A 
HETATM   15  H   UNL     2     -42.169 -55.124  13.598  1.00  0.00     0.173 HD
HETATM   16  O   UNL     2     -39.945 -53.763  13.205  1.00  0.00    -0.271 OA
ENDBRANCH   7   8
ENDBRANCH   3   7
BRANCH   1  17
HETATM   17  C   UNL     2     -43.292 -46.844  10.825  1.00  0.00     0.255 C 
BRANCH  17  18
HETATM   18  C   UNL     2     -42.774 -45.982   9.706  1.00  0.00     0.159 C 
HETATM   19  O   UNL     2     -43.531 -45.613   8.822  1.00  0.00    -0.649 OA
BRANCH  18  20
HETATM   20  O   UNL     2     -41.477 -45.612   9.665  1.00  0.00    -0.775 OA
HETATM   21  H   UNL     2     -40.835 -45.939  10.311  1.00  0.00     0.167 HD
ENDBRANCH  18  20
ENDBRANCH  17  18
ENDBRANCH   1  17
TORSDOF 5
ENDMDL
MODEL 5
REMARK VINA RESULT:      -5.7      3.165      4.531
REMARK  5 active torsions:
REMARK  status: ('A' for Active; 'I' for Inactive)
REMARK    1  A    between atoms: O_3  and  C_4 
REMARK    2  A    between atoms: C_4  and  C_6 
REMARK    3  A    between atoms: C_6  and  N_7 
REMARK    4  A    between atoms: C_9  and  C_10 
REMARK    5  A    between atoms: C_10  and  C_11 
ROOT
HETATM    1  N   UNL     2     -40.326 -52.650  13.466  1.00  0.00    -0.275 N 
HETATM    2  C   UNL     2     -39.832 -51.411  13.303  1.00  0.00     0.134 A 
HETATM    3  C   UNL     2     -40.180 -51.023  12.030  1.00  0.00     0.043 A 
HETATM    4  N   UNL     2     -40.865 -52.033  11.454  1.00  0.00    -0.287 N 
ATOM      5  HN  UNL     2     -41.256 -52.042  10.512  1.00  0.00     0.184 HD
HETATM    6  N   UNL     2     -40.933 -53.012  12.346  1.00  0.00    -0.020 NA
ENDROOT
BRANCH   3   7
HETATM    7  C   UNL     2     -39.898 -49.701  11.384  1.00  0.00     0.094 C 
BRANCH   7   8
HETATM    8  C   UNL     2     -41.030 -48.690  11.622  1.00  0.00     0.184 A 
HETATM    9  N   UNL     2     -42.172 -48.924  10.762  1.00  0.00    -0.329 N 
HETATM   10  C   UNL     2     -42.379 -47.823  10.010  1.00  0.00     0.323 A 
HETATM   11  H   UNL     2     -42.751 -49.776  10.740  1.00  0.00     0.165 HD
HETATM   12  O   UNL     2     -43.287 -47.719   9.204  1.00  0.00    -0.247 OA
HETATM   13  N   UNL     2     -41.484 -46.848  10.244  1.00  0.00    -0.278 N 
HETATM   14  C   UNL     2     -40.647 -47.303  11.191  1.00  0.00     0.248 A 
HETATM   15  H   UNL     2     -41.452 -45.924   9.790  1.00  0.00     0.173 HD
HETATM   16  O   UNL     2     -39.718 -46.650  11.639  1.00  0.00    -0.271 OA
ENDBRANCH   7   8
ENDBRANCH   3   7
BRANCH   1  17
HETATM   17  C   UNL     2     -40.239 -53.469  14.668  1.00  0.00     0.255 C 
BRANCH  17  18
HETATM   18  C   UNL     2     -39.305 -54.627  14.439  1.00  0.00     0.159 C 
HETATM   19  O   UNL     2     -39.209 -55.507  15.279  1.00  0.00    -0.649 OA
BRANCH  18  20
HETATM   20  O   UNL     2     -38.566 -54.702  13.313  1.00  0.00    -0.775 OA
HETATM   21  H   UNL     2     -38.044 -55.489  13.099  1.00  0.00     0.167 HD
ENDBRANCH  18  20
ENDBRANCH  17  18
ENDBRANCH   1  17
TORSDOF 5
ENDMDL
MODEL 6
REMARK VINA RESULT:      -5.5      3.088      7.191
REMARK  5 active torsions:
REMARK  status: ('A' for Active; 'I' for Inactive)
REMARK    1  A    between atoms: O_3  and  C_4 
REMARK    2  A    between atoms: C_4  and  C_6 
REMARK    3  A    between atoms: C_6  and  N_7 
REMARK    4  A    between atoms: C_9  and  C_10 
REMARK    5  A    between atoms: C_10  and  C_11 
ROOT
HETATM    1  N   UNL     2     -41.710 -45.299  11.494  1.00  0.00    -0.275 N 
HETATM    2  C   UNL     2     -41.565 -46.469  12.140  1.00  0.00     0.134 A 
HETATM    3  C   UNL     2     -40.795 -47.264  11.323  1.00  0.00     0.043 A 
HETATM    4  N   UNL     2     -40.501 -46.564  10.207  1.00  0.00    -0.287 N 
ATOM      5  HN  UNL     2     -39.943 -46.888   9.417  1.00  0.00     0.184 HD
HETATM    6  N   UNL     2     -41.076 -45.376  10.335  1.00  0.00    -0.020 NA
ENDROOT
BRANCH   3   7
HETATM    7  C   UNL     2     -40.315 -48.654  11.614  1.00  0.00     0.094 C 
BRANCH   7   8
HETATM    8  C   UNL     2     -38.787 -48.720  11.748  1.00  0.00     0.184 A 
HETATM    9  N   UNL     2     -38.232 -49.933  11.180  1.00  0.00    -0.329 N 
HETATM   10  C   UNL     2     -37.582 -50.606  12.152  1.00  0.00     0.323 A 
HETATM   11  H   UNL     2     -38.297 -50.226  10.195  1.00  0.00     0.165 HD
HETATM   12  O   UNL     2     -36.996 -51.659  11.966  1.00  0.00    -0.247 OA
HETATM   13  N   UNL     2     -37.642 -49.996  13.348  1.00  0.00    -0.278 N 
HETATM   14  C   UNL     2     -38.352 -48.868  13.178  1.00  0.00     0.248 A 
HETATM   15  H   UNL     2     -37.217 -50.327  14.227  1.00  0.00     0.173 HD
HETATM   16  O   UNL     2     -38.582 -48.075  14.077  1.00  0.00    -0.271 OA
ENDBRANCH   7   8
ENDBRANCH   3   7
BRANCH   1  17
HETATM   17  C   UNL     2     -42.423 -44.123  11.977  1.00  0.00     0.255 C 
BRANCH  17  18
HETATM   18  C   UNL     2     -42.856 -43.268  10.817  1.00  0.00     0.159 C 
HETATM   19  O   UNL     2     -42.360 -42.164  10.656  1.00  0.00    -0.649 OA
BRANCH  18  20
HETATM   20  O   UNL     2     -43.792 -43.707   9.949  1.00  0.00    -0.775 OA
HETATM   21  H   UNL     2     -44.563 -43.170   9.720  1.00  0.00     0.167 HD
ENDBRANCH  18  20
ENDBRANCH  17  18
ENDBRANCH   1  17
TORSDOF 5
ENDMDL
MODEL 7
REMARK VINA RESULT:      -5.4      5.171      6.401
REMARK  5 active torsions:
REMARK  status: ('A' for Active; 'I' for Inactive)
REMARK    1  A    between atoms: O_3  and  C_4 
REMARK    2  A    between atoms: C_4  and  C_6 
REMARK    3  A    between atoms: C_6  and  N_7 
REMARK    4  A    between atoms: C_9  and  C_10 
REMARK    5  A    between atoms: C_10  and  C_11 
ROOT
HETATM    1  N   UNL     2     -41.220 -50.375  12.161  1.00  0.00    -0.275 N 
HETATM    2  C   UNL     2     -42.306 -50.942  12.714  1.00  0.00     0.134 A 
HETATM    3  C   UNL     2     -42.312 -52.251  12.292  1.00  0.00     0.043 A 
HETATM    4  N   UNL     2     -41.242 -52.442  11.492  1.00  0.00    -0.287 N 
ATOM      5  HN  UNL     2     -40.977 -53.311  11.029  1.00  0.00     0.184 HD
HETATM    6  N   UNL     2     -40.600 -51.283  11.425  1.00  0.00    -0.020 NA
ENDROOT
BRANCH   3   7
HETATM    7  C   UNL     2     -43.300 -53.313  12.670  1.00  0.00     0.094 C 
BRANCH   7   8
HETATM    8  C   UNL     2     -44.425 -52.764  13.560  1.00  0.00     0.184 A 
HETATM    9  N   UNL     2     -44.509 -53.449  14.834  1.00  0.00    -0.329 N 
HETATM   10  C   UNL     2     -45.733 -54.007  14.943  1.00  0.00     0.323 A 
HETATM   11  H   UNL     2     -43.772 -53.487  15.552  1.00  0.00     0.165 HD
HETATM   12  O   UNL     2     -46.102 -54.633  15.921  1.00  0.00    -0.247 OA
HETATM   13  N   UNL     2     -46.508 -53.796  13.865  1.00  0.00    -0.278 N 
HETATM   14  C   UNL     2     -45.785 -53.066  12.999  1.00  0.00     0.248 A 
HETATM   15  H   UNL     2     -47.475 -54.125  13.732  1.00  0.00     0.173 HD
HETATM   16  O   UNL     2     -46.207 -52.694  11.916  1.00  0.00    -0.271 OA
ENDBRANCH   7   8
ENDBRANCH   3   7
BRANCH   1  17
HETATM   17  C   UNL     2     -40.770 -49.000  12.342  1.00  0.00     0.255 C 
BRANCH  17  18
HETATM   18  C   UNL     2     -41.024 -48.204  11.091  1.00  0.00     0.159 C 
HETATM   19  O   UNL     2     -40.861 -46.994  11.096  1.00  0.00    -0.649 OA
BRANCH  18  20
HETATM   20  O   UNL     2     -41.436 -48.812   9.959  1.00  0.00    -0.775 OA
HETATM   21  H   UNL     2     -42.340 -48.712   9.629  1.00  0.00     0.167 HD
ENDBRANCH  18  20
ENDBRANCH  17  18
ENDBRANCH   1  17
TORSDOF 5
ENDMDL
MODEL 8
REMARK VINA RESULT:      -5.4      4.427      5.875
REMARK  5 active torsions:
REMARK  status: ('A' for Active; 'I' for Inactive)
REMARK    1  A    between atoms: O_3  and  C_4 
REMARK    2  A    between atoms: C_4  and  C_6 
REMARK    3  A    between atoms: C_6  and  N_7 
REMARK    4  A    between atoms: C_9  and  C_10 
REMARK    5  A    between atoms: C_10  and  C_11 
ROOT
HETATM    1  N   UNL     2     -43.527 -52.585  13.540  1.00  0.00    -0.275 N 
HETATM    2  C   UNL     2     -42.675 -51.548  13.598  1.00  0.00     0.134 A 
HETATM    3  C   UNL     2     -41.990 -51.546  12.406  1.00  0.00     0.043 A 
HETATM    4  N   UNL     2     -42.434 -52.581  11.662  1.00  0.00    -0.287 N 
ATOM      5  HN  UNL     2     -42.117 -52.838  10.727  1.00  0.00     0.184 HD
HETATM    6  N   UNL     2     -43.363 -53.199  12.378  1.00  0.00    -0.020 NA
ENDROOT
BRANCH   3   7
HETATM    7  C   UNL     2     -40.954 -50.557  11.965  1.00  0.00     0.094 C 
BRANCH   7   8
HETATM    8  C   UNL     2     -41.486 -49.116  11.989  1.00  0.00     0.184 A 
HETATM    9  N   UNL     2     -42.549 -48.902  11.027  1.00  0.00    -0.329 N 
HETATM   10  C   UNL     2     -42.165 -47.935  10.168  1.00  0.00     0.323 A 
HETATM   11  H   UNL     2     -43.459 -49.384  11.010  1.00  0.00     0.165 HD
HETATM   12  O   UNL     2     -42.865 -47.526   9.258  1.00  0.00    -0.247 OA
HETATM   13  N   UNL     2     -40.932 -47.464  10.420  1.00  0.00    -0.278 N 
HETATM   14  C   UNL     2     -40.468 -48.131  11.491  1.00  0.00     0.248 A 
HETATM   15  H   UNL     2     -40.439 -46.725   9.897  1.00  0.00     0.173 HD
HETATM   16  O   UNL     2     -39.370 -47.930  11.985  1.00  0.00    -0.271 OA
ENDBRANCH   7   8
ENDBRANCH   3   7
BRANCH   1  17
HETATM   17  C   UNL     2     -44.492 -52.976  14.560  1.00  0.00     0.255 C 
BRANCH  17  18
HETATM   18  C   UNL     2     -45.769 -53.438  13.913  1.00  0.00     0.159 C 
HETATM   19  O   UNL     2     -46.771 -52.743  13.980  1.00  0.00    -0.649 OA
BRANCH  18  20
HETATM   20  O   UNL     2     -45.823 -54.618  13.260  1.00  0.00    -0.775 OA
HETATM   21  H   UNL     2     -45.027 -55.040  12.907  1.00  0.00     0.167 HD
ENDBRANCH  18  20
ENDBRANCH  17  18
ENDBRANCH   1  17
TORSDOF 5
ENDMDL
MODEL 9
REMARK VINA RESULT:      -5.3      4.034      6.276
REMARK  5 active torsions:
REMARK  status: ('A' for Active; 'I' for Inactive)
REMARK    1  A    between atoms: O_3  and  C_4 
REMARK    2  A    between atoms: C_4  and  C_6 
REMARK    3  A    between atoms: C_6  and  N_7 
REMARK    4  A    between atoms: C_9  and  C_10 
REMARK    5  A    between atoms: C_10  and  C_11 
ROOT
HETATM    1  N   UNL     2     -42.791 -47.049   9.793  1.00  0.00    -0.275 N 
HETATM    2  C   UNL     2     -42.339 -45.819  10.089  1.00  0.00     0.134 A 
HETATM    3  C   UNL     2     -41.054 -45.984  10.552  1.00  0.00     0.043 A 
HETATM    4  N   UNL     2     -40.765 -47.302  10.534  1.00  0.00    -0.287 N 
ATOM      5  HN  UNL     2     -39.886 -47.735  10.819  1.00  0.00     0.184 HD
HETATM    6  N   UNL     2     -41.841 -47.926  10.075  1.00  0.00    -0.020 NA
ENDROOT
BRANCH   3   7
HETATM    7  C   UNL     2     -40.104 -44.903  10.972  1.00  0.00     0.094 C 
BRANCH   7   8
HETATM    8  C   UNL     2     -40.725 -43.962  12.015  1.00  0.00     0.184 A 
HETATM    9  N   UNL     2     -41.140 -42.697  11.443  1.00  0.00    -0.329 N 
HETATM   10  C   UNL     2     -40.471 -41.703  12.064  1.00  0.00     0.323 A 
HETATM   11  H   UNL     2     -41.844 -42.568  10.703  1.00  0.00     0.165 HD
HETATM   12  O   UNL     2     -40.629 -40.522  11.806  1.00  0.00    -0.247 OA
HETATM   13  N   UNL     2     -39.617 -42.147  13.001  1.00  0.00    -0.278 N 
HETATM   14  C   UNL     2     -39.715 -43.487  13.019  1.00  0.00     0.248 A 
HETATM   15  H   UNL     2     -39.008 -41.569  13.599  1.00  0.00     0.173 HD
HETATM   16  O   UNL     2     -39.071 -44.199  13.773  1.00  0.00    -0.271 OA
ENDBRANCH   7   8
ENDBRANCH   3   7
BRANCH   1  17
HETATM   17  C   UNL     2     -44.096 -47.384   9.237  1.00  0.00     0.255 C 
BRANCH  17  18
HETATM   18  C   UNL     2     -43.948 -47.844   7.812  1.00  0.00     0.159 C 
HETATM   19  O   UNL     2     -44.807 -48.549   7.307  1.00  0.00    -0.649 OA
BRANCH  18  20
HETATM   20  O   UNL     2     -42.869 -47.488   7.082  1.00  0.00    -0.775 OA
HETATM   21  H   UNL     2     -42.759 -46.588   6.745  1.00  0.00     0.167 HD
ENDBRANCH  18  20
ENDBRANCH  17  18
ENDBRANCH   1  17
TORSDOF 5
ENDMDL
