MODEL 1
REMARK VINA RESULT:      -6.4      0.000      0.000
REMARK  6 active torsions:
REMARK  status: ('A' for Active; 'I' for Inactive)
REMARK    1  A    between atoms: C_2  and  C_4 
REMARK    2  A    between atoms: C_4  and  N_6 
REMARK       I    between atoms: N_6  and  C_7 
REMARK    3  A    between atoms: C_7  and  C_9 
REMARK    4  A    between atoms: C_9  and  N_10 
REMARK    5  A    between atoms: C_11  and  C_20 
REMARK    6  A    between atoms: C_14  and  C_15 
REMARK       I    between atoms: C_15  and  N_17 
ROOT
HETATM    1  N   UNL     1     -41.737 -53.512  13.234  1.00  0.00    -0.300 N 
HETATM    2  C   UNL     1     -41.118 -54.203  14.300  1.00  0.00     0.122 A 
HETATM    3  C   UNL     1     -41.893 -54.948  15.116  1.00  0.00     0.036 A 
HETATM    4  C   UNL     1     -43.309 -55.080  14.910  1.00  0.00     0.025 A 
HETATM    5  C   UNL     1     -43.933 -54.447  13.905  1.00  0.00     0.100 A 
HETATM    6  C   UNL     1     -43.120 -53.588  12.998  1.00  0.00     0.264 A 
HETATM    7  O   UNL     1     -43.659 -52.993  12.058  1.00  0.00    -0.267 OA
ENDROOT
BRANCH   1   8
HETATM    8  C   UNL     1     -40.984 -52.760  12.228  1.00  0.00     0.235 C 
BRANCH   8   9
HETATM    9  C   UNL     1     -41.004 -51.271  12.585  1.00  0.00     0.236 C 
HETATM   10  N   UNL     1     -41.766 -50.497  11.730  1.00  0.00    -0.355 N 
HETATM   11  H   UNL     1     -42.200 -50.955  10.932  1.00  0.00     0.162 HD
HETATM   12  O   UNL     1     -40.320 -50.806  13.493  1.00  0.00    -0.272 OA
BRANCH  10  13
HETATM   13  C   UNL     1     -41.929 -49.057  11.898  1.00  0.00     0.083 C 
HETATM   14  C   UNL     1     -43.368 -48.740  12.311  1.00  0.00     0.032 C 
BRANCH  13  15
HETATM   15  C   UNL     1     -41.488 -48.255  10.644  1.00  0.00    -0.000 C 
HETATM   16  C   UNL     1     -42.696 -47.824   9.803  1.00  0.00     0.011 C 
HETATM   17  C   UNL     1     -40.611 -47.038  10.953  1.00  0.00     0.011 C 
ENDBRANCH  13  15
ENDBRANCH  10  13
ENDBRANCH   8   9
ENDBRANCH   1   8
BRANCH   2  18
HETATM   18  C   UNL     1     -39.625 -54.162  14.621  1.00  0.00     0.432 C 
HETATM   19  F   UNL     1     -39.120 -52.946  14.925  1.00  0.00    -0.165 F 
HETATM   20  F   UNL     1     -39.350 -54.961  15.690  1.00  0.00    -0.165 F 
HETATM   21  F   UNL     1     -38.886 -54.647  13.588  1.00  0.00    -0.165 F 
ENDBRANCH   2  18
BRANCH   5  22
HETATM   22  C   UNL     1     -45.398 -54.676  13.746  1.00  0.00     0.254 C 
HETATM   23  O   UNL     1     -45.920 -55.777  13.890  1.00  0.00    -0.268 OA
HETATM   24  N   UNL     1     -46.150 -53.593  13.423  1.00  0.00    -0.366 N 
HETATM   25  H   UNL     1     -45.740 -52.670  13.302  1.00  0.00     0.159 HD
HETATM   26  H   UNL     1     -47.145 -53.711  13.293  1.00  0.00     0.159 HD
ENDBRANCH   5  22
TORSDOF 6
ENDMDL
MODEL 2
REMARK VINA RESULT:      -6.3      1.499      1.930
REMARK  6 active torsions:
REMARK  status: ('A' for Active; 'I' for Inactive)
REMARK    1  A    between atoms: C_2  and  C_4 
REMARK    2  A    between atoms: C_4  and  N_6 
REMARK       I    between atoms: N_6  and  C_7 
REMARK    3  A    between atoms: C_7  and  C_9 
REMARK    4  A    between atoms: C_9  and  N_10 
REMARK    5  A    between atoms: C_11  and  C_20 
REMARK    6  A    between atoms: C_14  and  C_15 
REMARK       I    between atoms: C_15  and  N_17 
ROOT
HETATM    1  N   UNL     1     -41.749 -53.711  13.360  1.00  0.00    -0.300 N 
HETATM    2  C   UNL     1     -41.174 -54.389  14.458  1.00  0.00     0.122 A 
HETATM    3  C   UNL     1     -41.989 -55.088  15.276  1.00  0.00     0.036 A 
HETATM    4  C   UNL     1     -43.403 -55.184  15.043  1.00  0.00     0.025 A 
HETATM    5  C   UNL     1     -43.986 -54.562  14.007  1.00  0.00     0.100 A 
HETATM    6  C   UNL     1     -43.129 -53.752  13.095  1.00  0.00     0.264 A 
HETATM    7  O   UNL     1     -43.628 -53.169  12.127  1.00  0.00    -0.267 OA
ENDROOT
BRANCH   1   8
HETATM    8  C   UNL     1     -40.953 -53.010  12.351  1.00  0.00     0.235 C 
BRANCH   8   9
HETATM    9  C   UNL     1     -40.790 -51.543  12.759  1.00  0.00     0.236 C 
HETATM   10  N   UNL     1     -40.149 -50.763  11.815  1.00  0.00    -0.355 N 
HETATM   11  H   UNL     1     -39.806 -51.220  10.973  1.00  0.00     0.162 HD
HETATM   12  O   UNL     1     -41.116 -51.132  13.869  1.00  0.00    -0.272 OA
BRANCH  10  13
HETATM   13  C   UNL     1     -39.904 -49.337  12.000  1.00  0.00     0.083 C 
HETATM   14  C   UNL     1     -40.680 -48.535  10.952  1.00  0.00     0.032 C 
BRANCH  13  15
HETATM   15  C   UNL     1     -38.391 -48.985  12.004  1.00  0.00    -0.000 C 
HETATM   16  C   UNL     1     -37.855 -48.841  13.433  1.00  0.00     0.011 C 
HETATM   17  C   UNL     1     -37.516 -49.967  11.219  1.00  0.00     0.011 C 
ENDBRANCH  13  15
ENDBRANCH  10  13
ENDBRANCH   8   9
ENDBRANCH   1   8
BRANCH   2  18
HETATM   18  C   UNL     1     -39.689 -54.383  14.811  1.00  0.00     0.432 C 
HETATM   19  F   UNL     1     -39.158 -53.178  15.113  1.00  0.00    -0.165 F 
HETATM   20  F   UNL     1     -39.457 -55.177  15.895  1.00  0.00    -0.165 F 
HETATM   21  F   UNL     1     -38.940 -54.900  13.800  1.00  0.00    -0.165 F 
ENDBRANCH   2  18
BRANCH   5  22
HETATM   22  C   UNL     1     -45.453 -54.753  13.821  1.00  0.00     0.254 C 
HETATM   23  O   UNL     1     -46.001 -55.846  13.918  1.00  0.00    -0.268 OA
HETATM   24  N   UNL     1     -46.178 -53.641  13.529  1.00  0.00    -0.366 N 
HETATM   25  H   UNL     1     -45.746 -52.724  13.447  1.00  0.00     0.159 HD
HETATM   26  H   UNL     1     -47.173 -53.732  13.382  1.00  0.00     0.159 HD
ENDBRANCH   5  22
TORSDOF 6
ENDMDL
MODEL 3
REMARK VINA RESULT:      -6.0      3.086      6.419
REMARK  6 active torsions:
REMARK  status: ('A' for Active; 'I' for Inactive)
REMARK    1  A    between atoms: C_2  and  C_4 
REMARK    2  A    between atoms: C_4  and  N_6 
REMARK       I    between atoms: N_6  and  C_7 
REMARK    3  A    between atoms: C_7  and  C_9 
REMARK    4  A    between atoms: C_9  and  N_10 
REMARK    5  A    between atoms: C_11  and  C_20 
REMARK    6  A    between atoms: C_14  and  C_15 
REMARK       I    between atoms: C_15  and  N_17 
ROOT
HETATM    1  N   UNL     1     -43.360 -52.476  12.955  1.00  0.00    -0.300 N 
HETATM    2  C   UNL     1     -44.375 -51.619  13.436  1.00  0.00     0.122 A 
HETATM    3  C   UNL     1     -44.167 -50.287  13.383  1.00  0.00     0.036 A 
HETATM    4  C   UNL     1     -42.967 -49.725  12.826  1.00  0.00     0.025 A 
HETATM    5  C   UNL     1     -41.984 -50.504  12.351  1.00  0.00     0.100 A 
HETATM    6  C   UNL     1     -42.158 -51.983  12.419  1.00  0.00     0.264 A 
HETATM    7  O   UNL     1     -41.276 -52.733  11.987  1.00  0.00    -0.267 OA
ENDROOT
BRANCH   1   8
HETATM    8  C   UNL     1     -43.519 -53.929  12.868  1.00  0.00     0.235 C 
BRANCH   8   9
HETATM    9  C   UNL     1     -43.121 -54.566  14.203  1.00  0.00     0.236 C 
HETATM   10  N   UNL     1     -41.808 -54.335  14.569  1.00  0.00    -0.355 N 
HETATM   11  H   UNL     1     -41.218 -53.818  13.922  1.00  0.00     0.162 HD
HETATM   12  O   UNL     1     -43.882 -55.296  14.833  1.00  0.00    -0.272 OA
BRANCH  10  13
HETATM   13  C   UNL     1     -41.231 -54.841  15.809  1.00  0.00     0.083 C 
HETATM   14  C   UNL     1     -41.501 -53.857  16.950  1.00  0.00     0.032 C 
BRANCH  13  15
HETATM   15  C   UNL     1     -39.722 -55.180  15.672  1.00  0.00    -0.000 C 
HETATM   16  C   UNL     1     -39.151 -54.665  14.346  1.00  0.00     0.011 C 
HETATM   17  C   UNL     1     -38.859 -54.683  16.836  1.00  0.00     0.011 C 
ENDBRANCH  13  15
ENDBRANCH  10  13
ENDBRANCH   8   9
ENDBRANCH   1   8
BRANCH   2  18
HETATM   18  C   UNL     1     -45.700 -52.082  14.037  1.00  0.00     0.432 C 
HETATM   19  F   UNL     1     -46.372 -53.021  13.334  1.00  0.00    -0.165 F 
HETATM   20  F   UNL     1     -45.497 -52.615  15.276  1.00  0.00    -0.165 F 
HETATM   21  F   UNL     1     -46.553 -51.038  14.213  1.00  0.00    -0.165 F 
ENDBRANCH   2  18
BRANCH   5  22
HETATM   22  C   UNL     1     -40.794 -49.832  11.754  1.00  0.00     0.254 C 
HETATM   23  O   UNL     1     -40.075 -49.064  12.386  1.00  0.00    -0.268 OA
HETATM   24  N   UNL     1     -40.532 -50.106  10.450  1.00  0.00    -0.366 N 
HETATM   25  H   UNL     1     -41.112 -50.742   9.907  1.00  0.00     0.159 HD
HETATM   26  H   UNL     1     -39.743 -49.659  10.006  1.00  0.00     0.159 HD
ENDBRANCH   5  22
TORSDOF 6
ENDMDL
MODEL 4
REMARK VINA RESULT:      -5.9      3.243      4.528
REMARK  6 active torsions:
REMARK  status: ('A' for Active; 'I' for Inactive)
REMARK    1  A    between atoms: C_2  and  C_4 
REMARK    2  A    between atoms: C_4  and  N_6 
REMARK       I    between atoms: N_6  and  C_7 
REMARK    3  A    between atoms: C_7  and  C_9 
REMARK    4  A    between atoms: C_9  and  N_10 
REMARK    5  A    between atoms: C_11  and  C_20 
REMARK    6  A    between atoms: C_14  and  C_15 
REMARK       I    between atoms: C_15  and  N_17 
ROOT
HETATM    1  N   UNL     1     -41.521 -53.915  13.488  1.00  0.00    -0.300 N 
HETATM    2  C   UNL     1     -42.749 -54.294  14.074  1.00  0.00     0.122 A 
HETATM    3  C   UNL     1     -42.719 -54.977  15.238  1.00  0.00     0.036 A 
HETATM    4  C   UNL     1     -41.486 -55.295  15.903  1.00  0.00     0.025 A 
HETATM    5  C   UNL     1     -40.299 -54.945  15.384  1.00  0.00     0.100 A 
HETATM    6  C   UNL     1     -40.284 -54.217  14.083  1.00  0.00     0.264 A 
HETATM    7  O   UNL     1     -39.210 -53.875  13.576  1.00  0.00    -0.267 OA
ENDROOT
BRANCH   1   8
HETATM    8  C   UNL     1     -41.435 -53.086  12.285  1.00  0.00     0.235 C 
BRANCH   8   9
HETATM    9  C   UNL     1     -41.124 -51.640  12.684  1.00  0.00     0.236 C 
HETATM   10  N   UNL     1     -39.962 -51.139  12.129  1.00  0.00    -0.355 N 
HETATM   11  H   UNL     1     -39.398 -51.764  11.558  1.00  0.00     0.162 HD
HETATM   12  O   UNL     1     -41.805 -51.026  13.501  1.00  0.00    -0.272 OA
BRANCH  10  13
HETATM   13  C   UNL     1     -39.491 -49.779  12.370  1.00  0.00     0.083 C 
HETATM   14  C   UNL     1     -40.132 -48.820  11.365  1.00  0.00     0.032 C 
BRANCH  13  15
HETATM   15  C   UNL     1     -37.941 -49.675  12.374  1.00  0.00    -0.000 C 
HETATM   16  C   UNL     1     -37.322 -50.590  13.436  1.00  0.00     0.011 C 
HETATM   17  C   UNL     1     -37.291 -49.944  11.014  1.00  0.00     0.011 C 
ENDBRANCH  13  15
ENDBRANCH  10  13
ENDBRANCH   8   9
ENDBRANCH   1   8
BRANCH   2  18
HETATM   18  C   UNL     1     -44.127 -54.007  13.483  1.00  0.00     0.432 C 
HETATM   19  F   UNL     1     -44.508 -52.711  13.473  1.00  0.00    -0.165 F 
HETATM   20  F   UNL     1     -44.180 -54.423  12.185  1.00  0.00    -0.165 F 
HETATM   21  F   UNL     1     -45.098 -54.697  14.138  1.00  0.00    -0.165 F 
ENDBRANCH   2  18
BRANCH   5  22
HETATM   22  C   UNL     1     -39.075 -55.282  16.166  1.00  0.00     0.254 C 
HETATM   23  O   UNL     1     -38.686 -56.433  16.333  1.00  0.00    -0.268 OA
HETATM   24  N   UNL     1     -38.391 -54.237  16.702  1.00  0.00    -0.366 N 
HETATM   25  H   UNL     1     -38.693 -53.274  16.573  1.00  0.00     0.159 HD
HETATM   26  H   UNL     1     -37.564 -54.426  17.250  1.00  0.00     0.159 HD
ENDBRANCH   5  22
TORSDOF 6
ENDMDL
MODEL 5
REMARK VINA RESULT:      -5.8      2.921      3.881
REMARK  6 active torsions:
REMARK  status: ('A' for Active; 'I' for Inactive)
REMARK    1  A    between atoms: C_2  and  C_4 
REMARK    2  A    between atoms: C_4  and  N_6 
REMARK       I    between atoms: N_6  and  C_7 
REMARK    3  A    between atoms: C_7  and  C_9 
REMARK    4  A    between atoms: C_9  and  N_10 
REMARK    5  A    between atoms: C_11  and  C_20 
REMARK    6  A    between atoms: C_14  and  C_15 
REMARK       I    between atoms: C_15  and  N_17 
ROOT
HETATM    1  N   UNL     1     -41.285 -53.653  13.323  1.00  0.00    -0.300 N 
HETATM    2  C   UNL     1     -42.605 -53.817  13.799  1.00  0.00     0.122 A 
HETATM    3  C   UNL     1     -42.793 -54.522  14.934  1.00  0.00     0.036 A 
HETATM    4  C   UNL     1     -41.695 -55.074  15.678  1.00  0.00     0.025 A 
HETATM    5  C   UNL     1     -40.427 -54.934  15.264  1.00  0.00     0.100 A 
HETATM    6  C   UNL     1     -40.175 -54.189  13.998  1.00  0.00     0.264 A 
HETATM    7  O   UNL     1     -39.020 -54.035  13.587  1.00  0.00    -0.267 OA
ENDROOT
BRANCH   1   8
HETATM    8  C   UNL     1     -40.954 -52.823  12.163  1.00  0.00     0.235 C 
BRANCH   8   9
HETATM    9  C   UNL     1     -40.982 -51.346  12.567  1.00  0.00     0.236 C 
HETATM   10  N   UNL     1     -41.721 -50.543  11.719  1.00  0.00    -0.355 N 
HETATM   11  H   UNL     1     -42.133 -50.974  10.895  1.00  0.00     0.162 HD
HETATM   12  O   UNL     1     -40.323 -50.912  13.508  1.00  0.00    -0.272 OA
BRANCH  10  13
HETATM   13  C   UNL     1     -41.887 -49.109  11.929  1.00  0.00     0.083 C 
HETATM   14  C   UNL     1     -43.331 -48.807  12.337  1.00  0.00     0.032 C 
BRANCH  13  15
HETATM   15  C   UNL     1     -41.435 -48.268  10.705  1.00  0.00    -0.000 C 
HETATM   16  C   UNL     1     -42.635 -47.782   9.886  1.00  0.00     0.011 C 
HETATM   17  C   UNL     1     -40.533 -47.082  11.058  1.00  0.00     0.011 C 
ENDBRANCH  13  15
ENDBRANCH  10  13
ENDBRANCH   8   9
ENDBRANCH   1   8
BRANCH   2  18
HETATM   18  C   UNL     1     -43.856 -53.270  13.116  1.00  0.00     0.432 C 
HETATM   19  F   UNL     1     -43.852 -53.297  11.765  1.00  0.00    -0.165 F 
HETATM   20  F   UNL     1     -44.954 -53.980  13.502  1.00  0.00    -0.165 F 
HETATM   21  F   UNL     1     -44.094 -51.982  13.482  1.00  0.00    -0.165 F 
ENDBRANCH   2  18
BRANCH   5  22
HETATM   22  C   UNL     1     -39.350 -55.506  16.123  1.00  0.00     0.254 C 
HETATM   23  O   UNL     1     -39.294 -56.696  16.417  1.00  0.00    -0.268 OA
HETATM   24  N   UNL     1     -38.412 -54.637  16.581  1.00  0.00    -0.366 N 
HETATM   25  H   UNL     1     -38.437 -53.647  16.347  1.00  0.00     0.159 HD
HETATM   26  H   UNL     1     -37.675 -54.984  17.177  1.00  0.00     0.159 HD
ENDBRANCH   5  22
TORSDOF 6
ENDMDL
MODEL 6
REMARK VINA RESULT:      -5.7      3.077      5.439
REMARK  6 active torsions:
REMARK  status: ('A' for Active; 'I' for Inactive)
REMARK    1  A    between atoms: C_2  and  C_4 
REMARK    2  A    between atoms: C_4  and  N_6 
REMARK       I    between atoms: N_6  and  C_7 
REMARK    3  A    between atoms: C_7  and  C_9 
REMARK    4  A    between atoms: C_9  and  N_10 
REMARK    5  A    between atoms: C_11  and  C_20 
REMARK    6  A    between atoms: C_14  and  C_15 
REMARK       I    between atoms: C_15  and  N_17 
ROOT
HETATM    1  N   UNL     1     -41.628 -53.720  15.768  1.00  0.00    -0.300 N 
HETATM    2  C   UNL     1     -40.748 -54.816  15.905  1.00  0.00     0.122 A 
HETATM    3  C   UNL     1     -39.849 -55.041  14.924  1.00  0.00     0.036 A 
HETATM    4  C   UNL     1     -39.744 -54.185  13.775  1.00  0.00     0.025 A 
HETATM    5  C   UNL     1     -40.556 -53.129  13.612  1.00  0.00     0.100 A 
HETATM    6  C   UNL     1     -41.586 -52.861  14.656  1.00  0.00     0.264 A 
HETATM    7  O   UNL     1     -42.348 -51.895  14.543  1.00  0.00    -0.267 OA
ENDROOT
BRANCH   1   8
HETATM    8  C   UNL     1     -42.571 -53.320  16.814  1.00  0.00     0.235 C 
BRANCH   8   9
HETATM    9  C   UNL     1     -43.931 -53.976  16.552  1.00  0.00     0.236 C 
HETATM   10  N   UNL     1     -44.639 -53.408  15.510  1.00  0.00    -0.355 N 
HETATM   11  H   UNL     1     -44.237 -52.597  15.046  1.00  0.00     0.162 HD
HETATM   12  O   UNL     1     -44.380 -54.861  17.275  1.00  0.00    -0.272 OA
BRANCH  10  13
HETATM   13  C   UNL     1     -45.950 -53.890  15.088  1.00  0.00     0.083 C 
HETATM   14  C   UNL     1     -45.790 -54.926  13.974  1.00  0.00     0.032 C 
BRANCH  13  15
HETATM   15  C   UNL     1     -46.910 -52.738  14.684  1.00  0.00    -0.000 C 
HETATM   16  C   UNL     1     -47.173 -51.791  15.860  1.00  0.00     0.011 C 
HETATM   17  C   UNL     1     -46.447 -51.934  13.465  1.00  0.00     0.011 C 
ENDBRANCH  13  15
ENDBRANCH  10  13
ENDBRANCH   8   9
ENDBRANCH   1   8
BRANCH   2  18
HETATM   18  C   UNL     1     -40.741 -55.793  17.079  1.00  0.00     0.432 C 
HETATM   19  F   UNL     1     -41.863 -56.529  17.241  1.00  0.00    -0.165 F 
HETATM   20  F   UNL     1     -39.721 -56.688  16.943  1.00  0.00    -0.165 F 
HETATM   21  F   UNL     1     -40.521 -55.148  18.255  1.00  0.00    -0.165 F 
ENDBRANCH   2  18
BRANCH   5  22
HETATM   22  C   UNL     1     -40.346 -52.274  12.409  1.00  0.00     0.254 C 
HETATM   23  O   UNL     1     -39.417 -51.479  12.309  1.00  0.00    -0.268 OA
HETATM   24  N   UNL     1     -41.249 -52.410  11.403  1.00  0.00    -0.366 N 
HETATM   25  H   UNL     1     -42.025 -53.064  11.462  1.00  0.00     0.159 HD
HETATM   26  H   UNL     1     -41.148 -51.837  10.577  1.00  0.00     0.159 HD
ENDBRANCH   5  22
TORSDOF 6
ENDMDL
MODEL 7
REMARK VINA RESULT:      -5.7      2.148      5.865
REMARK  6 active torsions:
REMARK  status: ('A' for Active; 'I' for Inactive)
REMARK    1  A    between atoms: C_2  and  C_4 
REMARK    2  A    between atoms: C_4  and  N_6 
REMARK       I    between atoms: N_6  and  C_7 
REMARK    3  A    between atoms: C_7  and  C_9 
REMARK    4  A    between atoms: C_9  and  N_10 
REMARK    5  A    between atoms: C_11  and  C_20 
REMARK    6  A    between atoms: C_14  and  C_15 
REMARK       I    between atoms: C_15  and  N_17 
ROOT
HETATM    1  N   UNL     1     -41.335 -50.773  13.098  1.00  0.00    -0.300 N 
HETATM    2  C   UNL     1     -39.963 -51.099  13.016  1.00  0.00     0.122 A 
HETATM    3  C   UNL     1     -39.197 -50.424  12.133  1.00  0.00     0.036 A 
HETATM    4  C   UNL     1     -39.728 -49.373  11.310  1.00  0.00     0.025 A 
HETATM    5  C   UNL     1     -41.024 -49.028  11.365  1.00  0.00     0.100 A 
HETATM    6  C   UNL     1     -41.914 -49.769  12.303  1.00  0.00     0.264 A 
HETATM    7  O   UNL     1     -43.112 -49.476  12.385  1.00  0.00    -0.267 OA
ENDROOT
BRANCH   1   8
HETATM    8  C   UNL     1     -42.237 -51.365  14.088  1.00  0.00     0.235 C 
BRANCH   8   9
HETATM    9  C   UNL     1     -43.175 -52.358  13.394  1.00  0.00     0.236 C 
HETATM   10  N   UNL     1     -44.517 -52.060  13.538  1.00  0.00    -0.355 N 
HETATM   11  H   UNL     1     -44.768 -51.260  14.114  1.00  0.00     0.162 HD
HETATM   12  O   UNL     1     -42.761 -53.375  12.846  1.00  0.00    -0.272 OA
BRANCH  10  13
HETATM   13  C   UNL     1     -45.576 -52.870  12.945  1.00  0.00     0.083 C 
HETATM   14  C   UNL     1     -46.638 -51.962  12.321  1.00  0.00     0.032 C 
BRANCH  13  15
HETATM   15  C   UNL     1     -46.188 -53.883  13.950  1.00  0.00    -0.000 C 
HETATM   16  C   UNL     1     -45.522 -55.259  13.834  1.00  0.00     0.011 C 
HETATM   17  C   UNL     1     -46.160 -53.416  15.408  1.00  0.00     0.011 C 
ENDBRANCH  13  15
ENDBRANCH  10  13
ENDBRANCH   8   9
ENDBRANCH   1   8
BRANCH   2  18
HETATM   18  C   UNL     1     -39.269 -52.180  13.841  1.00  0.00     0.432 C 
HETATM   19  F   UNL     1     -39.742 -53.436  13.686  1.00  0.00    -0.165 F 
HETATM   20  F   UNL     1     -37.943 -52.236  13.525  1.00  0.00    -0.165 F 
HETATM   21  F   UNL     1     -39.327 -51.899  15.170  1.00  0.00    -0.165 F 
ENDBRANCH   2  18
BRANCH   5  22
HETATM   22  C   UNL     1     -41.476 -47.898  10.503  1.00  0.00     0.254 C 
HETATM   23  O   UNL     1     -41.070 -46.748  10.643  1.00  0.00    -0.268 OA
HETATM   24  N   UNL     1     -42.381 -48.197   9.535  1.00  0.00    -0.366 N 
HETATM   25  H   UNL     1     -42.729 -49.143   9.398  1.00  0.00     0.159 HD
HETATM   26  H   UNL     1     -42.721 -47.456   8.940  1.00  0.00     0.159 HD
ENDBRANCH   5  22
TORSDOF 6
ENDMDL
MODEL 8
REMARK VINA RESULT:      -5.6      2.227      2.804
REMARK  6 active torsions:
REMARK  status: ('A' for Active; 'I' for Inactive)
REMARK    1  A    between atoms: C_2  and  C_4 
REMARK    2  A    between atoms: C_4  and  N_6 
REMARK       I    between atoms: N_6  and  C_7 
REMARK    3  A    between atoms: C_7  and  C_9 
REMARK    4  A    between atoms: C_9  and  N_10 
REMARK    5  A    between atoms: C_11  and  C_20 
REMARK    6  A    between atoms: C_14  and  C_15 
REMARK       I    between atoms: C_15  and  N_17 
ROOT
HETATM    1  N   UNL     1     -40.694 -54.237  14.470  1.00  0.00    -0.300 N 
HETATM    2  C   UNL     1     -41.021 -54.964  15.637  1.00  0.00     0.122 A 
HETATM    3  C   UNL     1     -42.316 -55.277  15.853  1.00  0.00     0.036 A 
HETATM    4  C   UNL     1     -43.351 -54.922  14.923  1.00  0.00     0.025 A 
HETATM    5  C   UNL     1     -43.080 -54.239  13.800  1.00  0.00     0.100 A 
HETATM    6  C   UNL     1     -41.667 -53.845  13.536  1.00  0.00     0.264 A 
HETATM    7  O   UNL     1     -41.378 -53.220  12.510  1.00  0.00    -0.267 OA
ENDROOT
BRANCH   1   8
HETATM    8  C   UNL     1     -39.315 -53.933  14.082  1.00  0.00     0.235 C 
BRANCH   8   9
HETATM    9  C   UNL     1     -38.967 -52.505  14.512  1.00  0.00     0.236 C 
HETATM   10  N   UNL     1     -39.084 -51.568  13.502  1.00  0.00    -0.355 N 
HETATM   11  H   UNL     1     -39.336 -51.897  12.574  1.00  0.00     0.162 HD
HETATM   12  O   UNL     1     -38.531 -52.246  15.630  1.00  0.00    -0.272 OA
BRANCH  10  13
HETATM   13  C   UNL     1     -38.811 -50.149  13.703  1.00  0.00     0.083 C 
HETATM   14  C   UNL     1     -39.934 -49.515  14.529  1.00  0.00     0.032 C 
BRANCH  13  15
HETATM   15  C   UNL     1     -38.565 -49.392  12.370  1.00  0.00    -0.000 C 
HETATM   16  C   UNL     1     -37.478 -50.074  11.532  1.00  0.00     0.011 C 
HETATM   17  C   UNL     1     -39.824 -49.191  11.521  1.00  0.00     0.011 C 
ENDBRANCH  13  15
ENDBRANCH  10  13
ENDBRANCH   8   9
ENDBRANCH   1   8
BRANCH   2  18
HETATM   18  C   UNL     1     -40.019 -55.416  16.697  1.00  0.00     0.432 C 
HETATM   19  F   UNL     1     -39.445 -54.433  17.424  1.00  0.00    -0.165 F 
HETATM   20  F   UNL     1     -40.625 -56.243  17.596  1.00  0.00    -0.165 F 
HETATM   21  F   UNL     1     -39.008 -56.138  16.144  1.00  0.00    -0.165 F 
ENDBRANCH   2  18
BRANCH   5  22
HETATM   22  C   UNL     1     -44.213 -53.952  12.874  1.00  0.00     0.254 C 
HETATM   23  O   UNL     1     -45.177 -54.700  12.746  1.00  0.00    -0.268 OA
HETATM   24  N   UNL     1     -44.133 -52.802  12.155  1.00  0.00    -0.366 N 
HETATM   25  H   UNL     1     -43.345 -52.164  12.247  1.00  0.00     0.159 HD
HETATM   26  H   UNL     1     -44.874 -52.579  11.507  1.00  0.00     0.159 HD
ENDBRANCH   5  22
TORSDOF 6
ENDMDL
MODEL 9
REMARK VINA RESULT:      -5.6      2.869      6.039
REMARK  6 active torsions:
REMARK  status: ('A' for Active; 'I' for Inactive)
REMARK    1  A    between atoms: C_2  and  C_4 
REMARK    2  A    between atoms: C_4  and  N_6 
REMARK       I    between atoms: N_6  and  C_7 
REMARK    3  A    between atoms: C_7  and  C_9 
REMARK    4  A    between atoms: C_9  and  N_10 
REMARK    5  A    between atoms: C_11  and  C_20 
REMARK    6  A    between atoms: C_14  and  C_15 
REMARK       I    between atoms: C_15  and  N_17 
ROOT
HETATM    1  N   UNL     1     -40.423 -49.750  12.228  1.00  0.00    -0.300 N 
HETATM    2  C   UNL     1     -39.178 -49.538  12.861  1.00  0.00     0.122 A 
HETATM    3  C   UNL     1     -38.869 -48.285  13.259  1.00  0.00     0.036 A 
HETATM    4  C   UNL     1     -39.776 -47.185  13.085  1.00  0.00     0.025 A 
HETATM    5  C   UNL     1     -40.970 -47.348  12.496  1.00  0.00     0.100 A 
HETATM    6  C   UNL     1     -41.340 -48.708  12.012  1.00  0.00     0.264 A 
HETATM    7  O   UNL     1     -42.434 -48.898  11.469  1.00  0.00    -0.267 OA
ENDROOT
BRANCH   1   8
HETATM    8  C   UNL     1     -40.907 -51.079  11.849  1.00  0.00     0.235 C 
BRANCH   8   9
HETATM    9  C   UNL     1     -41.890 -51.585  12.908  1.00  0.00     0.236 C 
HETATM   10  N   UNL     1     -43.143 -51.896  12.412  1.00  0.00    -0.355 N 
HETATM   11  H   UNL     1     -43.320 -51.724  11.425  1.00  0.00     0.162 HD
HETATM   12  O   UNL     1     -41.608 -51.614  14.103  1.00  0.00    -0.272 OA
BRANCH  10  13
HETATM   13  C   UNL     1     -44.222 -52.406  13.250  1.00  0.00     0.083 C 
HETATM   14  C   UNL     1     -44.668 -53.781  12.747  1.00  0.00     0.032 C 
BRANCH  13  15
HETATM   15  C   UNL     1     -45.409 -51.412  13.368  1.00  0.00    -0.000 C 
HETATM   16  C   UNL     1     -46.551 -51.789  12.417  1.00  0.00     0.011 C 
HETATM   17  C   UNL     1     -45.952 -51.247  14.790  1.00  0.00     0.011 C 
ENDBRANCH  13  15
ENDBRANCH  10  13
ENDBRANCH   8   9
ENDBRANCH   1   8
BRANCH   2  18
HETATM   18  C   UNL     1     -38.131 -50.618  13.121  1.00  0.00     0.432 C 
HETATM   19  F   UNL     1     -38.579 -51.742  13.723  1.00  0.00    -0.165 F 
HETATM   20  F   UNL     1     -37.566 -51.021  11.947  1.00  0.00    -0.165 F 
HETATM   21  F   UNL     1     -37.112 -50.143  13.885  1.00  0.00    -0.165 F 
ENDBRANCH   2  18
BRANCH   5  22
HETATM   22  C   UNL     1     -41.861 -46.156  12.397  1.00  0.00     0.254 C 
HETATM   23  O   UNL     1     -41.474 -45.065  11.990  1.00  0.00    -0.268 OA
HETATM   24  N   UNL     1     -43.151 -46.329  12.787  1.00  0.00    -0.366 N 
HETATM   25  H   UNL     1     -43.495 -47.225  13.125  1.00  0.00     0.159 HD
HETATM   26  H   UNL     1     -43.782 -45.541  12.748  1.00  0.00     0.159 HD
ENDBRANCH   5  22
TORSDOF 6
ENDMDL
