MODEL 1
REMARK VINA RESULT:      -6.9      0.000      0.000
REMARK  3 active torsions:
REMARK  status: ('A' for Active; 'I' for Inactive)
REMARK       I    between atoms: N_6  and  C_7 
REMARK    1  A    between atoms: C_7  and  C_9 
REMARK    2  A    between atoms: C_9  and  C_10 
REMARK    3  A    between atoms: C_13  and  N_16 
ROOT
HETATM    1  C   UNL     1     -41.231 -51.263  12.095  1.00  0.00     0.026 A 
HETATM    2  C   UNL     1     -40.698 -52.419  12.638  1.00  0.00     0.078 A 
HETATM    3  S   UNL     1     -41.895 -53.286  13.478  1.00  0.00    -0.064 SA
HETATM    4  C   UNL     1     -43.052 -52.109  13.054  1.00  0.00     0.155 A 
HETATM    5  N   UNL     1     -42.577 -51.065  12.393  1.00  0.00    -0.339 N 
ATOM      6  HN  UNL     1     -43.117 -50.238  12.139  1.00  0.00     0.168 HD
ENDROOT
BRANCH   1   7
HETATM    7  C   UNL     1     -40.486 -50.243  11.295  1.00  0.00     0.168 C 
BRANCH   7   8
HETATM    8  C   UNL     1     -41.097 -48.840  11.307  1.00  0.00     0.321 C 
HETATM    9  N   UNL     1     -42.068 -48.607  10.343  1.00  0.00    -0.009 N 
HETATM   10  C   UNL     1     -44.278 -47.508  10.172  1.00  0.00     0.185 A 
HETATM   11  H   UNL     1     -42.140 -49.260   9.565  1.00  0.00     0.290 HD
HETATM   12  C   UNL     1     -42.751 -47.338  10.246  1.00  0.00     0.289 A 
HETATM   13  C   UNL     1     -46.453 -46.997   9.122  1.00  0.00     0.018 A 
HETATM   14  C   UNL     1     -44.980 -47.310   8.801  1.00  0.00     0.049 A 
HETATM   15  C   UNL     1     -44.929 -48.312   7.634  1.00  0.00     0.007 C 
HETATM   16  O   UNL     1     -40.740 -48.006  12.136  1.00  0.00    -0.265 OA
ENDBRANCH   7   8
ENDBRANCH   1   7
BRANCH   4  17
HETATM   17  N   UNL     1     -44.380 -52.239  13.418  1.00  0.00    -0.278 N 
HETATM   18  C   UNL     1     -45.137 -51.249  14.154  1.00  0.00     0.155 C 
HETATM   19  C   UNL     1     -46.587 -51.708  14.033  1.00  0.00     0.145 C 
HETATM   20  N   UNL     1     -46.482 -53.051  13.547  1.00  0.00    -0.341 N 
HETATM   21  C   UNL     1     -45.205 -53.319  13.072  1.00  0.00     0.324 C 
HETATM   22  H   UNL     1     -47.248 -53.621  13.206  1.00  0.00     0.164 HD
HETATM   23  O   UNL     1     -44.962 -54.331  12.437  1.00  0.00    -0.247 OA
ENDBRANCH   4  17
TORSDOF 3
ENDMDL
MODEL 2
REMARK VINA RESULT:      -6.5      3.115      6.783
REMARK  3 active torsions:
REMARK  status: ('A' for Active; 'I' for Inactive)
REMARK       I    between atoms: N_6  and  C_7 
REMARK    1  A    between atoms: C_7  and  C_9 
REMARK    2  A    between atoms: C_9  and  C_10 
REMARK    3  A    between atoms: C_13  and  N_16 
ROOT
HETATM    1  C   UNL     1     -42.702 -52.930  12.515  1.00  0.00     0.026 A 
HETATM    2  C   UNL     1     -41.923 -53.702  13.360  1.00  0.00     0.078 A 
HETATM    3  S   UNL     1     -40.358 -53.050  13.483  1.00  0.00    -0.064 SA
HETATM    4  C   UNL     1     -40.801 -51.774  12.445  1.00  0.00     0.155 A 
HETATM    5  N   UNL     1     -42.026 -51.855  11.946  1.00  0.00    -0.339 N 
ATOM      6  HN  UNL     1     -42.415 -51.222  11.247  1.00  0.00     0.168 HD
ENDROOT
BRANCH   1   7
HETATM    7  C   UNL     1     -44.129 -53.189  12.155  1.00  0.00     0.168 C 
BRANCH   7   8
HETATM    8  C   UNL     1     -44.992 -53.744  13.291  1.00  0.00     0.321 C 
HETATM    9  N   UNL     1     -45.183 -52.885  14.365  1.00  0.00    -0.009 N 
HETATM   10  C   UNL     1     -47.021 -52.174  15.860  1.00  0.00     0.185 A 
HETATM   11  H   UNL     1     -44.571 -52.076  14.448  1.00  0.00     0.290 HD
HETATM   12  C   UNL     1     -45.993 -53.260  15.501  1.00  0.00     0.289 A 
HETATM   13  C   UNL     1     -48.126 -50.719  17.521  1.00  0.00     0.018 A 
HETATM   14  C   UNL     1     -46.756 -51.284  17.104  1.00  0.00     0.049 A 
HETATM   15  C   UNL     1     -45.714 -50.153  17.169  1.00  0.00     0.007 C 
HETATM   16  O   UNL     1     -45.477 -54.870  13.220  1.00  0.00    -0.265 OA
ENDBRANCH   7   8
ENDBRANCH   1   7
BRANCH   4  17
HETATM   17  N   UNL     1     -39.916 -50.759  12.129  1.00  0.00    -0.278 N 
HETATM   18  C   UNL     1     -38.492 -50.794  12.385  1.00  0.00     0.155 C 
HETATM   19  C   UNL     1     -37.933 -49.616  11.594  1.00  0.00     0.145 C 
HETATM   20  N   UNL     1     -39.093 -48.849  11.253  1.00  0.00    -0.341 N 
HETATM   21  C   UNL     1     -40.258 -49.577  11.457  1.00  0.00     0.324 C 
HETATM   22  H   UNL     1     -39.123 -48.073  10.601  1.00  0.00     0.164 HD
HETATM   23  O   UNL     1     -41.335 -49.183  11.044  1.00  0.00    -0.247 OA
ENDBRANCH   4  17
TORSDOF 3
ENDMDL
MODEL 3
REMARK VINA RESULT:      -6.2      3.249      3.724
REMARK  3 active torsions:
REMARK  status: ('A' for Active; 'I' for Inactive)
REMARK       I    between atoms: N_6  and  C_7 
REMARK    1  A    between atoms: C_7  and  C_9 
REMARK    2  A    between atoms: C_9  and  C_10 
REMARK    3  A    between atoms: C_13  and  N_16 
ROOT
HETATM    1  C   UNL     1     -39.450 -48.789  12.951  1.00  0.00     0.026 A 
HETATM    2  C   UNL     1     -39.102 -48.738  14.290  1.00  0.00     0.078 A 
HETATM    3  S   UNL     1     -39.192 -50.287  14.984  1.00  0.00    -0.064 SA
HETATM    4  C   UNL     1     -39.652 -50.941  13.480  1.00  0.00     0.155 A 
HETATM    5  N   UNL     1     -39.824 -50.056  12.510  1.00  0.00    -0.339 N 
ATOM      6  HN  UNL     1     -40.177 -50.271  11.578  1.00  0.00     0.168 HD
ENDROOT
BRANCH   1   7
HETATM    7  C   UNL     1     -39.496 -47.628  12.010  1.00  0.00     0.168 C 
BRANCH   7   8
HETATM    8  C   UNL     1     -40.829 -46.878  11.975  1.00  0.00     0.321 C 
HETATM    9  N   UNL     1     -41.587 -47.068  10.827  1.00  0.00    -0.009 N 
HETATM   10  C   UNL     1     -43.953 -47.450  10.216  1.00  0.00     0.185 A 
HETATM   11  H   UNL     1     -41.131 -47.471  10.011  1.00  0.00     0.290 HD
HETATM   12  C   UNL     1     -42.879 -46.443  10.660  1.00  0.00     0.289 A 
HETATM   13  C   UNL     1     -45.806 -48.103   8.721  1.00  0.00     0.018 A 
HETATM   14  C   UNL     1     -44.422 -47.431   8.736  1.00  0.00     0.049 A 
HETATM   15  C   UNL     1     -43.601 -47.962   7.548  1.00  0.00     0.007 C 
HETATM   16  O   UNL     1     -41.180 -46.175  12.920  1.00  0.00    -0.265 OA
ENDBRANCH   7   8
ENDBRANCH   1   7
BRANCH   4  17
HETATM   17  N   UNL     1     -39.863 -52.299  13.318  1.00  0.00    -0.278 N 
HETATM   18  C   UNL     1     -39.229 -53.335  14.103  1.00  0.00     0.155 C 
HETATM   19  C   UNL     1     -40.005 -54.603  13.763  1.00  0.00     0.145 C 
HETATM   20  N   UNL     1     -40.759 -54.242  12.600  1.00  0.00    -0.341 N 
HETATM   21  C   UNL     1     -40.772 -52.866  12.413  1.00  0.00     0.324 C 
HETATM   22  H   UNL     1     -41.502 -54.788  12.180  1.00  0.00     0.164 HD
HETATM   23  O   UNL     1     -41.516 -52.342  11.602  1.00  0.00    -0.247 OA
ENDBRANCH   4  17
TORSDOF 3
ENDMDL
MODEL 4
REMARK VINA RESULT:      -6.2      3.310      6.225
REMARK  3 active torsions:
REMARK  status: ('A' for Active; 'I' for Inactive)
REMARK       I    between atoms: N_6  and  C_7 
REMARK    1  A    between atoms: C_7  and  C_9 
REMARK    2  A    between atoms: C_9  and  C_10 
REMARK    3  A    between atoms: C_13  and  N_16 
ROOT
HETATM    1  C   UNL     1     -40.814 -48.028  11.047  1.00  0.00     0.026 A 
HETATM    2  C   UNL     1     -40.759 -46.645  11.057  1.00  0.00     0.078 A 
HETATM    3  S   UNL     1     -42.106 -45.994  10.250  1.00  0.00    -0.064 SA
HETATM    4  C   UNL     1     -42.700 -47.564   9.962  1.00  0.00     0.155 A 
HETATM    5  N   UNL     1     -41.907 -48.548  10.360  1.00  0.00    -0.339 N 
ATOM      6  HN  UNL     1     -42.074 -49.539  10.188  1.00  0.00     0.168 HD
ENDROOT
BRANCH   1   7
HETATM    7  C   UNL     1     -39.805 -48.952  11.651  1.00  0.00     0.168 C 
BRANCH   7   8
HETATM    8  C   UNL     1     -40.170 -49.490  13.036  1.00  0.00     0.321 C 
HETATM    9  N   UNL     1     -41.170 -50.453  13.055  1.00  0.00    -0.009 N 
HETATM   10  C   UNL     1     -41.644 -52.604  14.180  1.00  0.00     0.185 A 
HETATM   11  H   UNL     1     -41.747 -50.562  12.224  1.00  0.00     0.290 HD
HETATM   12  C   UNL     1     -41.605 -51.070  14.287  1.00  0.00     0.289 A 
HETATM   13  C   UNL     1     -42.810 -54.755  14.505  1.00  0.00     0.018 A 
HETATM   14  C   UNL     1     -43.024 -53.302  14.044  1.00  0.00     0.049 A 
HETATM   15  C   UNL     1     -43.884 -53.310  12.768  1.00  0.00     0.007 C 
HETATM   16  O   UNL     1     -39.589 -49.086  14.041  1.00  0.00    -0.265 OA
ENDBRANCH   7   8
ENDBRANCH   1   7
BRANCH   4  17
HETATM   17  N   UNL     1     -43.909 -47.773   9.321  1.00  0.00    -0.278 N 
HETATM   18  C   UNL     1     -45.208 -47.651   9.946  1.00  0.00     0.155 C 
HETATM   19  C   UNL     1     -46.195 -47.667   8.783  1.00  0.00     0.145 C 
HETATM   20  N   UNL     1     -45.411 -48.124   7.675  1.00  0.00    -0.341 N 
HETATM   21  C   UNL     1     -44.053 -48.067   7.958  1.00  0.00     0.324 C 
HETATM   22  H   UNL     1     -45.697 -48.117   6.702  1.00  0.00     0.164 HD
HETATM   23  O   UNL     1     -43.215 -48.221   7.086  1.00  0.00    -0.247 OA
ENDBRANCH   4  17
TORSDOF 3
ENDMDL
MODEL 5
REMARK VINA RESULT:      -5.9      4.125      6.991
REMARK  3 active torsions:
REMARK  status: ('A' for Active; 'I' for Inactive)
REMARK       I    between atoms: N_6  and  C_7 
REMARK    1  A    between atoms: C_7  and  C_9 
REMARK    2  A    between atoms: C_9  and  C_10 
REMARK    3  A    between atoms: C_13  and  N_16 
ROOT
HETATM    1  C   UNL     1     -38.763 -49.166  14.518  1.00  0.00     0.026 A 
HETATM    2  C   UNL     1     -38.719 -48.146  15.453  1.00  0.00     0.078 A 
HETATM    3  S   UNL     1     -39.200 -46.676  14.747  1.00  0.00    -0.064 SA
HETATM    4  C   UNL     1     -39.468 -47.469  13.263  1.00  0.00     0.155 A 
HETATM    5  N   UNL     1     -39.139 -48.752  13.243  1.00  0.00    -0.339 N 
ATOM      6  HN  UNL     1     -39.158 -49.347  12.416  1.00  0.00     0.168 HD
ENDROOT
BRANCH   1   7
HETATM    7  C   UNL     1     -38.405 -50.597  14.761  1.00  0.00     0.168 C 
BRANCH   7   8
HETATM    8  C   UNL     1     -38.854 -51.570  13.669  1.00  0.00     0.321 C 
HETATM    9  N   UNL     1     -39.965 -52.342  13.981  1.00  0.00    -0.009 N 
HETATM   10  C   UNL     1     -42.040 -53.124  12.885  1.00  0.00     0.185 A 
HETATM   11  H   UNL     1     -40.254 -52.397  14.955  1.00  0.00     0.290 HD
HETATM   12  C   UNL     1     -40.519 -53.288  13.040  1.00  0.00     0.289 A 
HETATM   13  C   UNL     1     -44.314 -54.083  12.813  1.00  0.00     0.018 A 
HETATM   14  C   UNL     1     -42.972 -54.165  13.562  1.00  0.00     0.049 A 
HETATM   15  C   UNL     1     -43.253 -54.241  15.073  1.00  0.00     0.007 C 
HETATM   16  O   UNL     1     -38.258 -51.629  12.596  1.00  0.00    -0.265 OA
ENDBRANCH   7   8
ENDBRANCH   1   7
BRANCH   4  17
HETATM   17  N   UNL     1     -39.959 -46.792  12.162  1.00  0.00    -0.278 N 
HETATM   18  C   UNL     1     -39.762 -45.382  11.901  1.00  0.00     0.155 C 
HETATM   19  C   UNL     1     -40.210 -45.194  10.455  1.00  0.00     0.145 C 
HETATM   20  N   UNL     1     -40.916 -46.404  10.154  1.00  0.00    -0.341 N 
HETATM   21  C   UNL     1     -40.664 -47.385  11.105  1.00  0.00     0.324 C 
HETATM   22  H   UNL     1     -41.227 -46.697   9.236  1.00  0.00     0.164 HD
HETATM   23  O   UNL     1     -41.005 -48.542  10.929  1.00  0.00    -0.247 OA
ENDBRANCH   4  17
TORSDOF 3
ENDMDL
MODEL 6
REMARK VINA RESULT:      -5.9      3.536      6.418
REMARK  3 active torsions:
REMARK  status: ('A' for Active; 'I' for Inactive)
REMARK       I    between atoms: N_6  and  C_7 
REMARK    1  A    between atoms: C_7  and  C_9 
REMARK    2  A    between atoms: C_9  and  C_10 
REMARK    3  A    between atoms: C_13  and  N_16 
ROOT
HETATM    1  C   UNL     1     -40.299 -52.265  15.836  1.00  0.00     0.026 A 
HETATM    2  C   UNL     1     -39.482 -51.513  16.663  1.00  0.00     0.078 A 
HETATM    3  S   UNL     1     -38.478 -50.499  15.739  1.00  0.00    -0.064 SA
HETATM    4  C   UNL     1     -39.195 -51.083  14.308  1.00  0.00     0.155 A 
HETATM    5  N   UNL     1     -40.083 -52.051  14.478  1.00  0.00    -0.339 N 
ATOM      6  HN  UNL     1     -40.539 -52.564  13.724  1.00  0.00     0.168 HD
ENDROOT
BRANCH   1   7
HETATM    7  C   UNL     1     -41.311 -53.271  16.281  1.00  0.00     0.168 C 
BRANCH   7   8
HETATM    8  C   UNL     1     -42.138 -53.897  15.155  1.00  0.00     0.321 C 
HETATM    9  N   UNL     1     -43.400 -53.350  14.970  1.00  0.00    -0.009 N 
HETATM   10  C   UNL     1     -44.863 -52.664  13.097  1.00  0.00     0.185 A 
HETATM   11  H   UNL     1     -43.784 -52.765  15.711  1.00  0.00     0.290 HD
HETATM   12  C   UNL     1     -44.286 -53.821  13.931  1.00  0.00     0.289 A 
HETATM   13  C   UNL     1     -46.778 -51.508  12.054  1.00  0.00     0.018 A 
HETATM   14  C   UNL     1     -46.338 -52.244  13.333  1.00  0.00     0.049 A 
HETATM   15  C   UNL     1     -46.844 -51.457  14.555  1.00  0.00     0.007 C 
HETATM   16  O   UNL     1     -41.680 -54.810  14.472  1.00  0.00    -0.265 OA
ENDBRANCH   7   8
ENDBRANCH   1   7
BRANCH   4  17
HETATM   17  N   UNL     1     -38.833 -50.591  13.066  1.00  0.00    -0.278 N 
HETATM   18  C   UNL     1     -37.489 -50.213  12.685  1.00  0.00     0.155 C 
HETATM   19  C   UNL     1     -37.555 -50.041  11.171  1.00  0.00     0.145 C 
HETATM   20  N   UNL     1     -38.959 -50.005  10.890  1.00  0.00    -0.341 N 
HETATM   21  C   UNL     1     -39.703 -50.448  11.976  1.00  0.00     0.324 C 
HETATM   22  H   UNL     1     -39.382 -50.050   9.971  1.00  0.00     0.164 HD
HETATM   23  O   UNL     1     -40.895 -50.683  11.875  1.00  0.00    -0.247 OA
ENDBRANCH   4  17
TORSDOF 3
ENDMDL
MODEL 7
REMARK VINA RESULT:      -5.7      3.177      6.320
REMARK  3 active torsions:
REMARK  status: ('A' for Active; 'I' for Inactive)
REMARK       I    between atoms: N_6  and  C_7 
REMARK    1  A    between atoms: C_7  and  C_9 
REMARK    2  A    between atoms: C_9  and  C_10 
REMARK    3  A    between atoms: C_13  and  N_16 
ROOT
HETATM    1  C   UNL     1     -39.873 -49.931  13.802  1.00  0.00     0.026 A 
HETATM    2  C   UNL     1     -40.155 -49.188  14.936  1.00  0.00     0.078 A 
HETATM    3  S   UNL     1     -40.529 -47.584  14.514  1.00  0.00    -0.064 SA
HETATM    4  C   UNL     1     -40.328 -47.964  12.866  1.00  0.00     0.155 A 
HETATM    5  N   UNL     1     -39.917 -49.198  12.619  1.00  0.00    -0.339 N 
ATOM      6  HN  UNL     1     -39.669 -49.559  11.698  1.00  0.00     0.168 HD
ENDROOT
BRANCH   1   7
HETATM    7  C   UNL     1     -39.496 -51.377  13.771  1.00  0.00     0.168 C 
BRANCH   7   8
HETATM    8  C   UNL     1     -40.599 -52.321  13.286  1.00  0.00     0.321 C 
HETATM    9  N   UNL     1     -41.850 -52.111  13.849  1.00  0.00    -0.009 N 
HETATM   10  C   UNL     1     -44.215 -52.039  13.127  1.00  0.00     0.185 A 
HETATM   11  H   UNL     1     -41.909 -51.538  14.689  1.00  0.00     0.290 HD
HETATM   12  C   UNL     1     -42.995 -52.908  13.473  1.00  0.00     0.289 A 
HETATM   13  C   UNL     1     -46.614 -51.506  13.355  1.00  0.00     0.018 A 
HETATM   14  C   UNL     1     -45.374 -51.944  14.155  1.00  0.00     0.049 A 
HETATM   15  C   UNL     1     -45.322 -51.140  15.467  1.00  0.00     0.007 C 
HETATM   16  O   UNL     1     -40.362 -53.186  12.446  1.00  0.00    -0.265 OA
ENDBRANCH   7   8
ENDBRANCH   1   7
BRANCH   4  17
HETATM   17  N   UNL     1     -40.548 -47.023  11.876  1.00  0.00    -0.278 N 
HETATM   18  C   UNL     1     -39.983 -45.691  11.860  1.00  0.00     0.155 C 
HETATM   19  C   UNL     1     -40.259 -45.174  10.452  1.00  0.00     0.145 C 
HETATM   20  N   UNL     1     -41.221 -46.098   9.930  1.00  0.00    -0.341 N 
HETATM   21  C   UNL     1     -41.297 -47.244  10.712  1.00  0.00     0.324 C 
HETATM   22  H   UNL     1     -41.526 -46.157   8.965  1.00  0.00     0.164 HD
HETATM   23  O   UNL     1     -41.904 -48.231  10.334  1.00  0.00    -0.247 OA
ENDBRANCH   4  17
TORSDOF 3
ENDMDL
MODEL 8
REMARK VINA RESULT:      -5.7      2.126      6.639
REMARK  3 active torsions:
REMARK  status: ('A' for Active; 'I' for Inactive)
REMARK       I    between atoms: N_6  and  C_7 
REMARK    1  A    between atoms: C_7  and  C_9 
REMARK    2  A    between atoms: C_9  and  C_10 
REMARK    3  A    between atoms: C_13  and  N_16 
ROOT
HETATM    1  C   UNL     1     -42.409 -52.422  13.452  1.00  0.00     0.026 A 
HETATM    2  C   UNL     1     -41.786 -51.884  14.566  1.00  0.00     0.078 A 
HETATM    3  S   UNL     1     -41.276 -50.294  14.248  1.00  0.00    -0.064 SA
HETATM    4  C   UNL     1     -41.929 -50.392  12.677  1.00  0.00     0.155 A 
HETATM    5  N   UNL     1     -42.431 -51.573  12.349  1.00  0.00    -0.339 N 
ATOM      6  HN  UNL     1     -42.783 -51.822  11.426  1.00  0.00     0.168 HD
ENDROOT
BRANCH   1   7
HETATM    7  C   UNL     1     -42.984 -53.798  13.346  1.00  0.00     0.168 C 
BRANCH   7   8
HETATM    8  C   UNL     1     -44.506 -53.874  13.491  1.00  0.00     0.321 C 
HETATM    9  N   UNL     1     -45.011 -53.422  14.702  1.00  0.00    -0.009 N 
HETATM   10  C   UNL     1     -46.901 -52.052  15.522  1.00  0.00     0.185 A 
HETATM   11  H   UNL     1     -44.363 -53.304  15.479  1.00  0.00     0.290 HD
HETATM   12  C   UNL     1     -46.430 -53.410  14.975  1.00  0.00     0.289 A 
HETATM   13  C   UNL     1     -48.147 -50.714  17.181  1.00  0.00     0.018 A 
HETATM   14  C   UNL     1     -47.217 -51.932  17.037  1.00  0.00     0.049 A 
HETATM   15  C   UNL     1     -46.160 -51.882  18.155  1.00  0.00     0.007 C 
HETATM   16  O   UNL     1     -45.204 -54.299  12.573  1.00  0.00    -0.265 OA
ENDBRANCH   7   8
ENDBRANCH   1   7
BRANCH   4  17
HETATM   17  N   UNL     1     -41.890 -49.314  11.811  1.00  0.00    -0.278 N 
HETATM   18  C   UNL     1     -43.028 -48.490  11.464  1.00  0.00     0.155 C 
HETATM   19  C   UNL     1     -42.425 -47.284  10.751  1.00  0.00     0.145 C 
HETATM   20  N   UNL     1     -41.080 -47.690  10.469  1.00  0.00    -0.341 N 
HETATM   21  C   UNL     1     -40.731 -48.822  11.195  1.00  0.00     0.324 C 
HETATM   22  H   UNL     1     -40.336 -47.089  10.135  1.00  0.00     0.164 HD
HETATM   23  O   UNL     1     -39.577 -49.209  11.252  1.00  0.00    -0.247 OA
ENDBRANCH   4  17
TORSDOF 3
ENDMDL
MODEL 9
REMARK VINA RESULT:      -5.7      3.832      6.853
REMARK  3 active torsions:
REMARK  status: ('A' for Active; 'I' for Inactive)
REMARK       I    between atoms: N_6  and  C_7 
REMARK    1  A    between atoms: C_7  and  C_9 
REMARK    2  A    between atoms: C_9  and  C_10 
REMARK    3  A    between atoms: C_13  and  N_16 
ROOT
HETATM    1  C   UNL     1     -43.122 -54.562  14.405  1.00  0.00     0.026 A 
HETATM    2  C   UNL     1     -42.315 -55.073  15.407  1.00  0.00     0.078 A 
HETATM    3  S   UNL     1     -40.809 -54.285  15.413  1.00  0.00    -0.064 SA
HETATM    4  C   UNL     1     -41.314 -53.297  14.120  1.00  0.00     0.155 A 
HETATM    5  N   UNL     1     -42.512 -53.579  13.631  1.00  0.00    -0.339 N 
ATOM      6  HN  UNL     1     -42.926 -53.142  12.808  1.00  0.00     0.168 HD
ENDROOT
BRANCH   1   7
HETATM    7  C   UNL     1     -44.514 -55.007  14.086  1.00  0.00     0.168 C 
BRANCH   7   8
HETATM    8  C   UNL     1     -45.531 -53.875  13.919  1.00  0.00     0.321 C 
HETATM    9  N   UNL     1     -46.142 -53.449  15.090  1.00  0.00    -0.009 N 
HETATM   10  C   UNL     1     -46.791 -51.319  16.168  1.00  0.00     0.185 A 
HETATM   11  H   UNL     1     -46.072 -54.044  15.913  1.00  0.00     0.290 HD
HETATM   12  C   UNL     1     -47.106 -52.373  15.093  1.00  0.00     0.289 A 
HETATM   13  C   UNL     1     -47.497 -49.879  18.045  1.00  0.00     0.018 A 
HETATM   14  C   UNL     1     -47.654 -51.294  17.458  1.00  0.00     0.049 A 
HETATM   15  C   UNL     1     -47.555 -52.318  18.602  1.00  0.00     0.007 C 
HETATM   16  O   UNL     1     -45.756 -53.391  12.812  1.00  0.00    -0.265 OA
ENDBRANCH   7   8
ENDBRANCH   1   7
BRANCH   4  17
HETATM   17  N   UNL     1     -40.499 -52.302  13.611  1.00  0.00    -0.278 N 
HETATM   18  C   UNL     1     -39.097 -52.138  13.927  1.00  0.00     0.155 C 
HETATM   19  C   UNL     1     -38.589 -51.128  12.903  1.00  0.00     0.145 C 
HETATM   20  N   UNL     1     -39.785 -50.578  12.341  1.00  0.00    -0.341 N 
HETATM   21  C   UNL     1     -40.896 -51.348  12.663  1.00  0.00     0.324 C 
HETATM   22  H   UNL     1     -39.838 -49.983  11.522  1.00  0.00     0.164 HD
HETATM   23  O   UNL     1     -41.973 -51.167  12.121  1.00  0.00    -0.247 OA
ENDBRANCH   4  17
TORSDOF 3
ENDMDL
