MODEL 1
REMARK VINA RESULT:      -5.7      0.000      0.000
REMARK  4 active torsions:
REMARK  status: ('A' for Active; 'I' for Inactive)
REMARK    1  A    between atoms: C_8  and  C_9 
REMARK    2  A    between atoms: C_9  and  C_10 
REMARK       I    between atoms: C_10  and  N_12 
REMARK    3  A    between atoms: N_12  and  C_13 
REMARK    4  A    between atoms: N_16  and  C_18 
ROOT
HETATM    1  C   UNL     1     -42.359 -48.798  11.412  1.00  0.00     0.222 C 
HETATM    2  O   UNL     1     -43.372 -48.420  11.994  1.00  0.00    -0.273 OA
HETATM    3  N   UNL     1     -41.779 -50.034  11.641  1.00  0.00    -0.354 N 
HETATM    4  H   UNL     1     -40.922 -50.287  11.161  1.00  0.00     0.162 HD
ENDROOT
BRANCH   1   5
HETATM    5  C   UNL     1     -41.661 -47.926  10.381  1.00  0.00     0.147 C 
BRANCH   5   6
HETATM    6  C   UNL     1     -42.500 -46.758   9.998  1.00  0.00     0.022 A 
HETATM    7  C   UNL     1     -42.658 -45.509  10.671  1.00  0.00     0.039 A 
HETATM    8  C   UNL     1     -42.039 -45.035  11.934  1.00  0.00     0.071 C 
HETATM    9  N   UNL     1     -43.485 -44.698  10.002  1.00  0.00    -0.264 N 
HETATM   10  O   UNL     1     -43.893 -45.408   8.891  1.00  0.00    -0.225 OA
ATOM     11  HN  UNL     1     -43.759 -43.750  10.259  1.00  0.00     0.194 HD
HETATM   12  C   UNL     1     -43.310 -46.634   8.890  1.00  0.00     0.176 A 
HETATM   13 CL   UNL     1     -43.575 -47.798   7.651  1.00  0.00    -0.054 Cl
ENDBRANCH   5   6
ENDBRANCH   1   5
BRANCH   3  14
HETATM   14  C   UNL     1     -42.336 -50.948  12.630  1.00  0.00     0.114 C 
HETATM   15  C   UNL     1     -41.618 -50.873  13.974  1.00  0.00     0.057 C 
HETATM   16  C   UNL     1     -41.580 -52.304  14.501  1.00  0.00     0.275 C 
HETATM   17  N   UNL     1     -42.318 -53.156  13.554  1.00  0.00     0.095 N 
HETATM   18  C   UNL     1     -42.243 -52.434  12.268  1.00  0.00     0.298 C 
BRANCH  17  19
HETATM   19  C   UNL     1     -43.705 -53.420  13.990  1.00  0.00     0.223 A 
HETATM   20  C   UNL     1     -44.106 -54.816  14.398  1.00  0.00     0.038 A 
HETATM   21  C   UNL     1     -44.588 -54.254  13.095  1.00  0.00     0.038 A 
ENDBRANCH  17  19
ENDBRANCH   3  14
TORSDOF 4
ENDMDL
MODEL 2
REMARK VINA RESULT:      -5.6      2.278      2.640
REMARK  4 active torsions:
REMARK  status: ('A' for Active; 'I' for Inactive)
REMARK    1  A    between atoms: C_8  and  C_9 
REMARK    2  A    between atoms: C_9  and  C_10 
REMARK       I    between atoms: C_10  and  N_12 
REMARK    3  A    between atoms: N_12  and  C_13 
REMARK    4  A    between atoms: N_16  and  C_18 
ROOT
HETATM    1  C   UNL     1     -42.949 -48.443  11.943  1.00  0.00     0.222 C 
HETATM    2  O   UNL     1     -43.158 -47.593  12.804  1.00  0.00    -0.273 OA
HETATM    3  N   UNL     1     -43.209 -49.789  12.136  1.00  0.00    -0.354 N 
HETATM    4  H   UNL     1     -42.987 -50.458  11.407  1.00  0.00     0.162 HD
ENDROOT
BRANCH   1   5
HETATM    5  C   UNL     1     -42.386 -48.073  10.581  1.00  0.00     0.147 C 
BRANCH   5   6
HETATM    6  C   UNL     1     -42.998 -46.820  10.060  1.00  0.00     0.022 A 
HETATM    7  C   UNL     1     -44.247 -46.643   9.394  1.00  0.00     0.039 A 
HETATM    8  C   UNL     1     -45.274 -47.654   9.032  1.00  0.00     0.071 C 
HETATM    9  N   UNL     1     -44.462 -45.356   9.096  1.00  0.00    -0.264 N 
HETATM   10  O   UNL     1     -43.350 -44.675   9.548  1.00  0.00    -0.225 OA
ATOM     11  HN  UNL     1     -45.278 -44.960   8.631  1.00  0.00     0.194 HD
HETATM   12  C   UNL     1     -42.478 -45.545  10.118  1.00  0.00     0.176 A 
HETATM   13 CL   UNL     1     -40.978 -45.056  10.805  1.00  0.00    -0.054 Cl
ENDBRANCH   5   6
ENDBRANCH   1   5
BRANCH   3  14
HETATM   14  C   UNL     1     -43.721 -50.274  13.411  1.00  0.00     0.114 C 
HETATM   15  C   UNL     1     -42.614 -50.726  14.359  1.00  0.00     0.057 C 
HETATM   16  C   UNL     1     -43.169 -51.943  15.091  1.00  0.00     0.275 C 
HETATM   17  N   UNL     1     -44.562 -52.137  14.657  1.00  0.00     0.095 N 
HETATM   18  C   UNL     1     -44.628 -51.506  13.324  1.00  0.00     0.298 C 
BRANCH  17  19
HETATM   19  C   UNL     1     -45.539 -51.573  15.613  1.00  0.00     0.223 A 
HETATM   20  C   UNL     1     -46.649 -52.445  16.147  1.00  0.00     0.038 A 
HETATM   21  C   UNL     1     -46.960 -51.374  15.147  1.00  0.00     0.038 A 
ENDBRANCH  17  19
ENDBRANCH   3  14
TORSDOF 4
ENDMDL
MODEL 3
REMARK VINA RESULT:      -5.5      2.931      6.932
REMARK  4 active torsions:
REMARK  status: ('A' for Active; 'I' for Inactive)
REMARK    1  A    between atoms: C_8  and  C_9 
REMARK    2  A    between atoms: C_9  and  C_10 
REMARK       I    between atoms: C_10  and  N_12 
REMARK    3  A    between atoms: N_12  and  C_13 
REMARK    4  A    between atoms: N_16  and  C_18 
ROOT
HETATM    1  C   UNL     1     -43.275 -49.537  14.020  1.00  0.00     0.222 C 
HETATM    2  O   UNL     1     -42.683 -48.709  14.707  1.00  0.00    -0.273 OA
HETATM    3  N   UNL     1     -43.454 -49.391  12.655  1.00  0.00    -0.354 N 
HETATM    4  H   UNL     1     -43.980 -50.086  12.136  1.00  0.00     0.162 HD
ENDROOT
BRANCH   1   5
HETATM    5  C   UNL     1     -43.857 -50.803  14.626  1.00  0.00     0.147 C 
BRANCH   5   6
HETATM    6  C   UNL     1     -44.051 -51.861  13.598  1.00  0.00     0.022 A 
HETATM    7  C   UNL     1     -43.084 -52.738  13.022  1.00  0.00     0.039 A 
HETATM    8  C   UNL     1     -41.625 -52.835  13.283  1.00  0.00     0.071 C 
HETATM    9  N   UNL     1     -43.648 -53.573  12.141  1.00  0.00    -0.264 N 
HETATM   10  O   UNL     1     -44.988 -53.244  12.116  1.00  0.00    -0.225 OA
ATOM     11  HN  UNL     1     -43.184 -54.303  11.600  1.00  0.00     0.194 HD
HETATM   12  C   UNL     1     -45.228 -52.224  12.979  1.00  0.00     0.176 A 
HETATM   13 CL   UNL     1     -46.791 -51.550  13.225  1.00  0.00    -0.054 Cl
ENDBRANCH   5   6
ENDBRANCH   1   5
BRANCH   3  14
HETATM   14  C   UNL     1     -42.969 -48.204  11.961  1.00  0.00     0.114 C 
HETATM   15  C   UNL     1     -43.817 -47.843  10.745  1.00  0.00     0.057 C 
HETATM   16  C   UNL     1     -42.835 -47.334   9.695  1.00  0.00     0.275 C 
HETATM   17  N   UNL     1     -41.493 -47.315  10.300  1.00  0.00     0.095 N 
HETATM   18  C   UNL     1     -41.557 -48.321  11.379  1.00  0.00     0.298 C 
BRANCH  17  19
HETATM   19  C   UNL     1     -41.107 -45.972  10.784  1.00  0.00     0.223 A 
HETATM   20  C   UNL     1     -39.786 -45.378  10.359  1.00  0.00     0.038 A 
HETATM   21  C   UNL     1     -39.965 -45.868  11.764  1.00  0.00     0.038 A 
ENDBRANCH  17  19
ENDBRANCH   3  14
TORSDOF 4
ENDMDL
MODEL 4
REMARK VINA RESULT:      -5.5      3.557      7.657
REMARK  4 active torsions:
REMARK  status: ('A' for Active; 'I' for Inactive)
REMARK    1  A    between atoms: C_8  and  C_9 
REMARK    2  A    between atoms: C_9  and  C_10 
REMARK       I    between atoms: C_10  and  N_12 
REMARK    3  A    between atoms: N_12  and  C_13 
REMARK    4  A    between atoms: N_16  and  C_18 
ROOT
HETATM    1  C   UNL     1     -40.775 -51.471  12.158  1.00  0.00     0.222 C 
HETATM    2  O   UNL     1     -39.812 -51.041  12.787  1.00  0.00    -0.273 OA
HETATM    3  N   UNL     1     -41.759 -50.648  11.637  1.00  0.00    -0.354 N 
HETATM    4  H   UNL     1     -42.554 -51.052  11.154  1.00  0.00     0.162 HD
ENDROOT
BRANCH   1   5
HETATM    5  C   UNL     1     -40.957 -52.957  11.899  1.00  0.00     0.147 C 
BRANCH   5   6
HETATM    6  C   UNL     1     -41.567 -53.644  13.069  1.00  0.00     0.022 A 
HETATM    7  C   UNL     1     -42.945 -53.894  13.344  1.00  0.00     0.039 A 
HETATM    8  C   UNL     1     -44.145 -53.534  12.546  1.00  0.00     0.071 C 
HETATM    9  N   UNL     1     -43.099 -54.562  14.493  1.00  0.00    -0.264 N 
HETATM   10  O   UNL     1     -41.826 -54.745  14.995  1.00  0.00    -0.225 OA
ATOM     11  HN  UNL     1     -43.975 -54.873  14.912  1.00  0.00     0.194 HD
HETATM   12  C   UNL     1     -40.916 -54.197  14.150  1.00  0.00     0.176 A 
HETATM   13 CL   UNL     1     -39.221 -54.240  14.442  1.00  0.00    -0.054 Cl
ENDBRANCH   5   6
ENDBRANCH   1   5
BRANCH   3  14
HETATM   14  C   UNL     1     -41.714 -49.206  11.845  1.00  0.00     0.114 C 
HETATM   15  C   UNL     1     -42.978 -48.666  12.507  1.00  0.00     0.057 C 
HETATM   16  C   UNL     1     -43.235 -47.309  11.859  1.00  0.00     0.275 C 
HETATM   17  N   UNL     1     -42.126 -47.033  10.931  1.00  0.00     0.095 N 
HETATM   18  C   UNL     1     -41.602 -48.366  10.570  1.00  0.00     0.298 C 
BRANCH  17  19
HETATM   19  C   UNL     1     -41.099 -46.148  11.519  1.00  0.00     0.223 A 
HETATM   20  C   UNL     1     -40.859 -44.783  10.922  1.00  0.00     0.038 A 
HETATM   21  C   UNL     1     -39.850 -45.873  10.720  1.00  0.00     0.038 A 
ENDBRANCH  17  19
ENDBRANCH   3  14
TORSDOF 4
ENDMDL
MODEL 5
REMARK VINA RESULT:      -5.5      3.660      7.494
REMARK  4 active torsions:
REMARK  status: ('A' for Active; 'I' for Inactive)
REMARK    1  A    between atoms: C_8  and  C_9 
REMARK    2  A    between atoms: C_9  and  C_10 
REMARK       I    between atoms: C_10  and  N_12 
REMARK    3  A    between atoms: N_12  and  C_13 
REMARK    4  A    between atoms: N_16  and  C_18 
ROOT
HETATM    1  C   UNL     1     -42.824 -51.676  13.114  1.00  0.00     0.222 C 
HETATM    2  O   UNL     1     -42.936 -51.311  14.281  1.00  0.00    -0.273 OA
HETATM    3  N   UNL     1     -42.411 -50.830  12.099  1.00  0.00    -0.354 N 
HETATM    4  H   UNL     1     -42.367 -51.169  11.144  1.00  0.00     0.162 HD
ENDROOT
BRANCH   1   5
HETATM    5  C   UNL     1     -43.130 -53.104  12.694  1.00  0.00     0.147 C 
BRANCH   5   6
HETATM    6  C   UNL     1     -44.323 -53.638  13.407  1.00  0.00     0.022 A 
HETATM    7  C   UNL     1     -45.697 -53.292  13.237  1.00  0.00     0.039 A 
HETATM    8  C   UNL     1     -46.314 -52.306  12.314  1.00  0.00     0.071 C 
HETATM    9  N   UNL     1     -46.483 -54.009  14.050  1.00  0.00    -0.264 N 
HETATM   10  O   UNL     1     -45.634 -54.821  14.774  1.00  0.00    -0.225 OA
ATOM     11  HN  UNL     1     -47.499 -53.964  14.120  1.00  0.00     0.194 HD
HETATM   12  C   UNL     1     -44.350 -54.599  14.393  1.00  0.00     0.176 A 
HETATM   13 CL   UNL     1     -43.011 -55.440  15.073  1.00  0.00    -0.054 Cl
ENDBRANCH   5   6
ENDBRANCH   1   5
BRANCH   3  14
HETATM   14  C   UNL     1     -42.118 -49.428  12.369  1.00  0.00     0.114 C 
HETATM   15  C   UNL     1     -43.210 -48.489  11.866  1.00  0.00     0.057 C 
HETATM   16  C   UNL     1     -42.483 -47.252  11.349  1.00  0.00     0.275 C 
HETATM   17  N   UNL     1     -41.047 -47.423  11.620  1.00  0.00     0.095 N 
HETATM   18  C   UNL     1     -40.854 -48.885  11.695  1.00  0.00     0.298 C 
BRANCH  17  19
HETATM   19  C   UNL     1     -40.612 -46.719  12.845  1.00  0.00     0.223 A 
HETATM   20  C   UNL     1     -39.549 -45.651  12.754  1.00  0.00     0.038 A 
HETATM   21  C   UNL     1     -39.219 -46.980  13.362  1.00  0.00     0.038 A 
ENDBRANCH  17  19
ENDBRANCH   3  14
TORSDOF 4
ENDMDL
MODEL 6
REMARK VINA RESULT:      -5.5      3.848      7.125
REMARK  4 active torsions:
REMARK  status: ('A' for Active; 'I' for Inactive)
REMARK    1  A    between atoms: C_8  and  C_9 
REMARK    2  A    between atoms: C_9  and  C_10 
REMARK       I    between atoms: C_10  and  N_12 
REMARK    3  A    between atoms: N_12  and  C_13 
REMARK    4  A    between atoms: N_16  and  C_18 
ROOT
HETATM    1  C   UNL     1     -44.319 -50.775  13.684  1.00  0.00     0.222 C 
HETATM    2  O   UNL     1     -44.003 -50.096  14.657  1.00  0.00    -0.273 OA
HETATM    3  N   UNL     1     -43.500 -50.932  12.579  1.00  0.00    -0.354 N 
HETATM    4  H   UNL     1     -43.819 -51.475  11.784  1.00  0.00     0.162 HD
ENDROOT
BRANCH   1   5
HETATM    5  C   UNL     1     -45.649 -51.508  13.623  1.00  0.00     0.147 C 
BRANCH   5   6
HETATM    6  C   UNL     1     -45.745 -52.552  14.679  1.00  0.00     0.022 A 
HETATM    7  C   UNL     1     -46.431 -52.502  15.929  1.00  0.00     0.039 A 
HETATM    8  C   UNL     1     -47.229 -51.399  16.523  1.00  0.00     0.071 C 
HETATM    9  N   UNL     1     -46.304 -53.652  16.601  1.00  0.00    -0.264 N 
HETATM   10  O   UNL     1     -45.520 -54.466  15.808  1.00  0.00    -0.225 OA
ATOM     11  HN  UNL     1     -46.703 -53.881  17.511  1.00  0.00     0.194 HD
HETATM   12  C   UNL     1     -45.186 -53.811  14.667  1.00  0.00     0.176 A 
HETATM   13 CL   UNL     1     -44.220 -54.516  13.430  1.00  0.00    -0.054 Cl
ENDBRANCH   5   6
ENDBRANCH   1   5
BRANCH   3  14
HETATM   14  C   UNL     1     -42.212 -50.254  12.503  1.00  0.00     0.114 C 
HETATM   15  C   UNL     1     -42.296 -48.902  11.802  1.00  0.00     0.057 C 
HETATM   16  C   UNL     1     -41.007 -48.774  10.998  1.00  0.00     0.275 C 
HETATM   17  N   UNL     1     -40.173 -49.952  11.287  1.00  0.00     0.095 N 
HETATM   18  C   UNL     1     -41.132 -50.993  11.706  1.00  0.00     0.298 C 
BRANCH  17  19
HETATM   19  C   UNL     1     -39.135 -49.678  12.304  1.00  0.00     0.223 A 
HETATM   20  C   UNL     1     -37.677 -49.762  11.923  1.00  0.00     0.038 A 
HETATM   21  C   UNL     1     -38.286 -50.827  12.784  1.00  0.00     0.038 A 
ENDBRANCH  17  19
ENDBRANCH   3  14
TORSDOF 4
ENDMDL
MODEL 7
REMARK VINA RESULT:      -5.4      4.011      7.149
REMARK  4 active torsions:
REMARK  status: ('A' for Active; 'I' for Inactive)
REMARK    1  A    between atoms: C_8  and  C_9 
REMARK    2  A    between atoms: C_9  and  C_10 
REMARK       I    between atoms: C_10  and  N_12 
REMARK    3  A    between atoms: N_12  and  C_13 
REMARK    4  A    between atoms: N_16  and  C_18 
ROOT
HETATM    1  C   UNL     1     -42.794 -51.960  12.905  1.00  0.00     0.222 C 
HETATM    2  O   UNL     1     -42.767 -51.745  14.114  1.00  0.00    -0.273 OA
HETATM    3  N   UNL     1     -42.089 -51.197  11.990  1.00  0.00    -0.354 N 
HETATM    4  H   UNL     1     -42.171 -51.392  10.998  1.00  0.00     0.162 HD
ENDROOT
BRANCH   1   5
HETATM    5  C   UNL     1     -43.612 -53.099  12.318  1.00  0.00     0.147 C 
BRANCH   5   6
HETATM    6  C   UNL     1     -44.782 -53.428  13.176  1.00  0.00     0.022 A 
HETATM    7  C   UNL     1     -46.100 -52.881  13.143  1.00  0.00     0.039 A 
HETATM    8  C   UNL     1     -46.663 -51.834  12.253  1.00  0.00     0.071 C 
HETATM    9  N   UNL     1     -46.886 -53.450  14.064  1.00  0.00    -0.264 N 
HETATM   10  O   UNL     1     -46.092 -54.366  14.723  1.00  0.00    -0.225 OA
ATOM     11  HN  UNL     1     -47.870 -53.249  14.242  1.00  0.00     0.194 HD
HETATM   12  C   UNL     1     -44.840 -54.351  14.198  1.00  0.00     0.176 A 
HETATM   13 CL   UNL     1     -43.574 -55.370  14.761  1.00  0.00    -0.054 Cl
ENDBRANCH   5   6
ENDBRANCH   1   5
BRANCH   3  14
HETATM   14  C   UNL     1     -41.293 -50.057  12.426  1.00  0.00     0.114 C 
HETATM   15  C   UNL     1     -41.551 -48.804  11.594  1.00  0.00     0.057 C 
HETATM   16  C   UNL     1     -40.199 -48.111  11.461  1.00  0.00     0.275 C 
HETATM   17  N   UNL     1     -39.219 -48.875  12.251  1.00  0.00     0.095 N 
HETATM   18  C   UNL     1     -39.776 -50.241  12.316  1.00  0.00     0.298 C 
BRANCH  17  19
HETATM   19  C   UNL     1     -38.980 -48.284  13.585  1.00  0.00     0.223 A 
HETATM   20  C   UNL     1     -37.564 -48.065  14.061  1.00  0.00     0.038 A 
HETATM   21  C   UNL     1     -38.390 -49.162  14.659  1.00  0.00     0.038 A 
ENDBRANCH  17  19
ENDBRANCH   3  14
TORSDOF 4
ENDMDL
MODEL 8
REMARK VINA RESULT:      -5.4      3.189      7.132
REMARK  4 active torsions:
REMARK  status: ('A' for Active; 'I' for Inactive)
REMARK    1  A    between atoms: C_8  and  C_9 
REMARK    2  A    between atoms: C_9  and  C_10 
REMARK       I    between atoms: C_10  and  N_12 
REMARK    3  A    between atoms: N_12  and  C_13 
REMARK    4  A    between atoms: N_16  and  C_18 
ROOT
HETATM    1  C   UNL     1     -43.336 -49.730  13.431  1.00  0.00     0.222 C 
HETATM    2  O   UNL     1     -43.145 -48.893  14.309  1.00  0.00    -0.273 OA
HETATM    3  N   UNL     1     -43.190 -49.451  12.083  1.00  0.00    -0.354 N 
HETATM    4  H   UNL     1     -43.392 -50.166  11.393  1.00  0.00     0.162 HD
ENDROOT
BRANCH   1   5
HETATM    5  C   UNL     1     -43.747 -51.154  13.765  1.00  0.00     0.147 C 
BRANCH   5   6
HETATM    6  C   UNL     1     -45.048 -51.191  14.485  1.00  0.00     0.022 A 
HETATM    7  C   UNL     1     -45.305 -51.047  15.882  1.00  0.00     0.039 A 
HETATM    8  C   UNL     1     -44.349 -50.829  16.998  1.00  0.00     0.071 C 
HETATM    9  N   UNL     1     -46.615 -51.116  16.146  1.00  0.00    -0.264 N 
HETATM   10  O   UNL     1     -47.233 -51.321  14.929  1.00  0.00    -0.225 OA
ATOM     11  HN  UNL     1     -47.064 -51.033  17.057  1.00  0.00     0.194 HD
HETATM   12  C   UNL     1     -46.303 -51.368  13.942  1.00  0.00     0.176 A 
HETATM   13 CL   UNL     1     -46.703 -51.601  12.285  1.00  0.00    -0.054 Cl
ENDBRANCH   5   6
ENDBRANCH   1   5
BRANCH   3  14
HETATM   14  C   UNL     1     -42.830 -48.112  11.632  1.00  0.00     0.114 C 
HETATM   15  C   UNL     1     -43.832 -47.534  10.637  1.00  0.00     0.057 C 
HETATM   16  C   UNL     1     -43.003 -46.746   9.629  1.00  0.00     0.275 C 
HETATM   17  N   UNL     1     -41.598 -46.787  10.065  1.00  0.00     0.095 N 
HETATM   18  C   UNL     1     -41.498 -48.013  10.882  1.00  0.00     0.298 C 
BRANCH  17  19
HETATM   19  C   UNL     1     -41.195 -45.568  10.800  1.00  0.00     0.223 A 
HETATM   20  C   UNL     1     -39.926 -44.849  10.412  1.00  0.00     0.038 A 
HETATM   21  C   UNL     1     -39.976 -45.639  11.685  1.00  0.00     0.038 A 
ENDBRANCH  17  19
ENDBRANCH   3  14
TORSDOF 4
ENDMDL
MODEL 9
REMARK VINA RESULT:      -5.4      5.349      6.697
REMARK  4 active torsions:
REMARK  status: ('A' for Active; 'I' for Inactive)
REMARK    1  A    between atoms: C_8  and  C_9 
REMARK    2  A    between atoms: C_9  and  C_10 
REMARK       I    between atoms: C_10  and  N_12 
REMARK    3  A    between atoms: N_12  and  C_13 
REMARK    4  A    between atoms: N_16  and  C_18 
ROOT
HETATM    1  C   UNL     1     -42.537 -54.021  13.579  1.00  0.00     0.222 C 
HETATM    2  O   UNL     1     -42.846 -54.724  14.538  1.00  0.00    -0.273 OA
HETATM    3  N   UNL     1     -43.378 -53.058  13.051  1.00  0.00    -0.354 N 
HETATM    4  H   UNL     1     -43.092 -52.526  12.236  1.00  0.00     0.162 HD
ENDROOT
BRANCH   1   5
HETATM    5  C   UNL     1     -41.186 -54.157  12.896  1.00  0.00     0.147 C 
BRANCH   5   6
HETATM    6  C   UNL     1     -40.209 -53.162  13.415  1.00  0.00     0.022 A 
HETATM    7  C   UNL     1     -40.008 -51.809  13.009  1.00  0.00     0.039 A 
HETATM    8  C   UNL     1     -40.707 -51.026  11.959  1.00  0.00     0.071 C 
HETATM    9  N   UNL     1     -39.046 -51.222  13.732  1.00  0.00    -0.264 N 
HETATM   10  O   UNL     1     -38.593 -52.186  14.609  1.00  0.00    -0.225 OA
ATOM     11  HN  UNL     1     -38.715 -50.261  13.651  1.00  0.00     0.194 HD
HETATM   12  C   UNL     1     -39.283 -53.340  14.420  1.00  0.00     0.176 A 
HETATM   13 CL   UNL     1     -39.000 -54.764  15.342  1.00  0.00    -0.054 Cl
ENDBRANCH   5   6
ENDBRANCH   1   5
BRANCH   3  14
HETATM   14  C   UNL     1     -44.714 -52.853  13.599  1.00  0.00     0.114 C 
HETATM   15  C   UNL     1     -45.769 -52.638  12.517  1.00  0.00     0.057 C 
HETATM   16  C   UNL     1     -46.732 -51.600  13.082  1.00  0.00     0.275 C 
HETATM   17  N   UNL     1     -46.311 -51.291  14.458  1.00  0.00     0.095 N 
HETATM   18  C   UNL     1     -44.871 -51.615  14.488  1.00  0.00     0.298 C 
BRANCH  17  19
HETATM   19  C   UNL     1     -47.092 -52.032  15.471  1.00  0.00     0.223 A 
HETATM   20  C   UNL     1     -47.761 -51.279  16.595  1.00  0.00     0.038 A 
HETATM   21  C   UNL     1     -46.547 -52.111  16.875  1.00  0.00     0.038 A 
ENDBRANCH  17  19
ENDBRANCH   3  14
TORSDOF 4
ENDMDL
