MODEL 1
REMARK VINA RESULT:      -5.2      0.000      0.000
REMARK  6 active torsions:
REMARK  status: ('A' for Active; 'I' for Inactive)
REMARK    1  A    between atoms: C_2  and  C_3 
REMARK    2  A    between atoms: C_3  and  N_4 
REMARK    3  A    between atoms: C_7  and  N_10 
REMARK    4  A    between atoms: N_10  and  C_11 
REMARK    5  A    between atoms: C_11  and  C_12 
REMARK    6  A    between atoms: C_12  and  C_13 
ROOT
HETATM    1  N   UNL     1     -42.300 -53.888  13.754  1.00  0.00     0.088 N 
HETATM    2  H   UNL     1     -42.384 -53.107  14.405  1.00  0.00     0.316 HD
ENDROOT
BRANCH   1   3
HETATM    3  C   UNL     1     -41.018 -53.786  13.024  1.00  0.00     0.223 C 
HETATM    4  C   UNL     1     -39.844 -53.971  14.001  1.00  0.00     0.066 C 
HETATM    5  C   UNL     1     -39.581 -52.727  14.860  1.00  0.00     0.274 C 
HETATM    6  N   UNL     1     -39.461 -51.472  14.092  1.00  0.00     0.088 N 
HETATM    7  C   UNL     1     -40.642 -51.300  13.231  1.00  0.00     0.274 C 
HETATM    8  C   UNL     1     -40.838 -52.464  12.262  1.00  0.00     0.066 C 
BRANCH   6   9
HETATM    9  C   UNL     1     -38.181 -51.412  13.359  1.00  0.00     0.272 C 
BRANCH   9  10
HETATM   10  C   UNL     1     -37.846 -50.013  12.825  1.00  0.00     0.026 C 
HETATM   11  C   UNL     1     -37.446 -50.058  11.360  1.00  0.00     0.007 C 
ENDBRANCH   9  10
ENDBRANCH   6   9
ENDBRANCH   1   3
BRANCH   1  12
HETATM   12  C   UNL     1     -43.488 -53.890  12.883  1.00  0.00     0.276 C 
BRANCH  12  13
HETATM   13  C   UNL     1     -44.722 -54.500  13.554  1.00  0.00     0.087 C 
BRANCH  13  14
HETATM   14  C   UNL     1     -45.580 -53.460  14.222  1.00  0.00     0.010 A 
HETATM   15  C   UNL     1     -46.071 -52.378  13.497  1.00  0.00     0.025 A 
HETATM   16  C   UNL     1     -46.776 -51.387  14.172  1.00  0.00     0.003 A 
HETATM   17  C   UNL     1     -46.972 -51.502  15.543  1.00  0.00     0.017 A 
HETATM   18  C   UNL     1     -46.458 -52.615  16.186  1.00  0.00     0.088 A 
HETATM   19  N   UNL     1     -45.769 -53.591  15.559  1.00  0.00    -0.369 N 
ATOM     20  HN  UNL     1     -45.405 -54.396  16.069  1.00  0.00     0.165 HD
ENDBRANCH  13  14
ENDBRANCH  12  13
ENDBRANCH   1  12
TORSDOF 6
ENDMDL
MODEL 2
REMARK VINA RESULT:      -5.1      3.576      5.033
REMARK  6 active torsions:
REMARK  status: ('A' for Active; 'I' for Inactive)
REMARK    1  A    between atoms: C_2  and  C_3 
REMARK    2  A    between atoms: C_3  and  N_4 
REMARK    3  A    between atoms: C_7  and  N_10 
REMARK    4  A    between atoms: N_10  and  C_11 
REMARK    5  A    between atoms: C_11  and  C_12 
REMARK    6  A    between atoms: C_12  and  C_13 
ROOT
HETATM    1  N   UNL     1     -41.949 -50.409  11.764  1.00  0.00     0.088 N 
HETATM    2  H   UNL     1     -41.443 -50.269  10.889  1.00  0.00     0.316 HD
ENDROOT
BRANCH   1   3
HETATM    3  C   UNL     1     -42.209 -49.100  12.400  1.00  0.00     0.223 C 
HETATM    4  C   UNL     1     -42.945 -48.177  11.413  1.00  0.00     0.066 C 
HETATM    5  C   UNL     1     -42.020 -47.594  10.337  1.00  0.00     0.274 C 
HETATM    6  N   UNL     1     -40.793 -46.964  10.864  1.00  0.00     0.088 N 
HETATM    7  C   UNL     1     -40.084 -47.911  11.738  1.00  0.00     0.274 C 
HETATM    8  C   UNL     1     -40.943 -48.391  12.907  1.00  0.00     0.066 C 
BRANCH   6   9
HETATM    9  C   UNL     1     -41.090 -45.671  11.510  1.00  0.00     0.272 C 
BRANCH   9  10
HETATM   10  C   UNL     1     -40.051 -44.583  11.209  1.00  0.00     0.026 C 
HETATM   11  C   UNL     1     -39.379 -44.810   9.866  1.00  0.00     0.007 C 
ENDBRANCH   9  10
ENDBRANCH   6   9
ENDBRANCH   1   3
BRANCH   1  12
HETATM   12  C   UNL     1     -41.169 -51.339  12.600  1.00  0.00     0.276 C 
BRANCH  12  13
HETATM   13  C   UNL     1     -41.331 -52.802  12.180  1.00  0.00     0.087 C 
BRANCH  13  14
HETATM   14  C   UNL     1     -42.434 -53.492  12.937  1.00  0.00     0.010 A 
HETATM   15  C   UNL     1     -42.170 -54.125  14.149  1.00  0.00     0.025 A 
HETATM   16  C   UNL     1     -43.193 -54.835  14.767  1.00  0.00     0.003 A 
HETATM   17  C   UNL     1     -44.445 -54.894  14.165  1.00  0.00     0.017 A 
HETATM   18  C   UNL     1     -44.624 -54.227  12.965  1.00  0.00     0.088 A 
HETATM   19  N   UNL     1     -43.651 -53.532  12.341  1.00  0.00    -0.369 N 
ATOM     20  HN  UNL     1     -43.824 -53.055  11.455  1.00  0.00     0.165 HD
ENDBRANCH  13  14
ENDBRANCH  12  13
ENDBRANCH   1  12
TORSDOF 6
ENDMDL
MODEL 3
REMARK VINA RESULT:      -5.0      1.579      2.238
REMARK  6 active torsions:
REMARK  status: ('A' for Active; 'I' for Inactive)
REMARK    1  A    between atoms: C_2  and  C_3 
REMARK    2  A    between atoms: C_3  and  N_4 
REMARK    3  A    between atoms: C_7  and  N_10 
REMARK    4  A    between atoms: N_10  and  C_11 
REMARK    5  A    between atoms: C_11  and  C_12 
REMARK    6  A    between atoms: C_12  and  C_13 
ROOT
HETATM    1  N   UNL     1     -42.608 -54.567  13.757  1.00  0.00     0.088 N 
HETATM    2  H   UNL     1     -42.112 -55.403  13.447  1.00  0.00     0.316 HD
ENDROOT
BRANCH   1   3
HETATM    3  C   UNL     1     -41.632 -53.546  14.192  1.00  0.00     0.223 C 
HETATM    4  C   UNL     1     -42.349 -52.208  14.440  1.00  0.00     0.066 C 
HETATM    5  C   UNL     1     -42.705 -51.472  13.142  1.00  0.00     0.274 C 
HETATM    6  N   UNL     1     -41.580 -51.323  12.199  1.00  0.00     0.088 N 
HETATM    7  C   UNL     1     -40.975 -52.637  11.932  1.00  0.00     0.274 C 
HETATM    8  C   UNL     1     -40.478 -53.325  13.202  1.00  0.00     0.066 C 
BRANCH   6   9
HETATM    9  C   UNL     1     -40.613 -50.313  12.673  1.00  0.00     0.272 C 
BRANCH   9  10
HETATM   10  C   UNL     1     -39.849 -49.616  11.540  1.00  0.00     0.026 C 
HETATM   11  C   UNL     1     -38.416 -49.310  11.941  1.00  0.00     0.007 C 
ENDBRANCH   9  10
ENDBRANCH   6   9
ENDBRANCH   1   3
BRANCH   1  12
HETATM   12  C   UNL     1     -43.568 -54.965  14.801  1.00  0.00     0.276 C 
BRANCH  12  13
HETATM   13  C   UNL     1     -45.010 -55.046  14.291  1.00  0.00     0.087 C 
BRANCH  13  14
HETATM   14  C   UNL     1     -45.599 -53.686  14.034  1.00  0.00     0.010 A 
HETATM   15  C   UNL     1     -45.979 -52.869  15.096  1.00  0.00     0.025 A 
HETATM   16  C   UNL     1     -46.610 -51.662  14.816  1.00  0.00     0.003 A 
HETATM   17  C   UNL     1     -46.845 -51.304  13.493  1.00  0.00     0.017 A 
HETATM   18  C   UNL     1     -46.426 -52.170  12.498  1.00  0.00     0.088 A 
HETATM   19  N   UNL     1     -45.812 -53.348  12.738  1.00  0.00    -0.369 N 
ATOM     20  HN  UNL     1     -45.520 -53.959  11.975  1.00  0.00     0.165 HD
ENDBRANCH  13  14
ENDBRANCH  12  13
ENDBRANCH   1  12
TORSDOF 6
ENDMDL
MODEL 4
REMARK VINA RESULT:      -5.0      2.877      3.513
REMARK  6 active torsions:
REMARK  status: ('A' for Active; 'I' for Inactive)
REMARK    1  A    between atoms: C_2  and  C_3 
REMARK    2  A    between atoms: C_3  and  N_4 
REMARK    3  A    between atoms: C_7  and  N_10 
REMARK    4  A    between atoms: N_10  and  C_11 
REMARK    5  A    between atoms: C_11  and  C_12 
REMARK    6  A    between atoms: C_12  and  C_13 
ROOT
HETATM    1  N   UNL     1     -42.336 -51.642  11.960  1.00  0.00     0.088 N 
HETATM    2  H   UNL     1     -41.591 -51.963  11.341  1.00  0.00     0.316 HD
ENDROOT
BRANCH   1   3
HETATM    3  C   UNL     1     -41.834 -50.538  12.805  1.00  0.00     0.223 C 
HETATM    4  C   UNL     1     -42.637 -49.256  12.522  1.00  0.00     0.066 C 
HETATM    5  C   UNL     1     -42.235 -48.578  11.206  1.00  0.00     0.274 C 
HETATM    6  N   UNL     1     -40.783 -48.359  11.052  1.00  0.00     0.088 N 
HETATM    7  C   UNL     1     -40.064 -49.626  11.254  1.00  0.00     0.274 C 
HETATM    8  C   UNL     1     -40.336 -50.246  12.624  1.00  0.00     0.066 C 
BRANCH   6   9
HETATM    9  C   UNL     1     -40.311 -47.266  11.925  1.00  0.00     0.272 C 
BRANCH   9  10
HETATM   10  C   UNL     1     -40.954 -45.909  11.609  1.00  0.00     0.026 C 
HETATM   11  C   UNL     1     -39.905 -44.856  11.293  1.00  0.00     0.007 C 
ENDBRANCH   9  10
ENDBRANCH   6   9
ENDBRANCH   1   3
BRANCH   1  12
HETATM   12  C   UNL     1     -42.833 -52.802  12.719  1.00  0.00     0.276 C 
BRANCH  12  13
HETATM   13  C   UNL     1     -44.206 -53.286  12.245  1.00  0.00     0.087 C 
BRANCH  13  14
HETATM   14  C   UNL     1     -45.298 -52.942  13.221  1.00  0.00     0.010 A 
HETATM   15  C   UNL     1     -45.579 -51.612  13.527  1.00  0.00     0.025 A 
HETATM   16  C   UNL     1     -46.527 -51.339  14.506  1.00  0.00     0.003 A 
HETATM   17  C   UNL     1     -47.167 -52.392  15.150  1.00  0.00     0.017 A 
HETATM   18  C   UNL     1     -46.836 -53.683  14.778  1.00  0.00     0.088 A 
HETATM   19  N   UNL     1     -45.920 -53.980  13.833  1.00  0.00    -0.369 N 
ATOM     20  HN  UNL     1     -45.703 -54.946  13.589  1.00  0.00     0.165 HD
ENDBRANCH  13  14
ENDBRANCH  12  13
ENDBRANCH   1  12
TORSDOF 6
ENDMDL
MODEL 5
REMARK VINA RESULT:      -4.9      1.379      6.764
REMARK  6 active torsions:
REMARK  status: ('A' for Active; 'I' for Inactive)
REMARK    1  A    between atoms: C_2  and  C_3 
REMARK    2  A    between atoms: C_3  and  N_4 
REMARK    3  A    between atoms: C_7  and  N_10 
REMARK    4  A    between atoms: N_10  and  C_11 
REMARK    5  A    between atoms: C_11  and  C_12 
REMARK    6  A    between atoms: C_12  and  C_13 
ROOT
HETATM    1  N   UNL     1     -41.214 -54.072  14.220  1.00  0.00     0.088 N 
HETATM    2  H   UNL     1     -40.963 -54.966  14.642  1.00  0.00     0.316 HD
ENDROOT
BRANCH   1   3
HETATM    3  C   UNL     1     -42.505 -54.204  13.513  1.00  0.00     0.223 C 
HETATM    4  C   UNL     1     -42.885 -52.862  12.862  1.00  0.00     0.066 C 
HETATM    5  C   UNL     1     -43.418 -51.839  13.872  1.00  0.00     0.274 C 
HETATM    6  N   UNL     1     -44.495 -52.348  14.744  1.00  0.00     0.088 N 
HETATM    7  C   UNL     1     -44.057 -53.588  15.404  1.00  0.00     0.274 C 
HETATM    8  C   UNL     1     -43.661 -54.677  14.408  1.00  0.00     0.066 C 
BRANCH   6   9
HETATM    9  C   UNL     1     -45.763 -52.489  14.003  1.00  0.00     0.272 C 
BRANCH   9  10
HETATM   10  C   UNL     1     -46.796 -51.406  14.343  1.00  0.00     0.026 C 
HETATM   11  C   UNL     1     -47.180 -51.444  15.812  1.00  0.00     0.007 C 
ENDBRANCH   9  10
ENDBRANCH   6   9
ENDBRANCH   1   3
BRANCH   1  12
HETATM   12  C   UNL     1     -40.098 -53.642  13.360  1.00  0.00     0.276 C 
BRANCH  12  13
HETATM   13  C   UNL     1     -39.155 -52.652  14.051  1.00  0.00     0.087 C 
BRANCH  13  14
HETATM   14  C   UNL     1     -38.940 -51.407  13.234  1.00  0.00     0.010 A 
HETATM   15  C   UNL     1     -37.955 -50.490  13.592  1.00  0.00     0.025 A 
HETATM   16  C   UNL     1     -37.853 -49.305  12.871  1.00  0.00     0.003 A 
HETATM   17  C   UNL     1     -38.731 -49.068  11.819  1.00  0.00     0.017 A 
HETATM   18  C   UNL     1     -39.674 -50.037  11.524  1.00  0.00     0.088 A 
HETATM   19  N   UNL     1     -39.798 -51.195  12.206  1.00  0.00    -0.369 N 
ATOM     20  HN  UNL     1     -40.508 -51.884  11.957  1.00  0.00     0.165 HD
ENDBRANCH  13  14
ENDBRANCH  12  13
ENDBRANCH   1  12
TORSDOF 6
ENDMDL
MODEL 6
REMARK VINA RESULT:      -4.9      2.490      6.185
REMARK  6 active torsions:
REMARK  status: ('A' for Active; 'I' for Inactive)
REMARK    1  A    between atoms: C_2  and  C_3 
REMARK    2  A    between atoms: C_3  and  N_4 
REMARK    3  A    between atoms: C_7  and  N_10 
REMARK    4  A    between atoms: N_10  and  C_11 
REMARK    5  A    between atoms: C_11  and  C_12 
REMARK    6  A    between atoms: C_12  and  C_13 
ROOT
HETATM    1  N   UNL     1     -40.020 -52.026  13.285  1.00  0.00     0.088 N 
HETATM    2  H   UNL     1     -39.319 -52.595  13.760  1.00  0.00     0.316 HD
ENDROOT
BRANCH   1   3
HETATM    3  C   UNL     1     -40.878 -52.895  12.452  1.00  0.00     0.223 C 
HETATM    4  C   UNL     1     -42.163 -52.142  12.063  1.00  0.00     0.066 C 
HETATM    5  C   UNL     1     -43.175 -52.057  13.212  1.00  0.00     0.274 C 
HETATM    6  N   UNL     1     -43.474 -53.350  13.858  1.00  0.00     0.088 N 
HETATM    7  C   UNL     1     -42.221 -53.995  14.283  1.00  0.00     0.274 C 
HETATM    8  C   UNL     1     -41.255 -54.225  13.122  1.00  0.00     0.066 C 
BRANCH   6   9
HETATM    9  C   UNL     1     -44.313 -54.201  12.993  1.00  0.00     0.272 C 
BRANCH   9  10
HETATM   10  C   UNL     1     -45.283 -55.099  13.771  1.00  0.00     0.026 C 
HETATM   11  C   UNL     1     -46.044 -54.315  14.826  1.00  0.00     0.007 C 
ENDBRANCH   9  10
ENDBRANCH   6   9
ENDBRANCH   1   3
BRANCH   1  12
HETATM   12  C   UNL     1     -39.319 -50.972  12.531  1.00  0.00     0.276 C 
BRANCH  12  13
HETATM   13  C   UNL     1     -39.591 -49.566  13.074  1.00  0.00     0.087 C 
BRANCH  13  14
HETATM   14  C   UNL     1     -40.737 -48.894  12.366  1.00  0.00     0.010 A 
HETATM   15  C   UNL     1     -41.877 -48.516  13.071  1.00  0.00     0.025 A 
HETATM   16  C   UNL     1     -42.952 -47.989  12.364  1.00  0.00     0.003 A 
HETATM   17  C   UNL     1     -42.863 -47.853  10.984  1.00  0.00     0.017 A 
HETATM   18  C   UNL     1     -41.690 -48.245  10.364  1.00  0.00     0.088 A 
HETATM   19  N   UNL     1     -40.630 -48.761  11.021  1.00  0.00    -0.369 N 
ATOM     20  HN  UNL     1     -39.782 -49.039  10.526  1.00  0.00     0.165 HD
ENDBRANCH  13  14
ENDBRANCH  12  13
ENDBRANCH   1  12
TORSDOF 6
ENDMDL
MODEL 7
REMARK VINA RESULT:      -4.8      3.625      7.599
REMARK  6 active torsions:
REMARK  status: ('A' for Active; 'I' for Inactive)
REMARK    1  A    between atoms: C_2  and  C_3 
REMARK    2  A    between atoms: C_3  and  N_4 
REMARK    3  A    between atoms: C_7  and  N_10 
REMARK    4  A    between atoms: N_10  and  C_11 
REMARK    5  A    between atoms: C_11  and  C_12 
REMARK    6  A    between atoms: C_12  and  C_13 
ROOT
HETATM    1  N   UNL     1     -43.495 -49.708  12.219  1.00  0.00     0.088 N 
HETATM    2  H   UNL     1     -44.422 -49.389  11.936  1.00  0.00     0.316 HD
ENDROOT
BRANCH   1   3
HETATM    3  C   UNL     1     -43.611 -50.569  13.414  1.00  0.00     0.223 C 
HETATM    4  C   UNL     1     -42.508 -51.642  13.395  1.00  0.00     0.066 C 
HETATM    5  C   UNL     1     -42.801 -52.781  12.411  1.00  0.00     0.274 C 
HETATM    6  N   UNL     1     -44.144 -53.379  12.553  1.00  0.00     0.088 N 
HETATM    7  C   UNL     1     -45.168 -52.324  12.487  1.00  0.00     0.274 C 
HETATM    8  C   UNL     1     -44.979 -51.252  13.559  1.00  0.00     0.066 C 
BRANCH   6   9
HETATM    9  C   UNL     1     -44.233 -54.214  13.766  1.00  0.00     0.272 C 
BRANCH   9  10
HETATM   10  C   UNL     1     -45.475 -55.114  13.801  1.00  0.00     0.026 C 
HETATM   11  C   UNL     1     -46.477 -54.640  14.840  1.00  0.00     0.007 C 
ENDBRANCH   9  10
ENDBRANCH   6   9
ENDBRANCH   1   3
BRANCH   1  12
HETATM   12  C   UNL     1     -42.642 -48.522  12.412  1.00  0.00     0.276 C 
BRANCH  12  13
HETATM   13  C   UNL     1     -41.412 -48.512  11.501  1.00  0.00     0.087 C 
BRANCH  13  14
HETATM   14  C   UNL     1     -40.700 -47.187  11.519  1.00  0.00     0.010 A 
HETATM   15  C   UNL     1     -40.210 -46.665  12.713  1.00  0.00     0.025 A 
HETATM   16  C   UNL     1     -39.648 -45.393  12.704  1.00  0.00     0.003 A 
HETATM   17  C   UNL     1     -39.588 -44.681  11.512  1.00  0.00     0.017 A 
HETATM   18  C   UNL     1     -40.089 -45.278  10.368  1.00  0.00     0.088 A 
HETATM   19  N   UNL     1     -40.642 -46.509  10.346  1.00  0.00    -0.369 N 
ATOM     20  HN  UNL     1     -41.001 -46.914   9.481  1.00  0.00     0.165 HD
ENDBRANCH  13  14
ENDBRANCH  12  13
ENDBRANCH   1  12
TORSDOF 6
ENDMDL
MODEL 8
REMARK VINA RESULT:      -4.7      5.324      8.460
REMARK  6 active torsions:
REMARK  status: ('A' for Active; 'I' for Inactive)
REMARK    1  A    between atoms: C_2  and  C_3 
REMARK    2  A    between atoms: C_3  and  N_4 
REMARK    3  A    between atoms: C_7  and  N_10 
REMARK    4  A    between atoms: N_10  and  C_11 
REMARK    5  A    between atoms: C_11  and  C_12 
REMARK    6  A    between atoms: C_12  and  C_13 
ROOT
HETATM    1  N   UNL     1     -40.831 -46.510  12.328  1.00  0.00     0.088 N 
HETATM    2  H   UNL     1     -41.652 -45.966  12.595  1.00  0.00     0.316 HD
ENDROOT
BRANCH   1   3
HETATM    3  C   UNL     1     -41.017 -47.048  10.965  1.00  0.00     0.223 C 
HETATM    4  C   UNL     1     -41.555 -45.946  10.035  1.00  0.00     0.066 C 
HETATM    5  C   UNL     1     -43.048 -45.664  10.247  1.00  0.00     0.274 C 
HETATM    6  N   UNL     1     -43.905 -46.867  10.223  1.00  0.00     0.088 N 
HETATM    7  C   UNL     1     -43.396 -47.860  11.182  1.00  0.00     0.274 C 
HETATM    8  C   UNL     1     -41.951 -48.267  10.898  1.00  0.00     0.066 C 
BRANCH   6   9
HETATM    9  C   UNL     1     -44.053 -47.392   8.852  1.00  0.00     0.272 C 
BRANCH   9  10
HETATM   10  C   UNL     1     -45.444 -47.972   8.564  1.00  0.00     0.026 C 
HETATM   11  C   UNL     1     -46.545 -47.059   9.077  1.00  0.00     0.007 C 
ENDBRANCH   9  10
ENDBRANCH   6   9
ENDBRANCH   1   3
BRANCH   1  12
HETATM   12  C   UNL     1     -40.609 -47.541  13.357  1.00  0.00     0.276 C 
BRANCH  12  13
HETATM   13  C   UNL     1     -39.140 -47.671  13.769  1.00  0.00     0.087 C 
BRANCH  13  14
HETATM   14  C   UNL     1     -38.497 -48.907  13.200  1.00  0.00     0.010 A 
HETATM   15  C   UNL     1     -38.043 -49.918  14.043  1.00  0.00     0.025 A 
HETATM   16  C   UNL     1     -37.366 -50.997  13.486  1.00  0.00     0.003 A 
HETATM   17  C   UNL     1     -37.163 -51.040  12.112  1.00  0.00     0.017 A 
HETATM   18  C   UNL     1     -37.656 -49.999  11.345  1.00  0.00     0.088 A 
HETATM   19  N   UNL     1     -38.315 -48.938  11.857  1.00  0.00    -0.369 N 
ATOM     20  HN  UNL     1     -38.662 -48.189  11.257  1.00  0.00     0.165 HD
ENDBRANCH  13  14
ENDBRANCH  12  13
ENDBRANCH   1  12
TORSDOF 6
ENDMDL
MODEL 9
REMARK VINA RESULT:      -4.7      1.704      2.181
REMARK  6 active torsions:
REMARK  status: ('A' for Active; 'I' for Inactive)
REMARK    1  A    between atoms: C_2  and  C_3 
REMARK    2  A    between atoms: C_3  and  N_4 
REMARK    3  A    between atoms: C_7  and  N_10 
REMARK    4  A    between atoms: N_10  and  C_11 
REMARK    5  A    between atoms: C_11  and  C_12 
REMARK    6  A    between atoms: C_12  and  C_13 
ROOT
HETATM    1  N   UNL     1     -42.064 -53.635  13.490  1.00  0.00     0.088 N 
HETATM    2  H   UNL     1     -41.297 -54.216  13.149  1.00  0.00     0.316 HD
ENDROOT
BRANCH   1   3
HETATM    3  C   UNL     1     -41.516 -52.476  14.226  1.00  0.00     0.223 C 
HETATM    4  C   UNL     1     -42.466 -51.273  14.090  1.00  0.00     0.066 C 
HETATM    5  C   UNL     1     -42.371 -50.589  12.721  1.00  0.00     0.274 C 
HETATM    6  N   UNL     1     -40.996 -50.249  12.304  1.00  0.00     0.088 N 
HETATM    7  C   UNL     1     -40.144 -51.446  12.376  1.00  0.00     0.274 C 
HETATM    8  C   UNL     1     -40.107 -52.060  13.774  1.00  0.00     0.066 C 
BRANCH   6   9
HETATM    9  C   UNL     1     -40.471 -49.103  13.072  1.00  0.00     0.272 C 
BRANCH   9  10
HETATM   10  C   UNL     1     -39.457 -48.255  12.293  1.00  0.00     0.026 C 
HETATM   11  C   UNL     1     -40.148 -47.195  11.452  1.00  0.00     0.007 C 
ENDBRANCH   9  10
ENDBRANCH   6   9
ENDBRANCH   1   3
BRANCH   1  12
HETATM   12  C   UNL     1     -42.962 -54.485  14.290  1.00  0.00     0.276 C 
BRANCH  12  13
HETATM   13  C   UNL     1     -44.326 -54.705  13.629  1.00  0.00     0.087 C 
BRANCH  13  14
HETATM   14  C   UNL     1     -45.262 -53.549  13.857  1.00  0.00     0.010 A 
HETATM   15  C   UNL     1     -45.649 -52.734  12.797  1.00  0.00     0.025 A 
HETATM   16  C   UNL     1     -46.434 -51.618  13.065  1.00  0.00     0.003 A 
HETATM   17  C   UNL     1     -46.811 -51.347  14.375  1.00  0.00     0.017 A 
HETATM   18  C   UNL     1     -46.391 -52.214  15.369  1.00  0.00     0.088 A 
HETATM   19  N   UNL     1     -45.628 -53.303  15.140  1.00  0.00    -0.369 N 
ATOM     20  HN  UNL     1     -45.338 -53.918  15.901  1.00  0.00     0.165 HD
ENDBRANCH  13  14
ENDBRANCH  12  13
ENDBRANCH   1  12
TORSDOF 6
ENDMDL
