MODEL 1
REMARK VINA RESULT:      -6.0      0.000      0.000
REMARK  2 active torsions:
REMARK  status: ('A' for Active; 'I' for Inactive)
REMARK    1  A    between atoms: C_5  and  N_6 
REMARK       I    between atoms: N_6  and  C_7 
REMARK    2  A    between atoms: C_7  and  C_9 
ROOT
HETATM    1  N   UNL     1     -42.777 -48.184   9.980  1.00  0.00    -0.311 N 
HETATM    2  C   UNL     1     -43.132 -47.022   9.319  1.00  0.00     0.252 C 
HETATM    3  O   UNL     1     -42.513 -45.964   9.267  1.00  0.00    -0.270 OA
HETATM    4  H   UNL     1     -43.438 -48.947   9.911  1.00  0.00     0.170 HD
ENDROOT
BRANCH   1   5
HETATM    5  C   UNL     1     -41.596 -48.366  10.705  1.00  0.00     0.107 A 
HETATM    6  C   UNL     1     -41.260 -47.413  11.662  1.00  0.00     0.049 A 
HETATM    7  C   UNL     1     -40.104 -47.601  12.429  1.00  0.00     0.012 A 
HETATM    8  C   UNL     1     -39.317 -48.732  12.224  1.00  0.00    -0.046 A 
HETATM    9  C   UNL     1     -38.086 -49.012  13.024  1.00  0.00     0.049 C 
HETATM   10  C   UNL     1     -39.720 -49.609  11.230  1.00  0.00     0.096 A 
HETATM   11  N   UNL     1     -40.830 -49.445  10.481  1.00  0.00    -0.352 N 
ATOM     12  HN  UNL     1     -41.082 -50.124   9.763  1.00  0.00     0.166 HD
ENDBRANCH   1   5
BRANCH   2  13
HETATM   13  C   UNL     1     -44.464 -47.171   8.572  1.00  0.00     0.213 C 
HETATM   14  C   UNL     1     -45.627 -47.328   9.540  1.00  0.00     0.044 C 
HETATM   15  C   UNL     1     -46.545 -48.338   8.887  1.00  0.00     0.029 C 
HETATM   16  C   UNL     1     -45.896 -48.648   7.557  1.00  0.00     0.168 C 
HETATM   17  O   UNL     1     -44.513 -48.308   7.696  1.00  0.00    -0.376 OA
ENDBRANCH   2  13
TORSDOF 2
ENDMDL
MODEL 2
REMARK VINA RESULT:      -5.8      5.334      7.530
REMARK  2 active torsions:
REMARK  status: ('A' for Active; 'I' for Inactive)
REMARK    1  A    between atoms: C_5  and  N_6 
REMARK       I    between atoms: N_6  and  C_7 
REMARK    2  A    between atoms: C_7  and  C_9 
ROOT
HETATM    1  N   UNL     1     -40.814 -52.464  13.267  1.00  0.00    -0.311 N 
HETATM    2  C   UNL     1     -40.717 -51.208  12.695  1.00  0.00     0.252 C 
HETATM    3  O   UNL     1     -41.609 -50.544  12.176  1.00  0.00    -0.270 OA
HETATM    4  H   UNL     1     -39.951 -52.848  13.630  1.00  0.00     0.170 HD
ENDROOT
BRANCH   1   5
HETATM    5  C   UNL     1     -41.993 -53.206  13.379  1.00  0.00     0.107 A 
HETATM    6  C   UNL     1     -42.158 -54.011  14.502  1.00  0.00     0.049 A 
HETATM    7  C   UNL     1     -43.351 -54.727  14.655  1.00  0.00     0.012 A 
HETATM    8  C   UNL     1     -44.347 -54.619  13.686  1.00  0.00    -0.046 A 
HETATM    9  C   UNL     1     -45.657 -55.332  13.796  1.00  0.00     0.049 C 
HETATM   10  C   UNL     1     -44.079 -53.814  12.591  1.00  0.00     0.096 A 
HETATM   11  N   UNL     1     -42.935 -53.117  12.428  1.00  0.00    -0.352 N 
ATOM     12  HN  UNL     1     -42.790 -52.536  11.602  1.00  0.00     0.166 HD
ENDBRANCH   1   5
BRANCH   2  13
HETATM   13  C   UNL     1     -39.292 -50.646  12.783  1.00  0.00     0.213 C 
HETATM   14  C   UNL     1     -38.976 -49.753  11.593  1.00  0.00     0.044 C 
HETATM   15  C   UNL     1     -37.532 -50.050  11.255  1.00  0.00     0.029 C 
HETATM   16  C   UNL     1     -37.083 -51.038  12.307  1.00  0.00     0.168 C 
HETATM   17  O   UNL     1     -38.272 -51.655  12.811  1.00  0.00    -0.376 OA
ENDBRANCH   2  13
TORSDOF 2
ENDMDL
MODEL 3
REMARK VINA RESULT:      -5.5      3.764      5.490
REMARK  2 active torsions:
REMARK  status: ('A' for Active; 'I' for Inactive)
REMARK    1  A    between atoms: C_5  and  N_6 
REMARK       I    between atoms: N_6  and  C_7 
REMARK    2  A    between atoms: C_7  and  C_9 
ROOT
HETATM    1  N   UNL     1     -41.756 -49.999  11.377  1.00  0.00    -0.311 N 
HETATM    2  C   UNL     1     -40.734 -50.826  11.808  1.00  0.00     0.252 C 
HETATM    3  O   UNL     1     -39.602 -50.506  12.159  1.00  0.00    -0.270 OA
HETATM    4  H   UNL     1     -42.616 -50.465  11.116  1.00  0.00     0.170 HD
ENDROOT
BRANCH   1   5
HETATM    5  C   UNL     1     -41.680 -48.607  11.292  1.00  0.00     0.107 A 
HETATM    6  C   UNL     1     -42.817 -47.867  11.602  1.00  0.00     0.049 A 
HETATM    7  C   UNL     1     -42.748 -46.469  11.567  1.00  0.00     0.012 A 
HETATM    8  C   UNL     1     -41.549 -45.847  11.225  1.00  0.00    -0.046 A 
HETATM    9  C   UNL     1     -41.393 -44.361  11.193  1.00  0.00     0.049 C 
HETATM   10  C   UNL     1     -40.480 -46.669  10.907  1.00  0.00     0.096 A 
HETATM   11  N   UNL     1     -40.528 -48.017  10.936  1.00  0.00    -0.352 N 
ATOM     12  HN  UNL     1     -39.709 -48.575  10.694  1.00  0.00     0.166 HD
ENDBRANCH   1   5
BRANCH   2  13
HETATM   13  C   UNL     1     -41.160 -52.299  11.837  1.00  0.00     0.213 C 
HETATM   14  C   UNL     1     -42.531 -52.465  12.474  1.00  0.00     0.044 C 
HETATM   15  C   UNL     1     -42.434 -53.740  13.284  1.00  0.00     0.029 C 
HETATM   16  C   UNL     1     -41.044 -54.267  13.010  1.00  0.00     0.168 C 
HETATM   17  O   UNL     1     -40.268 -53.146  12.577  1.00  0.00    -0.376 OA
ENDBRANCH   2  13
TORSDOF 2
ENDMDL
MODEL 4
REMARK VINA RESULT:      -5.4      4.097      6.311
REMARK  2 active torsions:
REMARK  status: ('A' for Active; 'I' for Inactive)
REMARK    1  A    between atoms: C_5  and  N_6 
REMARK       I    between atoms: N_6  and  C_7 
REMARK    2  A    between atoms: C_7  and  C_9 
ROOT
HETATM    1  N   UNL     1     -40.384 -50.969  12.008  1.00  0.00    -0.311 N 
HETATM    2  C   UNL     1     -41.379 -51.870  12.342  1.00  0.00     0.252 C 
HETATM    3  O   UNL     1     -42.590 -51.675  12.385  1.00  0.00    -0.270 OA
HETATM    4  H   UNL     1     -39.438 -51.327  12.049  1.00  0.00     0.170 HD
ENDROOT
BRANCH   1   5
HETATM    5  C   UNL     1     -40.598 -49.644  11.621  1.00  0.00     0.107 A 
HETATM    6  C   UNL     1     -39.676 -48.684  12.027  1.00  0.00     0.049 A 
HETATM    7  C   UNL     1     -39.848 -47.359  11.612  1.00  0.00     0.012 A 
HETATM    8  C   UNL     1     -40.933 -47.026  10.802  1.00  0.00    -0.046 A 
HETATM    9  C   UNL     1     -41.166 -45.638  10.298  1.00  0.00     0.049 C 
HETATM   10  C   UNL     1     -41.811 -48.046  10.473  1.00  0.00     0.096 A 
HETATM   11  N   UNL     1     -41.660 -49.329  10.864  1.00  0.00    -0.352 N 
ATOM     12  HN  UNL     1     -42.336 -50.041  10.590  1.00  0.00     0.166 HD
ENDBRANCH   1   5
BRANCH   2  13
HETATM   13  C   UNL     1     -40.813 -53.259  12.665  1.00  0.00     0.213 C 
HETATM   14  C   UNL     1     -41.662 -53.974  13.704  1.00  0.00     0.044 C 
HETATM   15  C   UNL     1     -40.670 -54.706  14.582  1.00  0.00     0.029 C 
HETATM   16  C   UNL     1     -39.321 -54.427  13.958  1.00  0.00     0.168 C 
HETATM   17  O   UNL     1     -39.475 -53.232  13.186  1.00  0.00    -0.376 OA
ENDBRANCH   2  13
TORSDOF 2
ENDMDL
MODEL 5
REMARK VINA RESULT:      -5.4      4.911      5.454
REMARK  2 active torsions:
REMARK  status: ('A' for Active; 'I' for Inactive)
REMARK    1  A    between atoms: C_5  and  N_6 
REMARK       I    between atoms: N_6  and  C_7 
REMARK    2  A    between atoms: C_7  and  C_9 
ROOT
HETATM    1  N   UNL     1     -43.267 -51.315  12.744  1.00  0.00    -0.311 N 
HETATM    2  C   UNL     1     -43.715 -52.623  12.791  1.00  0.00     0.252 C 
HETATM    3  O   UNL     1     -43.064 -53.650  12.621  1.00  0.00    -0.270 OA
HETATM    4  H   UNL     1     -43.972 -50.605  12.898  1.00  0.00     0.170 HD
ENDROOT
BRANCH   1   5
HETATM    5  C   UNL     1     -41.944 -50.927  12.517  1.00  0.00     0.107 A 
HETATM    6  C   UNL     1     -40.981 -51.299  13.450  1.00  0.00     0.049 A 
HETATM    7  C   UNL     1     -39.643 -50.959  13.217  1.00  0.00     0.012 A 
HETATM    8  C   UNL     1     -39.301 -50.260  12.060  1.00  0.00    -0.046 A 
HETATM    9  C   UNL     1     -37.892 -49.887  11.732  1.00  0.00     0.049 C 
HETATM   10  C   UNL     1     -40.334 -49.912  11.205  1.00  0.00     0.096 A 
HETATM   11  N   UNL     1     -41.629 -50.231  11.413  1.00  0.00    -0.352 N 
ATOM     12  HN  UNL     1     -42.350 -49.952  10.749  1.00  0.00     0.166 HD
ENDBRANCH   1   5
BRANCH   2  13
HETATM   13  C   UNL     1     -45.211 -52.706  13.118  1.00  0.00     0.213 C 
HETATM   14  C   UNL     1     -45.809 -51.324  13.328  1.00  0.00     0.044 C 
HETATM   15  C   UNL     1     -46.795 -51.493  14.463  1.00  0.00     0.029 C 
HETATM   16  C   UNL     1     -46.758 -52.968  14.791  1.00  0.00     0.168 C 
HETATM   17  O   UNL     1     -45.503 -53.456  14.307  1.00  0.00    -0.376 OA
ENDBRANCH   2  13
TORSDOF 2
ENDMDL
MODEL 6
REMARK VINA RESULT:      -5.3      2.891      3.474
REMARK  2 active torsions:
REMARK  status: ('A' for Active; 'I' for Inactive)
REMARK    1  A    between atoms: C_5  and  N_6 
REMARK       I    between atoms: N_6  and  C_7 
REMARK    2  A    between atoms: C_7  and  C_9 
ROOT
HETATM    1  N   UNL     1     -42.960 -49.233  11.896  1.00  0.00    -0.311 N 
HETATM    2  C   UNL     1     -42.333 -48.340  11.046  1.00  0.00     0.252 C 
HETATM    3  O   UNL     1     -41.194 -48.403  10.592  1.00  0.00    -0.270 OA
HETATM    4  H   UNL     1     -43.904 -48.989  12.168  1.00  0.00     0.170 HD
ENDROOT
BRANCH   1   5
HETATM    5  C   UNL     1     -42.394 -50.416  12.377  1.00  0.00     0.107 A 
HETATM    6  C   UNL     1     -42.663 -50.786  13.691  1.00  0.00     0.049 A 
HETATM    7  C   UNL     1     -42.142 -51.991  14.177  1.00  0.00     0.012 A 
HETATM    8  C   UNL     1     -41.368 -52.794  13.341  1.00  0.00    -0.046 A 
HETATM    9  C   UNL     1     -40.802 -54.105  13.782  1.00  0.00     0.049 C 
HETATM   10  C   UNL     1     -41.133 -52.327  12.058  1.00  0.00     0.096 A 
HETATM   11  N   UNL     1     -41.628 -51.169  11.572  1.00  0.00    -0.352 N 
ATOM     12  HN  UNL     1     -41.425 -50.874  10.618  1.00  0.00     0.166 HD
ENDBRANCH   1   5
BRANCH   2  13
HETATM   13  C   UNL     1     -43.250 -47.171  10.662  1.00  0.00     0.213 C 
HETATM   14  C   UNL     1     -44.575 -47.669  10.104  1.00  0.00     0.044 C 
HETATM   15  C   UNL     1     -44.912 -46.710   8.984  1.00  0.00     0.029 C 
HETATM   16  C   UNL     1     -43.804 -45.682   9.007  1.00  0.00     0.168 C 
HETATM   17  O   UNL     1     -42.694 -46.303   9.662  1.00  0.00    -0.376 OA
ENDBRANCH   2  13
TORSDOF 2
ENDMDL
MODEL 7
REMARK VINA RESULT:      -5.3      4.826      6.441
REMARK  2 active torsions:
REMARK  status: ('A' for Active; 'I' for Inactive)
REMARK    1  A    between atoms: C_5  and  N_6 
REMARK       I    between atoms: N_6  and  C_7 
REMARK    2  A    between atoms: C_7  and  C_9 
ROOT
HETATM    1  N   UNL     1     -42.351 -50.931  12.164  1.00  0.00    -0.311 N 
HETATM    2  C   UNL     1     -40.985 -51.036  11.976  1.00  0.00     0.252 C 
HETATM    3  O   UNL     1     -40.257 -51.988  12.242  1.00  0.00    -0.270 OA
HETATM    4  H   UNL     1     -42.765 -50.049  11.889  1.00  0.00     0.170 HD
ENDROOT
BRANCH   1   5
HETATM    5  C   UNL     1     -43.169 -51.938  12.683  1.00  0.00     0.107 A 
HETATM    6  C   UNL     1     -43.776 -51.720  13.916  1.00  0.00     0.049 A 
HETATM    7  C   UNL     1     -44.635 -52.698  14.432  1.00  0.00     0.012 A 
HETATM    8  C   UNL     1     -44.868 -53.864  13.704  1.00  0.00    -0.046 A 
HETATM    9  C   UNL     1     -45.793 -54.938  14.178  1.00  0.00     0.049 C 
HETATM   10  C   UNL     1     -44.196 -54.000  12.499  1.00  0.00     0.096 A 
HETATM   11  N   UNL     1     -43.366 -53.068  11.987  1.00  0.00    -0.352 N 
ATOM     12  HN  UNL     1     -42.899 -53.219  11.093  1.00  0.00     0.166 HD
ENDBRANCH   1   5
BRANCH   2  13
HETATM   13  C   UNL     1     -40.395 -49.774  11.334  1.00  0.00     0.213 C 
HETATM   14  C   UNL     1     -39.162 -49.295  12.086  1.00  0.00     0.044 C 
HETATM   15  C   UNL     1     -39.256 -47.786  12.070  1.00  0.00     0.029 C 
HETATM   16  C   UNL     1     -40.492 -47.483  11.254  1.00  0.00     0.168 C 
HETATM   17  O   UNL     1     -41.302 -48.662  11.301  1.00  0.00    -0.376 OA
ENDBRANCH   2  13
TORSDOF 2
ENDMDL
MODEL 8
REMARK VINA RESULT:      -5.0      3.419      4.829
REMARK  2 active torsions:
REMARK  status: ('A' for Active; 'I' for Inactive)
REMARK    1  A    between atoms: C_5  and  N_6 
REMARK       I    between atoms: N_6  and  C_7 
REMARK    2  A    between atoms: C_7  and  C_9 
ROOT
HETATM    1  N   UNL     1     -39.979 -48.853  11.778  1.00  0.00    -0.311 N 
HETATM    2  C   UNL     1     -40.873 -48.062  11.079  1.00  0.00     0.252 C 
HETATM    3  O   UNL     1     -41.961 -48.384  10.611  1.00  0.00    -0.270 OA
HETATM    4  H   UNL     1     -39.123 -48.396  12.067  1.00  0.00     0.170 HD
ENDROOT
BRANCH   1   5
HETATM    5  C   UNL     1     -40.183 -50.195  12.108  1.00  0.00     0.107 A 
HETATM    6  C   UNL     1     -39.546 -50.698  13.238  1.00  0.00     0.049 A 
HETATM    7  C   UNL     1     -39.773 -52.028  13.610  1.00  0.00     0.012 A 
HETATM    8  C   UNL     1     -40.631 -52.820  12.848  1.00  0.00    -0.046 A 
HETATM    9  C   UNL     1     -40.943 -54.239  13.199  1.00  0.00     0.049 C 
HETATM   10  C   UNL     1     -41.197 -52.237  11.725  1.00  0.00     0.096 A 
HETATM   11  N   UNL     1     -40.990 -50.957  11.352  1.00  0.00    -0.352 N 
ATOM     12  HN  UNL     1     -41.434 -50.577  10.517  1.00  0.00     0.166 HD
ENDBRANCH   1   5
BRANCH   2  13
HETATM   13  C   UNL     1     -40.371 -46.619  10.934  1.00  0.00     0.213 C 
HETATM   14  C   UNL     1     -39.795 -46.100  12.242  1.00  0.00     0.044 C 
HETATM   15  C   UNL     1     -40.229 -44.652  12.314  1.00  0.00     0.029 C 
HETATM   16  C   UNL     1     -40.965 -44.405  11.017  1.00  0.00     0.168 C 
HETATM   17  O   UNL     1     -41.392 -45.687  10.547  1.00  0.00    -0.376 OA
ENDBRANCH   2  13
TORSDOF 2
ENDMDL
MODEL 9
REMARK VINA RESULT:      -5.0      4.532      5.560
REMARK  2 active torsions:
REMARK  status: ('A' for Active; 'I' for Inactive)
REMARK    1  A    between atoms: C_5  and  N_6 
REMARK       I    between atoms: N_6  and  C_7 
REMARK    2  A    between atoms: C_7  and  C_9 
ROOT
HETATM    1  N   UNL     1     -42.254 -51.030  12.186  1.00  0.00    -0.311 N 
HETATM    2  C   UNL     1     -41.518 -52.198  12.272  1.00  0.00     0.252 C 
HETATM    3  O   UNL     1     -40.311 -52.344  12.100  1.00  0.00    -0.270 OA
HETATM    4  H   UNL     1     -43.248 -51.127  12.349  1.00  0.00     0.170 HD
ENDROOT
BRANCH   1   5
HETATM    5  C   UNL     1     -41.726 -49.767  11.907  1.00  0.00     0.107 A 
HETATM    6  C   UNL     1     -40.807 -49.228  12.803  1.00  0.00     0.049 A 
HETATM    7  C   UNL     1     -40.233 -47.983  12.518  1.00  0.00     0.012 A 
HETATM    8  C   UNL     1     -40.588 -47.312  11.349  1.00  0.00    -0.046 A 
HETATM    9  C   UNL     1     -39.996 -45.994  10.967  1.00  0.00     0.049 C 
HETATM   10  C   UNL     1     -41.531 -47.918  10.535  1.00  0.00     0.096 A 
HETATM   11  N   UNL     1     -42.094 -49.117  10.793  1.00  0.00    -0.352 N 
ATOM     12  HN  UNL     1     -42.782 -49.518  10.157  1.00  0.00     0.166 HD
ENDBRANCH   1   5
BRANCH   2  13
HETATM   13  C   UNL     1     -42.391 -53.402  12.650  1.00  0.00     0.213 C 
HETATM   14  C   UNL     1     -43.864 -53.115  12.403  1.00  0.00     0.044 C 
HETATM   15  C   UNL     1     -44.588 -53.773  13.557  1.00  0.00     0.029 C 
HETATM   16  C   UNL     1     -43.502 -54.456  14.357  1.00  0.00     0.168 C 
HETATM   17  O   UNL     1     -42.281 -53.787  14.028  1.00  0.00    -0.376 OA
ENDBRANCH   2  13
TORSDOF 2
ENDMDL
