MODEL 1
REMARK VINA RESULT:      -6.3      0.000      0.000
REMARK  2 active torsions:
REMARK  status: ('A' for Active; 'I' for Inactive)
REMARK    1  A    between atoms: C_4  and  N_5 
REMARK       I    between atoms: N_5  and  C_6 
REMARK       I    between atoms: C_6  and  N_8 
REMARK    2  A    between atoms: N_8  and  C_9 
ROOT
HETATM    1  N   UNL     1     -42.046 -51.113  11.731  1.00  0.00    -0.293 N 
HETATM    2  C   UNL     1     -42.700 -51.454  12.947  1.00  0.00     0.322 C 
HETATM    3  O   UNL     1     -42.236 -51.205  14.044  1.00  0.00    -0.247 OA
HETATM    4  N   UNL     1     -43.867 -52.102  12.677  1.00  0.00    -0.330 N 
HETATM    5  H   UNL     1     -42.456 -51.430  10.868  1.00  0.00     0.172 HD
HETATM    6  H   UNL     1     -44.303 -51.883  11.794  1.00  0.00     0.165 HD
ENDROOT
BRANCH   1   7
HETATM    7  C   UNL     1     -40.843 -50.413  11.667  1.00  0.00     0.127 A 
HETATM    8  C   UNL     1     -39.594 -50.836  12.071  1.00  0.00     0.076 A 
HETATM    9  C   UNL     1     -38.710 -49.780  11.762  1.00  0.00     0.025 A 
HETATM   10  C   UNL     1     -37.244 -49.733  11.975  1.00  0.00     0.070 C 
HETATM   11  N   UNL     1     -39.355 -48.744  11.219  1.00  0.00    -0.302 N 
HETATM   12  N   UNL     1     -40.642 -49.138  11.182  1.00  0.00    -0.281 N 
ATOM     13  HN  UNL     1     -38.962 -47.857  10.904  1.00  0.00     0.186 HD
HETATM   14  C   UNL     1     -41.606 -48.214  10.642  1.00  0.00     0.179 C 
ENDBRANCH   1   7
BRANCH   4  15
HETATM   15  C   UNL     1     -44.820 -52.415  13.742  1.00  0.00     0.178 C 
HETATM   16  C   UNL     1     -45.852 -51.332  14.058  1.00  0.00     0.036 C 
HETATM   17  C   UNL     1     -46.733 -51.802  15.217  1.00  0.00     0.022 C 
HETATM   18  C   UNL     1     -47.438 -53.100  14.846  1.00  0.00     0.122 C 
HETATM   19  N   UNL     1     -46.543 -54.099  14.293  1.00  0.00    -0.359 N 
HETATM   20  C   UNL     1     -45.472 -53.787  13.499  1.00  0.00     0.240 C 
HETATM   21  H   UNL     1     -46.933 -55.016  14.096  1.00  0.00     0.162 HD
HETATM   22  O   UNL     1     -44.985 -54.617  12.734  1.00  0.00    -0.271 OA
ENDBRANCH   4  15
TORSDOF 2
ENDMDL
MODEL 2
REMARK VINA RESULT:      -6.2      2.565      6.915
REMARK  2 active torsions:
REMARK  status: ('A' for Active; 'I' for Inactive)
REMARK    1  A    between atoms: C_4  and  N_5 
REMARK       I    between atoms: N_5  and  C_6 
REMARK       I    between atoms: C_6  and  N_8 
REMARK    2  A    between atoms: N_8  and  C_9 
ROOT
HETATM    1  N   UNL     1     -42.191 -51.804  11.838  1.00  0.00    -0.293 N 
HETATM    2  C   UNL     1     -42.258 -50.418  12.151  1.00  0.00     0.322 C 
HETATM    3  O   UNL     1     -42.888 -49.980  13.095  1.00  0.00    -0.247 OA
HETATM    4  N   UNL     1     -41.550 -49.703  11.233  1.00  0.00    -0.330 N 
HETATM    5  H   UNL     1     -41.718 -52.076  10.991  1.00  0.00     0.172 HD
HETATM    6  H   UNL     1     -40.787 -50.188  10.785  1.00  0.00     0.165 HD
ENDROOT
BRANCH   1   7
HETATM    7  C   UNL     1     -42.786 -52.804  12.605  1.00  0.00     0.127 A 
HETATM    8  C   UNL     1     -44.084 -53.263  12.537  1.00  0.00     0.076 A 
HETATM    9  C   UNL     1     -44.179 -54.298  13.493  1.00  0.00     0.025 A 
HETATM   10  C   UNL     1     -45.358 -55.139  13.806  1.00  0.00     0.070 C 
HETATM   11  N   UNL     1     -43.025 -54.470  14.144  1.00  0.00    -0.302 N 
HETATM   12  N   UNL     1     -42.201 -53.550  13.606  1.00  0.00    -0.281 N 
ATOM     13  HN  UNL     1     -42.816 -55.143  14.881  1.00  0.00     0.186 HD
HETATM   14  C   UNL     1     -40.855 -53.483  14.115  1.00  0.00     0.179 C 
ENDBRANCH   1   7
BRANCH   4  15
HETATM   15  C   UNL     1     -41.313 -48.271  11.414  1.00  0.00     0.178 C 
HETATM   16  C   UNL     1     -39.889 -47.871  11.801  1.00  0.00     0.036 C 
HETATM   17  C   UNL     1     -39.829 -46.355  11.992  1.00  0.00     0.022 C 
HETATM   18  C   UNL     1     -40.234 -45.649  10.705  1.00  0.00     0.122 C 
HETATM   19  N   UNL     1     -41.467 -46.161  10.136  1.00  0.00    -0.359 N 
HETATM   20  C   UNL     1     -41.829 -47.481  10.200  1.00  0.00     0.240 C 
HETATM   21  H   UNL     1     -41.837 -45.684   9.320  1.00  0.00     0.162 HD
HETATM   22  O   UNL     1     -42.631 -47.958   9.399  1.00  0.00    -0.271 OA
ENDBRANCH   4  15
TORSDOF 2
ENDMDL
MODEL 3
REMARK VINA RESULT:      -6.2      4.073      5.437
REMARK  2 active torsions:
REMARK  status: ('A' for Active; 'I' for Inactive)
REMARK    1  A    between atoms: C_4  and  N_5 
REMARK       I    between atoms: N_5  and  C_6 
REMARK       I    between atoms: C_6  and  N_8 
REMARK    2  A    between atoms: N_8  and  C_9 
ROOT
HETATM    1  N   UNL     1     -41.056 -49.074  10.466  1.00  0.00    -0.293 N 
HETATM    2  C   UNL     1     -41.160 -49.775  11.700  1.00  0.00     0.322 C 
HETATM    3  O   UNL     1     -41.817 -49.371  12.640  1.00  0.00    -0.247 OA
HETATM    4  N   UNL     1     -40.406 -50.908  11.651  1.00  0.00    -0.330 N 
HETATM    5  H   UNL     1     -40.424 -49.433   9.769  1.00  0.00     0.172 HD
HETATM    6  H   UNL     1     -40.263 -51.308  10.736  1.00  0.00     0.165 HD
ENDROOT
BRANCH   1   7
HETATM    7  C   UNL     1     -41.736 -47.890  10.186  1.00  0.00     0.127 A 
HETATM    8  C   UNL     1     -42.931 -47.738   9.516  1.00  0.00     0.076 A 
HETATM    9  C   UNL     1     -43.208 -46.354   9.529  1.00  0.00     0.025 A 
HETATM   10  C   UNL     1     -44.387 -45.658   8.960  1.00  0.00     0.070 C 
HETATM   11  N   UNL     1     -42.241 -45.667  10.143  1.00  0.00    -0.302 N 
HETATM   12  N   UNL     1     -41.354 -46.608  10.520  1.00  0.00    -0.281 N 
ATOM     13  HN  UNL     1     -42.185 -44.660  10.292  1.00  0.00     0.186 HD
HETATM   14  C   UNL     1     -40.173 -46.169  11.218  1.00  0.00     0.179 C 
ENDBRANCH   1   7
BRANCH   4  15
HETATM   15  C   UNL     1     -40.467 -51.900  12.724  1.00  0.00     0.178 C 
HETATM   16  C   UNL     1     -40.941 -53.297  12.320  1.00  0.00     0.036 C 
HETATM   17  C   UNL     1     -40.988 -54.189  13.561  1.00  0.00     0.022 C 
HETATM   18  C   UNL     1     -39.607 -54.273  14.198  1.00  0.00     0.122 C 
HETATM   19  N   UNL     1     -38.982 -52.977  14.381  1.00  0.00    -0.359 N 
HETATM   20  C   UNL     1     -39.140 -51.939  13.501  1.00  0.00     0.240 C 
HETATM   21  H   UNL     1     -38.093 -52.953  14.871  1.00  0.00     0.162 HD
HETATM   22  O   UNL     1     -38.321 -51.023  13.445  1.00  0.00    -0.271 OA
ENDBRANCH   4  15
TORSDOF 2
ENDMDL
MODEL 4
REMARK VINA RESULT:      -6.1      2.232      2.726
REMARK  2 active torsions:
REMARK  status: ('A' for Active; 'I' for Inactive)
REMARK    1  A    between atoms: C_4  and  N_5 
REMARK       I    between atoms: N_5  and  C_6 
REMARK       I    between atoms: C_6  and  N_8 
REMARK    2  A    between atoms: N_8  and  C_9 
ROOT
HETATM    1  N   UNL     1     -42.218 -49.345  11.369  1.00  0.00    -0.293 N 
HETATM    2  C   UNL     1     -43.014 -49.538  12.533  1.00  0.00     0.322 C 
HETATM    3  O   UNL     1     -43.324 -48.633  13.284  1.00  0.00    -0.247 OA
HETATM    4  N   UNL     1     -43.327 -50.857  12.663  1.00  0.00    -0.330 N 
HETATM    5  H   UNL     1     -41.936 -50.159  10.848  1.00  0.00     0.172 HD
HETATM    6  H   UNL     1     -43.360 -51.393  11.809  1.00  0.00     0.165 HD
ENDROOT
BRANCH   1   7
HETATM    7  C   UNL     1     -41.761 -48.100  10.940  1.00  0.00     0.127 A 
HETATM    8  C   UNL     1     -40.654 -47.406  11.379  1.00  0.00     0.076 A 
HETATM    9  C   UNL     1     -40.608 -46.224  10.609  1.00  0.00     0.025 A 
HETATM   10  C   UNL     1     -39.599 -45.140  10.670  1.00  0.00     0.070 C 
HETATM   11  N   UNL     1     -41.632 -46.157   9.754  1.00  0.00    -0.302 N 
HETATM   12  N   UNL     1     -42.325 -47.290   9.977  1.00  0.00    -0.281 N 
ATOM     13  HN  UNL     1     -41.841 -45.416   9.085  1.00  0.00     0.186 HD
HETATM   14  C   UNL     1     -43.513 -47.509   9.193  1.00  0.00     0.179 C 
ENDBRANCH   1   7
BRANCH   4  15
HETATM   15  C   UNL     1     -44.277 -51.309  13.679  1.00  0.00     0.178 C 
HETATM   16  C   UNL     1     -45.752 -51.283  13.277  1.00  0.00     0.036 C 
HETATM   17  C   UNL     1     -46.603 -51.741  14.462  1.00  0.00     0.022 C 
HETATM   18  C   UNL     1     -46.204 -53.149  14.880  1.00  0.00     0.122 C 
HETATM   19  N   UNL     1     -44.772 -53.316  15.036  1.00  0.00    -0.359 N 
HETATM   20  C   UNL     1     -43.853 -52.675  14.246  1.00  0.00     0.240 C 
HETATM   21  H   UNL     1     -44.441 -54.209  15.388  1.00  0.00     0.162 HD
HETATM   22  O   UNL     1     -42.711 -53.113  14.116  1.00  0.00    -0.271 OA
ENDBRANCH   4  15
TORSDOF 2
ENDMDL
MODEL 5
REMARK VINA RESULT:      -6.0      2.815      3.741
REMARK  2 active torsions:
REMARK  status: ('A' for Active; 'I' for Inactive)
REMARK    1  A    between atoms: C_4  and  N_5 
REMARK       I    between atoms: N_5  and  C_6 
REMARK       I    between atoms: C_6  and  N_8 
REMARK    2  A    between atoms: N_8  and  C_9 
ROOT
HETATM    1  N   UNL     1     -41.578 -49.349  10.768  1.00  0.00    -0.293 N 
HETATM    2  C   UNL     1     -41.820 -49.972  12.024  1.00  0.00     0.322 C 
HETATM    3  O   UNL     1     -41.911 -49.353  13.067  1.00  0.00    -0.247 OA
HETATM    4  N   UNL     1     -41.901 -51.322  11.860  1.00  0.00    -0.330 N 
HETATM    5  H   UNL     1     -41.432 -49.940   9.966  1.00  0.00     0.172 HD
HETATM    6  H   UNL     1     -42.207 -51.642  10.953  1.00  0.00     0.165 HD
ENDROOT
BRANCH   1   7
HETATM    7  C   UNL     1     -41.476 -47.970  10.593  1.00  0.00     0.127 A 
HETATM    8  C   UNL     1     -40.490 -47.127  11.062  1.00  0.00     0.076 A 
HETATM    9  C   UNL     1     -40.824 -45.840  10.588  1.00  0.00     0.025 A 
HETATM   10  C   UNL     1     -40.077 -44.576  10.792  1.00  0.00     0.070 C 
HETATM   11  N   UNL     1     -41.959 -45.857   9.885  1.00  0.00    -0.302 N 
HETATM   12  N   UNL     1     -42.346 -47.147   9.911  1.00  0.00    -0.281 N 
ATOM     13  HN  UNL     1     -42.427 -45.072   9.432  1.00  0.00     0.186 HD
HETATM   14  C   UNL     1     -43.566 -47.490   9.227  1.00  0.00     0.179 C 
ENDBRANCH   1   7
BRANCH   4  15
HETATM   15  C   UNL     1     -42.313 -52.192  12.962  1.00  0.00     0.178 C 
HETATM   16  C   UNL     1     -43.685 -52.850  12.819  1.00  0.00     0.036 C 
HETATM   17  C   UNL     1     -43.974 -53.682  14.069  1.00  0.00     0.022 C 
HETATM   18  C   UNL     1     -42.903 -54.749  14.248  1.00  0.00     0.122 C 
HETATM   19  N   UNL     1     -41.553 -54.228  14.140  1.00  0.00    -0.359 N 
HETATM   20  C   UNL     1     -41.209 -53.213  13.286  1.00  0.00     0.240 C 
HETATM   21  H   UNL     1     -40.789 -54.870  14.325  1.00  0.00     0.162 HD
HETATM   22  O   UNL     1     -40.046 -53.061  12.916  1.00  0.00    -0.271 OA
ENDBRANCH   4  15
TORSDOF 2
ENDMDL
MODEL 6
REMARK VINA RESULT:      -5.7      2.031      3.009
REMARK  2 active torsions:
REMARK  status: ('A' for Active; 'I' for Inactive)
REMARK    1  A    between atoms: C_4  and  N_5 
REMARK       I    between atoms: N_5  and  C_6 
REMARK       I    between atoms: C_6  and  N_8 
REMARK    2  A    between atoms: N_8  and  C_9 
ROOT
HETATM    1  N   UNL     1     -40.879 -51.227  11.269  1.00  0.00    -0.293 N 
HETATM    2  C   UNL     1     -41.380 -51.902  12.417  1.00  0.00     0.322 C 
HETATM    3  O   UNL     1     -41.546 -51.354  13.490  1.00  0.00    -0.247 OA
HETATM    4  N   UNL     1     -41.602 -53.212  12.120  1.00  0.00    -0.330 N 
HETATM    5  H   UNL     1     -40.691 -51.772  10.444  1.00  0.00     0.172 HD
HETATM    6  H   UNL     1     -41.808 -53.421  11.155  1.00  0.00     0.165 HD
ENDROOT
BRANCH   1   7
HETATM    7  C   UNL     1     -40.582 -49.865  11.237  1.00  0.00     0.127 A 
HETATM    8  C   UNL     1     -41.443 -48.816  10.992  1.00  0.00     0.076 A 
HETATM    9  C   UNL     1     -40.666 -47.644  11.108  1.00  0.00     0.025 A 
HETATM   10  C   UNL     1     -41.115 -46.239  10.960  1.00  0.00     0.070 C 
HETATM   11  N   UNL     1     -39.390 -47.927  11.384  1.00  0.00    -0.302 N 
HETATM   12  N   UNL     1     -39.355 -49.272  11.444  1.00  0.00    -0.281 N 
ATOM     13  HN  UNL     1     -38.618 -47.275  11.518  1.00  0.00     0.186 HD
HETATM   14  C   UNL     1     -38.087 -49.894  11.726  1.00  0.00     0.179 C 
ENDBRANCH   1   7
BRANCH   4  15
HETATM   15  C   UNL     1     -42.277 -54.096  13.071  1.00  0.00     0.178 C 
HETATM   16  C   UNL     1     -41.761 -54.052  14.510  1.00  0.00     0.036 C 
HETATM   17  C   UNL     1     -42.541 -55.061  15.353  1.00  0.00     0.022 C 
HETATM   18  C   UNL     1     -44.027 -54.731  15.324  1.00  0.00     0.122 C 
HETATM   19  N   UNL     1     -44.537 -54.507  13.984  1.00  0.00    -0.359 N 
HETATM   20  C   UNL     1     -43.802 -53.910  12.994  1.00  0.00     0.240 C 
HETATM   21  H   UNL     1     -45.536 -54.358  13.884  1.00  0.00     0.162 HD
HETATM   22  O   UNL     1     -44.349 -53.375  12.031  1.00  0.00    -0.271 OA
ENDBRANCH   4  15
TORSDOF 2
ENDMDL
MODEL 7
REMARK VINA RESULT:      -5.6      1.445      7.251
REMARK  2 active torsions:
REMARK  status: ('A' for Active; 'I' for Inactive)
REMARK    1  A    between atoms: C_4  and  N_5 
REMARK       I    between atoms: N_5  and  C_6 
REMARK       I    between atoms: C_6  and  N_8 
REMARK    2  A    between atoms: N_8  and  C_9 
ROOT
HETATM    1  N   UNL     1     -44.140 -51.642  12.879  1.00  0.00    -0.293 N 
HETATM    2  C   UNL     1     -42.935 -50.991  13.264  1.00  0.00     0.322 C 
HETATM    3  O   UNL     1     -42.711 -50.625  14.402  1.00  0.00    -0.247 OA
HETATM    4  N   UNL     1     -42.130 -50.833  12.177  1.00  0.00    -0.330 N 
HETATM    5  H   UNL     1     -44.282 -51.836  11.901  1.00  0.00     0.172 HD
HETATM    6  H   UNL     1     -42.245 -51.508  11.436  1.00  0.00     0.165 HD
ENDROOT
BRANCH   1   7
HETATM    7  C   UNL     1     -45.159 -51.979  13.769  1.00  0.00     0.127 A 
HETATM    8  C   UNL     1     -45.884 -51.136  14.583  1.00  0.00     0.076 A 
HETATM    9  C   UNL     1     -46.813 -51.956  15.259  1.00  0.00     0.025 A 
HETATM   10  C   UNL     1     -47.846 -51.542  16.238  1.00  0.00     0.070 C 
HETATM   11  N   UNL     1     -46.672 -53.240  14.917  1.00  0.00    -0.302 N 
HETATM   12  N   UNL     1     -45.660 -53.236  14.028  1.00  0.00    -0.281 N 
ATOM     13  HN  UNL     1     -47.208 -54.040  15.252  1.00  0.00     0.186 HD
HETATM   14  C   UNL     1     -45.262 -54.502  13.468  1.00  0.00     0.179 C 
ENDBRANCH   1   7
BRANCH   4  15
HETATM   15  C   UNL     1     -40.758 -50.344  12.320  1.00  0.00     0.178 C 
HETATM   16  C   UNL     1     -39.675 -51.416  12.452  1.00  0.00     0.036 C 
HETATM   17  C   UNL     1     -38.318 -50.736  12.637  1.00  0.00     0.022 C 
HETATM   18  C   UNL     1     -38.016 -49.837  11.446  1.00  0.00     0.122 C 
HETATM   19  N   UNL     1     -39.115 -48.957  11.100  1.00  0.00    -0.359 N 
HETATM   20  C   UNL     1     -40.431 -49.320  11.220  1.00  0.00     0.240 C 
HETATM   21  H   UNL     1     -38.954 -48.276  10.364  1.00  0.00     0.162 HD
HETATM   22  O   UNL     1     -41.308 -48.753  10.571  1.00  0.00    -0.271 OA
ENDBRANCH   4  15
TORSDOF 2
ENDMDL
MODEL 8
REMARK VINA RESULT:      -5.5      1.558      2.338
REMARK  2 active torsions:
REMARK  status: ('A' for Active; 'I' for Inactive)
REMARK    1  A    between atoms: C_4  and  N_5 
REMARK       I    between atoms: N_5  and  C_6 
REMARK       I    between atoms: C_6  and  N_8 
REMARK    2  A    between atoms: N_8  and  C_9 
ROOT
HETATM    1  N   UNL     1     -43.136 -49.198  11.796  1.00  0.00    -0.293 N 
HETATM    2  C   UNL     1     -43.416 -50.033  12.914  1.00  0.00     0.322 C 
HETATM    3  O   UNL     1     -42.739 -50.040  13.925  1.00  0.00    -0.247 OA
HETATM    4  N   UNL     1     -44.507 -50.805  12.651  1.00  0.00    -0.330 N 
HETATM    5  H   UNL     1     -43.694 -49.315  10.966  1.00  0.00     0.172 HD
HETATM    6  H   UNL     1     -45.172 -50.425  11.995  1.00  0.00     0.165 HD
ENDROOT
BRANCH   1   7
HETATM    7  C   UNL     1     -42.099 -48.267  11.763  1.00  0.00     0.127 A 
HETATM    8  C   UNL     1     -42.167 -46.916  12.028  1.00  0.00     0.076 A 
HETATM    9  C   UNL     1     -40.848 -46.430  11.894  1.00  0.00     0.025 A 
HETATM   10  C   UNL     1     -40.368 -45.042  12.095  1.00  0.00     0.070 C 
HETATM   11  N   UNL     1     -40.002 -47.401  11.543  1.00  0.00    -0.302 N 
HETATM   12  N   UNL     1     -40.777 -48.499  11.454  1.00  0.00    -0.281 N 
ATOM     13  HN  UNL     1     -38.998 -47.329  11.378  1.00  0.00     0.186 HD
HETATM   14  C   UNL     1     -40.139 -49.736  11.080  1.00  0.00     0.179 C 
ENDBRANCH   1   7
BRANCH   4  15
HETATM   15  C   UNL     1     -45.114 -51.632  13.694  1.00  0.00     0.178 C 
HETATM   16  C   UNL     1     -46.396 -51.085  14.321  1.00  0.00     0.036 C 
HETATM   17  C   UNL     1     -46.867 -52.045  15.415  1.00  0.00     0.022 C 
HETATM   18  C   UNL     1     -47.126 -53.425  14.825  1.00  0.00     0.122 C 
HETATM   19  N   UNL     1     -46.036 -53.905  13.996  1.00  0.00    -0.359 N 
HETATM   20  C   UNL     1     -45.277 -53.082  13.207  1.00  0.00     0.240 C 
HETATM   21  H   UNL     1     -46.108 -54.851  13.634  1.00  0.00     0.162 HD
HETATM   22  O   UNL     1     -44.656 -53.523  12.242  1.00  0.00    -0.271 OA
ENDBRANCH   4  15
TORSDOF 2
ENDMDL
MODEL 9
REMARK VINA RESULT:      -5.4      3.081      4.471
REMARK  2 active torsions:
REMARK  status: ('A' for Active; 'I' for Inactive)
REMARK    1  A    between atoms: C_4  and  N_5 
REMARK       I    between atoms: N_5  and  C_6 
REMARK       I    between atoms: C_6  and  N_8 
REMARK    2  A    between atoms: N_8  and  C_9 
ROOT
HETATM    1  N   UNL     1     -41.183 -49.048  10.569  1.00  0.00    -0.293 N 
HETATM    2  C   UNL     1     -40.902 -49.882  11.688  1.00  0.00     0.322 C 
HETATM    3  O   UNL     1     -40.752 -49.453  12.816  1.00  0.00    -0.247 OA
HETATM    4  N   UNL     1     -40.809 -51.179  11.283  1.00  0.00    -0.330 N 
HETATM    5  H   UNL     1     -41.209 -49.473   9.657  1.00  0.00     0.172 HD
HETATM    6  H   UNL     1     -41.334 -51.426  10.458  1.00  0.00     0.165 HD
ENDROOT
BRANCH   1   7
HETATM    7  C   UNL     1     -41.370 -47.669  10.657  1.00  0.00     0.127 A 
HETATM    8  C   UNL     1     -40.421 -46.700  10.898  1.00  0.00     0.076 A 
HETATM    9  C   UNL     1     -41.107 -45.467  10.853  1.00  0.00     0.025 A 
HETATM   10  C   UNL     1     -40.543 -44.107  11.027  1.00  0.00     0.070 C 
HETATM   11  N   UNL     1     -42.411 -45.641  10.622  1.00  0.00    -0.302 N 
HETATM   12  N   UNL     1     -42.554 -46.977  10.521  1.00  0.00    -0.281 N 
ATOM     13  HN  UNL     1     -43.134 -44.927  10.541  1.00  0.00     0.186 HD
HETATM   14  C   UNL     1     -43.878 -47.488  10.273  1.00  0.00     0.179 C 
ENDBRANCH   1   7
BRANCH   4  15
HETATM   15  C   UNL     1     -40.695 -52.265  12.256  1.00  0.00     0.178 C 
HETATM   16  C   UNL     1     -39.649 -52.075  13.354  1.00  0.00     0.036 C 
HETATM   17  C   UNL     1     -39.632 -53.314  14.251  1.00  0.00     0.022 C 
HETATM   18  C   UNL     1     -41.004 -53.528  14.874  1.00  0.00     0.122 C 
HETATM   19  N   UNL     1     -42.086 -53.467  13.909  1.00  0.00    -0.359 N 
HETATM   20  C   UNL     1     -42.077 -52.627  12.827  1.00  0.00     0.240 C 
HETATM   21  H   UNL     1     -43.021 -53.678  14.244  1.00  0.00     0.162 HD
HETATM   22  O   UNL     1     -43.123 -52.297  12.270  1.00  0.00    -0.271 OA
ENDBRANCH   4  15
TORSDOF 2
ENDMDL
