MODEL 1
REMARK VINA RESULT:      -7.0      0.000      0.000
REMARK  4 active torsions:
REMARK  status: ('A' for Active; 'I' for Inactive)
REMARK    1  A    between atoms: C_6  and  N_7 
REMARK       I    between atoms: N_7  and  C_8 
REMARK       I    between atoms: C_8  and  N_10 
REMARK    2  A    between atoms: N_10  and  C_11 
REMARK    3  A    between atoms: C_11  and  C_12 
REMARK    4  A    between atoms: C_12  and  C_13 
REMARK       I    between atoms: C_13  and  N_15 
ROOT
HETATM    1  N   UNL     1     -40.274 -48.818  11.062  1.00  0.00    -0.295 N 
HETATM    2  C   UNL     1     -39.994 -50.111  11.421  1.00  0.00     0.321 C 
HETATM    3  O   UNL     1     -38.843 -50.442  11.696  1.00  0.00    -0.247 OA
HETATM    4  N   UNL     1     -41.039 -50.973  11.421  1.00  0.00    -0.342 N 
HETATM    5  H   UNL     1     -39.463 -48.222  11.035  1.00  0.00     0.172 HD
HETATM    6  H   UNL     1     -41.962 -50.541  11.349  1.00  0.00     0.164 HD
ENDROOT
BRANCH   4   7
HETATM    7  C   UNL     1     -41.006 -52.365  11.793  1.00  0.00     0.133 C 
BRANCH   7   8
HETATM    8  C   UNL     1     -41.596 -52.628  13.174  1.00  0.00     0.122 C 
BRANCH   8   9
HETATM    9  C   UNL     1     -42.738 -51.684  13.540  1.00  0.00     0.221 C 
HETATM   10  O   UNL     1     -42.535 -50.505  13.834  1.00  0.00    -0.273 OA
HETATM   11  N   UNL     1     -44.027 -52.230  13.510  1.00  0.00    -0.352 N 
HETATM   12  C   UNL     1     -44.322 -53.597  13.074  1.00  0.00     0.125 C 
HETATM   13  C   UNL     1     -45.166 -51.378  13.866  1.00  0.00     0.125 C 
HETATM   14  C   UNL     1     -44.668 -54.488  14.259  1.00  0.00     0.020 C 
HETATM   15  C   UNL     1     -46.161 -54.509  14.578  1.00  0.00     0.002 C 
HETATM   16  C   UNL     1     -46.896 -53.174  14.449  1.00  0.00     0.002 C 
HETATM   17  C   UNL     1     -46.103 -51.961  14.932  1.00  0.00     0.020 C 
ENDBRANCH   8   9
ENDBRANCH   7   8
ENDBRANCH   4   7
BRANCH   1  18
HETATM   18  C   UNL     1     -41.522 -48.279  10.726  1.00  0.00     0.109 A 
HETATM   19  C   UNL     1     -42.328 -47.759  11.725  1.00  0.00     0.049 A 
HETATM   20  C   UNL     1     -43.562 -47.217  11.366  1.00  0.00     0.006 A 
HETATM   21  C   UNL     1     -43.960 -47.219  10.030  1.00  0.00     0.025 A 
HETATM   22  C   UNL     1     -43.103 -47.763   9.088  1.00  0.00     0.007 A 
HETATM   23  C   UNL     1     -43.446 -47.839   7.634  1.00  0.00     0.068 C 
HETATM   24  N   UNL     1     -41.908 -48.287   9.433  1.00  0.00    -0.346 N 
ATOM     25  HN  UNL     1     -41.298 -48.688   8.719  1.00  0.00     0.167 HD
ENDBRANCH   1  18
TORSDOF 4
ENDMDL
MODEL 2
REMARK VINA RESULT:      -6.9      1.120      1.702
REMARK  4 active torsions:
REMARK  status: ('A' for Active; 'I' for Inactive)
REMARK    1  A    between atoms: C_6  and  N_7 
REMARK       I    between atoms: N_7  and  C_8 
REMARK       I    between atoms: C_8  and  N_10 
REMARK    2  A    between atoms: N_10  and  C_11 
REMARK    3  A    between atoms: C_11  and  C_12 
REMARK    4  A    between atoms: C_12  and  C_13 
REMARK       I    between atoms: C_13  and  N_15 
ROOT
HETATM    1  N   UNL     1     -40.302 -48.778  11.039  1.00  0.00    -0.295 N 
HETATM    2  C   UNL     1     -40.080 -50.043  11.519  1.00  0.00     0.321 C 
HETATM    3  O   UNL     1     -38.941 -50.407  11.801  1.00  0.00    -0.247 OA
HETATM    4  N   UNL     1     -41.168 -50.843  11.627  1.00  0.00    -0.342 N 
HETATM    5  H   UNL     1     -39.463 -48.232  10.936  1.00  0.00     0.172 HD
HETATM    6  H   UNL     1     -42.068 -50.372  11.532  1.00  0.00     0.164 HD
ENDROOT
BRANCH   4   7
HETATM    7  C   UNL     1     -41.196 -52.192  12.135  1.00  0.00     0.133 C 
BRANCH   7   8
HETATM    8  C   UNL     1     -41.434 -52.258  13.639  1.00  0.00     0.122 C 
BRANCH   8   9
HETATM    9  C   UNL     1     -42.379 -53.381  14.060  1.00  0.00     0.221 C 
HETATM   10  O   UNL     1     -42.034 -54.564  14.026  1.00  0.00    -0.273 OA
HETATM   11  N   UNL     1     -43.649 -52.991  14.499  1.00  0.00    -0.352 N 
HETATM   12  C   UNL     1     -44.065 -51.594  14.646  1.00  0.00     0.125 C 
HETATM   13  C   UNL     1     -44.607 -54.024  14.903  1.00  0.00     0.125 C 
HETATM   14  C   UNL     1     -45.029 -51.190  13.539  1.00  0.00     0.020 C 
HETATM   15  C   UNL     1     -46.493 -51.428  13.901  1.00  0.00     0.002 C 
HETATM   16  C   UNL     1     -46.795 -52.710  14.677  1.00  0.00     0.002 C 
HETATM   17  C   UNL     1     -45.985 -53.928  14.235  1.00  0.00     0.020 C 
ENDBRANCH   8   9
ENDBRANCH   7   8
ENDBRANCH   4   7
BRANCH   1  18
HETATM   18  C   UNL     1     -41.529 -48.209  10.678  1.00  0.00     0.109 A 
HETATM   19  C   UNL     1     -42.306 -47.597  11.648  1.00  0.00     0.049 A 
HETATM   20  C   UNL     1     -43.519 -47.027  11.263  1.00  0.00     0.006 A 
HETATM   21  C   UNL     1     -43.926 -47.091   9.931  1.00  0.00     0.025 A 
HETATM   22  C   UNL     1     -43.099 -47.726   9.020  1.00  0.00     0.007 A 
HETATM   23  C   UNL     1     -43.456 -47.873   7.574  1.00  0.00     0.068 C 
HETATM   24  N   UNL     1     -41.924 -48.277   9.389  1.00  0.00    -0.346 N 
ATOM     25  HN  UNL     1     -41.337 -48.745   8.698  1.00  0.00     0.167 HD
ENDBRANCH   1  18
TORSDOF 4
ENDMDL
MODEL 3
REMARK VINA RESULT:      -6.4      2.739      6.961
REMARK  4 active torsions:
REMARK  status: ('A' for Active; 'I' for Inactive)
REMARK    1  A    between atoms: C_6  and  N_7 
REMARK       I    between atoms: N_7  and  C_8 
REMARK       I    between atoms: C_8  and  N_10 
REMARK    2  A    between atoms: N_10  and  C_11 
REMARK    3  A    between atoms: C_11  and  C_12 
REMARK    4  A    between atoms: C_12  and  C_13 
REMARK       I    between atoms: C_13  and  N_15 
ROOT
HETATM    1  N   UNL     1     -43.166 -53.144  12.806  1.00  0.00    -0.295 N 
HETATM    2  C   UNL     1     -42.043 -52.522  12.324  1.00  0.00     0.321 C 
HETATM    3  O   UNL     1     -41.015 -53.167  12.126  1.00  0.00    -0.247 OA
HETATM    4  N   UNL     1     -42.137 -51.186  12.120  1.00  0.00    -0.342 N 
HETATM    5  H   UNL     1     -43.040 -54.126  12.983  1.00  0.00     0.172 HD
HETATM    6  H   UNL     1     -43.084 -50.805  12.152  1.00  0.00     0.164 HD
ENDROOT
BRANCH   4   7
HETATM    7  C   UNL     1     -41.111 -50.323  11.590  1.00  0.00     0.133 C 
BRANCH   7   8
HETATM    8  C   UNL     1     -41.114 -48.936  12.223  1.00  0.00     0.122 C 
BRANCH   8   9
HETATM    9  C   UNL     1     -41.341 -47.807  11.222  1.00  0.00     0.221 C 
HETATM   10  O   UNL     1     -41.721 -48.029  10.071  1.00  0.00    -0.273 OA
HETATM   11  N   UNL     1     -41.108 -46.508  11.689  1.00  0.00    -0.352 N 
HETATM   12  C   UNL     1     -40.749 -46.194  13.074  1.00  0.00     0.125 C 
HETATM   13  C   UNL     1     -41.294 -45.381  10.771  1.00  0.00     0.125 C 
HETATM   14  C   UNL     1     -39.280 -45.808  13.186  1.00  0.00     0.020 C 
HETATM   15  C   UNL     1     -39.039 -44.310  13.022  1.00  0.00     0.002 C 
HETATM   16  C   UNL     1     -39.883 -43.604  11.960  1.00  0.00     0.002 C 
HETATM   17  C   UNL     1     -40.107 -44.413  10.683  1.00  0.00     0.020 C 
ENDBRANCH   8   9
ENDBRANCH   7   8
ENDBRANCH   4   7
BRANCH   1  18
HETATM   18  C   UNL     1     -44.410 -52.561  13.080  1.00  0.00     0.109 A 
HETATM   19  C   UNL     1     -44.700 -52.155  14.371  1.00  0.00     0.049 A 
HETATM   20  C   UNL     1     -45.941 -51.567  14.618  1.00  0.00     0.006 A 
HETATM   21  C   UNL     1     -46.855 -51.412  13.577  1.00  0.00     0.025 A 
HETATM   22  C   UNL     1     -46.496 -51.849  12.314  1.00  0.00     0.007 A 
HETATM   23  C   UNL     1     -47.415 -51.753  11.137  1.00  0.00     0.068 C 
HETATM   24  N   UNL     1     -45.296 -52.417  12.073  1.00  0.00    -0.346 N 
ATOM     25  HN  UNL     1     -45.060 -52.737  11.133  1.00  0.00     0.167 HD
ENDBRANCH   1  18
TORSDOF 4
ENDMDL
MODEL 4
REMARK VINA RESULT:      -6.2      2.614      6.494
REMARK  4 active torsions:
REMARK  status: ('A' for Active; 'I' for Inactive)
REMARK    1  A    between atoms: C_6  and  N_7 
REMARK       I    between atoms: N_7  and  C_8 
REMARK       I    between atoms: C_8  and  N_10 
REMARK    2  A    between atoms: N_10  and  C_11 
REMARK    3  A    between atoms: C_11  and  C_12 
REMARK    4  A    between atoms: C_12  and  C_13 
REMARK       I    between atoms: C_13  and  N_15 
ROOT
HETATM    1  N   UNL     1     -44.842 -54.760  15.107  1.00  0.00    -0.295 N 
HETATM    2  C   UNL     1     -43.488 -54.976  15.111  1.00  0.00     0.321 C 
HETATM    3  O   UNL     1     -43.038 -56.077  15.421  1.00  0.00    -0.247 OA
HETATM    4  N   UNL     1     -42.710 -53.915  14.788  1.00  0.00    -0.342 N 
HETATM    5  H   UNL     1     -45.380 -55.561  15.393  1.00  0.00     0.172 HD
HETATM    6  H   UNL     1     -43.203 -53.119  14.382  1.00  0.00     0.164 HD
ENDROOT
BRANCH   4   7
HETATM    7  C   UNL     1     -41.271 -53.902  14.689  1.00  0.00     0.133 C 
BRANCH   7   8
HETATM    8  C   UNL     1     -40.774 -53.599  13.280  1.00  0.00     0.122 C 
BRANCH   8   9
HETATM    9  C   UNL     1     -41.498 -52.433  12.614  1.00  0.00     0.221 C 
HETATM   10  O   UNL     1     -42.592 -52.578  12.065  1.00  0.00    -0.273 OA
HETATM   11  N   UNL     1     -40.857 -51.189  12.673  1.00  0.00    -0.352 N 
HETATM   12  C   UNL     1     -39.605 -50.953  13.396  1.00  0.00     0.125 C 
HETATM   13  C   UNL     1     -41.496 -50.033  12.038  1.00  0.00     0.125 C 
HETATM   14  C   UNL     1     -38.438 -50.788  12.432  1.00  0.00     0.020 C 
HETATM   15  C   UNL     1     -38.206 -49.339  12.013  1.00  0.00     0.002 C 
HETATM   16  C   UNL     1     -39.461 -48.500  11.765  1.00  0.00     0.002 C 
HETATM   17  C   UNL     1     -40.600 -49.247  11.071  1.00  0.00     0.020 C 
ENDBRANCH   8   9
ENDBRANCH   7   8
ENDBRANCH   4   7
BRANCH   1  18
HETATM   18  C   UNL     1     -45.513 -53.576  14.776  1.00  0.00     0.109 A 
HETATM   19  C   UNL     1     -45.852 -52.684  15.779  1.00  0.00     0.049 A 
HETATM   20  C   UNL     1     -46.511 -51.507  15.424  1.00  0.00     0.006 A 
HETATM   21  C   UNL     1     -46.820 -51.259  14.088  1.00  0.00     0.025 A 
HETATM   22  C   UNL     1     -46.455 -52.202  13.142  1.00  0.00     0.007 A 
HETATM   23  C   UNL     1     -46.765 -52.045  11.686  1.00  0.00     0.068 C 
HETATM   24  N   UNL     1     -45.817 -53.341  13.482  1.00  0.00    -0.346 N 
ATOM     25  HN  UNL     1     -45.566 -54.022  12.765  1.00  0.00     0.167 HD
ENDBRANCH   1  18
TORSDOF 4
ENDMDL
MODEL 5
REMARK VINA RESULT:      -6.2      1.782      2.677
REMARK  4 active torsions:
REMARK  status: ('A' for Active; 'I' for Inactive)
REMARK    1  A    between atoms: C_6  and  N_7 
REMARK       I    between atoms: N_7  and  C_8 
REMARK       I    between atoms: C_8  and  N_10 
REMARK    2  A    between atoms: N_10  and  C_11 
REMARK    3  A    between atoms: C_11  and  C_12 
REMARK    4  A    between atoms: C_12  and  C_13 
REMARK       I    between atoms: C_13  and  N_15 
ROOT
HETATM    1  N   UNL     1     -40.656 -50.982  11.265  1.00  0.00    -0.295 N 
HETATM    2  C   UNL     1     -40.492 -51.785  12.364  1.00  0.00     0.321 C 
HETATM    3  O   UNL     1     -40.344 -52.997  12.230  1.00  0.00    -0.247 OA
HETATM    4  N   UNL     1     -40.536 -51.167  13.569  1.00  0.00    -0.342 N 
HETATM    5  H   UNL     1     -40.659 -51.486  10.393  1.00  0.00     0.172 HD
HETATM    6  H   UNL     1     -40.486 -50.148  13.540  1.00  0.00     0.164 HD
ENDROOT
BRANCH   4   7
HETATM    7  C   UNL     1     -40.357 -51.785  14.859  1.00  0.00     0.133 C 
BRANCH   7   8
HETATM    8  C   UNL     1     -41.659 -51.929  15.638  1.00  0.00     0.122 C 
BRANCH   8   9
HETATM    9  C   UNL     1     -42.453 -53.181  15.277  1.00  0.00     0.221 C 
HETATM   10  O   UNL     1     -41.895 -54.227  14.941  1.00  0.00    -0.273 OA
HETATM   11  N   UNL     1     -43.847 -53.078  15.363  1.00  0.00    -0.352 N 
HETATM   12  C   UNL     1     -44.546 -51.886  15.849  1.00  0.00     0.125 C 
HETATM   13  C   UNL     1     -44.666 -54.243  15.015  1.00  0.00     0.125 C 
HETATM   14  C   UNL     1     -45.204 -51.130  14.702  1.00  0.00     0.020 C 
HETATM   15  C   UNL     1     -46.636 -51.582  14.429  1.00  0.00     0.002 C 
HETATM   16  C   UNL     1     -46.901 -53.085  14.540  1.00  0.00     0.002 C 
HETATM   17  C   UNL     1     -45.780 -53.970  13.996  1.00  0.00     0.020 C 
ENDBRANCH   8   9
ENDBRANCH   7   8
ENDBRANCH   4   7
BRANCH   1  18
HETATM   18  C   UNL     1     -40.830 -49.593  11.243  1.00  0.00     0.109 A 
HETATM   19  C   UNL     1     -39.773 -48.770  11.593  1.00  0.00     0.049 A 
HETATM   20  C   UNL     1     -39.966 -47.390  11.554  1.00  0.00     0.006 A 
HETATM   21  C   UNL     1     -41.205 -46.871  11.180  1.00  0.00     0.025 A 
HETATM   22  C   UNL     1     -42.217 -47.757  10.850  1.00  0.00     0.007 A 
HETATM   23  C   UNL     1     -43.589 -47.304  10.463  1.00  0.00     0.068 C 
HETATM   24  N   UNL     1     -42.032 -49.093  10.887  1.00  0.00    -0.346 N 
ATOM     25  HN  UNL     1     -42.797 -49.724  10.646  1.00  0.00     0.167 HD
ENDBRANCH   1  18
TORSDOF 4
ENDMDL
MODEL 6
REMARK VINA RESULT:      -5.9      3.254      6.590
REMARK  4 active torsions:
REMARK  status: ('A' for Active; 'I' for Inactive)
REMARK    1  A    between atoms: C_6  and  N_7 
REMARK       I    between atoms: N_7  and  C_8 
REMARK       I    between atoms: C_8  and  N_10 
REMARK    2  A    between atoms: N_10  and  C_11 
REMARK    3  A    between atoms: C_11  and  C_12 
REMARK    4  A    between atoms: C_12  and  C_13 
REMARK       I    between atoms: C_13  and  N_15 
ROOT
HETATM    1  N   UNL     1     -42.951 -53.221  12.606  1.00  0.00    -0.295 N 
HETATM    2  C   UNL     1     -41.833 -52.602  12.111  1.00  0.00     0.321 C 
HETATM    3  O   UNL     1     -40.836 -53.261  11.823  1.00  0.00    -0.247 OA
HETATM    4  N   UNL     1     -41.895 -51.254  11.996  1.00  0.00    -0.342 N 
HETATM    5  H   UNL     1     -42.848 -54.216  12.714  1.00  0.00     0.172 HD
HETATM    6  H   UNL     1     -42.826 -50.849  12.097  1.00  0.00     0.164 HD
ENDROOT
BRANCH   4   7
HETATM    7  C   UNL     1     -40.868 -50.387  11.473  1.00  0.00     0.133 C 
BRANCH   7   8
HETATM    8  C   UNL     1     -40.184 -49.555  12.552  1.00  0.00     0.122 C 
BRANCH   8   9
HETATM    9  C   UNL     1     -38.978 -50.244  13.185  1.00  0.00     0.221 C 
HETATM   10  O   UNL     1     -38.729 -51.433  12.977  1.00  0.00    -0.273 OA
HETATM   11  N   UNL     1     -38.166 -49.447  14.001  1.00  0.00    -0.352 N 
HETATM   12  C   UNL     1     -38.371 -48.010  14.197  1.00  0.00     0.125 C 
HETATM   13  C   UNL     1     -37.001 -50.055  14.649  1.00  0.00     0.125 C 
HETATM   14  C   UNL     1     -38.940 -47.721  15.579  1.00  0.00     0.020 C 
HETATM   15  C   UNL     1     -37.862 -47.482  16.633  1.00  0.00     0.002 C 
HETATM   16  C   UNL     1     -36.622 -48.372  16.544  1.00  0.00     0.002 C 
HETATM   17  C   UNL     1     -36.908 -49.825  16.163  1.00  0.00     0.020 C 
ENDBRANCH   8   9
ENDBRANCH   7   8
ENDBRANCH   4   7
BRANCH   1  18
HETATM   18  C   UNL     1     -44.162 -52.622  12.975  1.00  0.00     0.109 A 
HETATM   19  C   UNL     1     -44.341 -52.200  14.281  1.00  0.00     0.049 A 
HETATM   20  C   UNL     1     -45.551 -51.597  14.623  1.00  0.00     0.006 A 
HETATM   21  C   UNL     1     -46.547 -51.441  13.660  1.00  0.00     0.025 A 
HETATM   22  C   UNL     1     -46.297 -51.894  12.376  1.00  0.00     0.007 A 
HETATM   23  C   UNL     1     -47.309 -51.800  11.277  1.00  0.00     0.068 C 
HETATM   24  N   UNL     1     -45.127 -52.478  12.042  1.00  0.00    -0.346 N 
ATOM     25  HN  UNL     1     -44.973 -52.809  11.090  1.00  0.00     0.167 HD
ENDBRANCH   1  18
TORSDOF 4
ENDMDL
MODEL 7
REMARK VINA RESULT:      -5.8      2.947      3.982
REMARK  4 active torsions:
REMARK  status: ('A' for Active; 'I' for Inactive)
REMARK    1  A    between atoms: C_6  and  N_7 
REMARK       I    between atoms: N_7  and  C_8 
REMARK       I    between atoms: C_8  and  N_10 
REMARK    2  A    between atoms: N_10  and  C_11 
REMARK    3  A    between atoms: C_11  and  C_12 
REMARK    4  A    between atoms: C_12  and  C_13 
REMARK       I    between atoms: C_13  and  N_15 
ROOT
HETATM    1  N   UNL     1     -38.581 -51.907  14.562  1.00  0.00    -0.295 N 
HETATM    2  C   UNL     1     -39.317 -53.064  14.551  1.00  0.00     0.321 C 
HETATM    3  O   UNL     1     -39.246 -53.852  15.491  1.00  0.00    -0.247 OA
HETATM    4  N   UNL     1     -40.076 -53.281  13.450  1.00  0.00    -0.342 N 
HETATM    5  H   UNL     1     -38.000 -51.805  15.378  1.00  0.00     0.172 HD
HETATM    6  H   UNL     1     -40.184 -52.478  12.829  1.00  0.00     0.164 HD
ENDROOT
BRANCH   4   7
HETATM    7  C   UNL     1     -40.957 -54.399  13.220  1.00  0.00     0.133 C 
BRANCH   7   8
HETATM    8  C   UNL     1     -42.286 -54.272  13.956  1.00  0.00     0.122 C 
BRANCH   8   9
HETATM    9  C   UNL     1     -43.290 -53.362  13.252  1.00  0.00     0.221 C 
HETATM   10  O   UNL     1     -43.005 -52.766  12.212  1.00  0.00    -0.273 OA
HETATM   11  N   UNL     1     -44.553 -53.255  13.847  1.00  0.00    -0.352 N 
HETATM   12  C   UNL     1     -44.963 -54.019  15.028  1.00  0.00     0.125 C 
HETATM   13  C   UNL     1     -45.556 -52.385  13.227  1.00  0.00     0.125 C 
HETATM   14  C   UNL     1     -45.015 -53.132  16.264  1.00  0.00     0.020 C 
HETATM   15  C   UNL     1     -46.382 -52.490  16.484  1.00  0.00     0.002 C 
HETATM   16  C   UNL     1     -47.110 -52.007  15.229  1.00  0.00     0.002 C 
HETATM   17  C   UNL     1     -46.207 -51.368  14.175  1.00  0.00     0.020 C 
ENDBRANCH   8   9
ENDBRANCH   7   8
ENDBRANCH   4   7
BRANCH   1  18
HETATM   18  C   UNL     1     -38.551 -50.908  13.581  1.00  0.00     0.109 A 
HETATM   19  C   UNL     1     -37.532 -50.908  12.644  1.00  0.00     0.049 A 
HETATM   20  C   UNL     1     -37.528 -49.910  11.669  1.00  0.00     0.006 A 
HETATM   21  C   UNL     1     -38.529 -48.940  11.664  1.00  0.00     0.025 A 
HETATM   22  C   UNL     1     -39.511 -49.002  12.638  1.00  0.00     0.007 A 
HETATM   23  C   UNL     1     -40.613 -47.994  12.736  1.00  0.00     0.068 C 
HETATM   24  N   UNL     1     -39.517 -49.966  13.581  1.00  0.00    -0.346 N 
ATOM     25  HN  UNL     1     -40.250 -49.984  14.291  1.00  0.00     0.167 HD
ENDBRANCH   1  18
TORSDOF 4
ENDMDL
MODEL 8
REMARK VINA RESULT:      -5.7      3.682      4.937
REMARK  4 active torsions:
REMARK  status: ('A' for Active; 'I' for Inactive)
REMARK    1  A    between atoms: C_6  and  N_7 
REMARK       I    between atoms: N_7  and  C_8 
REMARK       I    between atoms: C_8  and  N_10 
REMARK    2  A    between atoms: N_10  and  C_11 
REMARK    3  A    between atoms: C_11  and  C_12 
REMARK    4  A    between atoms: C_12  and  C_13 
REMARK       I    between atoms: C_13  and  N_15 
ROOT
HETATM    1  N   UNL     1     -42.197 -53.088  12.151  1.00  0.00    -0.295 N 
HETATM    2  C   UNL     1     -41.168 -52.498  12.840  1.00  0.00     0.321 C 
HETATM    3  O   UNL     1     -40.072 -52.348  12.306  1.00  0.00    -0.247 OA
HETATM    4  N   UNL     1     -41.433 -52.134  14.117  1.00  0.00    -0.342 N 
HETATM    5  H   UNL     1     -41.946 -53.380  11.222  1.00  0.00     0.172 HD
HETATM    6  H   UNL     1     -42.419 -52.149  14.381  1.00  0.00     0.164 HD
ENDROOT
BRANCH   4   7
HETATM    7  C   UNL     1     -40.532 -51.470  15.026  1.00  0.00     0.133 C 
BRANCH   7   8
HETATM    8  C   UNL     1     -41.198 -51.065  16.336  1.00  0.00     0.122 C 
BRANCH   8   9
HETATM    9  C   UNL     1     -41.986 -52.193  16.996  1.00  0.00     0.221 C 
HETATM   10  O   UNL     1     -41.454 -53.262  17.304  1.00  0.00    -0.273 OA
HETATM   11  N   UNL     1     -43.341 -51.941  17.242  1.00  0.00    -0.352 N 
HETATM   12  C   UNL     1     -43.990 -50.654  16.980  1.00  0.00     0.125 C 
HETATM   13  C   UNL     1     -44.156 -52.991  17.860  1.00  0.00     0.125 C 
HETATM   14  C   UNL     1     -44.889 -50.733  15.753  1.00  0.00     0.020 C 
HETATM   15  C   UNL     1     -46.324 -51.132  16.086  1.00  0.00     0.002 C 
HETATM   16  C   UNL     1     -46.493 -52.203  17.165  1.00  0.00     0.002 C 
HETATM   17  C   UNL     1     -45.456 -53.325  17.116  1.00  0.00     0.020 C 
ENDBRANCH   8   9
ENDBRANCH   7   8
ENDBRANCH   4   7
BRANCH   1  18
HETATM   18  C   UNL     1     -43.500 -53.327  12.607  1.00  0.00     0.109 A 
HETATM   19  C   UNL     1     -43.754 -54.448  13.379  1.00  0.00     0.049 A 
HETATM   20  C   UNL     1     -45.057 -54.659  13.831  1.00  0.00     0.006 A 
HETATM   21  C   UNL     1     -46.065 -53.757  13.494  1.00  0.00     0.025 A 
HETATM   22  C   UNL     1     -45.734 -52.663  12.713  1.00  0.00     0.007 A 
HETATM   23  C   UNL     1     -46.747 -51.652  12.274  1.00  0.00     0.068 C 
HETATM   24  N   UNL     1     -44.475 -52.456  12.275  1.00  0.00    -0.346 N 
ATOM     25  HN  UNL     1     -44.261 -51.644  11.695  1.00  0.00     0.167 HD
ENDBRANCH   1  18
TORSDOF 4
ENDMDL
MODEL 9
REMARK VINA RESULT:      -5.7      2.030      6.197
REMARK  4 active torsions:
REMARK  status: ('A' for Active; 'I' for Inactive)
REMARK    1  A    between atoms: C_6  and  N_7 
REMARK       I    between atoms: N_7  and  C_8 
REMARK       I    between atoms: C_8  and  N_10 
REMARK    2  A    between atoms: N_10  and  C_11 
REMARK    3  A    between atoms: C_11  and  C_12 
REMARK    4  A    between atoms: C_12  and  C_13 
REMARK       I    between atoms: C_13  and  N_15 
ROOT
HETATM    1  N   UNL     1     -41.967 -52.910  12.162  1.00  0.00    -0.295 N 
HETATM    2  C   UNL     1     -40.999 -52.122  12.729  1.00  0.00     0.321 C 
HETATM    3  O   UNL     1     -39.937 -51.928  12.142  1.00  0.00    -0.247 OA
HETATM    4  N   UNL     1     -41.278 -51.617  13.954  1.00  0.00    -0.342 N 
HETATM    5  H   UNL     1     -41.703 -53.299  11.272  1.00  0.00     0.172 HD
HETATM    6  H   UNL     1     -42.251 -51.703  14.251  1.00  0.00     0.164 HD
ENDROOT
BRANCH   4   7
HETATM    7  C   UNL     1     -40.440 -50.739  14.733  1.00  0.00     0.133 C 
BRANCH   7   8
HETATM    8  C   UNL     1     -40.950 -49.302  14.766  1.00  0.00     0.122 C 
BRANCH   8   9
HETATM    9  C   UNL     1     -40.126 -48.341  13.913  1.00  0.00     0.221 C 
HETATM   10  O   UNL     1     -39.057 -47.875  14.312  1.00  0.00    -0.273 OA
HETATM   11  N   UNL     1     -40.646 -48.032  12.651  1.00  0.00    -0.352 N 
HETATM   12  C   UNL     1     -41.862 -48.637  12.101  1.00  0.00     0.125 C 
HETATM   13  C   UNL     1     -39.909 -47.102  11.790  1.00  0.00     0.125 C 
HETATM   14  C   UNL     1     -43.019 -47.647  12.111  1.00  0.00     0.020 C 
HETATM   15  C   UNL     1     -43.118 -46.827  10.827  1.00  0.00     0.002 C 
HETATM   16  C   UNL     1     -41.792 -46.369  10.216  1.00  0.00     0.002 C 
HETATM   17  C   UNL     1     -40.738 -45.937  11.234  1.00  0.00     0.020 C 
ENDBRANCH   8   9
ENDBRANCH   7   8
ENDBRANCH   4   7
BRANCH   1  18
HETATM   18  C   UNL     1     -43.225 -53.225  12.692  1.00  0.00     0.109 A 
HETATM   19  C   UNL     1     -43.350 -54.305  13.549  1.00  0.00     0.049 A 
HETATM   20  C   UNL     1     -44.610 -54.594  14.072  1.00  0.00     0.006 A 
HETATM   21  C   UNL     1     -45.706 -53.807  13.720  1.00  0.00     0.025 A 
HETATM   22  C   UNL     1     -45.504 -52.748  12.852  1.00  0.00     0.007 A 
HETATM   23  C   UNL     1     -46.617 -51.861  12.390  1.00  0.00     0.068 C 
HETATM   24  N   UNL     1     -44.286 -52.467  12.344  1.00  0.00    -0.346 N 
ATOM     25  HN  UNL     1     -44.166 -51.684  11.701  1.00  0.00     0.167 HD
ENDBRANCH   1  18
TORSDOF 4
ENDMDL
