MODEL 1
REMARK VINA RESULT:      -5.7      0.000      0.000
REMARK  8 active torsions:
REMARK  status: ('A' for Active; 'I' for Inactive)
REMARK    1  A    between atoms: C_2  and  N_3 
REMARK    2  A    between atoms: C_2  and  C_11 
REMARK    3  A    between atoms: N_3  and  C_4 
REMARK    4  A    between atoms: C_4  and  C_5 
REMARK    5  A    between atoms: C_5  and  C_6 
REMARK    6  A    between atoms: C_6  and  S_7 
REMARK    7  A    between atoms: S_7  and  N_10 
REMARK    8  A    between atoms: C_11  and  N_13 
ROOT
HETATM    1  C   UNL     1     -40.569 -50.481  13.320  1.00  0.00     0.045 C 
HETATM    2  C   UNL     1     -41.927 -50.748  12.650  1.00  0.00     0.240 C 
ENDROOT
BRANCH   2   3
HETATM    3  N   UNL     1     -42.196 -49.709  11.628  1.00  0.00     0.089 N 
HETATM    4  H   UNL     1     -42.628 -50.130  10.806  1.00  0.00     0.316 HD
BRANCH   3   5
HETATM    5  C   UNL     1     -43.012 -48.599  12.106  1.00  0.00     0.271 C 
BRANCH   5   6
HETATM    6  C   UNL     1     -42.865 -47.375  11.205  1.00  0.00     0.046 C 
BRANCH   6   7
HETATM    7  C   UNL     1     -42.490 -47.864   9.817  1.00  0.00     0.159 C 
BRANCH   7   8
HETATM    8  S   UNL     1     -43.568 -47.274   8.543  1.00  0.00     0.207 S 
HETATM    9  O   UNL     1     -44.916 -47.724   8.774  1.00  0.00    -0.212 OA
HETATM   10  O   UNL     1     -43.239 -45.902   8.224  1.00  0.00    -0.212 OA
BRANCH   8  11
HETATM   11  N   UNL     1     -42.987 -48.195   7.263  1.00  0.00    -0.229 NA
HETATM   12  H   UNL     1     -43.568 -48.080   6.431  1.00  0.00     0.136 HD
HETATM   13  H   UNL     1     -41.986 -48.066   7.126  1.00  0.00     0.136 HD
ENDBRANCH   8  11
ENDBRANCH   7   8
ENDBRANCH   6   7
ENDBRANCH   5   6
ENDBRANCH   3   5
ENDBRANCH   2   3
BRANCH   2  14
HETATM   14  C   UNL     1     -42.068 -52.222  12.145  1.00  0.00     0.136 C 
HETATM   15  C   UNL     1     -40.905 -53.124  12.574  1.00  0.00     0.036 C 
BRANCH  14  16
HETATM   16  N   UNL     1     -43.336 -52.831  12.555  1.00  0.00    -0.297 N 
HETATM   17  C   UNL     1     -43.530 -54.088  13.062  1.00  0.00     0.118 A 
HETATM   18  C   UNL     1     -44.883 -54.214  13.292  1.00  0.00    -0.028 A 
HETATM   19  C   UNL     1     -45.614 -55.364  13.866  1.00  0.00     0.051 C 
HETATM   20  C   UNL     1     -45.420 -52.984  12.854  1.00  0.00     0.115 A 
HETATM   21  N   UNL     1     -44.491 -52.155  12.371  1.00  0.00    -0.309 N 
ATOM     22  HN  UNL     1     -44.622 -51.231  11.961  1.00  0.00     0.186 HD
ENDBRANCH  14  16
ENDBRANCH   2  14
TORSDOF 8
ENDMDL
MODEL 2
REMARK VINA RESULT:      -5.7      1.308      1.625
REMARK  8 active torsions:
REMARK  status: ('A' for Active; 'I' for Inactive)
REMARK    1  A    between atoms: C_2  and  N_3 
REMARK    2  A    between atoms: C_2  and  C_11 
REMARK    3  A    between atoms: N_3  and  C_4 
REMARK    4  A    between atoms: C_4  and  C_5 
REMARK    5  A    between atoms: C_5  and  C_6 
REMARK    6  A    between atoms: C_6  and  S_7 
REMARK    7  A    between atoms: S_7  and  N_10 
REMARK    8  A    between atoms: C_11  and  N_13 
ROOT
HETATM    1  C   UNL     1     -39.763 -51.312  13.203  1.00  0.00     0.045 C 
HETATM    2  C   UNL     1     -41.016 -51.185  12.322  1.00  0.00     0.240 C 
ENDROOT
BRANCH   2   3
HETATM    3  N   UNL     1     -40.675 -50.485  11.061  1.00  0.00     0.089 N 
HETATM    4  H   UNL     1     -41.291 -50.798  10.309  1.00  0.00     0.316 HD
BRANCH   3   5
HETATM    5  C   UNL     1     -40.709 -49.031  11.159  1.00  0.00     0.271 C 
BRANCH   5   6
HETATM    6  C   UNL     1     -42.136 -48.499  11.050  1.00  0.00     0.046 C 
BRANCH   6   7
HETATM    7  C   UNL     1     -42.088 -47.203  10.260  1.00  0.00     0.159 C 
BRANCH   7   8
HETATM    8  S   UNL     1     -43.457 -46.993   9.158  1.00  0.00     0.207 S 
HETATM    9  O   UNL     1     -44.650 -47.568   9.723  1.00  0.00    -0.212 OA
HETATM   10  O   UNL     1     -43.419 -45.668   8.580  1.00  0.00    -0.212 OA
BRANCH   8  11
HETATM   11  N   UNL     1     -42.973 -48.042   7.938  1.00  0.00    -0.229 NA
HETATM   12  H   UNL     1     -42.065 -48.458   8.147  1.00  0.00     0.136 HD
HETATM   13  H   UNL     1     -43.712 -48.696   7.685  1.00  0.00     0.136 HD
ENDBRANCH   8  11
ENDBRANCH   7   8
ENDBRANCH   6   7
ENDBRANCH   5   6
ENDBRANCH   3   5
ENDBRANCH   2   3
BRANCH   2  14
HETATM   14  C   UNL     1     -41.762 -52.549  12.138  1.00  0.00     0.136 C 
HETATM   15  C   UNL     1     -41.082 -53.715  12.867  1.00  0.00     0.036 C 
BRANCH  14  16
HETATM   16  N   UNL     1     -43.167 -52.473  12.543  1.00  0.00    -0.297 N 
HETATM   17  C   UNL     1     -43.713 -51.668  13.507  1.00  0.00     0.118 A 
HETATM   18  C   UNL     1     -45.063 -51.951  13.536  1.00  0.00    -0.028 A 
HETATM   19  C   UNL     1     -46.112 -51.335  14.377  1.00  0.00     0.051 C 
HETATM   20  C   UNL     1     -45.219 -52.970  12.572  1.00  0.00     0.115 A 
HETATM   21  N   UNL     1     -44.067 -53.317  11.992  1.00  0.00    -0.309 N 
ATOM     22  HN  UNL     1     -43.904 -54.046  11.299  1.00  0.00     0.186 HD
ENDBRANCH  14  16
ENDBRANCH   2  14
TORSDOF 8
ENDMDL
MODEL 3
REMARK VINA RESULT:      -5.5      2.449      3.230
REMARK  8 active torsions:
REMARK  status: ('A' for Active; 'I' for Inactive)
REMARK    1  A    between atoms: C_2  and  N_3 
REMARK    2  A    between atoms: C_2  and  C_11 
REMARK    3  A    between atoms: N_3  and  C_4 
REMARK    4  A    between atoms: C_4  and  C_5 
REMARK    5  A    between atoms: C_5  and  C_6 
REMARK    6  A    between atoms: C_6  and  S_7 
REMARK    7  A    between atoms: S_7  and  N_10 
REMARK    8  A    between atoms: C_11  and  N_13 
ROOT
HETATM    1  C   UNL     1     -38.813 -47.801  13.207  1.00  0.00     0.045 C 
HETATM    2  C   UNL     1     -39.760 -48.438  12.177  1.00  0.00     0.240 C 
ENDROOT
BRANCH   2   3
HETATM    3  N   UNL     1     -40.172 -47.425  11.177  1.00  0.00     0.089 N 
HETATM    4  H   UNL     1     -40.342 -47.871  10.276  1.00  0.00     0.316 HD
BRANCH   3   5
HETATM    5  C   UNL     1     -41.334 -46.637  11.570  1.00  0.00     0.271 C 
BRANCH   5   6
HETATM    6  C   UNL     1     -42.635 -47.333  11.176  1.00  0.00     0.046 C 
BRANCH   6   7
HETATM    7  C   UNL     1     -42.455 -47.889   9.774  1.00  0.00     0.159 C 
BRANCH   7   8
HETATM    8  S   UNL     1     -43.580 -47.204   8.590  1.00  0.00     0.207 S 
HETATM    9  O   UNL     1     -44.919 -47.669   8.842  1.00  0.00    -0.212 OA
HETATM   10  O   UNL     1     -43.259 -45.813   8.361  1.00  0.00    -0.212 OA
BRANCH   8  11
HETATM   11  N   UNL     1     -43.054 -48.029   7.224  1.00  0.00    -0.229 NA
HETATM   12  H   UNL     1     -42.854 -49.008   7.436  1.00  0.00     0.136 HD
HETATM   13  H   UNL     1     -43.664 -47.865   6.424  1.00  0.00     0.136 HD
ENDBRANCH   8  11
ENDBRANCH   7   8
ENDBRANCH   6   7
ENDBRANCH   5   6
ENDBRANCH   3   5
ENDBRANCH   2   3
BRANCH   2  14
HETATM   14  C   UNL     1     -39.188 -49.764  11.574  1.00  0.00     0.136 C 
HETATM   15  C   UNL     1     -37.687 -49.949  11.832  1.00  0.00     0.036 C 
BRANCH  14  16
HETATM   16  N   UNL     1     -39.914 -50.947  12.044  1.00  0.00    -0.297 N 
HETATM   17  C   UNL     1     -39.662 -51.685  13.169  1.00  0.00     0.118 A 
HETATM   18  C   UNL     1     -40.596 -52.699  13.190  1.00  0.00    -0.028 A 
HETATM   19  C   UNL     1     -40.783 -53.754  14.210  1.00  0.00     0.051 C 
HETATM   20  C   UNL     1     -41.342 -52.501  12.008  1.00  0.00     0.115 A 
HETATM   21  N   UNL     1     -40.909 -51.462  11.290  1.00  0.00    -0.309 N 
ATOM     22  HN  UNL     1     -41.249 -51.134  10.386  1.00  0.00     0.186 HD
ENDBRANCH  14  16
ENDBRANCH   2  14
TORSDOF 8
ENDMDL
MODEL 4
REMARK VINA RESULT:      -5.5      4.555      7.006
REMARK  8 active torsions:
REMARK  status: ('A' for Active; 'I' for Inactive)
REMARK    1  A    between atoms: C_2  and  N_3 
REMARK    2  A    between atoms: C_2  and  C_11 
REMARK    3  A    between atoms: N_3  and  C_4 
REMARK    4  A    between atoms: C_4  and  C_5 
REMARK    5  A    between atoms: C_5  and  C_6 
REMARK    6  A    between atoms: C_6  and  S_7 
REMARK    7  A    between atoms: S_7  and  N_10 
REMARK    8  A    between atoms: C_11  and  N_13 
ROOT
HETATM    1  C   UNL     1     -39.737 -48.710  11.937  1.00  0.00     0.045 C 
HETATM    2  C   UNL     1     -41.033 -48.820  11.118  1.00  0.00     0.240 C 
ENDROOT
BRANCH   2   3
HETATM    3  N   UNL     1     -41.842 -49.962  11.607  1.00  0.00     0.089 N 
HETATM    4  H   UNL     1     -42.659 -50.094  11.010  1.00  0.00     0.316 HD
BRANCH   3   5
HETATM    5  C   UNL     1     -41.101 -51.213  11.719  1.00  0.00     0.271 C 
BRANCH   5   6
HETATM    6  C   UNL     1     -41.578 -52.035  12.914  1.00  0.00     0.046 C 
BRANCH   6   7
HETATM    7  C   UNL     1     -40.839 -53.362  12.886  1.00  0.00     0.159 C 
BRANCH   7   8
HETATM    8  S   UNL     1     -39.470 -53.435  14.006  1.00  0.00     0.207 S 
HETATM    9  O   UNL     1     -38.503 -52.416  13.686  1.00  0.00    -0.212 OA
HETATM   10  O   UNL     1     -39.951 -53.670  15.349  1.00  0.00    -0.212 OA
BRANCH   8  11
HETATM   11  N   UNL     1     -38.795 -54.888  13.498  1.00  0.00    -0.229 NA
HETATM   12  H   UNL     1     -38.874 -54.999  12.486  1.00  0.00     0.136 HD
HETATM   13  H   UNL     1     -37.864 -55.029  13.888  1.00  0.00     0.136 HD
ENDBRANCH   8  11
ENDBRANCH   7   8
ENDBRANCH   6   7
ENDBRANCH   5   6
ENDBRANCH   3   5
ENDBRANCH   2   3
BRANCH   2  14
HETATM   14  C   UNL     1     -41.802 -47.460  11.024  1.00  0.00     0.136 C 
HETATM   15  C   UNL     1     -40.898 -46.276  10.660  1.00  0.00     0.036 C 
BRANCH  14  16
HETATM   16  N   UNL     1     -42.928 -47.522  10.088  1.00  0.00    -0.297 N 
HETATM   17  C   UNL     1     -44.260 -47.403  10.380  1.00  0.00     0.118 A 
HETATM   18  C   UNL     1     -44.936 -47.533   9.185  1.00  0.00    -0.028 A 
HETATM   19  C   UNL     1     -46.392 -47.450   8.940  1.00  0.00     0.051 C 
HETATM   20  C   UNL     1     -43.915 -47.764   8.238  1.00  0.00     0.115 A 
HETATM   21  N   UNL     1     -42.697 -47.796   8.786  1.00  0.00    -0.309 N 
ATOM     22  HN  UNL     1     -41.805 -47.983   8.329  1.00  0.00     0.186 HD
ENDBRANCH  14  16
ENDBRANCH   2  14
TORSDOF 8
ENDMDL
MODEL 5
REMARK VINA RESULT:      -5.3      4.491      7.504
REMARK  8 active torsions:
REMARK  status: ('A' for Active; 'I' for Inactive)
REMARK    1  A    between atoms: C_2  and  N_3 
REMARK    2  A    between atoms: C_2  and  C_11 
REMARK    3  A    between atoms: N_3  and  C_4 
REMARK    4  A    between atoms: C_4  and  C_5 
REMARK    5  A    between atoms: C_5  and  C_6 
REMARK    6  A    between atoms: C_6  and  S_7 
REMARK    7  A    between atoms: S_7  and  N_10 
REMARK    8  A    between atoms: C_11  and  N_13 
ROOT
HETATM    1  C   UNL     1     -43.164 -49.122  12.392  1.00  0.00     0.045 C 
HETATM    2  C   UNL     1     -41.881 -48.739  11.638  1.00  0.00     0.240 C 
ENDROOT
BRANCH   2   3
HETATM    3  N   UNL     1     -41.133 -49.962  11.263  1.00  0.00     0.089 N 
HETATM    4  H   UNL     1     -41.125 -50.070  10.248  1.00  0.00     0.316 HD
BRANCH   3   5
HETATM    5  C   UNL     1     -39.771 -50.011  11.780  1.00  0.00     0.271 C 
BRANCH   5   6
HETATM    6  C   UNL     1     -39.747 -50.458  13.240  1.00  0.00     0.046 C 
BRANCH   6   7
HETATM    7  C   UNL     1     -39.365 -51.928  13.266  1.00  0.00     0.159 C 
BRANCH   7   8
HETATM    8  S   UNL     1     -40.748 -53.022  13.111  1.00  0.00     0.207 S 
HETATM    9  O   UNL     1     -40.463 -54.286  13.740  1.00  0.00    -0.212 OA
HETATM   10  O   UNL     1     -41.975 -52.291  13.332  1.00  0.00    -0.212 OA
BRANCH   8  11
HETATM   11  N   UNL     1     -40.672 -53.304  11.456  1.00  0.00    -0.229 NA
HETATM   12  H   UNL     1     -40.702 -52.429  10.930  1.00  0.00     0.136 HD
HETATM   13  H   UNL     1     -39.914 -53.940  11.214  1.00  0.00     0.136 HD
ENDBRANCH   8  11
ENDBRANCH   7   8
ENDBRANCH   6   7
ENDBRANCH   5   6
ENDBRANCH   3   5
ENDBRANCH   2   3
BRANCH   2  14
HETATM   14  C   UNL     1     -42.150 -47.744  10.460  1.00  0.00     0.136 C 
HETATM   15  C   UNL     1     -43.640 -47.450  10.243  1.00  0.00     0.036 C 
BRANCH  14  16
HETATM   16  N   UNL     1     -41.422 -46.483  10.620  1.00  0.00    -0.297 N 
HETATM   17  C   UNL     1     -41.945 -45.251  10.908  1.00  0.00     0.118 A 
HETATM   18  C   UNL     1     -40.882 -44.374  10.952  1.00  0.00    -0.028 A 
HETATM   19  C   UNL     1     -40.897 -42.927  11.257  1.00  0.00     0.051 C 
HETATM   20  C   UNL     1     -39.764 -45.177  10.639  1.00  0.00     0.115 A 
HETATM   21  N   UNL     1     -40.090 -46.449  10.400  1.00  0.00    -0.309 N 
ATOM     22  HN  UNL     1     -39.478 -47.215  10.118  1.00  0.00     0.186 HD
ENDBRANCH  14  16
ENDBRANCH   2  14
TORSDOF 8
ENDMDL
MODEL 6
REMARK VINA RESULT:      -5.1      4.445      6.100
REMARK  8 active torsions:
REMARK  status: ('A' for Active; 'I' for Inactive)
REMARK    1  A    between atoms: C_2  and  N_3 
REMARK    2  A    between atoms: C_2  and  C_11 
REMARK    3  A    between atoms: N_3  and  C_4 
REMARK    4  A    between atoms: C_4  and  C_5 
REMARK    5  A    between atoms: C_5  and  C_6 
REMARK    6  A    between atoms: C_6  and  S_7 
REMARK    7  A    between atoms: S_7  and  N_10 
REMARK    8  A    between atoms: C_11  and  N_13 
ROOT
HETATM    1  C   UNL     1     -41.778 -46.429  12.634  1.00  0.00     0.045 C 
HETATM    2  C   UNL     1     -41.442 -46.447  11.134  1.00  0.00     0.240 C 
ENDROOT
BRANCH   2   3
HETATM    3  N   UNL     1     -40.049 -45.986  10.926  1.00  0.00     0.089 N 
HETATM    4  H   UNL     1     -39.867 -45.860   9.930  1.00  0.00     0.316 HD
BRANCH   3   5
HETATM    5  C   UNL     1     -39.708 -44.769  11.652  1.00  0.00     0.271 C 
BRANCH   5   6
HETATM    6  C   UNL     1     -40.256 -43.530  10.947  1.00  0.00     0.046 C 
BRANCH   6   7
HETATM    7  C   UNL     1     -41.015 -42.711  11.976  1.00  0.00     0.159 C 
BRANCH   7   8
HETATM    8  S   UNL     1     -42.695 -42.386  11.524  1.00  0.00     0.207 S 
HETATM    9  O   UNL     1     -43.031 -43.077  10.306  1.00  0.00    -0.212 OA
HETATM   10  O   UNL     1     -43.532 -42.416  12.703  1.00  0.00    -0.212 OA
BRANCH   8  11
HETATM   11  N   UNL     1     -42.545 -40.765  11.107  1.00  0.00    -0.229 NA
HETATM   12  H   UNL     1     -41.981 -40.258  11.792  1.00  0.00     0.136 HD
HETATM   13  H   UNL     1     -42.270 -40.648  10.134  1.00  0.00     0.136 HD
ENDBRANCH   8  11
ENDBRANCH   7   8
ENDBRANCH   6   7
ENDBRANCH   5   6
ENDBRANCH   3   5
ENDBRANCH   2   3
BRANCH   2  14
HETATM   14  C   UNL     1     -41.793 -47.813  10.456  1.00  0.00     0.136 C 
HETATM   15  C   UNL     1     -41.862 -48.982  11.446  1.00  0.00     0.036 C 
BRANCH  14  16
HETATM   16  N   UNL     1     -43.039 -47.748   9.688  1.00  0.00    -0.297 N 
HETATM   17  C   UNL     1     -44.290 -47.450  10.156  1.00  0.00     0.118 A 
HETATM   18  C   UNL     1     -45.141 -47.519   9.073  1.00  0.00    -0.028 A 
HETATM   19  C   UNL     1     -46.595 -47.252   9.030  1.00  0.00     0.051 C 
HETATM   20  C   UNL     1     -44.303 -47.903   8.005  1.00  0.00     0.115 A 
HETATM   21  N   UNL     1     -43.033 -48.081   8.379  1.00  0.00    -0.309 N 
ATOM     22  HN  UNL     1     -42.246 -48.393   7.811  1.00  0.00     0.186 HD
ENDBRANCH  14  16
ENDBRANCH   2  14
TORSDOF 8
ENDMDL
MODEL 7
REMARK VINA RESULT:      -5.1      4.883      6.418
REMARK  8 active torsions:
REMARK  status: ('A' for Active; 'I' for Inactive)
REMARK    1  A    between atoms: C_2  and  N_3 
REMARK    2  A    between atoms: C_2  and  C_11 
REMARK    3  A    between atoms: N_3  and  C_4 
REMARK    4  A    between atoms: C_4  and  C_5 
REMARK    5  A    between atoms: C_5  and  C_6 
REMARK    6  A    between atoms: C_6  and  S_7 
REMARK    7  A    between atoms: S_7  and  N_10 
REMARK    8  A    between atoms: C_11  and  N_13 
ROOT
HETATM    1  C   UNL     1     -40.447 -47.254  12.878  1.00  0.00     0.045 C 
HETATM    2  C   UNL     1     -40.908 -46.947  11.444  1.00  0.00     0.240 C 
ENDROOT
BRANCH   2   3
HETATM    3  N   UNL     1     -39.756 -46.485  10.634  1.00  0.00     0.089 N 
HETATM    4  H   UNL     1     -39.621 -47.102   9.833  1.00  0.00     0.316 HD
BRANCH   3   5
HETATM    5  C   UNL     1     -39.860 -45.102  10.184  1.00  0.00     0.271 C 
BRANCH   5   6
HETATM    6  C   UNL     1     -40.957 -44.353  10.939  1.00  0.00     0.046 C 
BRANCH   6   7
HETATM    7  C   UNL     1     -40.356 -43.061  11.464  1.00  0.00     0.159 C 
BRANCH   7   8
HETATM    8  S   UNL     1     -39.809 -43.165  13.144  1.00  0.00     0.207 S 
HETATM    9  O   UNL     1     -38.793 -44.177  13.281  1.00  0.00    -0.212 OA
HETATM   10  O   UNL     1     -39.675 -41.835  13.697  1.00  0.00    -0.212 OA
BRANCH   8  11
HETATM   11  N   UNL     1     -41.199 -43.812  13.832  1.00  0.00    -0.229 NA
HETATM   12  H   UNL     1     -41.368 -43.423  14.761  1.00  0.00     0.136 HD
HETATM   13  H   UNL     1     -41.989 -43.781  13.189  1.00  0.00     0.136 HD
ENDBRANCH   8  11
ENDBRANCH   7   8
ENDBRANCH   6   7
ENDBRANCH   5   6
ENDBRANCH   3   5
ENDBRANCH   2   3
BRANCH   2  14
HETATM   14  C   UNL     1     -41.729 -48.120  10.813  1.00  0.00     0.136 C 
HETATM   15  C   UNL     1     -42.218 -49.143  11.846  1.00  0.00     0.036 C 
BRANCH  14  16
HETATM   16  N   UNL     1     -42.867 -47.641  10.024  1.00  0.00    -0.297 N 
HETATM   17  C   UNL     1     -44.197 -47.743  10.335  1.00  0.00     0.118 A 
HETATM   18  C   UNL     1     -44.888 -47.158   9.294  1.00  0.00    -0.028 A 
HETATM   19  C   UNL     1     -46.349 -46.976   9.151  1.00  0.00     0.051 C 
HETATM   20  C   UNL     1     -43.878 -46.768   8.389  1.00  0.00     0.115 A 
HETATM   21  N   UNL     1     -42.652 -47.092   8.809  1.00  0.00    -0.309 N 
ATOM     22  HN  UNL     1     -41.764 -46.956   8.326  1.00  0.00     0.186 HD
ENDBRANCH  14  16
ENDBRANCH   2  14
TORSDOF 8
ENDMDL
MODEL 8
REMARK VINA RESULT:      -5.1      4.186      6.588
REMARK  8 active torsions:
REMARK  status: ('A' for Active; 'I' for Inactive)
REMARK    1  A    between atoms: C_2  and  N_3 
REMARK    2  A    between atoms: C_2  and  C_11 
REMARK    3  A    between atoms: N_3  and  C_4 
REMARK    4  A    between atoms: C_4  and  C_5 
REMARK    5  A    between atoms: C_5  and  C_6 
REMARK    6  A    between atoms: C_6  and  S_7 
REMARK    7  A    between atoms: S_7  and  N_10 
REMARK    8  A    between atoms: C_11  and  N_13 
ROOT
HETATM    1  C   UNL     1     -39.591 -49.024  11.822  1.00  0.00     0.045 C 
HETATM    2  C   UNL     1     -40.918 -49.052  11.046  1.00  0.00     0.240 C 
ENDROOT
BRANCH   2   3
HETATM    3  N   UNL     1     -41.728 -50.215  11.478  1.00  0.00     0.089 N 
HETATM    4  H   UNL     1     -41.591 -50.996  10.836  1.00  0.00     0.316 HD
BRANCH   3   5
HETATM    5  C   UNL     1     -41.471 -50.646  12.847  1.00  0.00     0.271 C 
BRANCH   5   6
HETATM    6  C   UNL     1     -42.772 -50.926  13.595  1.00  0.00     0.046 C 
BRANCH   6   7
HETATM    7  C   UNL     1     -43.368 -52.202  13.026  1.00  0.00     0.159 C 
BRANCH   7   8
HETATM    8  S   UNL     1     -42.798 -53.671  13.833  1.00  0.00     0.207 S 
HETATM    9  O   UNL     1     -42.005 -53.335  14.988  1.00  0.00    -0.212 OA
HETATM   10  O   UNL     1     -43.860 -54.652  13.865  1.00  0.00    -0.212 OA
BRANCH   8  11
HETATM   11  N   UNL     1     -41.712 -54.205  12.668  1.00  0.00    -0.229 NA
HETATM   12  H   UNL     1     -40.749 -54.133  12.999  1.00  0.00     0.136 HD
HETATM   13  H   UNL     1     -41.982 -55.108  12.284  1.00  0.00     0.136 HD
ENDBRANCH   8  11
ENDBRANCH   7   8
ENDBRANCH   6   7
ENDBRANCH   5   6
ENDBRANCH   3   5
ENDBRANCH   2   3
BRANCH   2  14
HETATM   14  C   UNL     1     -41.666 -47.678  11.084  1.00  0.00     0.136 C 
HETATM   15  C   UNL     1     -40.744 -46.479  10.832  1.00  0.00     0.036 C 
BRANCH  14  16
HETATM   16  N   UNL     1     -42.793 -47.633  10.149  1.00  0.00    -0.297 N 
HETATM   17  C   UNL     1     -44.114 -47.435  10.447  1.00  0.00     0.118 A 
HETATM   18  C   UNL     1     -44.797 -47.480   9.250  1.00  0.00    -0.028 A 
HETATM   19  C   UNL     1     -46.245 -47.292   9.011  1.00  0.00     0.051 C 
HETATM   20  C   UNL     1     -43.794 -47.748   8.294  1.00  0.00     0.115 A 
HETATM   21  N   UNL     1     -42.581 -47.879   8.837  1.00  0.00    -0.309 N 
ATOM     22  HN  UNL     1     -41.703 -48.109   8.372  1.00  0.00     0.186 HD
ENDBRANCH  14  16
ENDBRANCH   2  14
TORSDOF 8
ENDMDL
MODEL 9
REMARK VINA RESULT:      -4.8      4.589      6.900
REMARK  8 active torsions:
REMARK  status: ('A' for Active; 'I' for Inactive)
REMARK    1  A    between atoms: C_2  and  N_3 
REMARK    2  A    between atoms: C_2  and  C_11 
REMARK    3  A    between atoms: N_3  and  C_4 
REMARK    4  A    between atoms: C_4  and  C_5 
REMARK    5  A    between atoms: C_5  and  C_6 
REMARK    6  A    between atoms: C_6  and  S_7 
REMARK    7  A    between atoms: S_7  and  N_10 
REMARK    8  A    between atoms: C_11  and  N_13 
ROOT
HETATM    1  C   UNL     1     -44.061 -53.826  12.538  1.00  0.00     0.045 C 
HETATM    2  C   UNL     1     -43.423 -52.444  12.749  1.00  0.00     0.240 C 
ENDROOT
BRANCH   2   3
HETATM    3  N   UNL     1     -44.291 -51.618  13.622  1.00  0.00     0.089 N 
HETATM    4  H   UNL     1     -43.930 -50.665  13.673  1.00  0.00     0.316 HD
BRANCH   3   5
HETATM    5  C   UNL     1     -45.693 -51.599  13.223  1.00  0.00     0.271 C 
BRANCH   5   6
HETATM    6  C   UNL     1     -46.608 -51.365  14.423  1.00  0.00     0.046 C 
BRANCH   6   7
HETATM    7  C   UNL     1     -46.828 -52.705  15.104  1.00  0.00     0.159 C 
BRANCH   7   8
HETATM    8  S   UNL     1     -45.983 -52.860  16.651  1.00  0.00     0.207 S 
HETATM    9  O   UNL     1     -44.652 -52.318  16.554  1.00  0.00    -0.212 OA
HETATM   10  O   UNL     1     -46.886 -52.540  17.734  1.00  0.00    -0.212 OA
BRANCH   8  11
HETATM   11  N   UNL     1     -45.800 -54.530  16.683  1.00  0.00    -0.229 NA
HETATM   12  H   UNL     1     -46.649 -55.001  16.367  1.00  0.00     0.136 HD
HETATM   13  H   UNL     1     -44.936 -54.825  16.231  1.00  0.00     0.136 HD
ENDBRANCH   8  11
ENDBRANCH   7   8
ENDBRANCH   6   7
ENDBRANCH   5   6
ENDBRANCH   3   5
ENDBRANCH   2   3
BRANCH   2  14
HETATM   14  C   UNL     1     -41.928 -52.535  13.202  1.00  0.00     0.136 C 
HETATM   15  C   UNL     1     -41.320 -53.930  13.011  1.00  0.00     0.036 C 
BRANCH  14  16
HETATM   16  N   UNL     1     -41.084 -51.539  12.538  1.00  0.00    -0.297 N 
HETATM   17  C   UNL     1     -39.756 -51.292  12.759  1.00  0.00     0.118 A 
HETATM   18  C   UNL     1     -39.400 -50.267  11.908  1.00  0.00    -0.028 A 
HETATM   19  C   UNL     1     -38.071 -49.645  11.726  1.00  0.00     0.051 C 
HETATM   20  C   UNL     1     -40.602 -49.943  11.242  1.00  0.00     0.115 A 
HETATM   21  N   UNL     1     -41.635 -50.686  11.647  1.00  0.00    -0.309 N 
ATOM     22  HN  UNL     1     -42.610 -50.624  11.352  1.00  0.00     0.186 HD
ENDBRANCH  14  16
ENDBRANCH   2  14
TORSDOF 8
ENDMDL
