MODEL 1
REMARK VINA RESULT:      -5.9      0.000      0.000
REMARK  3 active torsions:
REMARK  status: ('A' for Active; 'I' for Inactive)
REMARK    1  A    between atoms: C_2  and  N_3 
REMARK    2  A    between atoms: C_2  and  C_13 
REMARK       I    between atoms: N_3  and  C_4 
REMARK       I    between atoms: C_4  and  N_6 
REMARK    3  A    between atoms: N_6  and  C_7 
REMARK       I    between atoms: C_13  and  N_15 
ROOT
HETATM    1  N   UNL     1     -42.206 -51.707  11.971  1.00  0.00    -0.330 N 
HETATM    2  C   UNL     1     -41.862 -50.392  12.188  1.00  0.00     0.322 C 
HETATM    3  O   UNL     1     -41.780 -49.931  13.321  1.00  0.00    -0.247 OA
HETATM    4  N   UNL     1     -41.580 -49.748  11.014  1.00  0.00    -0.289 N 
HETATM    5  H   UNL     1     -42.616 -51.975  11.084  1.00  0.00     0.165 HD
HETATM    6  H   UNL     1     -41.424 -50.294  10.184  1.00  0.00     0.172 HD
ENDROOT
BRANCH   1   7
HETATM    7  C   UNL     1     -42.478 -52.600  13.093  1.00  0.00     0.174 C 
HETATM    8  C   UNL     1     -41.606 -53.845  12.994  1.00  0.00     0.042 C 
BRANCH   7   9
HETATM    9  C   UNL     1     -43.968 -52.990  13.064  1.00  0.00     0.242 C 
HETATM   10  O   UNL     1     -44.398 -53.732  12.173  1.00  0.00    -0.271 OA
HETATM   11  N   UNL     1     -44.779 -52.513  14.072  1.00  0.00    -0.350 N 
HETATM   12  C   UNL     1     -44.435 -51.513  15.073  1.00  0.00     0.126 C 
HETATM   13  C   UNL     1     -46.186 -52.846  14.142  1.00  0.00     0.126 C 
HETATM   14  C   UNL     1     -45.770 -51.014  15.625  1.00  0.00     0.021 C 
HETATM   15  C   UNL     1     -46.824 -51.576  14.677  1.00  0.00     0.021 C 
ENDBRANCH   7   9
ENDBRANCH   1   7
BRANCH   4  16
HETATM   16  C   UNL     1     -41.164 -48.446  10.991  1.00  0.00     0.152 A 
HETATM   17  N   UNL     1     -40.022 -47.930  11.362  1.00  0.00    -0.346 N 
HETATM   18  C   UNL     1     -40.024 -46.577  11.101  1.00  0.00     0.097 A 
ATOM     19  HN  UNL     1     -39.249 -48.449  11.780  1.00  0.00     0.167 HD
HETATM   20  C   UNL     1     -41.183 -46.083  10.537  1.00  0.00     0.070 A 
HETATM   21  S   UNL     1     -42.323 -47.355  10.369  1.00  0.00    -0.064 SA
ENDBRANCH   4  16
TORSDOF 3
ENDMDL
MODEL 2
REMARK VINA RESULT:      -5.5      2.055      2.810
REMARK  3 active torsions:
REMARK  status: ('A' for Active; 'I' for Inactive)
REMARK    1  A    between atoms: C_2  and  N_3 
REMARK    2  A    between atoms: C_2  and  C_13 
REMARK       I    between atoms: N_3  and  C_4 
REMARK       I    between atoms: C_4  and  N_6 
REMARK    3  A    between atoms: N_6  and  C_7 
REMARK       I    between atoms: C_13  and  N_15 
ROOT
HETATM    1  N   UNL     1     -40.923 -50.196  11.268  1.00  0.00    -0.330 N 
HETATM    2  C   UNL     1     -41.677 -49.044  11.275  1.00  0.00     0.322 C 
HETATM    3  O   UNL     1     -42.115 -48.574  12.318  1.00  0.00    -0.247 OA
HETATM    4  N   UNL     1     -41.790 -48.513  10.020  1.00  0.00    -0.289 N 
HETATM    5  H   UNL     1     -40.881 -50.758  10.425  1.00  0.00     0.165 HD
HETATM    6  H   UNL     1     -41.173 -48.837   9.295  1.00  0.00     0.172 HD
ENDROOT
BRANCH   1   7
HETATM    7  C   UNL     1     -40.614 -50.892  12.513  1.00  0.00     0.174 C 
HETATM    8  C   UNL     1     -39.106 -50.962  12.713  1.00  0.00     0.042 C 
BRANCH   7   9
HETATM    9  C   UNL     1     -41.209 -52.311  12.446  1.00  0.00     0.242 C 
HETATM   10  O   UNL     1     -40.547 -53.240  11.968  1.00  0.00    -0.271 OA
HETATM   11  N   UNL     1     -42.473 -52.506  12.963  1.00  0.00    -0.350 N 
HETATM   12  C   UNL     1     -43.408 -51.478  13.398  1.00  0.00     0.126 C 
HETATM   13  C   UNL     1     -43.104 -53.808  12.967  1.00  0.00     0.126 C 
HETATM   14  C   UNL     1     -44.776 -52.160  13.430  1.00  0.00     0.021 C 
HETATM   15  C   UNL     1     -44.569 -53.493  12.720  1.00  0.00     0.021 C 
ENDBRANCH   7   9
ENDBRANCH   1   7
BRANCH   4  16
HETATM   16  C   UNL     1     -42.453 -47.339   9.794  1.00  0.00     0.152 A 
HETATM   17  N   UNL     1     -42.300 -46.173  10.367  1.00  0.00    -0.346 N 
HETATM   18  C   UNL     1     -43.145 -45.258   9.776  1.00  0.00     0.097 A 
ATOM     19  HN  UNL     1     -41.655 -45.972  11.131  1.00  0.00     0.167 HD
HETATM   20  C   UNL     1     -43.939 -45.752   8.762  1.00  0.00     0.070 A 
HETATM   21  S   UNL     1     -43.642 -47.432   8.571  1.00  0.00    -0.064 SA
ENDBRANCH   4  16
TORSDOF 3
ENDMDL
MODEL 3
REMARK VINA RESULT:      -5.4      3.665      7.008
REMARK  3 active torsions:
REMARK  status: ('A' for Active; 'I' for Inactive)
REMARK    1  A    between atoms: C_2  and  N_3 
REMARK    2  A    between atoms: C_2  and  C_13 
REMARK       I    between atoms: N_3  and  C_4 
REMARK       I    between atoms: C_4  and  N_6 
REMARK    3  A    between atoms: N_6  and  C_7 
REMARK       I    between atoms: C_13  and  N_15 
ROOT
HETATM    1  N   UNL     1     -41.352 -47.790  10.223  1.00  0.00    -0.330 N 
HETATM    2  C   UNL     1     -41.480 -48.820  11.127  1.00  0.00     0.322 C 
HETATM    3  O   UNL     1     -42.287 -48.766  12.047  1.00  0.00    -0.247 OA
HETATM    4  N   UNL     1     -40.660 -49.869  10.810  1.00  0.00    -0.289 N 
HETATM    5  H   UNL     1     -40.481 -47.675   9.719  1.00  0.00     0.165 HD
HETATM    6  H   UNL     1     -40.246 -49.904   9.894  1.00  0.00     0.172 HD
ENDROOT
BRANCH   1   7
HETATM    7  C   UNL     1     -42.188 -46.598  10.330  1.00  0.00     0.174 C 
HETATM    8  C   UNL     1     -42.986 -46.402   9.048  1.00  0.00     0.042 C 
BRANCH   7   9
HETATM    9  C   UNL     1     -41.279 -45.380  10.583  1.00  0.00     0.242 C 
HETATM   10  O   UNL     1     -40.396 -45.085   9.769  1.00  0.00    -0.271 OA
HETATM   11  N   UNL     1     -41.510 -44.627  11.715  1.00  0.00    -0.350 N 
HETATM   12  C   UNL     1     -42.398 -44.958  12.820  1.00  0.00     0.126 C 
HETATM   13  C   UNL     1     -40.724 -43.451  12.023  1.00  0.00     0.126 C 
HETATM   14  C   UNL     1     -41.947 -44.076  13.984  1.00  0.00     0.021 C 
HETATM   15  C   UNL     1     -40.614 -43.486  13.538  1.00  0.00     0.021 C 
ENDBRANCH   7   9
ENDBRANCH   1   7
BRANCH   4  16
HETATM   16  C   UNL     1     -40.657 -51.024  11.540  1.00  0.00     0.152 A 
HETATM   17  N   UNL     1     -41.244 -52.166  11.295  1.00  0.00    -0.346 N 
HETATM   18  C   UNL     1     -40.912 -53.072  12.279  1.00  0.00     0.097 A 
ATOM     19  HN  UNL     1     -41.854 -52.356  10.499  1.00  0.00     0.167 HD
HETATM   20  C   UNL     1     -40.077 -52.595  13.268  1.00  0.00     0.070 A 
HETATM   21  S   UNL     1     -39.730 -50.940  12.974  1.00  0.00    -0.064 SA
ENDBRANCH   4  16
TORSDOF 3
ENDMDL
MODEL 4
REMARK VINA RESULT:      -5.3      3.005      6.673
REMARK  3 active torsions:
REMARK  status: ('A' for Active; 'I' for Inactive)
REMARK    1  A    between atoms: C_2  and  N_3 
REMARK    2  A    between atoms: C_2  and  C_13 
REMARK       I    between atoms: N_3  and  C_4 
REMARK       I    between atoms: C_4  and  N_6 
REMARK    3  A    between atoms: N_6  and  C_7 
REMARK       I    between atoms: C_13  and  N_15 
ROOT
HETATM    1  N   UNL     1     -39.218 -51.040  12.161  1.00  0.00    -0.330 N 
HETATM    2  C   UNL     1     -40.572 -51.285  12.220  1.00  0.00     0.322 C 
HETATM    3  O   UNL     1     -41.388 -50.459  11.829  1.00  0.00    -0.247 OA
HETATM    4  N   UNL     1     -40.832 -52.543  12.690  1.00  0.00    -0.289 N 
HETATM    5  H   UNL     1     -38.595 -51.532  12.790  1.00  0.00     0.165 HD
HETATM    6  H   UNL     1     -40.084 -53.215  12.725  1.00  0.00     0.172 HD
ENDROOT
BRANCH   1   7
HETATM    7  C   UNL     1     -38.712 -49.782  11.620  1.00  0.00     0.174 C 
HETATM    8  C   UNL     1     -37.319 -49.985  11.039  1.00  0.00     0.042 C 
BRANCH   7   9
HETATM    9  C   UNL     1     -38.670 -48.739  12.753  1.00  0.00     0.242 C 
HETATM   10  O   UNL     1     -38.068 -48.988  13.804  1.00  0.00    -0.271 OA
HETATM   11  N   UNL     1     -39.292 -47.527  12.537  1.00  0.00    -0.350 N 
HETATM   12  C   UNL     1     -40.163 -47.175  11.424  1.00  0.00     0.126 C 
HETATM   13  C   UNL     1     -39.284 -46.477  13.533  1.00  0.00     0.126 C 
HETATM   14  C   UNL     1     -40.937 -45.941  11.885  1.00  0.00     0.021 C 
HETATM   15  C   UNL     1     -40.652 -45.833  13.379  1.00  0.00     0.021 C 
ENDBRANCH   7   9
ENDBRANCH   1   7
BRANCH   4  16
HETATM   16  C   UNL     1     -42.107 -53.024  12.785  1.00  0.00     0.152 A 
HETATM   17  N   UNL     1     -43.131 -52.830  11.996  1.00  0.00    -0.346 N 
HETATM   18  C   UNL     1     -44.206 -53.565  12.450  1.00  0.00     0.097 A 
ATOM     19  HN  UNL     1     -43.135 -52.228  11.172  1.00  0.00     0.167 HD
HETATM   20  C   UNL     1     -43.978 -54.305  13.592  1.00  0.00     0.070 A 
HETATM   21  S   UNL     1     -42.373 -54.036  14.137  1.00  0.00    -0.064 SA
ENDBRANCH   4  16
TORSDOF 3
ENDMDL
MODEL 5
REMARK VINA RESULT:      -5.1      2.367      2.712
REMARK  3 active torsions:
REMARK  status: ('A' for Active; 'I' for Inactive)
REMARK    1  A    between atoms: C_2  and  N_3 
REMARK    2  A    between atoms: C_2  and  C_13 
REMARK       I    between atoms: N_3  and  C_4 
REMARK       I    between atoms: C_4  and  N_6 
REMARK    3  A    between atoms: N_6  and  C_7 
REMARK       I    between atoms: C_13  and  N_15 
ROOT
HETATM    1  N   UNL     1     -41.765 -53.600  13.757  1.00  0.00    -0.330 N 
HETATM    2  C   UNL     1     -41.353 -52.301  13.560  1.00  0.00     0.322 C 
HETATM    3  O   UNL     1     -41.947 -51.358  14.069  1.00  0.00    -0.247 OA
HETATM    4  N   UNL     1     -40.211 -52.247  12.809  1.00  0.00    -0.289 N 
HETATM    5  H   UNL     1     -41.519 -54.309  13.076  1.00  0.00     0.165 HD
HETATM    6  H   UNL     1     -39.675 -53.087  12.675  1.00  0.00     0.172 HD
ENDROOT
BRANCH   1   7
HETATM    7  C   UNL     1     -42.926 -53.894  14.592  1.00  0.00     0.174 C 
HETATM    8  C   UNL     1     -42.839 -55.318  15.125  1.00  0.00     0.042 C 
BRANCH   7   9
HETATM    9  C   UNL     1     -44.200 -53.720  13.744  1.00  0.00     0.242 C 
HETATM   10  O   UNL     1     -44.276 -54.238  12.624  1.00  0.00    -0.271 OA
HETATM   11  N   UNL     1     -45.245 -53.005  14.290  1.00  0.00    -0.350 N 
HETATM   12  C   UNL     1     -45.222 -52.218  15.515  1.00  0.00     0.126 C 
HETATM   13  C   UNL     1     -46.491 -52.810  13.580  1.00  0.00     0.126 C 
HETATM   14  C   UNL     1     -46.428 -51.283  15.422  1.00  0.00     0.021 C 
HETATM   15  C   UNL     1     -46.912 -51.408  13.982  1.00  0.00     0.021 C 
ENDBRANCH   7   9
ENDBRANCH   1   7
BRANCH   4  16
HETATM   16  C   UNL     1     -39.591 -51.061  12.529  1.00  0.00     0.152 A 
HETATM   17  N   UNL     1     -40.059 -49.999  11.928  1.00  0.00    -0.346 N 
HETATM   18  C   UNL     1     -39.094 -49.014  11.922  1.00  0.00     0.097 A 
ATOM     19  HN  UNL     1     -40.992 -49.912  11.526  1.00  0.00     0.167 HD
HETATM   20  C   UNL     1     -37.896 -49.353  12.516  1.00  0.00     0.070 A 
HETATM   21  S   UNL     1     -37.971 -50.978  13.066  1.00  0.00    -0.064 SA
ENDBRANCH   4  16
TORSDOF 3
ENDMDL
MODEL 6
REMARK VINA RESULT:      -4.9      2.777      4.119
REMARK  3 active torsions:
REMARK  status: ('A' for Active; 'I' for Inactive)
REMARK    1  A    between atoms: C_2  and  N_3 
REMARK    2  A    between atoms: C_2  and  C_13 
REMARK       I    between atoms: N_3  and  C_4 
REMARK       I    between atoms: C_4  and  N_6 
REMARK    3  A    between atoms: N_6  and  C_7 
REMARK       I    between atoms: C_13  and  N_15 
ROOT
HETATM    1  N   UNL     1     -40.765 -48.715  13.128  1.00  0.00    -0.330 N 
HETATM    2  C   UNL     1     -41.692 -48.666  12.110  1.00  0.00     0.322 C 
HETATM    3  O   UNL     1     -42.669 -49.405  12.101  1.00  0.00    -0.247 OA
HETATM    4  N   UNL     1     -41.395 -47.679  11.211  1.00  0.00    -0.289 N 
HETATM    5  H   UNL     1     -39.820 -48.391  12.957  1.00  0.00     0.165 HD
HETATM    6  H   UNL     1     -40.724 -46.974  11.464  1.00  0.00     0.172 HD
ENDROOT
BRANCH   1   7
HETATM    7  C   UNL     1     -40.927 -49.649  14.238  1.00  0.00     0.174 C 
HETATM    8  C   UNL     1     -40.483 -48.997  15.540  1.00  0.00     0.042 C 
BRANCH   7   9
HETATM    9  C   UNL     1     -40.080 -50.904  13.955  1.00  0.00     0.242 C 
HETATM   10  O   UNL     1     -38.863 -50.800  13.761  1.00  0.00    -0.271 OA
HETATM   11  N   UNL     1     -40.716 -52.127  13.959  1.00  0.00    -0.350 N 
HETATM   12  C   UNL     1     -42.152 -52.367  14.010  1.00  0.00     0.126 C 
HETATM   13  C   UNL     1     -39.999 -53.362  13.728  1.00  0.00     0.126 C 
HETATM   14  C   UNL     1     -42.343 -53.804  13.527  1.00  0.00     0.021 C 
HETATM   15  C   UNL     1     -40.991 -54.208  12.949  1.00  0.00     0.021 C 
ENDBRANCH   7   9
ENDBRANCH   1   7
BRANCH   4  16
HETATM   16  C   UNL     1     -42.206 -47.413  10.143  1.00  0.00     0.152 A 
HETATM   17  N   UNL     1     -42.589 -48.201   9.172  1.00  0.00    -0.346 N 
HETATM   18  C   UNL     1     -43.459 -47.520   8.347  1.00  0.00     0.097 A 
ATOM     19  HN  UNL     1     -42.291 -49.168   9.046  1.00  0.00     0.167 HD
HETATM   20  C   UNL     1     -43.716 -46.213   8.705  1.00  0.00     0.070 A 
HETATM   21  S   UNL     1     -42.802 -45.812  10.102  1.00  0.00    -0.064 SA
ENDBRANCH   4  16
TORSDOF 3
ENDMDL
MODEL 7
REMARK VINA RESULT:      -4.8      2.288      3.864
REMARK  3 active torsions:
REMARK  status: ('A' for Active; 'I' for Inactive)
REMARK    1  A    between atoms: C_2  and  N_3 
REMARK    2  A    between atoms: C_2  and  C_13 
REMARK       I    between atoms: N_3  and  C_4 
REMARK       I    between atoms: C_4  and  N_6 
REMARK    3  A    between atoms: N_6  and  C_7 
REMARK       I    between atoms: C_13  and  N_15 
ROOT
HETATM    1  N   UNL     1     -43.740 -52.033  13.319  1.00  0.00    -0.330 N 
HETATM    2  C   UNL     1     -42.921 -51.148  12.653  1.00  0.00     0.322 C 
HETATM    3  O   UNL     1     -41.904 -51.525  12.083  1.00  0.00    -0.247 OA
HETATM    4  N   UNL     1     -43.432 -49.880  12.676  1.00  0.00    -0.289 N 
HETATM    5  H   UNL     1     -44.340 -51.693  14.062  1.00  0.00     0.165 HD
HETATM    6  H   UNL     1     -44.393 -49.745  12.940  1.00  0.00     0.172 HD
ENDROOT
BRANCH   1   7
HETATM    7  C   UNL     1     -43.423 -53.457  13.358  1.00  0.00     0.174 C 
HETATM    8  C   UNL     1     -44.696 -54.281  13.214  1.00  0.00     0.042 C 
BRANCH   7   9
HETATM    9  C   UNL     1     -42.734 -53.772  14.700  1.00  0.00     0.242 C 
HETATM   10  O   UNL     1     -43.343 -53.608  15.763  1.00  0.00    -0.271 OA
HETATM   11  N   UNL     1     -41.447 -54.267  14.663  1.00  0.00    -0.350 N 
HETATM   12  C   UNL     1     -40.574 -54.350  13.501  1.00  0.00     0.126 C 
HETATM   13  C   UNL     1     -40.729 -54.615  15.870  1.00  0.00     0.126 C 
HETATM   14  C   UNL     1     -39.162 -54.516  14.063  1.00  0.00     0.021 C 
HETATM   15  C   UNL     1     -39.295 -54.225  15.554  1.00  0.00     0.021 C 
ENDBRANCH   7   9
ENDBRANCH   1   7
BRANCH   4  16
HETATM   16  C   UNL     1     -42.813 -48.845  12.033  1.00  0.00     0.152 A 
HETATM   17  N   UNL     1     -42.256 -48.813  10.849  1.00  0.00    -0.346 N 
HETATM   18  C   UNL     1     -41.809 -47.536  10.587  1.00  0.00     0.097 A 
ATOM     19  HN  UNL     1     -42.167 -49.610  10.219  1.00  0.00     0.167 HD
HETATM   20  C   UNL     1     -42.029 -46.613  11.589  1.00  0.00     0.070 A 
HETATM   21  S   UNL     1     -42.786 -47.386  12.922  1.00  0.00    -0.064 SA
ENDBRANCH   4  16
TORSDOF 3
ENDMDL
MODEL 8
REMARK VINA RESULT:      -4.8      3.338      6.381
REMARK  3 active torsions:
REMARK  status: ('A' for Active; 'I' for Inactive)
REMARK    1  A    between atoms: C_2  and  N_3 
REMARK    2  A    between atoms: C_2  and  C_13 
REMARK       I    between atoms: N_3  and  C_4 
REMARK       I    between atoms: C_4  and  N_6 
REMARK    3  A    between atoms: N_6  and  C_7 
REMARK       I    between atoms: C_13  and  N_15 
ROOT
HETATM    1  N   UNL     1     -41.127 -53.293  14.350  1.00  0.00    -0.330 N 
HETATM    2  C   UNL     1     -42.165 -52.650  13.712  1.00  0.00     0.322 C 
HETATM    3  O   UNL     1     -41.986 -52.021  12.676  1.00  0.00    -0.247 OA
HETATM    4  N   UNL     1     -43.356 -52.873  14.346  1.00  0.00    -0.289 N 
HETATM    5  H   UNL     1     -41.196 -53.484  15.343  1.00  0.00     0.165 HD
HETATM    6  H   UNL     1     -43.418 -53.614  15.023  1.00  0.00     0.172 HD
ENDROOT
BRANCH   1   7
HETATM    7  C   UNL     1     -39.775 -53.249  13.802  1.00  0.00     0.174 C 
HETATM    8  C   UNL     1     -39.103 -54.606  13.961  1.00  0.00     0.042 C 
BRANCH   7   9
HETATM    9  C   UNL     1     -38.974 -52.167  14.551  1.00  0.00     0.242 C 
HETATM   10  O   UNL     1     -38.848 -52.227  15.779  1.00  0.00    -0.271 OA
HETATM   11  N   UNL     1     -38.387 -51.167  13.804  1.00  0.00    -0.350 N 
HETATM   12  C   UNL     1     -38.594 -50.895  12.389  1.00  0.00     0.126 C 
HETATM   13  C   UNL     1     -37.595 -50.122  14.417  1.00  0.00     0.126 C 
HETATM   14  C   UNL     1     -38.110 -49.461  12.175  1.00  0.00     0.021 C 
HETATM   15  C   UNL     1     -37.916 -48.897  13.578  1.00  0.00     0.021 C 
ENDBRANCH   7   9
ENDBRANCH   1   7
BRANCH   4  16
HETATM   16  C   UNL     1     -44.532 -52.375  13.859  1.00  0.00     0.152 A 
HETATM   17  N   UNL     1     -44.972 -52.331  12.628  1.00  0.00    -0.346 N 
HETATM   18  C   UNL     1     -46.242 -51.794  12.614  1.00  0.00     0.097 A 
ATOM     19  HN  UNL     1     -44.455 -52.644  11.807  1.00  0.00     0.167 HD
HETATM   20  C   UNL     1     -46.745 -51.430  13.846  1.00  0.00     0.070 A 
HETATM   21  S   UNL     1     -45.568 -51.733  15.058  1.00  0.00    -0.064 SA
ENDBRANCH   4  16
TORSDOF 3
ENDMDL
MODEL 9
REMARK VINA RESULT:      -4.7      2.391      3.192
REMARK  3 active torsions:
REMARK  status: ('A' for Active; 'I' for Inactive)
REMARK    1  A    between atoms: C_2  and  N_3 
REMARK    2  A    between atoms: C_2  and  C_13 
REMARK       I    between atoms: N_3  and  C_4 
REMARK       I    between atoms: C_4  and  N_6 
REMARK    3  A    between atoms: N_6  and  C_7 
REMARK       I    between atoms: C_13  and  N_15 
ROOT
HETATM    1  N   UNL     1     -44.683 -50.925  12.862  1.00  0.00    -0.330 N 
HETATM    2  C   UNL     1     -43.329 -51.094  12.677  1.00  0.00     0.322 C 
HETATM    3  O   UNL     1     -42.817 -52.207  12.687  1.00  0.00    -0.247 OA
HETATM    4  N   UNL     1     -42.705 -49.902  12.429  1.00  0.00    -0.289 N 
HETATM    5  H   UNL     1     -45.031 -50.038  13.209  1.00  0.00     0.165 HD
HETATM    6  H   UNL     1     -43.263 -49.101  12.184  1.00  0.00     0.172 HD
ENDROOT
BRANCH   1   7
HETATM    7  C   UNL     1     -45.555 -52.077  13.070  1.00  0.00     0.174 C 
HETATM    8  C   UNL     1     -46.675 -52.077  12.037  1.00  0.00     0.042 C 
BRANCH   7   9
HETATM    9  C   UNL     1     -46.142 -52.001  14.492  1.00  0.00     0.242 C 
HETATM   10  O   UNL     1     -47.044 -51.195  14.748  1.00  0.00    -0.271 OA
HETATM   11  N   UNL     1     -45.653 -52.876  15.439  1.00  0.00    -0.350 N 
HETATM   12  C   UNL     1     -44.495 -53.749  15.309  1.00  0.00     0.126 C 
HETATM   13  C   UNL     1     -46.160 -52.896  16.794  1.00  0.00     0.126 C 
HETATM   14  C   UNL     1     -44.113 -54.134  16.738  1.00  0.00     0.021 C 
HETATM   15  C   UNL     1     -44.929 -53.204  17.629  1.00  0.00     0.021 C 
ENDBRANCH   7   9
ENDBRANCH   1   7
BRANCH   4  16
HETATM   16  C   UNL     1     -41.366 -49.833  12.163  1.00  0.00     0.152 A 
HETATM   17  N   UNL     1     -40.665 -50.460  11.255  1.00  0.00    -0.346 N 
HETATM   18  C   UNL     1     -39.355 -50.034  11.313  1.00  0.00     0.097 A 
ATOM     19  HN  UNL     1     -41.030 -51.156  10.605  1.00  0.00     0.167 HD
HETATM   20  C   UNL     1     -39.081 -49.088  12.280  1.00  0.00     0.070 A 
HETATM   21  S   UNL     1     -40.509 -48.753  13.172  1.00  0.00    -0.064 SA
ENDBRANCH   4  16
TORSDOF 3
ENDMDL
