MODEL 1
REMARK VINA RESULT:      -6.0      0.000      0.000
REMARK  4 active torsions:
REMARK  status: ('A' for Active; 'I' for Inactive)
REMARK       I    between atoms: C_2  and  N_4 
REMARK    1  A    between atoms: C_8  and  C_9 
REMARK       I    between atoms: C_9  and  N_11 
REMARK    2  A    between atoms: N_11  and  C_12 
REMARK    3  A    between atoms: C_12  and  C_13 
REMARK    4  A    between atoms: C_13  and  C_14 
ROOT
HETATM    1  C   UNL     1     -43.761 -51.053  13.780  1.00  0.00     0.240 C 
HETATM    2  O   UNL     1     -43.051 -50.819  14.756  1.00  0.00    -0.271 OA
HETATM    3  N   UNL     1     -43.413 -50.669  12.502  1.00  0.00    -0.359 N 
HETATM    4  H   UNL     1     -44.136 -50.721  11.791  1.00  0.00     0.162 HD
ENDROOT
BRANCH   3   5
HETATM    5  C   UNL     1     -42.290 -49.761  12.318  1.00  0.00     0.128 C 
BRANCH   5   6
HETATM    6  C   UNL     1     -42.707 -48.297  12.242  1.00  0.00     0.077 C 
BRANCH   6   7
HETATM    7  C   UNL     1     -43.254 -47.942  10.898  1.00  0.00     0.018 A 
HETATM    8  C   UNL     1     -42.533 -47.746   9.734  1.00  0.00     0.076 A 
HETATM    9  S   UNL     1     -43.584 -47.349   8.445  1.00  0.00    -0.087 SA
HETATM   10  C   UNL     1     -44.925 -47.472   9.513  1.00  0.00     0.046 A 
HETATM   11  C   UNL     1     -46.311 -47.239   9.023  1.00  0.00     0.076 C 
HETATM   12  N   UNL     1     -44.624 -47.783  10.758  1.00  0.00    -0.357 N 
ATOM     13  HN  UNL     1     -45.303 -47.892  11.511  1.00  0.00     0.166 HD
ENDBRANCH   6   7
ENDBRANCH   5   6
ENDBRANCH   3   5
BRANCH   1  14
HETATM   14  C   UNL     1     -45.025 -51.918  13.913  1.00  0.00     0.179 C 
HETATM   15  N   UNL     1     -44.971 -53.218  14.592  1.00  0.00    -0.339 N 
HETATM   16  C   UNL     1     -44.170 -54.291  14.235  1.00  0.00     0.216 C 
HETATM   17  C   UNL     1     -46.299 -53.544  15.096  1.00  0.00     0.127 C 
HETATM   18  C   UNL     1     -42.830 -53.988  13.619  1.00  0.00     0.117 C 
HETATM   19  O   UNL     1     -44.490 -55.458  14.478  1.00  0.00    -0.274 OA
HETATM   20  C   UNL     1     -47.069 -52.231  15.156  1.00  0.00     0.022 C 
HETATM   21  C   UNL     1     -46.051 -51.170  14.775  1.00  0.00     0.037 C 
ENDBRANCH   1  14
TORSDOF 4
ENDMDL
MODEL 2
REMARK VINA RESULT:      -5.9      1.673      1.927
REMARK  4 active torsions:
REMARK  status: ('A' for Active; 'I' for Inactive)
REMARK       I    between atoms: C_2  and  N_4 
REMARK    1  A    between atoms: C_8  and  C_9 
REMARK       I    between atoms: C_9  and  N_11 
REMARK    2  A    between atoms: N_11  and  C_12 
REMARK    3  A    between atoms: C_12  and  C_13 
REMARK    4  A    between atoms: C_13  and  C_14 
ROOT
HETATM    1  C   UNL     1     -42.814 -51.452  13.211  1.00  0.00     0.240 C 
HETATM    2  O   UNL     1     -42.415 -51.113  14.323  1.00  0.00    -0.271 OA
HETATM    3  N   UNL     1     -42.015 -51.390  12.087  1.00  0.00    -0.359 N 
HETATM    4  H   UNL     1     -42.475 -51.496  11.189  1.00  0.00     0.162 HD
ENDROOT
BRANCH   3   5
HETATM    5  C   UNL     1     -40.739 -50.695  12.164  1.00  0.00     0.128 C 
BRANCH   5   6
HETATM    6  C   UNL     1     -40.450 -49.833  10.940  1.00  0.00     0.077 C 
BRANCH   6   7
HETATM    7  C   UNL     1     -41.323 -48.622  10.894  1.00  0.00     0.018 A 
HETATM    8  C   UNL     1     -41.622 -47.774  11.943  1.00  0.00     0.076 A 
HETATM    9  S   UNL     1     -42.668 -46.526  11.420  1.00  0.00    -0.087 SA
HETATM   10  C   UNL     1     -42.648 -47.189   9.834  1.00  0.00     0.046 A 
HETATM   11  C   UNL     1     -43.415 -46.546   8.731  1.00  0.00     0.076 C 
HETATM   12  N   UNL     1     -41.916 -48.276   9.689  1.00  0.00    -0.357 N 
ATOM     13  HN  UNL     1     -41.802 -48.789   8.815  1.00  0.00     0.166 HD
ENDBRANCH   6   7
ENDBRANCH   5   6
ENDBRANCH   3   5
BRANCH   1  14
HETATM   14  C   UNL     1     -44.197 -52.099  13.032  1.00  0.00     0.179 C 
HETATM   15  N   UNL     1     -44.633 -53.183  13.920  1.00  0.00    -0.339 N 
HETATM   16  C   UNL     1     -43.993 -54.398  14.099  1.00  0.00     0.216 C 
HETATM   17  C   UNL     1     -46.091 -53.211  13.950  1.00  0.00     0.127 C 
HETATM   18  C   UNL     1     -42.492 -54.421  13.977  1.00  0.00     0.117 C 
HETATM   19  O   UNL     1     -44.603 -55.419  14.427  1.00  0.00    -0.274 OA
HETATM   20  C   UNL     1     -46.556 -51.844  13.466  1.00  0.00     0.022 C 
HETATM   21  C   UNL     1     -45.278 -51.041  13.291  1.00  0.00     0.037 C 
ENDBRANCH   1  14
TORSDOF 4
ENDMDL
MODEL 3
REMARK VINA RESULT:      -5.7      3.832      4.644
REMARK  4 active torsions:
REMARK  status: ('A' for Active; 'I' for Inactive)
REMARK       I    between atoms: C_2  and  N_4 
REMARK    1  A    between atoms: C_8  and  C_9 
REMARK       I    between atoms: C_9  and  N_11 
REMARK    2  A    between atoms: N_11  and  C_12 
REMARK    3  A    between atoms: C_12  and  C_13 
REMARK    4  A    between atoms: C_13  and  C_14 
ROOT
HETATM    1  C   UNL     1     -44.476 -52.865  13.027  1.00  0.00     0.240 C 
HETATM    2  O   UNL     1     -44.539 -53.595  12.040  1.00  0.00    -0.271 OA
HETATM    3  N   UNL     1     -43.474 -51.930  13.194  1.00  0.00    -0.359 N 
HETATM    4  H   UNL     1     -43.381 -51.514  14.115  1.00  0.00     0.162 HD
ENDROOT
BRANCH   3   5
HETATM    5  C   UNL     1     -42.328 -51.954  12.297  1.00  0.00     0.128 C 
BRANCH   5   6
HETATM    6  C   UNL     1     -41.138 -52.719  12.864  1.00  0.00     0.077 C 
BRANCH   6   7
HETATM    7  C   UNL     1     -39.946 -51.838  13.049  1.00  0.00     0.018 A 
HETATM    8  C   UNL     1     -39.311 -51.541  14.240  1.00  0.00     0.076 A 
HETATM    9  S   UNL     1     -37.997 -50.482  13.965  1.00  0.00    -0.087 SA
HETATM   10  C   UNL     1     -38.352 -50.496  12.283  1.00  0.00     0.046 A 
HETATM   11  C   UNL     1     -37.521 -49.716  11.325  1.00  0.00     0.076 C 
HETATM   12  N   UNL     1     -39.386 -51.233  11.933  1.00  0.00    -0.357 N 
ATOM     13  HN  UNL     1     -39.727 -51.344  10.978  1.00  0.00     0.166 HD
ENDBRANCH   6   7
ENDBRANCH   5   6
ENDBRANCH   3   5
BRANCH   1  14
HETATM   14  C   UNL     1     -45.598 -52.858  14.077  1.00  0.00     0.179 C 
HETATM   15  N   UNL     1     -45.291 -53.066  15.497  1.00  0.00    -0.339 N 
HETATM   16  C   UNL     1     -44.669 -54.176  16.043  1.00  0.00     0.216 C 
HETATM   17  C   UNL     1     -46.342 -52.454  16.302  1.00  0.00     0.127 C 
HETATM   18  C   UNL     1     -43.648 -54.891  15.198  1.00  0.00     0.117 C 
HETATM   19  O   UNL     1     -44.871 -54.535  17.206  1.00  0.00    -0.274 OA
HETATM   20  C   UNL     1     -47.046 -51.450  15.397  1.00  0.00     0.022 C 
HETATM   21  C   UNL     1     -46.243 -51.466  14.107  1.00  0.00     0.037 C 
ENDBRANCH   1  14
TORSDOF 4
ENDMDL
MODEL 4
REMARK VINA RESULT:      -5.6      3.132      6.836
REMARK  4 active torsions:
REMARK  status: ('A' for Active; 'I' for Inactive)
REMARK       I    between atoms: C_2  and  N_4 
REMARK    1  A    between atoms: C_8  and  C_9 
REMARK       I    between atoms: C_9  and  N_11 
REMARK    2  A    between atoms: N_11  and  C_12 
REMARK    3  A    between atoms: C_12  and  C_13 
REMARK    4  A    between atoms: C_13  and  C_14 
ROOT
HETATM    1  C   UNL     1     -42.805 -48.430  12.125  1.00  0.00     0.240 C 
HETATM    2  O   UNL     1     -43.127 -48.446  13.311  1.00  0.00    -0.271 OA
HETATM    3  N   UNL     1     -42.109 -49.464  11.533  1.00  0.00    -0.359 N 
HETATM    4  H   UNL     1     -41.712 -49.287  10.616  1.00  0.00     0.162 HD
ENDROOT
BRANCH   3   5
HETATM    5  C   UNL     1     -41.536 -50.504  12.375  1.00  0.00     0.128 C 
BRANCH   5   6
HETATM    6  C   UNL     1     -41.924 -51.912  11.938  1.00  0.00     0.077 C 
BRANCH   6   7
HETATM    7  C   UNL     1     -43.127 -52.411  12.669  1.00  0.00     0.018 A 
HETATM    8  C   UNL     1     -43.309 -53.672  13.204  1.00  0.00     0.076 A 
HETATM    9  S   UNL     1     -44.847 -53.788  13.943  1.00  0.00    -0.087 SA
HETATM   10  C   UNL     1     -45.165 -52.155  13.513  1.00  0.00     0.046 A 
HETATM   11  C   UNL     1     -46.455 -51.509  13.881  1.00  0.00     0.076 C 
HETATM   12  N   UNL     1     -44.198 -51.549  12.853  1.00  0.00    -0.357 N 
ATOM     13  HN  UNL     1     -44.232 -50.584  12.525  1.00  0.00     0.166 HD
ENDBRANCH   6   7
ENDBRANCH   5   6
ENDBRANCH   3   5
BRANCH   1  14
HETATM   14  C   UNL     1     -43.283 -47.306  11.191  1.00  0.00     0.179 C 
HETATM   15  N   UNL     1     -42.345 -46.652  10.271  1.00  0.00    -0.339 N 
HETATM   16  C   UNL     1     -41.187 -45.981  10.626  1.00  0.00     0.216 C 
HETATM   17  C   UNL     1     -43.094 -46.098   9.149  1.00  0.00     0.127 C 
HETATM   18  C   UNL     1     -40.442 -46.469  11.841  1.00  0.00     0.117 C 
HETATM   19  O   UNL     1     -40.723 -45.066   9.942  1.00  0.00    -0.274 OA
HETATM   20  C   UNL     1     -44.433 -46.823   9.126  1.00  0.00     0.022 C 
HETATM   21  C   UNL     1     -44.318 -47.878  10.214  1.00  0.00     0.037 C 
ENDBRANCH   1  14
TORSDOF 4
ENDMDL
MODEL 5
REMARK VINA RESULT:      -5.6      3.506      4.847
REMARK  4 active torsions:
REMARK  status: ('A' for Active; 'I' for Inactive)
REMARK       I    between atoms: C_2  and  N_4 
REMARK    1  A    between atoms: C_8  and  C_9 
REMARK       I    between atoms: C_9  and  N_11 
REMARK    2  A    between atoms: N_11  and  C_12 
REMARK    3  A    between atoms: C_12  and  C_13 
REMARK    4  A    between atoms: C_13  and  C_14 
ROOT
HETATM    1  C   UNL     1     -44.422 -54.357  14.158  1.00  0.00     0.240 C 
HETATM    2  O   UNL     1     -44.512 -55.557  14.412  1.00  0.00    -0.271 OA
HETATM    3  N   UNL     1     -43.215 -53.746  13.890  1.00  0.00    -0.359 N 
HETATM    4  H   UNL     1     -43.202 -52.731  13.889  1.00  0.00     0.162 HD
ENDROOT
BRANCH   3   5
HETATM    5  C   UNL     1     -41.981 -54.479  14.133  1.00  0.00     0.128 C 
BRANCH   5   6
HETATM    6  C   UNL     1     -40.918 -54.235  13.068  1.00  0.00     0.077 C 
BRANCH   6   7
HETATM    7  C   UNL     1     -40.456 -52.815  13.058  1.00  0.00     0.018 A 
HETATM    8  C   UNL     1     -39.771 -52.157  14.063  1.00  0.00     0.076 A 
HETATM    9  S   UNL     1     -39.461 -50.538  13.609  1.00  0.00    -0.087 SA
HETATM   10  C   UNL     1     -40.247 -50.819  12.107  1.00  0.00     0.046 A 
HETATM   11  C   UNL     1     -40.359 -49.734  11.093  1.00  0.00     0.076 C 
HETATM   12  N   UNL     1     -40.723 -52.036  11.941  1.00  0.00    -0.357 N 
ATOM     13  HN  UNL     1     -41.216 -52.361  11.109  1.00  0.00     0.166 HD
ENDBRANCH   6   7
ENDBRANCH   5   6
ENDBRANCH   3   5
BRANCH   1  14
HETATM   14  C   UNL     1     -45.680 -53.490  13.991  1.00  0.00     0.179 C 
HETATM   15  N   UNL     1     -45.989 -52.430  14.958  1.00  0.00    -0.339 N 
HETATM   16  C   UNL     1     -46.183 -52.599  16.319  1.00  0.00     0.216 C 
HETATM   17  C   UNL     1     -46.821 -51.425  14.307  1.00  0.00     0.127 C 
HETATM   18  C   UNL     1     -45.410 -53.696  17.003  1.00  0.00     0.117 C 
HETATM   19  O   UNL     1     -46.896 -51.840  16.979  1.00  0.00    -0.274 OA
HETATM   20  C   UNL     1     -46.629 -51.613  12.808  1.00  0.00     0.022 C 
HETATM   21  C   UNL     1     -45.559 -52.686  12.689  1.00  0.00     0.037 C 
ENDBRANCH   1  14
TORSDOF 4
ENDMDL
MODEL 6
REMARK VINA RESULT:      -5.5      2.428      2.977
REMARK  4 active torsions:
REMARK  status: ('A' for Active; 'I' for Inactive)
REMARK       I    between atoms: C_2  and  N_4 
REMARK    1  A    between atoms: C_8  and  C_9 
REMARK       I    between atoms: C_9  and  N_11 
REMARK    2  A    between atoms: N_11  and  C_12 
REMARK    3  A    between atoms: C_12  and  C_13 
REMARK    4  A    between atoms: C_13  and  C_14 
ROOT
HETATM    1  C   UNL     1     -44.473 -53.134  13.059  1.00  0.00     0.240 C 
HETATM    2  O   UNL     1     -44.518 -53.970  12.159  1.00  0.00    -0.271 OA
HETATM    3  N   UNL     1     -43.501 -52.156  13.114  1.00  0.00    -0.359 N 
HETATM    4  H   UNL     1     -43.417 -51.638  13.982  1.00  0.00     0.162 HD
ENDROOT
BRANCH   3   5
HETATM    5  C   UNL     1     -42.359 -52.244  12.216  1.00  0.00     0.128 C 
BRANCH   5   6
HETATM    6  C   UNL     1     -41.102 -51.588  12.777  1.00  0.00     0.077 C 
BRANCH   6   7
HETATM    7  C   UNL     1     -40.910 -50.206  12.246  1.00  0.00     0.018 A 
HETATM    8  C   UNL     1     -39.870 -49.342  12.537  1.00  0.00     0.076 A 
HETATM    9  S   UNL     1     -40.075 -47.864  11.701  1.00  0.00    -0.087 SA
HETATM   10  C   UNL     1     -41.522 -48.472  11.002  1.00  0.00     0.046 A 
HETATM   11  C   UNL     1     -42.318 -47.640  10.057  1.00  0.00     0.076 C 
HETATM   12  N   UNL     1     -41.850 -49.696  11.364  1.00  0.00    -0.357 N 
ATOM     13  HN  UNL     1     -42.678 -50.197  11.040  1.00  0.00     0.166 HD
ENDBRANCH   6   7
ENDBRANCH   5   6
ENDBRANCH   3   5
BRANCH   1  14
HETATM   14  C   UNL     1     -45.591 -53.046  14.111  1.00  0.00     0.179 C 
HETATM   15  N   UNL     1     -45.275 -53.120  15.542  1.00  0.00    -0.339 N 
HETATM   16  C   UNL     1     -44.637 -54.169  16.182  1.00  0.00     0.216 C 
HETATM   17  C   UNL     1     -46.329 -52.450  16.294  1.00  0.00     0.127 C 
HETATM   18  C   UNL     1     -43.611 -54.946  15.399  1.00  0.00     0.117 C 
HETATM   19  O   UNL     1     -44.829 -54.425  17.374  1.00  0.00    -0.274 OA
HETATM   20  C   UNL     1     -47.049 -51.541  15.307  1.00  0.00     0.022 C 
HETATM   21  C   UNL     1     -46.253 -51.664  14.018  1.00  0.00     0.037 C 
ENDBRANCH   1  14
TORSDOF 4
ENDMDL
MODEL 7
REMARK VINA RESULT:      -5.5      2.824      4.207
REMARK  4 active torsions:
REMARK  status: ('A' for Active; 'I' for Inactive)
REMARK       I    between atoms: C_2  and  N_4 
REMARK    1  A    between atoms: C_8  and  C_9 
REMARK       I    between atoms: C_9  and  N_11 
REMARK    2  A    between atoms: N_11  and  C_12 
REMARK    3  A    between atoms: C_12  and  C_13 
REMARK    4  A    between atoms: C_13  and  C_14 
ROOT
HETATM    1  C   UNL     1     -43.994 -50.799  13.937  1.00  0.00     0.240 C 
HETATM    2  O   UNL     1     -43.121 -51.002  14.779  1.00  0.00    -0.271 OA
HETATM    3  N   UNL     1     -43.774 -50.027  12.814  1.00  0.00    -0.359 N 
HETATM    4  H   UNL     1     -44.590 -49.748  12.280  1.00  0.00     0.162 HD
ENDROOT
BRANCH   3   5
HETATM    5  C   UNL     1     -42.553 -49.240  12.725  1.00  0.00     0.128 C 
BRANCH   5   6
HETATM    6  C   UNL     1     -41.572 -49.770  11.685  1.00  0.00     0.077 C 
BRANCH   6   7
HETATM    7  C   UNL     1     -40.365 -50.381  12.319  1.00  0.00     0.018 A 
HETATM    8  C   UNL     1     -39.054 -49.965  12.179  1.00  0.00     0.076 A 
HETATM    9  S   UNL     1     -38.011 -50.974  13.084  1.00  0.00    -0.087 SA
HETATM   10  C   UNL     1     -39.368 -51.889  13.608  1.00  0.00     0.046 A 
HETATM   11  C   UNL     1     -39.195 -53.048  14.527  1.00  0.00     0.076 C 
HETATM   12  N   UNL     1     -40.533 -51.485  13.141  1.00  0.00    -0.357 N 
ATOM     13  HN  UNL     1     -41.429 -51.921  13.355  1.00  0.00     0.166 HD
ENDBRANCH   6   7
ENDBRANCH   5   6
ENDBRANCH   3   5
BRANCH   1  14
HETATM   14  C   UNL     1     -45.352 -51.513  14.020  1.00  0.00     0.179 C 
HETATM   15  N   UNL     1     -45.420 -52.975  14.140  1.00  0.00    -0.339 N 
HETATM   16  C   UNL     1     -44.895 -53.892  13.245  1.00  0.00     0.216 C 
HETATM   17  C   UNL     1     -46.683 -53.339  14.771  1.00  0.00     0.127 C 
HETATM   18  C   UNL     1     -43.643 -53.506  12.502  1.00  0.00     0.117 C 
HETATM   19  O   UNL     1     -45.374 -55.020  13.105  1.00  0.00    -0.274 OA
HETATM   20  C   UNL     1     -47.185 -52.088  15.481  1.00  0.00     0.022 C 
HETATM   21  C   UNL     1     -46.070 -51.070  15.302  1.00  0.00     0.037 C 
ENDBRANCH   1  14
TORSDOF 4
ENDMDL
MODEL 8
REMARK VINA RESULT:      -5.5      2.358      3.001
REMARK  4 active torsions:
REMARK  status: ('A' for Active; 'I' for Inactive)
REMARK       I    between atoms: C_2  and  N_4 
REMARK    1  A    between atoms: C_8  and  C_9 
REMARK       I    between atoms: C_9  and  N_11 
REMARK    2  A    between atoms: N_11  and  C_12 
REMARK    3  A    between atoms: C_12  and  C_13 
REMARK    4  A    between atoms: C_13  and  C_14 
ROOT
HETATM    1  C   UNL     1     -42.239 -50.558  12.772  1.00  0.00     0.240 C 
HETATM    2  O   UNL     1     -42.299 -50.018  13.875  1.00  0.00    -0.271 OA
HETATM    3  N   UNL     1     -41.990 -49.849  11.614  1.00  0.00    -0.359 N 
HETATM    4  H   UNL     1     -42.154 -50.330  10.735  1.00  0.00     0.162 HD
ENDROOT
BRANCH   3   5
HETATM    5  C   UNL     1     -42.025 -48.395  11.654  1.00  0.00     0.128 C 
BRANCH   5   6
HETATM    6  C   UNL     1     -41.885 -47.753  10.278  1.00  0.00     0.077 C 
BRANCH   6   7
HETATM    7  C   UNL     1     -43.178 -47.182   9.795  1.00  0.00     0.018 A 
HETATM    8  C   UNL     1     -43.419 -45.874   9.420  1.00  0.00     0.076 A 
HETATM    9  S   UNL     1     -45.051 -45.683   8.946  1.00  0.00    -0.087 SA
HETATM   10  C   UNL     1     -45.327 -47.350   9.261  1.00  0.00     0.046 A 
HETATM   11  C   UNL     1     -46.669 -47.953   9.039  1.00  0.00     0.076 C 
HETATM   12  N   UNL     1     -44.280 -48.019   9.699  1.00  0.00    -0.357 N 
ATOM     13  HN  UNL     1     -44.279 -49.012   9.934  1.00  0.00     0.166 HD
ENDBRANCH   6   7
ENDBRANCH   5   6
ENDBRANCH   3   5
BRANCH   1  14
HETATM   14  C   UNL     1     -42.302 -52.088  12.637  1.00  0.00     0.179 C 
HETATM   15  N   UNL     1     -41.412 -52.943  13.430  1.00  0.00    -0.339 N 
HETATM   16  C   UNL     1     -40.027 -52.913  13.417  1.00  0.00     0.216 C 
HETATM   17  C   UNL     1     -42.027 -54.257  13.578  1.00  0.00     0.127 C 
HETATM   18  C   UNL     1     -39.359 -51.586  13.168  1.00  0.00     0.117 C 
HETATM   19  O   UNL     1     -39.346 -53.909  13.677  1.00  0.00    -0.274 OA
HETATM   20  C   UNL     1     -43.511 -54.070  13.292  1.00  0.00     0.022 C 
HETATM   21  C   UNL     1     -43.681 -52.571  13.103  1.00  0.00     0.037 C 
ENDBRANCH   1  14
TORSDOF 4
ENDMDL
MODEL 9
REMARK VINA RESULT:      -5.5      1.733      2.472
REMARK  4 active torsions:
REMARK  status: ('A' for Active; 'I' for Inactive)
REMARK       I    between atoms: C_2  and  N_4 
REMARK    1  A    between atoms: C_8  and  C_9 
REMARK       I    between atoms: C_9  and  N_11 
REMARK    2  A    between atoms: N_11  and  C_12 
REMARK    3  A    between atoms: C_12  and  C_13 
REMARK    4  A    between atoms: C_13  and  C_14 
ROOT
HETATM    1  C   UNL     1     -42.265 -52.051  12.932  1.00  0.00     0.240 C 
HETATM    2  O   UNL     1     -41.919 -52.507  11.844  1.00  0.00    -0.271 OA
HETATM    3  N   UNL     1     -42.479 -50.703  13.136  1.00  0.00    -0.359 N 
HETATM    4  H   UNL     1     -42.565 -50.390  14.098  1.00  0.00     0.162 HD
ENDROOT
BRANCH   3   5
HETATM    5  C   UNL     1     -42.068 -49.759  12.107  1.00  0.00     0.128 C 
BRANCH   5   6
HETATM    6  C   UNL     1     -42.660 -48.367  12.300  1.00  0.00     0.077 C 
BRANCH   6   7
HETATM    7  C   UNL     1     -43.191 -47.805  11.023  1.00  0.00     0.018 A 
HETATM    8  C   UNL     1     -42.514 -47.000  10.125  1.00  0.00     0.076 A 
HETATM    9  S   UNL     1     -43.529 -46.595   8.809  1.00  0.00    -0.087 SA
HETATM   10  C   UNL     1     -44.794 -47.520   9.513  1.00  0.00     0.046 A 
HETATM   11  C   UNL     1     -46.117 -47.636   8.839  1.00  0.00     0.076 C 
HETATM   12  N   UNL     1     -44.498 -48.097  10.661  1.00  0.00    -0.357 N 
ATOM     13  HN  UNL     1     -45.138 -48.675  11.205  1.00  0.00     0.166 HD
ENDBRANCH   6   7
ENDBRANCH   5   6
ENDBRANCH   3   5
BRANCH   1  14
HETATM   14  C   UNL     1     -42.614 -52.983  14.104  1.00  0.00     0.179 C 
HETATM   15  N   UNL     1     -43.508 -54.130  13.903  1.00  0.00    -0.339 N 
HETATM   16  C   UNL     1     -44.814 -54.075  13.445  1.00  0.00     0.216 C 
HETATM   17  C   UNL     1     -43.222 -55.135  14.919  1.00  0.00     0.127 C 
HETATM   18  C   UNL     1     -45.166 -52.985  12.467  1.00  0.00     0.117 C 
HETATM   19  O   UNL     1     -45.653 -54.926  13.751  1.00  0.00    -0.274 OA
HETATM   20  C   UNL     1     -41.829 -54.825  15.451  1.00  0.00     0.022 C 
HETATM   21  C   UNL     1     -41.333 -53.678  14.584  1.00  0.00     0.037 C 
ENDBRANCH   1  14
TORSDOF 4
ENDMDL
