MODEL 1
REMARK VINA RESULT:      -5.8      0.000      0.000
REMARK  6 active torsions:
REMARK  status: ('A' for Active; 'I' for Inactive)
REMARK    1  A    between atoms: C_2  and  C_3 
REMARK       I    between atoms: C_2  and  N_19 
REMARK    2  A    between atoms: C_3  and  N_4 
REMARK    3  A    between atoms: C_7  and  C_8 
REMARK    4  A    between atoms: C_8  and  N_9 
REMARK    5  A    between atoms: N_13  and  C_14 
REMARK    6  A    between atoms: N_19  and  C_20 
ROOT
HETATM    1  N   UNL     1     -41.999 -48.661  11.940  1.00  0.00    -0.256 N 
HETATM    2  C   UNL     1     -40.649 -48.603  11.636  1.00  0.00     0.273 A 
HETATM    3  O   UNL     1     -40.081 -47.577  11.270  1.00  0.00    -0.266 OA
HETATM    4  C   UNL     1     -39.903 -49.874  11.741  1.00  0.00     0.110 A 
HETATM    5  C   UNL     1     -40.560 -50.986  12.079  1.00  0.00     0.123 A 
HETATM    6  N   UNL     1     -41.912 -50.985  12.346  1.00  0.00    -0.303 N 
HETATM    7  C   UNL     1     -42.675 -49.811  12.349  1.00  0.00     0.332 A 
HETATM    8  O   UNL     1     -43.867 -49.788  12.661  1.00  0.00    -0.246 OA
ENDROOT
BRANCH   1   9
HETATM    9  C   UNL     1     -42.759 -47.421  11.901  1.00  0.00     0.239 C 
BRANCH   9  10
HETATM   10  C   UNL     1     -43.331 -47.175  10.504  1.00  0.00     0.236 C 
HETATM   11  O   UNL     1     -42.718 -46.591   9.613  1.00  0.00    -0.272 OA
HETATM   12  N   UNL     1     -44.611 -47.685  10.352  1.00  0.00    -0.355 N 
HETATM   13  H   UNL     1     -45.012 -48.243  11.098  1.00  0.00     0.162 HD
BRANCH  12  14
HETATM   14  C   UNL     1     -45.344 -47.575   9.133  1.00  0.00     0.084 A 
HETATM   15  C   UNL     1     -46.722 -46.974   9.109  1.00  0.00     0.027 A 
HETATM   16  C   UNL     1     -46.548 -48.447   8.895  1.00  0.00     0.027 A 
ENDBRANCH  12  14
ENDBRANCH   9  10
ENDBRANCH   1   9
BRANCH   4  17
HETATM   17  C   UNL     1     -38.412 -49.888  11.443  1.00  0.00    -0.030 C 
BRANCH  17  18
HETATM   18  N   UNL     1     -37.175 -49.900  11.195  1.00  0.00    -0.365 N 
ATOM     19  HN2 UNL     1     -38.173 -49.920  11.409  1.00  0.00     0.165 HD
ATOM     20  HN1 UNL     1     -36.175 -49.909  10.994  1.00  0.00     0.165 HD
ENDBRANCH  17  18
ENDBRANCH   4  17
BRANCH   6  21
HETATM   21  C   UNL     1     -42.518 -52.246  12.710  1.00  0.00     0.094 A 
HETATM   22  C   UNL     1     -42.498 -52.752  14.135  1.00  0.00     0.028 A 
HETATM   23  C   UNL     1     -41.691 -53.452  13.089  1.00  0.00     0.028 A 
ENDBRANCH   6  21
TORSDOF 6
ENDMDL
MODEL 2
REMARK VINA RESULT:      -5.8      1.060      3.392
REMARK  6 active torsions:
REMARK  status: ('A' for Active; 'I' for Inactive)
REMARK    1  A    between atoms: C_2  and  C_3 
REMARK       I    between atoms: C_2  and  N_19 
REMARK    2  A    between atoms: C_3  and  N_4 
REMARK    3  A    between atoms: C_7  and  C_8 
REMARK    4  A    between atoms: C_8  and  N_9 
REMARK    5  A    between atoms: N_13  and  C_14 
REMARK    6  A    between atoms: N_19  and  C_20 
ROOT
HETATM    1  N   UNL     1     -41.824 -48.568  12.220  1.00  0.00    -0.256 N 
HETATM    2  C   UNL     1     -42.455 -49.796  12.338  1.00  0.00     0.273 A 
HETATM    3  O   UNL     1     -43.673 -49.926  12.424  1.00  0.00    -0.266 OA
HETATM    4  C   UNL     1     -41.570 -50.979  12.392  1.00  0.00     0.110 A 
HETATM    5  C   UNL     1     -40.248 -50.802  12.361  1.00  0.00     0.123 A 
HETATM    6  N   UNL     1     -39.678 -49.550  12.268  1.00  0.00    -0.303 N 
HETATM    7  C   UNL     1     -40.444 -48.386  12.130  1.00  0.00     0.332 A 
HETATM    8  O   UNL     1     -39.945 -47.271  11.970  1.00  0.00    -0.246 OA
ENDROOT
BRANCH   1   9
HETATM    9  C   UNL     1     -42.660 -47.383  12.110  1.00  0.00     0.239 C 
BRANCH   9  10
HETATM   10  C   UNL     1     -43.142 -47.185  10.672  1.00  0.00     0.236 C 
HETATM   11  O   UNL     1     -42.454 -46.676   9.789  1.00  0.00    -0.272 OA
HETATM   12  N   UNL     1     -44.435 -47.645  10.473  1.00  0.00    -0.355 N 
HETATM   13  H   UNL     1     -44.902 -48.144  11.221  1.00  0.00     0.162 HD
BRANCH  12  14
HETATM   14  C   UNL     1     -45.093 -47.567   9.209  1.00  0.00     0.084 A 
HETATM   15  C   UNL     1     -46.362 -46.778   9.045  1.00  0.00     0.027 A 
HETATM   16  C   UNL     1     -46.405 -48.276   8.997  1.00  0.00     0.027 A 
ENDBRANCH  12  14
ENDBRANCH   9  10
ENDBRANCH   1   9
BRANCH   4  17
HETATM   17  C   UNL     1     -42.187 -52.364  12.500  1.00  0.00    -0.030 C 
BRANCH  17  18
HETATM   18  N   UNL     1     -42.700 -53.512  12.590  1.00  0.00    -0.365 N 
ATOM     19  HN2 UNL     1     -42.314 -52.572  12.506  1.00  0.00     0.165 HD
ATOM     20  HN1 UNL     1     -43.114 -54.442  12.663  1.00  0.00     0.165 HD
ENDBRANCH  17  18
ENDBRANCH   4  17
BRANCH   6  21
HETATM   21  C   UNL     1     -38.234 -49.477  12.234  1.00  0.00     0.094 A 
HETATM   22  C   UNL     1     -37.449 -49.888  11.008  1.00  0.00     0.028 A 
HETATM   23  C   UNL     1     -37.370 -50.716  12.251  1.00  0.00     0.028 A 
ENDBRANCH   6  21
TORSDOF 6
ENDMDL
MODEL 3
REMARK VINA RESULT:      -5.7      3.861      6.105
REMARK  6 active torsions:
REMARK  status: ('A' for Active; 'I' for Inactive)
REMARK    1  A    between atoms: C_2  and  C_3 
REMARK       I    between atoms: C_2  and  N_19 
REMARK    2  A    between atoms: C_3  and  N_4 
REMARK    3  A    between atoms: C_7  and  C_8 
REMARK    4  A    between atoms: C_8  and  N_9 
REMARK    5  A    between atoms: N_13  and  C_14 
REMARK    6  A    between atoms: N_19  and  C_20 
ROOT
HETATM    1  N   UNL     1     -42.042 -46.031  11.239  1.00  0.00    -0.256 N 
HETATM    2  C   UNL     1     -42.733 -46.317  12.406  1.00  0.00     0.273 A 
HETATM    3  O   UNL     1     -43.375 -47.349  12.577  1.00  0.00    -0.266 OA
HETATM    4  C   UNL     1     -42.691 -45.278  13.457  1.00  0.00     0.110 A 
HETATM    5  C   UNL     1     -42.039 -44.139  13.217  1.00  0.00     0.123 A 
HETATM    6  N   UNL     1     -41.390 -43.903  12.024  1.00  0.00    -0.303 N 
HETATM    7  C   UNL     1     -41.312 -44.866  11.009  1.00  0.00     0.332 A 
HETATM    8  O   UNL     1     -40.671 -44.694   9.971  1.00  0.00    -0.246 OA
ENDROOT
BRANCH   1   9
HETATM    9  C   UNL     1     -42.014 -47.050  10.200  1.00  0.00     0.239 C 
BRANCH   9  10
HETATM   10  C   UNL     1     -43.172 -46.861   9.218  1.00  0.00     0.236 C 
HETATM   11  O   UNL     1     -43.171 -46.020   8.322  1.00  0.00    -0.272 OA
HETATM   12  N   UNL     1     -44.217 -47.743   9.448  1.00  0.00    -0.355 N 
HETATM   13  H   UNL     1     -44.103 -48.475  10.139  1.00  0.00     0.162 HD
BRANCH  12  14
HETATM   14  C   UNL     1     -45.403 -47.753   8.655  1.00  0.00     0.084 A 
HETATM   15  C   UNL     1     -46.634 -47.011   9.094  1.00  0.00     0.027 A 
HETATM   16  C   UNL     1     -46.618 -48.510   9.124  1.00  0.00     0.027 A 
ENDBRANCH  12  14
ENDBRANCH   9  10
ENDBRANCH   1   9
BRANCH   4  17
HETATM   17  C   UNL     1     -43.408 -45.525  14.774  1.00  0.00    -0.030 C 
BRANCH  17  18
HETATM   18  N   UNL     1     -44.002 -45.729  15.868  1.00  0.00    -0.365 N 
ATOM     19  HN2 UNL     1     -43.536 -45.535  14.981  1.00  0.00     0.165 HD
ATOM     20  HN1 UNL     1     -44.483 -45.895  16.752  1.00  0.00     0.165 HD
ENDBRANCH  17  18
ENDBRANCH   4  17
BRANCH   6  21
HETATM   21  C   UNL     1     -40.708 -42.636  11.877  1.00  0.00     0.094 A 
HETATM   22  C   UNL     1     -39.627 -42.203  12.841  1.00  0.00     0.028 A 
HETATM   23  C   UNL     1     -40.940 -41.488  12.830  1.00  0.00     0.028 A 
ENDBRANCH   6  21
TORSDOF 6
ENDMDL
MODEL 4
REMARK VINA RESULT:      -5.6      4.840      7.779
REMARK  6 active torsions:
REMARK  status: ('A' for Active; 'I' for Inactive)
REMARK    1  A    between atoms: C_2  and  C_3 
REMARK       I    between atoms: C_2  and  N_19 
REMARK    2  A    between atoms: C_3  and  N_4 
REMARK    3  A    between atoms: C_7  and  C_8 
REMARK    4  A    between atoms: C_8  and  N_9 
REMARK    5  A    between atoms: N_13  and  C_14 
REMARK    6  A    between atoms: N_19  and  C_20 
ROOT
HETATM    1  N   UNL     1     -44.965 -54.096  14.563  1.00  0.00    -0.256 N 
HETATM    2  C   UNL     1     -45.334 -53.551  13.344  1.00  0.00     0.273 A 
HETATM    3  O   UNL     1     -44.865 -53.916  12.269  1.00  0.00    -0.266 OA
HETATM    4  C   UNL     1     -46.324 -52.454  13.395  1.00  0.00     0.110 A 
HETATM    5  C   UNL     1     -46.768 -52.036  14.582  1.00  0.00     0.123 A 
HETATM    6  N   UNL     1     -46.343 -52.603  15.764  1.00  0.00    -0.303 N 
HETATM    7  C   UNL     1     -45.471 -53.698  15.800  1.00  0.00     0.332 A 
HETATM    8  O   UNL     1     -45.145 -54.260  16.847  1.00  0.00    -0.246 OA
ENDROOT
BRANCH   1   9
HETATM    9  C   UNL     1     -44.034 -55.213  14.553  1.00  0.00     0.239 C 
BRANCH   9  10
HETATM   10  C   UNL     1     -42.589 -54.722  14.668  1.00  0.00     0.236 C 
HETATM   11  O   UNL     1     -41.923 -54.807  15.697  1.00  0.00    -0.272 OA
HETATM   12  N   UNL     1     -42.115 -54.174  13.485  1.00  0.00    -0.355 N 
HETATM   13  H   UNL     1     -42.687 -54.230  12.651  1.00  0.00     0.162 HD
BRANCH  12  14
HETATM   14  C   UNL     1     -40.794 -53.651  13.355  1.00  0.00     0.084 A 
HETATM   15  C   UNL     1     -40.429 -52.316  13.940  1.00  0.00     0.027 A 
HETATM   16  C   UNL     1     -40.534 -52.475  12.452  1.00  0.00     0.027 A 
ENDBRANCH  12  14
ENDBRANCH   9  10
ENDBRANCH   1   9
BRANCH   4  17
HETATM   17  C   UNL     1     -46.795 -51.818  12.097  1.00  0.00    -0.030 C 
BRANCH  17  18
HETATM   18  N   UNL     1     -47.187 -51.290  11.020  1.00  0.00    -0.365 N 
ATOM     19  HN2 UNL     1     -46.891 -51.742  11.887  1.00  0.00     0.165 HD
ATOM     20  HN1 UNL     1     -47.503 -50.863  10.149  1.00  0.00     0.165 HD
ENDBRANCH  17  18
ENDBRANCH   4  17
BRANCH   6  21
HETATM   21  C   UNL     1     -46.897 -52.075  16.991  1.00  0.00     0.094 A 
HETATM   22  C   UNL     1     -48.060 -51.108  16.983  1.00  0.00     0.028 A 
HETATM   23  C   UNL     1     -46.704 -50.634  17.402  1.00  0.00     0.028 A 
ENDBRANCH   6  21
TORSDOF 6
ENDMDL
MODEL 5
REMARK VINA RESULT:      -5.6      2.272      3.380
REMARK  6 active torsions:
REMARK  status: ('A' for Active; 'I' for Inactive)
REMARK    1  A    between atoms: C_2  and  C_3 
REMARK       I    between atoms: C_2  and  N_19 
REMARK    2  A    between atoms: C_3  and  N_4 
REMARK    3  A    between atoms: C_7  and  C_8 
REMARK    4  A    between atoms: C_8  and  N_9 
REMARK    5  A    between atoms: N_13  and  C_14 
REMARK    6  A    between atoms: N_19  and  C_20 
ROOT
HETATM    1  N   UNL     1     -42.080 -51.050  13.143  1.00  0.00    -0.256 N 
HETATM    2  C   UNL     1     -40.946 -51.835  13.280  1.00  0.00     0.273 A 
HETATM    3  O   UNL     1     -39.806 -51.380  13.301  1.00  0.00    -0.266 OA
HETATM    4  C   UNL     1     -41.173 -53.293  13.371  1.00  0.00     0.110 A 
HETATM    5  C   UNL     1     -42.419 -53.762  13.281  1.00  0.00     0.123 A 
HETATM    6  N   UNL     1     -43.505 -52.930  13.119  1.00  0.00    -0.303 N 
HETATM    7  C   UNL     1     -43.387 -51.535  13.107  1.00  0.00     0.332 A 
HETATM    8  O   UNL     1     -44.358 -50.780  13.039  1.00  0.00    -0.246 OA
ENDROOT
BRANCH   1   9
HETATM    9  C   UNL     1     -41.905 -49.606  13.104  1.00  0.00     0.239 C 
BRANCH   9  10
HETATM   10  C   UNL     1     -41.827 -49.103  11.661  1.00  0.00     0.236 C 
HETATM   11  O   UNL     1     -40.864 -49.302  10.924  1.00  0.00    -0.272 OA
HETATM   12  N   UNL     1     -42.961 -48.404  11.277  1.00  0.00    -0.355 N 
HETATM   13  H   UNL     1     -43.756 -48.368  11.904  1.00  0.00     0.162 HD
BRANCH  12  14
HETATM   14  C   UNL     1     -43.113 -47.843   9.974  1.00  0.00     0.084 A 
HETATM   15  C   UNL     1     -43.301 -46.363   9.785  1.00  0.00     0.027 A 
HETATM   16  C   UNL     1     -44.448 -47.297   9.539  1.00  0.00     0.027 A 
ENDBRANCH  12  14
ENDBRANCH   9  10
ENDBRANCH   1   9
BRANCH   4  17
HETATM   17  C   UNL     1     -39.981 -54.220  13.544  1.00  0.00    -0.030 C 
BRANCH  17  18
HETATM   18  N   UNL     1     -38.993 -54.991  13.687  1.00  0.00    -0.365 N 
ATOM     19  HN2 UNL     1     -39.779 -54.357  13.543  1.00  0.00     0.165 HD
ATOM     20  HN1 UNL     1     -38.193 -55.614  13.803  1.00  0.00     0.165 HD
ENDBRANCH  17  18
ENDBRANCH   4  17
BRANCH   6  21
HETATM   21  C   UNL     1     -44.811 -53.548  13.042  1.00  0.00     0.094 A 
HETATM   22  C   UNL     1     -45.688 -53.700  14.264  1.00  0.00     0.028 A 
HETATM   23  C   UNL     1     -45.086 -54.913  13.629  1.00  0.00     0.028 A 
ENDBRANCH   6  21
TORSDOF 6
ENDMDL
MODEL 6
REMARK VINA RESULT:      -5.4      3.485      5.999
REMARK  6 active torsions:
REMARK  status: ('A' for Active; 'I' for Inactive)
REMARK    1  A    between atoms: C_2  and  C_3 
REMARK       I    between atoms: C_2  and  N_19 
REMARK    2  A    between atoms: C_3  and  N_4 
REMARK    3  A    between atoms: C_7  and  C_8 
REMARK    4  A    between atoms: C_8  and  N_9 
REMARK    5  A    between atoms: N_13  and  C_14 
REMARK    6  A    between atoms: N_19  and  C_20 
ROOT
HETATM    1  N   UNL     1     -38.617 -50.822  13.580  1.00  0.00    -0.256 N 
HETATM    2  C   UNL     1     -37.801 -50.965  12.470  1.00  0.00     0.273 A 
HETATM    3  O   UNL     1     -36.960 -51.853  12.358  1.00  0.00    -0.266 OA
HETATM    4  C   UNL     1     -37.966 -49.953  11.406  1.00  0.00     0.110 A 
HETATM    5  C   UNL     1     -38.843 -48.963  11.584  1.00  0.00     0.123 A 
HETATM    6  N   UNL     1     -39.610 -48.859  12.724  1.00  0.00    -0.303 N 
HETATM    7  C   UNL     1     -39.574 -49.820  13.742  1.00  0.00     0.332 A 
HETATM    8  O   UNL     1     -40.311 -49.778  14.729  1.00  0.00    -0.246 OA
ENDROOT
BRANCH   1   9
HETATM    9  C   UNL     1     -38.524 -51.828  14.627  1.00  0.00     0.239 C 
BRANCH   9  10
HETATM   10  C   UNL     1     -39.345 -53.068  14.268  1.00  0.00     0.236 C 
HETATM   11  O   UNL     1     -38.888 -54.033  13.661  1.00  0.00    -0.272 OA
HETATM   12  N   UNL     1     -40.659 -52.984  14.705  1.00  0.00    -0.355 N 
HETATM   13  H   UNL     1     -40.937 -52.202  15.287  1.00  0.00     0.162 HD
BRANCH  12  14
HETATM   14  C   UNL     1     -41.611 -54.023  14.485  1.00  0.00     0.084 A 
HETATM   15  C   UNL     1     -42.576 -53.958  13.335  1.00  0.00     0.027 A 
HETATM   16  C   UNL     1     -43.074 -53.772  14.737  1.00  0.00     0.027 A 
ENDBRANCH  12  14
ENDBRANCH   9  10
ENDBRANCH   1   9
BRANCH   4  17
HETATM   17  C   UNL     1     -37.121 -50.053  10.147  1.00  0.00    -0.030 C 
BRANCH  17  18
HETATM   18  N   UNL     1     -36.420 -50.136   9.101  1.00  0.00    -0.365 N 
ATOM     19  HN2 UNL     1     -36.981 -50.037   9.948  1.00  0.00     0.165 HD
ATOM     20  HN1 UNL     1     -35.853 -50.204   8.256  1.00  0.00     0.165 HD
ENDBRANCH  17  18
ENDBRANCH   4  17
BRANCH   6  21
HETATM   21  C   UNL     1     -40.534 -47.749  12.806  1.00  0.00     0.094 A 
HETATM   22  C   UNL     1     -41.914 -47.821  12.192  1.00  0.00     0.028 A 
HETATM   23  C   UNL     1     -40.886 -46.911  11.600  1.00  0.00     0.028 A 
ENDBRANCH   6  21
TORSDOF 6
ENDMDL
MODEL 7
REMARK VINA RESULT:      -5.3      3.455      6.181
REMARK  6 active torsions:
REMARK  status: ('A' for Active; 'I' for Inactive)
REMARK    1  A    between atoms: C_2  and  C_3 
REMARK       I    between atoms: C_2  and  N_19 
REMARK    2  A    between atoms: C_3  and  N_4 
REMARK    3  A    between atoms: C_7  and  C_8 
REMARK    4  A    between atoms: C_8  and  N_9 
REMARK    5  A    between atoms: N_13  and  C_14 
REMARK    6  A    between atoms: N_19  and  C_20 
ROOT
HETATM    1  N   UNL     1     -41.742 -53.725  13.289  1.00  0.00    -0.256 N 
HETATM    2  C   UNL     1     -43.118 -53.848  13.189  1.00  0.00     0.273 A 
HETATM    3  O   UNL     1     -43.772 -53.398  12.252  1.00  0.00    -0.266 OA
HETATM    4  C   UNL     1     -43.793 -54.537  14.310  1.00  0.00     0.110 A 
HETATM    5  C   UNL     1     -43.063 -54.958  15.345  1.00  0.00     0.123 A 
HETATM    6  N   UNL     1     -41.697 -54.783  15.398  1.00  0.00    -0.303 N 
HETATM    7  C   UNL     1     -40.972 -54.215  14.343  1.00  0.00     0.332 A 
HETATM    8  O   UNL     1     -39.743 -54.124  14.348  1.00  0.00    -0.246 OA
ENDROOT
BRANCH   1   9
HETATM    9  C   UNL     1     -41.034 -53.101  12.182  1.00  0.00     0.239 C 
BRANCH   9  10
HETATM   10  C   UNL     1     -40.844 -51.603  12.430  1.00  0.00     0.236 C 
HETATM   11  O   UNL     1     -39.880 -51.131  13.027  1.00  0.00    -0.272 OA
HETATM   12  N   UNL     1     -41.875 -50.839  11.904  1.00  0.00    -0.355 N 
HETATM   13  H   UNL     1     -42.584 -51.289  11.337  1.00  0.00     0.162 HD
BRANCH  12  14
HETATM   14  C   UNL     1     -41.911 -49.417  12.013  1.00  0.00     0.084 A 
HETATM   15  C   UNL     1     -42.505 -48.747  13.220  1.00  0.00     0.027 A 
HETATM   16  C   UNL     1     -43.223 -48.685  11.905  1.00  0.00     0.027 A 
ENDBRANCH  12  14
ENDBRANCH   9  10
ENDBRANCH   1   9
BRANCH   4  17
HETATM   17  C   UNL     1     -45.300 -54.730  14.264  1.00  0.00    -0.030 C 
BRANCH  17  18
HETATM   18  N   UNL     1     -46.550 -54.890  14.227  1.00  0.00    -0.365 N 
ATOM     19  HN2 UNL     1     -45.542 -54.741  14.283  1.00  0.00     0.165 HD
ATOM     20  HN1 UNL     1     -47.562 -55.020  14.197  1.00  0.00     0.165 HD
ENDBRANCH  17  18
ENDBRANCH   4  17
BRANCH   6  21
HETATM   21  C   UNL     1     -41.007 -55.287  16.565  1.00  0.00     0.094 A 
HETATM   22  C   UNL     1     -40.621 -56.744  16.688  1.00  0.00     0.028 A 
HETATM   23  C   UNL     1     -41.689 -56.183  17.572  1.00  0.00     0.028 A 
ENDBRANCH   6  21
TORSDOF 6
ENDMDL
MODEL 8
REMARK VINA RESULT:      -5.3      3.351      5.674
REMARK  6 active torsions:
REMARK  status: ('A' for Active; 'I' for Inactive)
REMARK    1  A    between atoms: C_2  and  C_3 
REMARK       I    between atoms: C_2  and  N_19 
REMARK    2  A    between atoms: C_3  and  N_4 
REMARK    3  A    between atoms: C_7  and  C_8 
REMARK    4  A    between atoms: C_8  and  N_9 
REMARK    5  A    between atoms: N_13  and  C_14 
REMARK    6  A    between atoms: N_19  and  C_20 
ROOT
HETATM    1  N   UNL     1     -41.932 -53.619  13.088  1.00  0.00    -0.256 N 
HETATM    2  C   UNL     1     -41.317 -54.255  14.155  1.00  0.00     0.273 A 
HETATM    3  O   UNL     1     -40.099 -54.313  14.299  1.00  0.00    -0.266 OA
HETATM    4  C   UNL     1     -42.218 -54.910  15.127  1.00  0.00     0.110 A 
HETATM    5  C   UNL     1     -43.534 -54.886  14.911  1.00  0.00     0.123 A 
HETATM    6  N   UNL     1     -44.085 -54.257  13.815  1.00  0.00    -0.303 N 
HETATM    7  C   UNL     1     -43.310 -53.543  12.891  1.00  0.00     0.332 A 
HETATM    8  O   UNL     1     -43.799 -52.914  11.952  1.00  0.00    -0.246 OA
ENDROOT
BRANCH   1   9
HETATM    9  C   UNL     1     -41.084 -52.916  12.137  1.00  0.00     0.239 C 
BRANCH   9  10
HETATM   10  C   UNL     1     -40.946 -51.440  12.516  1.00  0.00     0.236 C 
HETATM   11  O   UNL     1     -40.214 -51.036  13.417  1.00  0.00    -0.272 OA
HETATM   12  N   UNL     1     -41.732 -50.611  11.730  1.00  0.00    -0.355 N 
HETATM   13  H   UNL     1     -42.231 -51.005  10.941  1.00  0.00     0.162 HD
BRANCH  12  14
HETATM   14  C   UNL     1     -41.765 -49.195  11.901  1.00  0.00     0.084 A 
HETATM   15  C   UNL     1     -42.980 -48.397  11.520  1.00  0.00     0.027 A 
HETATM   16  C   UNL     1     -41.731 -48.289  10.698  1.00  0.00     0.027 A 
ENDBRANCH  12  14
ENDBRANCH   9  10
ENDBRANCH   1   9
BRANCH   4  17
HETATM   17  C   UNL     1     -41.621 -55.612  16.337  1.00  0.00    -0.030 C 
BRANCH  17  18
HETATM   18  N   UNL     1     -41.125 -56.194  17.340  1.00  0.00    -0.365 N 
ATOM     19  HN2 UNL     1     -41.551 -55.713  16.547  1.00  0.00     0.165 HD
ATOM     20  HN1 UNL     1     -40.724 -56.666  18.151  1.00  0.00     0.165 HD
ENDBRANCH  17  18
ENDBRANCH   4  17
BRANCH   6  21
HETATM   21  C   UNL     1     -45.525 -54.286  13.685  1.00  0.00     0.094 A 
HETATM   22  C   UNL     1     -46.394 -53.194  14.267  1.00  0.00     0.028 A 
HETATM   23  C   UNL     1     -46.429 -54.565  14.863  1.00  0.00     0.028 A 
ENDBRANCH   6  21
TORSDOF 6
ENDMDL
MODEL 9
REMARK VINA RESULT:      -5.1      4.733      6.635
REMARK  6 active torsions:
REMARK  status: ('A' for Active; 'I' for Inactive)
REMARK    1  A    between atoms: C_2  and  C_3 
REMARK       I    between atoms: C_2  and  N_19 
REMARK    2  A    between atoms: C_3  and  N_4 
REMARK    3  A    between atoms: C_7  and  C_8 
REMARK    4  A    between atoms: C_8  and  N_9 
REMARK    5  A    between atoms: N_13  and  C_14 
REMARK    6  A    between atoms: N_19  and  C_20 
ROOT
HETATM    1  N   UNL     1     -43.743 -54.521  14.077  1.00  0.00    -0.256 N 
HETATM    2  C   UNL     1     -43.323 -53.666  13.070  1.00  0.00     0.273 A 
HETATM    3  O   UNL     1     -44.060 -53.258  12.178  1.00  0.00    -0.266 OA
HETATM    4  C   UNL     1     -41.896 -53.280  13.099  1.00  0.00     0.110 A 
HETATM    5  C   UNL     1     -41.105 -53.791  14.045  1.00  0.00     0.123 A 
HETATM    6  N   UNL     1     -41.577 -54.659  15.006  1.00  0.00    -0.303 N 
HETATM    7  C   UNL     1     -42.930 -55.011  15.099  1.00  0.00     0.332 A 
HETATM    8  O   UNL     1     -43.375 -55.724  15.999  1.00  0.00    -0.246 OA
ENDROOT
BRANCH   1   9
HETATM    9  C   UNL     1     -45.151 -54.883  14.116  1.00  0.00     0.239 C 
BRANCH   9  10
HETATM   10  C   UNL     1     -45.990 -53.750  14.709  1.00  0.00     0.236 C 
HETATM   11  O   UNL     1     -46.785 -53.079  14.055  1.00  0.00    -0.272 OA
HETATM   12  N   UNL     1     -45.759 -53.566  16.064  1.00  0.00    -0.355 N 
HETATM   13  H   UNL     1     -45.166 -54.223  16.558  1.00  0.00     0.162 HD
BRANCH  12  14
HETATM   14  C   UNL     1     -46.430 -52.567  16.830  1.00  0.00     0.084 A 
HETATM   15  C   UNL     1     -46.063 -51.115  16.700  1.00  0.00     0.027 A 
HETATM   16  C   UNL     1     -45.708 -51.864  17.950  1.00  0.00     0.027 A 
ENDBRANCH  12  14
ENDBRANCH   9  10
ENDBRANCH   1   9
BRANCH   4  17
HETATM   17  C   UNL     1     -41.363 -52.328  12.041  1.00  0.00    -0.030 C 
BRANCH  17  18
HETATM   18  N   UNL     1     -40.921 -51.538  11.163  1.00  0.00    -0.365 N 
ATOM     19  HN2 UNL     1     -41.251 -52.196  11.870  1.00  0.00     0.165 HD
ATOM     20  HN1 UNL     1     -40.564 -50.898  10.452  1.00  0.00     0.165 HD
ENDBRANCH  17  18
ENDBRANCH   4  17
BRANCH   6  21
HETATM   21  C   UNL     1     -40.631 -55.144  15.986  1.00  0.00     0.094 A 
HETATM   22  C   UNL     1     -40.017 -54.222  17.016  1.00  0.00     0.028 A 
HETATM   23  C   UNL     1     -39.164 -54.790  15.926  1.00  0.00     0.028 A 
ENDBRANCH   6  21
TORSDOF 6
ENDMDL
