MODEL 1
REMARK VINA RESULT:      -6.2      0.000      0.000
REMARK  3 active torsions:
REMARK  status: ('A' for Active; 'I' for Inactive)
REMARK    1  A    between atoms: S_2  and  N_5 
REMARK    2  A    between atoms: C_8  and  N_11 
REMARK       I    between atoms: N_11  and  C_12 
REMARK       I    between atoms: C_12  and  N_14 
REMARK    3  A    between atoms: N_14  and  C_15 
ROOT
HETATM    1  N   UNL     1     -41.845 -49.641  11.380  1.00  0.00    -0.338 N 
HETATM    2  C   UNL     1     -42.733 -48.591  11.253  1.00  0.00     0.321 C 
HETATM    3  O   UNL     1     -43.358 -48.136  12.201  1.00  0.00    -0.247 OA
HETATM    4  N   UNL     1     -42.784 -48.124   9.960  1.00  0.00    -0.306 N 
HETATM    5  H   UNL     1     -41.802 -50.261  10.585  1.00  0.00     0.164 HD
HETATM    6  H   UNL     1     -42.039 -48.381   9.332  1.00  0.00     0.171 HD
ENDROOT
BRANCH   1   7
HETATM    7  C   UNL     1     -41.617 -50.213  12.707  1.00  0.00     0.088 C 
HETATM    8  C   UNL     1     -40.146 -50.073  13.112  1.00  0.00     0.041 C 
HETATM    9  C   UNL     1     -39.267 -51.210  12.616  1.00  0.00     0.109 C 
HETATM   10  N   UNL     1     -39.859 -52.540  12.905  1.00  0.00    -0.211 NA
HETATM   11  C   UNL     1     -41.185 -52.669  12.237  1.00  0.00     0.109 C 
HETATM   12  C   UNL     1     -42.163 -51.646  12.796  1.00  0.00     0.041 C 
BRANCH  10  13
HETATM   13  S   UNL     1     -39.817 -53.134  14.505  1.00  0.00     0.207 S 
HETATM   14  C   UNL     1     -39.026 -54.715  14.336  1.00  0.00     0.180 C 
HETATM   15  O   UNL     1     -41.186 -53.370  14.913  1.00  0.00    -0.212 OA
HETATM   16  O   UNL     1     -38.949 -52.283  15.289  1.00  0.00    -0.212 OA
ENDBRANCH  10  13
ENDBRANCH   1   7
BRANCH   4  17
HETATM   17  C   UNL     1     -43.622 -47.096   9.577  1.00  0.00     0.070 A 
HETATM   18  C   UNL     1     -44.956 -47.113   9.114  1.00  0.00     0.138 A 
HETATM   19  N   UNL     1     -45.420 -45.887   8.851  1.00  0.00    -0.310 N 
HETATM   20  N   UNL     1     -44.389 -45.090   9.163  1.00  0.00    -0.310 N 
ATOM     21  HN  UNL     1     -46.339 -45.622   8.497  1.00  0.00     0.186 HD
HETATM   22  C   UNL     1     -43.275 -45.767   9.581  1.00  0.00     0.138 A 
HETATM   23  H   UNL     1     -44.515 -44.088   9.073  1.00  0.00     0.186 HD
ENDBRANCH   4  17
TORSDOF 3
ENDMDL
MODEL 2
REMARK VINA RESULT:      -5.6      6.243      8.116
REMARK  3 active torsions:
REMARK  status: ('A' for Active; 'I' for Inactive)
REMARK    1  A    between atoms: S_2  and  N_5 
REMARK    2  A    between atoms: C_8  and  N_11 
REMARK       I    between atoms: N_11  and  C_12 
REMARK       I    between atoms: C_12  and  N_14 
REMARK    3  A    between atoms: N_14  and  C_15 
ROOT
HETATM    1  N   UNL     1     -42.829 -44.057  11.001  1.00  0.00    -0.338 N 
HETATM    2  C   UNL     1     -43.010 -45.329  10.493  1.00  0.00     0.321 C 
HETATM    3  O   UNL     1     -42.380 -46.297  10.897  1.00  0.00    -0.247 OA
HETATM    4  N   UNL     1     -43.987 -45.355   9.527  1.00  0.00    -0.306 N 
HETATM    5  H   UNL     1     -42.939 -43.312  10.331  1.00  0.00     0.164 HD
HETATM    6  H   UNL     1     -44.621 -44.573   9.471  1.00  0.00     0.171 HD
ENDROOT
BRANCH   1   7
HETATM    7  C   UNL     1     -41.870 -43.864  12.089  1.00  0.00     0.088 C 
HETATM    8  C   UNL     1     -42.582 -43.383  13.359  1.00  0.00     0.041 C 
HETATM    9  C   UNL     1     -42.759 -41.875  13.423  1.00  0.00     0.109 C 
HETATM   10  N   UNL     1     -41.501 -41.151  13.114  1.00  0.00    -0.211 NA
HETATM   11  C   UNL     1     -41.035 -41.493  11.740  1.00  0.00     0.109 C 
HETATM   12  C   UNL     1     -40.699 -42.974  11.646  1.00  0.00     0.041 C 
BRANCH  10  13
HETATM   13  S   UNL     1     -40.260 -41.110  14.286  1.00  0.00     0.207 S 
HETATM   14  C   UNL     1     -40.760 -39.790  15.366  1.00  0.00     0.180 C 
HETATM   15  O   UNL     1     -39.047 -40.693  13.616  1.00  0.00    -0.212 OA
HETATM   16  O   UNL     1     -40.301 -42.343  15.042  1.00  0.00    -0.212 OA
ENDBRANCH  10  13
ENDBRANCH   1   7
BRANCH   4  17
HETATM   17  C   UNL     1     -44.330 -46.508   8.850  1.00  0.00     0.070 A 
HETATM   18  C   UNL     1     -45.505 -47.291   8.889  1.00  0.00     0.138 A 
HETATM   19  N   UNL     1     -45.446 -48.341   8.065  1.00  0.00    -0.310 N 
HETATM   20  N   UNL     1     -44.242 -48.218   7.488  1.00  0.00    -0.310 N 
ATOM     21  HN  UNL     1     -46.149 -49.064   7.912  1.00  0.00     0.186 HD
HETATM   22  C   UNL     1     -43.520 -47.147   7.942  1.00  0.00     0.138 A 
HETATM   23  H   UNL     1     -43.977 -48.899   6.785  1.00  0.00     0.186 HD
ENDBRANCH   4  17
TORSDOF 3
ENDMDL
MODEL 3
REMARK VINA RESULT:      -5.6      3.485      4.215
REMARK  3 active torsions:
REMARK  status: ('A' for Active; 'I' for Inactive)
REMARK    1  A    between atoms: S_2  and  N_5 
REMARK    2  A    between atoms: C_8  and  N_11 
REMARK       I    between atoms: N_11  and  C_12 
REMARK       I    between atoms: C_12  and  N_14 
REMARK    3  A    between atoms: N_14  and  C_15 
ROOT
HETATM    1  N   UNL     1     -43.531 -50.317  12.514  1.00  0.00    -0.338 N 
HETATM    2  C   UNL     1     -42.928 -49.082  12.375  1.00  0.00     0.321 C 
HETATM    3  O   UNL     1     -42.949 -48.234  13.257  1.00  0.00    -0.247 OA
HETATM    4  N   UNL     1     -42.295 -48.960  11.161  1.00  0.00    -0.306 N 
HETATM    5  H   UNL     1     -43.922 -50.696  11.665  1.00  0.00     0.164 HD
HETATM    6  H   UNL     1     -42.106 -49.800  10.637  1.00  0.00     0.171 HD
ENDROOT
BRANCH   1   7
HETATM    7  C   UNL     1     -44.194 -50.639  13.777  1.00  0.00     0.088 C 
HETATM    8  C   UNL     1     -43.246 -51.406  14.706  1.00  0.00     0.041 C 
HETATM    9  C   UNL     1     -43.251 -52.909  14.472  1.00  0.00     0.109 C 
HETATM   10  N   UNL     1     -44.627 -53.460  14.409  1.00  0.00    -0.211 NA
HETATM   11  C   UNL     1     -45.384 -52.827  13.292  1.00  0.00     0.109 C 
HETATM   12  C   UNL     1     -45.542 -51.334  13.536  1.00  0.00     0.041 C 
BRANCH  10  13
HETATM   13  S   UNL     1     -45.518 -53.627  15.856  1.00  0.00     0.207 S 
HETATM   14  C   UNL     1     -44.275 -54.025  17.061  1.00  0.00     0.180 C 
HETATM   15  O   UNL     1     -46.370 -54.787  15.706  1.00  0.00    -0.212 OA
HETATM   16  O   UNL     1     -46.078 -52.338  16.202  1.00  0.00    -0.212 OA
ENDBRANCH  10  13
ENDBRANCH   1   7
BRANCH   4  17
HETATM   17  C   UNL     1     -41.644 -47.804  10.778  1.00  0.00     0.070 A 
HETATM   18  C   UNL     1     -40.327 -47.357  11.028  1.00  0.00     0.138 A 
HETATM   19  N   UNL     1     -40.078 -46.169  10.467  1.00  0.00    -0.310 N 
HETATM   20  N   UNL     1     -41.227 -45.870   9.846  1.00  0.00    -0.310 N 
ATOM     21  HN  UNL     1     -39.218 -45.623  10.503  1.00  0.00     0.186 HD
HETATM   22  C   UNL     1     -42.209 -46.807  10.021  1.00  0.00     0.138 A 
HETATM   23  H   UNL     1     -41.272 -45.009   9.312  1.00  0.00     0.186 HD
ENDBRANCH   4  17
TORSDOF 3
ENDMDL
MODEL 4
REMARK VINA RESULT:      -5.5      2.319      2.806
REMARK  3 active torsions:
REMARK  status: ('A' for Active; 'I' for Inactive)
REMARK    1  A    between atoms: S_2  and  N_5 
REMARK    2  A    between atoms: C_8  and  N_11 
REMARK       I    between atoms: N_11  and  C_12 
REMARK       I    between atoms: C_12  and  N_14 
REMARK    3  A    between atoms: N_14  and  C_15 
ROOT
HETATM    1  N   UNL     1     -42.198 -51.109  12.302  1.00  0.00    -0.338 N 
HETATM    2  C   UNL     1     -42.332 -49.749  12.099  1.00  0.00     0.321 C 
HETATM    3  O   UNL     1     -42.871 -49.010  12.911  1.00  0.00    -0.247 OA
HETATM    4  N   UNL     1     -41.762 -49.355  10.912  1.00  0.00    -0.306 N 
HETATM    5  H   UNL     1     -42.258 -51.671  11.466  1.00  0.00     0.164 HD
HETATM    6  H   UNL     1     -41.114 -49.984  10.463  1.00  0.00     0.171 HD
ENDROOT
BRANCH   1   7
HETATM    7  C   UNL     1     -42.692 -51.685  13.552  1.00  0.00     0.088 C 
HETATM    8  C   UNL     1     -41.562 -51.789  14.583  1.00  0.00     0.041 C 
HETATM    9  C   UNL     1     -40.749 -53.069  14.467  1.00  0.00     0.109 C 
HETATM   10  N   UNL     1     -41.612 -54.272  14.380  1.00  0.00    -0.211 NA
HETATM   11  C   UNL     1     -42.493 -54.188  13.180  1.00  0.00     0.109 C 
HETATM   12  C   UNL     1     -43.440 -53.003  13.300  1.00  0.00     0.041 C 
BRANCH  10  13
HETATM   13  S   UNL     1     -42.396 -54.834  15.789  1.00  0.00     0.207 S 
HETATM   14  C   UNL     1     -41.121 -55.739  16.635  1.00  0.00     0.180 C 
HETATM   15  O   UNL     1     -43.405 -55.784  15.372  1.00  0.00    -0.212 OA
HETATM   16  O   UNL     1     -42.747 -53.692  16.605  1.00  0.00    -0.212 OA
ENDBRANCH  10  13
ENDBRANCH   1   7
BRANCH   4  17
HETATM   17  C   UNL     1     -41.792 -48.046  10.473  1.00  0.00     0.070 A 
HETATM   18  C   UNL     1     -40.955 -46.949  10.774  1.00  0.00     0.138 A 
HETATM   19  N   UNL     1     -41.320 -45.837  10.128  1.00  0.00    -0.310 N 
HETATM   20  N   UNL     1     -42.377 -46.230   9.403  1.00  0.00    -0.310 N 
ATOM     21  HN  UNL     1     -40.895 -44.911  10.175  1.00  0.00     0.186 HD
HETATM   22  C   UNL     1     -42.718 -47.542   9.592  1.00  0.00     0.138 A 
HETATM   23  H   UNL     1     -42.817 -45.550   8.793  1.00  0.00     0.186 HD
ENDBRANCH   4  17
TORSDOF 3
ENDMDL
MODEL 5
REMARK VINA RESULT:      -5.5      4.107      6.406
REMARK  3 active torsions:
REMARK  status: ('A' for Active; 'I' for Inactive)
REMARK    1  A    between atoms: S_2  and  N_5 
REMARK    2  A    between atoms: C_8  and  N_11 
REMARK       I    between atoms: N_11  and  C_12 
REMARK       I    between atoms: C_12  and  N_14 
REMARK    3  A    between atoms: N_14  and  C_15 
ROOT
HETATM    1  N   UNL     1     -39.613 -53.545  15.171  1.00  0.00    -0.338 N 
HETATM    2  C   UNL     1     -39.674 -53.102  13.863  1.00  0.00     0.321 C 
HETATM    3  O   UNL     1     -39.728 -53.867  12.910  1.00  0.00    -0.247 OA
HETATM    4  N   UNL     1     -39.698 -51.730  13.794  1.00  0.00    -0.306 N 
HETATM    5  H   UNL     1     -39.065 -52.967  15.790  1.00  0.00     0.164 HD
HETATM    6  H   UNL     1     -39.926 -51.215  14.630  1.00  0.00     0.171 HD
ENDROOT
BRANCH   1   7
HETATM    7  C   UNL     1     -39.648 -54.984  15.429  1.00  0.00     0.088 C 
HETATM    8  C   UNL     1     -40.824 -55.341  16.345  1.00  0.00     0.041 C 
HETATM    9  C   UNL     1     -40.501 -55.217  17.825  1.00  0.00     0.109 C 
HETATM   10  N   UNL     1     -39.225 -55.887  18.177  1.00  0.00    -0.211 NA
HETATM   11  C   UNL     1     -38.097 -55.277  17.416  1.00  0.00     0.109 C 
HETATM   12  C   UNL     1     -38.286 -55.494  15.922  1.00  0.00     0.041 C 
BRANCH  10  13
HETATM   13  S   UNL     1     -39.178 -57.592  18.254  1.00  0.00     0.207 S 
HETATM   14  C   UNL     1     -40.140 -57.963  19.702  1.00  0.00     0.180 C 
HETATM   15  O   UNL     1     -37.809 -57.974  18.527  1.00  0.00    -0.212 OA
HETATM   16  O   UNL     1     -39.880 -58.123  17.106  1.00  0.00    -0.212 OA
ENDBRANCH  10  13
ENDBRANCH   1   7
BRANCH   4  17
HETATM   17  C   UNL     1     -39.729 -51.049  12.593  1.00  0.00     0.070 A 
HETATM   18  C   UNL     1     -40.795 -50.790  11.703  1.00  0.00     0.138 A 
HETATM   19  N   UNL     1     -40.409 -50.080  10.638  1.00  0.00    -0.310 N 
HETATM   20  N   UNL     1     -39.103 -49.872  10.858  1.00  0.00    -0.310 N 
ATOM     21  HN  UNL     1     -40.974 -49.771   9.847  1.00  0.00     0.186 HD
HETATM   22  C   UNL     1     -38.638 -50.455  12.006  1.00  0.00     0.138 A 
HETATM   23  H   UNL     1     -38.587 -49.318  10.185  1.00  0.00     0.186 HD
ENDBRANCH   4  17
TORSDOF 3
ENDMDL
MODEL 6
REMARK VINA RESULT:      -5.4      3.754      7.036
REMARK  3 active torsions:
REMARK  status: ('A' for Active; 'I' for Inactive)
REMARK    1  A    between atoms: S_2  and  N_5 
REMARK    2  A    between atoms: C_8  and  N_11 
REMARK       I    between atoms: N_11  and  C_12 
REMARK       I    between atoms: C_12  and  N_14 
REMARK    3  A    between atoms: N_14  and  C_15 
ROOT
HETATM    1  N   UNL     1     -42.741 -50.113  12.150  1.00  0.00    -0.338 N 
HETATM    2  C   UNL     1     -43.581 -50.897  12.917  1.00  0.00     0.321 C 
HETATM    3  O   UNL     1     -44.264 -50.441  13.824  1.00  0.00    -0.247 OA
HETATM    4  N   UNL     1     -43.566 -52.209  12.506  1.00  0.00    -0.306 N 
HETATM    5  H   UNL     1     -41.894 -50.570  11.847  1.00  0.00     0.164 HD
HETATM    6  H   UNL     1     -43.190 -52.418  11.595  1.00  0.00     0.171 HD
ENDROOT
BRANCH   1   7
HETATM    7  C   UNL     1     -42.689 -48.675  12.410  1.00  0.00     0.088 C 
HETATM    8  C   UNL     1     -43.391 -47.897  11.292  1.00  0.00     0.041 C 
HETATM    9  C   UNL     1     -42.489 -47.583  10.110  1.00  0.00     0.109 C 
HETATM   10  N   UNL     1     -41.190 -47.005  10.537  1.00  0.00    -0.211 NA
HETATM   11  C   UNL     1     -40.464 -47.964  11.417  1.00  0.00     0.109 C 
HETATM   12  C   UNL     1     -41.252 -48.213  12.695  1.00  0.00     0.041 C 
BRANCH  10  13
HETATM   13  S   UNL     1     -41.142 -45.385  11.074  1.00  0.00     0.207 S 
HETATM   14  C   UNL     1     -39.654 -44.752  10.337  1.00  0.00     0.180 C 
HETATM   15  O   UNL     1     -40.944 -45.411  12.507  1.00  0.00    -0.212 OA
HETATM   16  O   UNL     1     -42.262 -44.675  10.495  1.00  0.00    -0.212 OA
ENDBRANCH  10  13
ENDBRANCH   1   7
BRANCH   4  17
HETATM   17  C   UNL     1     -44.303 -53.192  13.137  1.00  0.00     0.070 A 
HETATM   18  C   UNL     1     -45.696 -53.420  13.179  1.00  0.00     0.138 A 
HETATM   19  N   UNL     1     -46.014 -54.498  13.903  1.00  0.00    -0.310 N 
HETATM   20  N   UNL     1     -44.824 -54.966  14.305  1.00  0.00    -0.310 N 
ATOM     21  HN  UNL     1     -46.941 -54.874  14.101  1.00  0.00     0.186 HD
HETATM   22  C   UNL     1     -43.764 -54.204  13.894  1.00  0.00     0.138 A 
HETATM   23  H   UNL     1     -44.807 -55.817  14.857  1.00  0.00     0.186 HD
ENDBRANCH   4  17
TORSDOF 3
ENDMDL
MODEL 7
REMARK VINA RESULT:      -5.4      3.492      7.583
REMARK  3 active torsions:
REMARK  status: ('A' for Active; 'I' for Inactive)
REMARK    1  A    between atoms: S_2  and  N_5 
REMARK    2  A    between atoms: C_8  and  N_11 
REMARK       I    between atoms: N_11  and  C_12 
REMARK       I    between atoms: C_12  and  N_14 
REMARK    3  A    between atoms: N_14  and  C_15 
ROOT
HETATM    1  N   UNL     1     -41.788 -48.765  11.461  1.00  0.00    -0.338 N 
HETATM    2  C   UNL     1     -41.954 -49.891  12.245  1.00  0.00     0.321 C 
HETATM    3  O   UNL     1     -42.344 -49.837  13.403  1.00  0.00    -0.247 OA
HETATM    4  N   UNL     1     -41.661 -51.040  11.549  1.00  0.00    -0.306 N 
HETATM    5  H   UNL     1     -41.025 -48.814  10.803  1.00  0.00     0.164 HD
HETATM    6  H   UNL     1     -41.620 -50.990  10.543  1.00  0.00     0.171 HD
ENDROOT
BRANCH   1   7
HETATM    7  C   UNL     1     -42.124 -47.459  12.026  1.00  0.00     0.088 C 
HETATM    8  C   UNL     1     -43.312 -46.837  11.285  1.00  0.00     0.041 C 
HETATM    9  C   UNL     1     -42.912 -46.051  10.046  1.00  0.00     0.109 C 
HETATM   10  N   UNL     1     -41.798 -45.110  10.317  1.00  0.00    -0.211 NA
HETATM   11  C   UNL     1     -40.596 -45.857  10.786  1.00  0.00     0.109 C 
HETATM   12  C   UNL     1     -40.885 -46.554  12.107  1.00  0.00     0.041 C 
BRANCH  10  13
HETATM   13  S   UNL     1     -42.118 -43.677  11.189  1.00  0.00     0.207 S 
HETATM   14  C   UNL     1     -40.504 -42.972  11.427  1.00  0.00     0.180 C 
HETATM   15  O   UNL     1     -42.621 -44.066  12.489  1.00  0.00    -0.212 OA
HETATM   16  O   UNL     1     -42.874 -42.782  10.341  1.00  0.00    -0.212 OA
ENDBRANCH  10  13
ENDBRANCH   1   7
BRANCH   4  17
HETATM   17  C   UNL     1     -41.723 -52.292  12.128  1.00  0.00     0.070 A 
HETATM   18  C   UNL     1     -40.706 -53.121  12.653  1.00  0.00     0.138 A 
HETATM   19  N   UNL     1     -41.186 -54.271  13.137  1.00  0.00    -0.310 N 
HETATM   20  N   UNL     1     -42.507 -54.168  12.936  1.00  0.00    -0.310 N 
ATOM     21  HN  UNL     1     -40.669 -55.043  13.558  1.00  0.00     0.186 HD
HETATM   22  C   UNL     1     -42.881 -53.009  12.311  1.00  0.00     0.138 A 
HETATM   23  H   UNL     1     -43.101 -54.925  13.257  1.00  0.00     0.186 HD
ENDBRANCH   4  17
TORSDOF 3
ENDMDL
MODEL 8
REMARK VINA RESULT:      -5.3      2.089      2.318
REMARK  3 active torsions:
REMARK  status: ('A' for Active; 'I' for Inactive)
REMARK    1  A    between atoms: S_2  and  N_5 
REMARK    2  A    between atoms: C_8  and  N_11 
REMARK       I    between atoms: N_11  and  C_12 
REMARK       I    between atoms: C_12  and  N_14 
REMARK    3  A    between atoms: N_14  and  C_15 
ROOT
HETATM    1  N   UNL     1     -40.857 -48.739  10.708  1.00  0.00    -0.338 N 
HETATM    2  C   UNL     1     -41.927 -47.866  10.685  1.00  0.00     0.321 C 
HETATM    3  O   UNL     1     -42.084 -46.991  11.526  1.00  0.00    -0.247 OA
HETATM    4  N   UNL     1     -42.743 -48.092   9.601  1.00  0.00    -0.306 N 
HETATM    5  H   UNL     1     -41.060 -49.669  10.375  1.00  0.00     0.164 HD
HETATM    6  H   UNL     1     -42.378 -48.641   8.838  1.00  0.00     0.171 HD
ENDROOT
BRANCH   1   7
HETATM    7  C   UNL     1     -39.851 -48.592  11.760  1.00  0.00     0.088 C 
HETATM    8  C   UNL     1     -38.761 -49.661  11.620  1.00  0.00     0.041 C 
HETATM    9  C   UNL     1     -39.103 -50.971  12.312  1.00  0.00     0.109 C 
HETATM   10  N   UNL     1     -39.582 -50.762  13.700  1.00  0.00    -0.211 NA
HETATM   11  C   UNL     1     -40.811 -49.919  13.699  1.00  0.00     0.109 C 
HETATM   12  C   UNL     1     -40.505 -48.534  13.149  1.00  0.00     0.041 C 
BRANCH  10  13
HETATM   13  S   UNL     1     -38.452 -50.353  14.913  1.00  0.00     0.207 S 
HETATM   14  C   UNL     1     -38.566 -51.711  16.054  1.00  0.00     0.180 C 
HETATM   15  O   UNL     1     -38.950 -49.173  15.587  1.00  0.00    -0.212 OA
HETATM   16  O   UNL     1     -37.128 -50.369  14.332  1.00  0.00    -0.212 OA
ENDBRANCH  10  13
ENDBRANCH   1   7
BRANCH   4  17
HETATM   17  C   UNL     1     -43.895 -47.365   9.377  1.00  0.00     0.070 A 
HETATM   18  C   UNL     1     -45.249 -47.673   9.638  1.00  0.00     0.138 A 
HETATM   19  N   UNL     1     -46.075 -46.686   9.275  1.00  0.00    -0.310 N 
HETATM   20  N   UNL     1     -45.247 -45.745   8.801  1.00  0.00    -0.310 N 
ATOM     21  HN  UNL     1     -47.092 -46.657   9.343  1.00  0.00     0.186 HD
HETATM   22  C   UNL     1     -43.928 -46.112   8.816  1.00  0.00     0.138 A 
HETATM   23  H   UNL     1     -45.649 -44.869   8.486  1.00  0.00     0.186 HD
ENDBRANCH   4  17
TORSDOF 3
ENDMDL
MODEL 9
REMARK VINA RESULT:      -5.3      3.002      3.618
REMARK  3 active torsions:
REMARK  status: ('A' for Active; 'I' for Inactive)
REMARK    1  A    between atoms: S_2  and  N_5 
REMARK    2  A    between atoms: C_8  and  N_11 
REMARK       I    between atoms: N_11  and  C_12 
REMARK       I    between atoms: C_12  and  N_14 
REMARK    3  A    between atoms: N_14  and  C_15 
ROOT
HETATM    1  N   UNL     1     -40.682 -47.827  11.660  1.00  0.00    -0.338 N 
HETATM    2  C   UNL     1     -41.889 -48.133  11.061  1.00  0.00     0.321 C 
HETATM    3  O   UNL     1     -42.696 -48.907  11.559  1.00  0.00    -0.247 OA
HETATM    4  N   UNL     1     -42.060 -47.443   9.884  1.00  0.00    -0.306 N 
HETATM    5  H   UNL     1     -39.920 -47.661  11.020  1.00  0.00     0.164 HD
HETATM    6  H   UNL     1     -41.473 -46.642   9.713  1.00  0.00     0.171 HD
ENDROOT
BRANCH   1   7
HETATM    7  C   UNL     1     -40.369 -48.424  12.958  1.00  0.00     0.088 C 
HETATM    8  C   UNL     1     -40.000 -47.341  13.977  1.00  0.00     0.041 C 
HETATM    9  C   UNL     1     -38.530 -46.955  13.948  1.00  0.00     0.109 C 
HETATM   10  N   UNL     1     -37.640 -48.142  13.965  1.00  0.00    -0.211 NA
HETATM   11  C   UNL     1     -37.905 -49.001  12.776  1.00  0.00     0.109 C 
HETATM   12  C   UNL     1     -39.326 -49.543  12.818  1.00  0.00     0.041 C 
BRANCH  10  13
HETATM   13  S   UNL     1     -37.441 -49.006  15.424  1.00  0.00     0.207 S 
HETATM   14  C   UNL     1     -36.144 -48.117  16.254  1.00  0.00     0.180 C 
HETATM   15  O   UNL     1     -36.925 -50.315  15.084  1.00  0.00    -0.212 OA
HETATM   16  O   UNL     1     -38.648 -48.867  16.209  1.00  0.00    -0.212 OA
ENDBRANCH  10  13
ENDBRANCH   1   7
BRANCH   4  17
HETATM   17  C   UNL     1     -43.176 -47.603   9.087  1.00  0.00     0.070 A 
HETATM   18  C   UNL     1     -43.310 -48.092   7.768  1.00  0.00     0.138 A 
HETATM   19  N   UNL     1     -44.580 -48.095   7.352  1.00  0.00    -0.310 N 
HETATM   20  N   UNL     1     -45.256 -47.626   8.410  1.00  0.00    -0.310 N 
ATOM     21  HN  UNL     1     -44.946 -48.384   6.445  1.00  0.00     0.186 HD
HETATM   22  C   UNL     1     -44.458 -47.292   9.471  1.00  0.00     0.138 A 
HETATM   23  H   UNL     1     -46.266 -47.564   8.343  1.00  0.00     0.186 HD
ENDBRANCH   4  17
TORSDOF 3
ENDMDL
