MODEL 1
REMARK VINA RESULT:      -6.5      0.000      0.000
REMARK  5 active torsions:
REMARK  status: ('A' for Active; 'I' for Inactive)
REMARK    1  A    between atoms: N_6  and  C_7 
REMARK    2  A    between atoms: C_7  and  C_8 
REMARK       I    between atoms: C_8  and  N_10 
REMARK    3  A    between atoms: N_10  and  C_11 
REMARK    4  A    between atoms: C_11  and  C_12 
REMARK    5  A    between atoms: C_12  and  C_13 
ROOT
HETATM    1  C   UNL     1     -42.530 -52.836  12.668  1.00  0.00     0.237 C 
HETATM    2  O   UNL     1     -42.417 -53.179  13.847  1.00  0.00    -0.272 OA
HETATM    3  N   UNL     1     -43.745 -52.885  12.010  1.00  0.00    -0.359 N 
HETATM    4  H   UNL     1     -43.745 -52.803  10.998  1.00  0.00     0.162 HD
ENDROOT
BRANCH   1   5
HETATM    5  C   UNL     1     -41.303 -52.522  11.822  1.00  0.00     0.255 C 
BRANCH   5   6
HETATM    6  N   UNL     1     -40.876 -51.127  11.901  1.00  0.00    -0.248 N 
HETATM    7  N   UNL     1     -41.731 -50.190  11.368  1.00  0.00    -0.305 N 
HETATM    8  C   UNL     1     -41.305 -48.969  11.330  1.00  0.00     0.133 A 
ATOM      9  HN  UNL     1     -42.655 -50.446  11.020  1.00  0.00     0.186 HD
HETATM   10  C   UNL     1     -40.007 -48.497  11.826  1.00  0.00     0.078 A 
HETATM   11 CL   UNL     1     -39.677 -46.822  11.672  1.00  0.00    -0.081 Cl
HETATM   12  C   UNL     1     -39.196 -49.408  12.364  1.00  0.00     0.126 A 
HETATM   13  C   UNL     1     -39.614 -50.838  12.422  1.00  0.00     0.285 A 
HETATM   14 CL   UNL     1     -37.636 -49.019  12.998  1.00  0.00    -0.076 Cl
HETATM   15  O   UNL     1     -38.872 -51.697  12.892  1.00  0.00    -0.265 OA
ENDBRANCH   5   6
ENDBRANCH   1   5
BRANCH   3  16
HETATM   16  C   UNL     1     -44.926 -53.300  12.743  1.00  0.00     0.127 C 
BRANCH  16  17
HETATM   17  C   UNL     1     -45.978 -52.205  12.943  1.00  0.00     0.053 C 
BRANCH  17  18
HETATM   18  C   UNL     1     -45.956 -51.630  14.354  1.00  0.00    -0.082 A 
HETATM   19  C   UNL     1     -44.893 -50.960  14.821  1.00  0.00    -0.024 A 
HETATM   20  C   UNL     1     -44.784 -50.373  16.188  1.00  0.00     0.027 A 
HETATM   21  C   UNL     1     -45.982 -50.531  17.117  1.00  0.00     0.004 A 
HETATM   22  C   UNL     1     -47.202 -51.288  16.610  1.00  0.00     0.005 A 
HETATM   23  C   UNL     1     -47.177 -51.871  15.197  1.00  0.00     0.034 A 
ENDBRANCH  17  18
ENDBRANCH  16  17
ENDBRANCH   3  16
TORSDOF 5
ENDMDL
MODEL 2
REMARK VINA RESULT:      -6.4      2.421      3.488
REMARK  5 active torsions:
REMARK  status: ('A' for Active; 'I' for Inactive)
REMARK    1  A    between atoms: N_6  and  C_7 
REMARK    2  A    between atoms: C_7  and  C_8 
REMARK       I    between atoms: C_8  and  N_10 
REMARK    3  A    between atoms: N_10  and  C_11 
REMARK    4  A    between atoms: C_11  and  C_12 
REMARK    5  A    between atoms: C_12  and  C_13 
ROOT
HETATM    1  C   UNL     1     -41.748 -50.564  12.158  1.00  0.00     0.237 C 
HETATM    2  O   UNL     1     -42.182 -50.164  13.240  1.00  0.00    -0.272 OA
HETATM    3  N   UNL     1     -41.841 -51.892  11.783  1.00  0.00    -0.359 N 
HETATM    4  H   UNL     1     -41.285 -52.208  10.995  1.00  0.00     0.162 HD
ENDROOT
BRANCH   1   5
HETATM    5  C   UNL     1     -40.918 -49.655  11.261  1.00  0.00     0.255 C 
BRANCH   5   6
HETATM    6  N   UNL     1     -41.574 -48.390  10.940  1.00  0.00    -0.248 N 
HETATM    7  N   UNL     1     -42.873 -48.465  10.492  1.00  0.00    -0.305 N 
HETATM    8  C   UNL     1     -43.416 -47.360  10.096  1.00  0.00     0.133 A 
ATOM      9  HN  UNL     1     -43.382 -49.349  10.474  1.00  0.00     0.186 HD
HETATM   10  C   UNL     1     -42.779 -46.038  10.105  1.00  0.00     0.078 A 
HETATM   11 CL   UNL     1     -43.715 -44.719   9.537  1.00  0.00    -0.081 Cl
HETATM   12  C   UNL     1     -41.529 -45.971  10.564  1.00  0.00     0.126 A 
HETATM   13  C   UNL     1     -40.834 -47.209  11.019  1.00  0.00     0.285 A 
HETATM   14 CL   UNL     1     -40.637 -44.493  10.647  1.00  0.00    -0.076 Cl
HETATM   15  O   UNL     1     -39.674 -47.172  11.423  1.00  0.00    -0.265 OA
ENDBRANCH   5   6
ENDBRANCH   1   5
BRANCH   3  16
HETATM   16  C   UNL     1     -42.515 -52.826  12.665  1.00  0.00     0.127 C 
BRANCH  16  17
HETATM   17  C   UNL     1     -43.878 -53.315  12.166  1.00  0.00     0.053 C 
BRANCH  17  18
HETATM   18  C   UNL     1     -44.990 -53.068  13.178  1.00  0.00    -0.082 A 
HETATM   19  C   UNL     1     -45.539 -54.073  13.876  1.00  0.00    -0.024 A 
HETATM   20  C   UNL     1     -46.634 -53.922  14.877  1.00  0.00     0.027 A 
HETATM   21  C   UNL     1     -47.156 -52.514  15.140  1.00  0.00     0.004 A 
HETATM   22  C   UNL     1     -46.548 -51.355  14.360  1.00  0.00     0.005 A 
HETATM   23  C   UNL     1     -45.451 -51.647  13.336  1.00  0.00     0.034 A 
ENDBRANCH  17  18
ENDBRANCH  16  17
ENDBRANCH   3  16
TORSDOF 5
ENDMDL
MODEL 3
REMARK VINA RESULT:      -6.1      1.384      2.454
REMARK  5 active torsions:
REMARK  status: ('A' for Active; 'I' for Inactive)
REMARK    1  A    between atoms: N_6  and  C_7 
REMARK    2  A    between atoms: C_7  and  C_8 
REMARK       I    between atoms: C_8  and  N_10 
REMARK    3  A    between atoms: N_10  and  C_11 
REMARK    4  A    between atoms: C_11  and  C_12 
REMARK    5  A    between atoms: C_12  and  C_13 
ROOT
HETATM    1  C   UNL     1     -42.520 -53.020  12.789  1.00  0.00     0.237 C 
HETATM    2  O   UNL     1     -42.568 -53.403  13.960  1.00  0.00    -0.272 OA
HETATM    3  N   UNL     1     -43.665 -52.853  12.032  1.00  0.00    -0.359 N 
HETATM    4  H   UNL     1     -43.564 -52.751  11.027  1.00  0.00     0.162 HD
ENDROOT
BRANCH   1   5
HETATM    5  C   UNL     1     -41.190 -52.896  12.059  1.00  0.00     0.255 C 
BRANCH   5   6
HETATM    6  N   UNL     1     -40.178 -52.151  12.805  1.00  0.00    -0.248 N 
HETATM    7  N   UNL     1     -39.628 -52.782  13.896  1.00  0.00    -0.305 N 
HETATM    8  C   UNL     1     -38.821 -52.084  14.626  1.00  0.00     0.133 A 
ATOM      9  HN  UNL     1     -39.846 -53.754  14.119  1.00  0.00     0.186 HD
HETATM   10  C   UNL     1     -38.425 -50.692  14.378  1.00  0.00     0.078 A 
HETATM   11 CL   UNL     1     -37.327 -49.985  15.489  1.00  0.00    -0.081 Cl
HETATM   12  C   UNL     1     -38.943 -50.097  13.304  1.00  0.00     0.126 A 
HETATM   13  C   UNL     1     -39.897 -50.837  12.428  1.00  0.00     0.285 A 
HETATM   14 CL   UNL     1     -38.577 -48.466  12.866  1.00  0.00    -0.076 Cl
HETATM   15  O   UNL     1     -40.404 -50.299  11.447  1.00  0.00    -0.265 OA
ENDBRANCH   5   6
ENDBRANCH   1   5
BRANCH   3  16
HETATM   16  C   UNL     1     -44.958 -53.082  12.650  1.00  0.00     0.127 C 
BRANCH  16  17
HETATM   17  C   UNL     1     -45.811 -51.826  12.844  1.00  0.00     0.053 C 
BRANCH  17  18
HETATM   18  C   UNL     1     -45.921 -51.419  14.308  1.00  0.00    -0.082 A 
HETATM   19  C   UNL     1     -47.049 -51.611  15.006  1.00  0.00    -0.024 A 
HETATM   20  C   UNL     1     -47.246 -51.236  16.437  1.00  0.00     0.027 A 
HETATM   21  C   UNL     1     -46.066 -50.603  17.164  1.00  0.00     0.004 A 
HETATM   22  C   UNL     1     -44.772 -50.375  16.393  1.00  0.00     0.005 A 
HETATM   23  C   UNL     1     -44.709 -50.775  14.919  1.00  0.00     0.034 A 
ENDBRANCH  17  18
ENDBRANCH  16  17
ENDBRANCH   3  16
TORSDOF 5
ENDMDL
MODEL 4
REMARK VINA RESULT:      -6.1      3.875      6.891
REMARK  5 active torsions:
REMARK  status: ('A' for Active; 'I' for Inactive)
REMARK    1  A    between atoms: N_6  and  C_7 
REMARK    2  A    between atoms: C_7  and  C_8 
REMARK       I    between atoms: C_8  and  N_10 
REMARK    3  A    between atoms: N_10  and  C_11 
REMARK    4  A    between atoms: C_11  and  C_12 
REMARK    5  A    between atoms: C_12  and  C_13 
ROOT
HETATM    1  C   UNL     1     -41.165 -51.037  12.078  1.00  0.00     0.237 C 
HETATM    2  O   UNL     1     -41.780 -50.562  13.035  1.00  0.00    -0.272 OA
HETATM    3  N   UNL     1     -40.476 -50.236  11.186  1.00  0.00    -0.359 N 
HETATM    4  H   UNL     1     -40.174 -50.646  10.309  1.00  0.00     0.162 HD
ENDROOT
BRANCH   1   5
HETATM    5  C   UNL     1     -41.288 -52.512  11.722  1.00  0.00     0.255 C 
BRANCH   5   6
HETATM    6  N   UNL     1     -42.388 -53.191  12.403  1.00  0.00    -0.248 N 
HETATM    7  N   UNL     1     -43.659 -52.892  11.969  1.00  0.00    -0.305 N 
HETATM    8  C   UNL     1     -44.639 -53.399  12.645  1.00  0.00     0.133 A 
ATOM      9  HN  UNL     1     -43.821 -52.300  11.154  1.00  0.00     0.186 HD
HETATM   10  C   UNL     1     -44.511 -54.279  13.813  1.00  0.00     0.078 A 
HETATM   11 CL   UNL     1     -45.965 -54.833  14.533  1.00  0.00    -0.081 Cl
HETATM   12  C   UNL     1     -43.275 -54.584  14.210  1.00  0.00     0.126 A 
HETATM   13  C   UNL     1     -42.099 -54.018  13.489  1.00  0.00     0.285 A 
HETATM   14 CL   UNL     1     -42.950 -55.609  15.563  1.00  0.00    -0.076 Cl
HETATM   15  O   UNL     1     -40.952 -54.267  13.854  1.00  0.00    -0.265 OA
ENDBRANCH   5   6
ENDBRANCH   1   5
BRANCH   3  16
HETATM   16  C   UNL     1     -40.434 -48.803  11.414  1.00  0.00     0.127 C 
BRANCH  16  17
HETATM   17  C   UNL     1     -41.412 -47.987  10.565  1.00  0.00     0.053 C 
BRANCH  17  18
HETATM   18  C   UNL     1     -41.244 -46.487  10.765  1.00  0.00    -0.082 A 
HETATM   19  C   UNL     1     -40.044 -45.896  10.667  1.00  0.00    -0.024 A 
HETATM   20  C   UNL     1     -39.788 -44.439  10.856  1.00  0.00     0.027 A 
HETATM   21  C   UNL     1     -40.987 -43.551  11.167  1.00  0.00     0.004 A 
HETATM   22  C   UNL     1     -42.361 -44.197  11.284  1.00  0.00     0.005 A 
HETATM   23  C   UNL     1     -42.486 -45.709  11.099  1.00  0.00     0.034 A 
ENDBRANCH  17  18
ENDBRANCH  16  17
ENDBRANCH   3  16
TORSDOF 5
ENDMDL
MODEL 5
REMARK VINA RESULT:      -6.0      3.162      4.371
REMARK  5 active torsions:
REMARK  status: ('A' for Active; 'I' for Inactive)
REMARK    1  A    between atoms: N_6  and  C_7 
REMARK    2  A    between atoms: C_7  and  C_8 
REMARK       I    between atoms: C_8  and  N_10 
REMARK    3  A    between atoms: N_10  and  C_11 
REMARK    4  A    between atoms: C_11  and  C_12 
REMARK    5  A    between atoms: C_12  and  C_13 
ROOT
HETATM    1  C   UNL     1     -40.412 -49.848  11.711  1.00  0.00     0.237 C 
HETATM    2  O   UNL     1     -41.577 -49.444  11.718  1.00  0.00    -0.272 OA
HETATM    3  N   UNL     1     -40.110 -51.197  11.746  1.00  0.00    -0.359 N 
HETATM    4  H   UNL     1     -39.155 -51.469  11.956  1.00  0.00     0.162 HD
ENDROOT
BRANCH   1   5
HETATM    5  C   UNL     1     -39.245 -48.879  11.856  1.00  0.00     0.255 C 
BRANCH   5   6
HETATM    6  N   UNL     1     -39.643 -47.474  11.830  1.00  0.00    -0.248 N 
HETATM    7  N   UNL     1     -39.973 -46.948  10.602  1.00  0.00    -0.305 N 
HETATM    8  C   UNL     1     -40.210 -45.678  10.558  1.00  0.00     0.133 A 
ATOM      9  HN  UNL     1     -40.027 -47.532   9.768  1.00  0.00     0.186 HD
HETATM   10  C   UNL     1     -40.183 -44.759  11.703  1.00  0.00     0.078 A 
HETATM   11 CL   UNL     1     -40.547 -43.113  11.389  1.00  0.00    -0.081 Cl
HETATM   12  C   UNL     1     -39.887 -45.282  12.893  1.00  0.00     0.126 A 
HETATM   13  C   UNL     1     -39.583 -46.736  13.014  1.00  0.00     0.285 A 
HETATM   14 CL   UNL     1     -39.817 -44.341  14.341  1.00  0.00    -0.076 Cl
HETATM   15  O   UNL     1     -39.285 -47.234  14.098  1.00  0.00    -0.265 OA
ENDBRANCH   5   6
ENDBRANCH   1   5
BRANCH   3  16
HETATM   16  C   UNL     1     -41.194 -52.161  11.737  1.00  0.00     0.127 C 
BRANCH  16  17
HETATM   17  C   UNL     1     -41.052 -53.300  12.751  1.00  0.00     0.053 C 
BRANCH  17  18
HETATM   18  C   UNL     1     -42.399 -53.798  13.258  1.00  0.00    -0.082 A 
HETATM   19  C   UNL     1     -42.492 -54.600  14.329  1.00  0.00    -0.024 A 
HETATM   20  C   UNL     1     -43.766 -55.139  14.886  1.00  0.00     0.027 A 
HETATM   21  C   UNL     1     -45.063 -54.731  14.196  1.00  0.00     0.004 A 
HETATM   22  C   UNL     1     -44.984 -53.820  12.978  1.00  0.00     0.005 A 
HETATM   23  C   UNL     1     -43.611 -53.361  12.485  1.00  0.00     0.034 A 
ENDBRANCH  17  18
ENDBRANCH  16  17
ENDBRANCH   3  16
TORSDOF 5
ENDMDL
MODEL 6
REMARK VINA RESULT:      -5.9      2.304      3.514
REMARK  5 active torsions:
REMARK  status: ('A' for Active; 'I' for Inactive)
REMARK    1  A    between atoms: N_6  and  C_7 
REMARK    2  A    between atoms: C_7  and  C_8 
REMARK       I    between atoms: C_8  and  N_10 
REMARK    3  A    between atoms: N_10  and  C_11 
REMARK    4  A    between atoms: C_11  and  C_12 
REMARK    5  A    between atoms: C_12  and  C_13 
ROOT
HETATM    1  C   UNL     1     -45.271 -53.597  12.982  1.00  0.00     0.237 C 
HETATM    2  O   UNL     1     -45.812 -52.920  12.105  1.00  0.00    -0.272 OA
HETATM    3  N   UNL     1     -45.701 -53.562  14.296  1.00  0.00    -0.359 N 
HETATM    4  H   UNL     1     -45.098 -53.960  15.008  1.00  0.00     0.162 HD
ENDROOT
BRANCH   1   5
HETATM    5  C   UNL     1     -43.984 -54.360  12.701  1.00  0.00     0.255 C 
BRANCH   5   6
HETATM    6  N   UNL     1     -42.779 -53.540  12.812  1.00  0.00    -0.248 N 
HETATM    7  N   UNL     1     -42.618 -52.551  11.871  1.00  0.00    -0.305 N 
HETATM    8  C   UNL     1     -41.499 -51.902  11.894  1.00  0.00     0.133 A 
ATOM      9  HN  UNL     1     -43.346 -52.339  11.188  1.00  0.00     0.186 HD
HETATM   10  C   UNL     1     -40.404 -52.114  12.848  1.00  0.00     0.078 A 
HETATM   11 CL   UNL     1     -39.021 -51.114  12.680  1.00  0.00    -0.081 Cl
HETATM   12  C   UNL     1     -40.579 -53.058  13.773  1.00  0.00     0.126 A 
HETATM   13  C   UNL     1     -41.837 -53.858  13.792  1.00  0.00     0.285 A 
HETATM   14 CL   UNL     1     -39.392 -53.430  14.972  1.00  0.00    -0.076 Cl
HETATM   15  O   UNL     1     -42.009 -54.749  14.621  1.00  0.00    -0.265 OA
ENDBRANCH   5   6
ENDBRANCH   1   5
BRANCH   3  16
HETATM   16  C   UNL     1     -46.852 -52.747  14.638  1.00  0.00     0.127 C 
BRANCH  16  17
HETATM   17  C   UNL     1     -46.531 -51.289  14.980  1.00  0.00     0.053 C 
BRANCH  17  18
HETATM   18  C   UNL     1     -46.813 -50.959  16.440  1.00  0.00    -0.082 A 
HETATM   19  C   UNL     1     -47.976 -51.286  17.021  1.00  0.00    -0.024 A 
HETATM   20  C   UNL     1     -48.338 -50.995  18.438  1.00  0.00     0.027 A 
HETATM   21  C   UNL     1     -47.297 -50.287  19.297  1.00  0.00     0.004 A 
HETATM   22  C   UNL     1     -45.966 -49.905  18.661  1.00  0.00     0.005 A 
HETATM   23  C   UNL     1     -45.730 -50.232  17.186  1.00  0.00     0.034 A 
ENDBRANCH  17  18
ENDBRANCH  16  17
ENDBRANCH   3  16
TORSDOF 5
ENDMDL
MODEL 7
REMARK VINA RESULT:      -5.9      3.742      4.986
REMARK  5 active torsions:
REMARK  status: ('A' for Active; 'I' for Inactive)
REMARK    1  A    between atoms: N_6  and  C_7 
REMARK    2  A    between atoms: C_7  and  C_8 
REMARK       I    between atoms: C_8  and  N_10 
REMARK    3  A    between atoms: N_10  and  C_11 
REMARK    4  A    between atoms: C_11  and  C_12 
REMARK    5  A    between atoms: C_12  and  C_13 
ROOT
HETATM    1  C   UNL     1     -40.991 -50.218  12.037  1.00  0.00     0.237 C 
HETATM    2  O   UNL     1     -41.199 -50.049  13.240  1.00  0.00    -0.272 OA
HETATM    3  N   UNL     1     -41.158 -51.453  11.437  1.00  0.00    -0.359 N 
HETATM    4  H   UNL     1     -40.770 -51.591  10.509  1.00  0.00     0.162 HD
ENDROOT
BRANCH   1   5
HETATM    5  C   UNL     1     -40.357 -49.123  11.189  1.00  0.00     0.255 C 
BRANCH   5   6
HETATM    6  N   UNL     1     -41.299 -48.089  10.767  1.00  0.00    -0.248 N 
HETATM    7  N   UNL     1     -42.310 -48.483   9.922  1.00  0.00    -0.305 N 
HETATM    8  C   UNL     1     -43.074 -47.550   9.453  1.00  0.00     0.133 A 
ATOM      9  HN  UNL     1     -42.451 -49.463   9.677  1.00  0.00     0.186 HD
HETATM   10  C   UNL     1     -42.970 -46.119   9.763  1.00  0.00     0.078 A 
HETATM   11 CL   UNL     1     -44.112 -45.077   9.023  1.00  0.00    -0.081 Cl
HETATM   12  C   UNL     1     -42.003 -45.749  10.603  1.00  0.00     0.126 A 
HETATM   13  C   UNL     1     -41.073 -46.770  11.165  1.00  0.00     0.285 A 
HETATM   14 CL   UNL     1     -41.746 -44.107  11.075  1.00  0.00    -0.076 Cl
HETATM   15  O   UNL     1     -40.160 -46.447  11.922  1.00  0.00    -0.265 OA
ENDBRANCH   5   6
ENDBRANCH   1   5
BRANCH   3  16
HETATM   16  C   UNL     1     -41.641 -52.564  12.235  1.00  0.00     0.127 C 
BRANCH  16  17
HETATM   17  C   UNL     1     -40.546 -53.421  12.877  1.00  0.00     0.053 C 
BRANCH  17  18
HETATM   18  C   UNL     1     -41.058 -54.221  14.067  1.00  0.00    -0.082 A 
HETATM   19  C   UNL     1     -42.359 -54.515  14.207  1.00  0.00    -0.024 A 
HETATM   20  C   UNL     1     -42.946 -55.285  15.343  1.00  0.00     0.027 A 
HETATM   21  C   UNL     1     -41.990 -55.791  16.416  1.00  0.00     0.004 A 
HETATM   22  C   UNL     1     -40.507 -55.471  16.280  1.00  0.00     0.005 A 
HETATM   23  C   UNL     1     -40.035 -54.644  15.083  1.00  0.00     0.034 A 
ENDBRANCH  17  18
ENDBRANCH  16  17
ENDBRANCH   3  16
TORSDOF 5
ENDMDL
MODEL 8
REMARK VINA RESULT:      -5.9      2.095      2.604
REMARK  5 active torsions:
REMARK  status: ('A' for Active; 'I' for Inactive)
REMARK    1  A    between atoms: N_6  and  C_7 
REMARK    2  A    between atoms: C_7  and  C_8 
REMARK       I    between atoms: C_8  and  N_10 
REMARK    3  A    between atoms: N_10  and  C_11 
REMARK    4  A    between atoms: C_11  and  C_12 
REMARK    5  A    between atoms: C_12  and  C_13 
ROOT
HETATM    1  C   UNL     1     -43.056 -52.464  12.598  1.00  0.00     0.237 C 
HETATM    2  O   UNL     1     -43.412 -51.712  13.509  1.00  0.00    -0.272 OA
HETATM    3  N   UNL     1     -43.833 -53.534  12.194  1.00  0.00    -0.359 N 
HETATM    4  H   UNL     1     -43.407 -54.239  11.602  1.00  0.00     0.162 HD
ENDROOT
BRANCH   1   5
HETATM    5  C   UNL     1     -41.659 -52.366  12.001  1.00  0.00     0.255 C 
BRANCH   5   6
HETATM    6  N   UNL     1     -41.135 -51.003  11.952  1.00  0.00    -0.248 N 
HETATM    7  N   UNL     1     -42.000 -50.026  11.515  1.00  0.00    -0.305 N 
HETATM    8  C   UNL     1     -41.507 -48.841  11.358  1.00  0.00     0.133 A 
ATOM      9  HN  UNL     1     -42.982 -50.227  11.325  1.00  0.00     0.186 HD
HETATM   10  C   UNL     1     -40.119 -48.446  11.627  1.00  0.00     0.078 A 
HETATM   11 CL   UNL     1     -39.710 -46.804  11.350  1.00  0.00    -0.081 Cl
HETATM   12  C   UNL     1     -39.295 -49.393  12.074  1.00  0.00     0.126 A 
HETATM   13  C   UNL     1     -39.791 -50.787  12.259  1.00  0.00     0.285 A 
HETATM   14 CL   UNL     1     -37.633 -49.095  12.442  1.00  0.00    -0.076 Cl
HETATM   15  O   UNL     1     -39.042 -51.680  12.647  1.00  0.00    -0.265 OA
ENDBRANCH   5   6
ENDBRANCH   1   5
BRANCH   3  16
HETATM   16  C   UNL     1     -45.124 -53.744  12.823  1.00  0.00     0.127 C 
BRANCH  16  17
HETATM   17  C   UNL     1     -45.191 -54.943  13.772  1.00  0.00     0.053 C 
BRANCH  17  18
HETATM   18  C   UNL     1     -44.415 -54.707  15.062  1.00  0.00    -0.082 A 
HETATM   19  C   UNL     1     -44.923 -53.970  16.060  1.00  0.00    -0.024 A 
HETATM   20  C   UNL     1     -44.231 -53.682  17.350  1.00  0.00     0.027 A 
HETATM   21  C   UNL     1     -42.848 -54.289  17.555  1.00  0.00     0.004 A 
HETATM   22  C   UNL     1     -42.249 -55.131  16.435  1.00  0.00     0.005 A 
HETATM   23  C   UNL     1     -43.048 -55.325  15.147  1.00  0.00     0.034 A 
ENDBRANCH  17  18
ENDBRANCH  16  17
ENDBRANCH   3  16
TORSDOF 5
ENDMDL
MODEL 9
REMARK VINA RESULT:      -5.9      3.918      6.374
REMARK  5 active torsions:
REMARK  status: ('A' for Active; 'I' for Inactive)
REMARK    1  A    between atoms: N_6  and  C_7 
REMARK    2  A    between atoms: C_7  and  C_8 
REMARK       I    between atoms: C_8  and  N_10 
REMARK    3  A    between atoms: N_10  and  C_11 
REMARK    4  A    between atoms: C_11  and  C_12 
REMARK    5  A    between atoms: C_12  and  C_13 
ROOT
HETATM    1  C   UNL     1     -40.924 -50.945  12.344  1.00  0.00     0.237 C 
HETATM    2  O   UNL     1     -40.816 -50.662  13.539  1.00  0.00    -0.272 OA
HETATM    3  N   UNL     1     -41.159 -49.977  11.386  1.00  0.00    -0.359 N 
HETATM    4  H   UNL     1     -41.453 -50.278  10.462  1.00  0.00     0.162 HD
ENDROOT
BRANCH   1   5
HETATM    5  C   UNL     1     -40.993 -52.396  11.885  1.00  0.00     0.255 C 
BRANCH   5   6
HETATM    6  N   UNL     1     -42.107 -53.143  12.465  1.00  0.00    -0.248 N 
HETATM    7  N   UNL     1     -43.342 -52.954  11.889  1.00  0.00    -0.305 N 
HETATM    8  C   UNL     1     -44.348 -53.520  12.472  1.00  0.00     0.133 A 
ATOM      9  HN  UNL     1     -43.458 -52.394  11.044  1.00  0.00     0.186 HD
HETATM   10  C   UNL     1     -44.282 -54.362  13.673  1.00  0.00     0.078 A 
HETATM   11 CL   UNL     1     -45.760 -55.012  14.250  1.00  0.00    -0.081 Cl
HETATM   12  C   UNL     1     -43.078 -54.561  14.209  1.00  0.00     0.126 A 
HETATM   13  C   UNL     1     -41.876 -53.921  13.600  1.00  0.00     0.285 A 
HETATM   14 CL   UNL     1     -42.825 -55.528  15.618  1.00  0.00    -0.076 Cl
HETATM   15  O   UNL     1     -40.760 -54.072  14.093  1.00  0.00    -0.265 OA
ENDBRANCH   5   6
ENDBRANCH   1   5
BRANCH   3  16
HETATM   16  C   UNL     1     -41.228 -48.586  11.793  1.00  0.00     0.127 C 
BRANCH  16  17
HETATM   17  C   UNL     1     -42.627 -48.094  12.171  1.00  0.00     0.053 C 
BRANCH  17  18
HETATM   18  C   UNL     1     -43.299 -47.326  11.040  1.00  0.00    -0.082 A 
HETATM   19  C   UNL     1     -44.356 -47.827  10.383  1.00  0.00    -0.024 A 
HETATM   20  C   UNL     1     -45.067 -47.149   9.261  1.00  0.00     0.027 A 
HETATM   21  C   UNL     1     -44.565 -45.773   8.842  1.00  0.00     0.004 A 
HETATM   22  C   UNL     1     -43.366 -45.181   9.573  1.00  0.00     0.005 A 
HETATM   23  C   UNL     1     -42.705 -45.992  10.687  1.00  0.00     0.034 A 
ENDBRANCH  17  18
ENDBRANCH  16  17
ENDBRANCH   3  16
TORSDOF 5
ENDMDL
