MODEL 1
REMARK VINA RESULT:      -6.0      0.000      0.000
REMARK  4 active torsions:
REMARK  status: ('A' for Active; 'I' for Inactive)
REMARK    1  A    between atoms: O_2  and  C_3 
REMARK    2  A    between atoms: C_9  and  N_10 
REMARK       I    between atoms: N_10  and  C_11 
REMARK       I    between atoms: C_11  and  N_13 
REMARK    3  A    between atoms: N_13  and  C_14 
REMARK    4  A    between atoms: C_14  and  C_15 
ROOT
HETATM    1  N   UNL     1     -40.671 -49.483  10.499  1.00  0.00    -0.305 N 
HETATM    2  C   UNL     1     -41.561 -48.450  10.686  1.00  0.00     0.320 C 
HETATM    3  O   UNL     1     -41.805 -47.905  11.757  1.00  0.00    -0.247 OA
HETATM    4  N   UNL     1     -42.199 -48.071   9.521  1.00  0.00    -0.342 N 
HETATM    5  H   UNL     1     -40.832 -50.104   9.714  1.00  0.00     0.171 HD
HETATM    6  H   UNL     1     -41.654 -48.198   8.678  1.00  0.00     0.164 HD
ENDROOT
BRANCH   1   7
HETATM    7  C   UNL     1     -39.805 -49.983  11.509  1.00  0.00     0.087 A 
HETATM    8  C   UNL     1     -40.162 -51.094  12.282  1.00  0.00     0.169 A 
HETATM    9  N   UNL     1     -39.387 -51.616  13.267  1.00  0.00    -0.345 N 
HETATM   10  C   UNL     1     -38.214 -50.999  13.513  1.00  0.00     0.090 A 
ATOM     11  HN  UNL     1     -39.678 -52.437  13.797  1.00  0.00     0.167 HD
HETATM   12  C   UNL     1     -37.766 -49.899  12.808  1.00  0.00     0.019 A 
HETATM   13  C   UNL     1     -38.566 -49.399  11.786  1.00  0.00     0.035 A 
BRANCH   8  14
HETATM   14  O   UNL     1     -41.393 -51.683  12.037  1.00  0.00    -0.339 OA
HETATM   15  C   UNL     1     -42.320 -51.428  13.094  1.00  0.00     0.211 C 
ENDBRANCH   8  14
ENDBRANCH   1   7
BRANCH   4  16
HETATM   16  C   UNL     1     -43.073 -46.909   9.572  1.00  0.00     0.131 C 
BRANCH  16  17
HETATM   17  C   UNL     1     -44.316 -47.048   8.708  1.00  0.00     0.029 C 
HETATM   18  C   UNL     1     -45.546 -47.465   9.502  1.00  0.00     0.034 C 
HETATM   19  C   UNL     1     -46.323 -48.368   8.561  1.00  0.00     0.168 C 
HETATM   20  O   UNL     1     -45.559 -48.497   7.357  1.00  0.00    -0.391 OA
HETATM   21  C   UNL     1     -44.206 -48.156   7.679  1.00  0.00     0.173 C 
ENDBRANCH  16  17
ENDBRANCH   4  16
TORSDOF 4
ENDMDL
MODEL 2
REMARK VINA RESULT:      -5.7      1.951      6.905
REMARK  4 active torsions:
REMARK  status: ('A' for Active; 'I' for Inactive)
REMARK    1  A    between atoms: O_2  and  C_3 
REMARK    2  A    between atoms: C_9  and  N_10 
REMARK       I    between atoms: N_10  and  C_11 
REMARK       I    between atoms: C_11  and  N_13 
REMARK    3  A    between atoms: N_13  and  C_14 
REMARK    4  A    between atoms: C_14  and  C_15 
ROOT
HETATM    1  N   UNL     1     -42.401 -48.117   9.562  1.00  0.00    -0.305 N 
HETATM    2  C   UNL     1     -41.949 -48.459  10.816  1.00  0.00     0.320 C 
HETATM    3  O   UNL     1     -42.433 -48.076  11.877  1.00  0.00    -0.247 OA
HETATM    4  N   UNL     1     -40.847 -49.290  10.784  1.00  0.00    -0.342 N 
HETATM    5  H   UNL     1     -41.733 -48.142   8.800  1.00  0.00     0.171 HD
HETATM    6  H   UNL     1     -40.804 -49.907   9.984  1.00  0.00     0.164 HD
ENDROOT
BRANCH   1   7
HETATM    7  C   UNL     1     -43.585 -47.369   9.317  1.00  0.00     0.087 A 
HETATM    8  C   UNL     1     -43.567 -45.969   9.315  1.00  0.00     0.169 A 
HETATM    9  N   UNL     1     -44.660 -45.195   9.098  1.00  0.00    -0.345 N 
HETATM   10  C   UNL     1     -45.829 -45.834   8.891  1.00  0.00     0.090 A 
ATOM     11  HN  UNL     1     -44.601 -44.177   9.091  1.00  0.00     0.167 HD
HETATM   12  C   UNL     1     -45.957 -47.209   8.869  1.00  0.00     0.019 A 
HETATM   13  C   UNL     1     -44.817 -47.980   9.069  1.00  0.00     0.035 A 
BRANCH   8  14
HETATM   14  O   UNL     1     -42.359 -45.338   9.574  1.00  0.00    -0.339 OA
HETATM   15  C   UNL     1     -42.364 -44.690  10.847  1.00  0.00     0.211 C 
ENDBRANCH   8  14
ENDBRANCH   1   7
BRANCH   4  16
HETATM   16  C   UNL     1     -40.353 -49.814  12.048  1.00  0.00     0.131 C 
BRANCH  16  17
HETATM   17  C   UNL     1     -40.052 -51.303  12.011  1.00  0.00     0.029 C 
HETATM   18  C   UNL     1     -41.305 -52.160  11.908  1.00  0.00     0.034 C 
HETATM   19  C   UNL     1     -40.995 -53.396  12.733  1.00  0.00     0.168 C 
HETATM   20  O   UNL     1     -39.694 -53.219  13.302  1.00  0.00    -0.391 OA
HETATM   21  C   UNL     1     -39.415 -51.815  13.289  1.00  0.00     0.173 C 
ENDBRANCH  16  17
ENDBRANCH   4  16
TORSDOF 4
ENDMDL
MODEL 3
REMARK VINA RESULT:      -5.7      3.397      5.798
REMARK  4 active torsions:
REMARK  status: ('A' for Active; 'I' for Inactive)
REMARK    1  A    between atoms: O_2  and  C_3 
REMARK    2  A    between atoms: C_9  and  N_10 
REMARK       I    between atoms: N_10  and  C_11 
REMARK       I    between atoms: C_11  and  N_13 
REMARK    3  A    between atoms: N_13  and  C_14 
REMARK    4  A    between atoms: C_14  and  C_15 
ROOT
HETATM    1  N   UNL     1     -40.882 -51.233  11.359  1.00  0.00    -0.305 N 
HETATM    2  C   UNL     1     -41.191 -51.939  12.499  1.00  0.00     0.320 C 
HETATM    3  O   UNL     1     -41.198 -51.485  13.639  1.00  0.00    -0.247 OA
HETATM    4  N   UNL     1     -41.486 -53.265  12.250  1.00  0.00    -0.342 N 
HETATM    5  H   UNL     1     -40.521 -51.755  10.569  1.00  0.00     0.171 HD
HETATM    6  H   UNL     1     -41.908 -53.443  11.347  1.00  0.00     0.164 HD
ENDROOT
BRANCH   1   7
HETATM    7  C   UNL     1     -40.653 -49.831  11.326  1.00  0.00     0.087 A 
HETATM    8  C   UNL     1     -39.378 -49.302  11.556  1.00  0.00     0.169 A 
HETATM    9  N   UNL     1     -39.092 -47.974  11.548  1.00  0.00    -0.345 N 
HETATM   10  C   UNL     1     -40.119 -47.131  11.322  1.00  0.00     0.090 A 
ATOM     11  HN  UNL     1     -38.145 -47.631  11.706  1.00  0.00     0.167 HD
HETATM   12  C   UNL     1     -41.413 -47.547  11.081  1.00  0.00     0.019 A 
HETATM   13  C   UNL     1     -41.675 -48.913  11.068  1.00  0.00     0.035 A 
BRANCH   8  14
HETATM   14  O   UNL     1     -38.349 -50.191  11.829  1.00  0.00    -0.339 OA
HETATM   15  C   UNL     1     -37.223 -49.973  10.976  1.00  0.00     0.211 C 
ENDBRANCH   8  14
ENDBRANCH   1   7
BRANCH   4  16
HETATM   16  C   UNL     1     -41.944 -54.081  13.363  1.00  0.00     0.131 C 
BRANCH  16  17
HETATM   17  C   UNL     1     -43.409 -53.870  13.708  1.00  0.00     0.029 C 
HETATM   18  C   UNL     1     -44.042 -55.082  14.376  1.00  0.00     0.034 C 
HETATM   19  C   UNL     1     -45.468 -55.108  13.855  1.00  0.00     0.168 C 
HETATM   20  O   UNL     1     -45.605 -54.031  12.922  1.00  0.00    -0.391 OA
HETATM   21  C   UNL     1     -44.288 -53.680  12.486  1.00  0.00     0.173 C 
ENDBRANCH  16  17
ENDBRANCH   4  16
TORSDOF 4
ENDMDL
MODEL 4
REMARK VINA RESULT:      -5.7      1.982      7.122
REMARK  4 active torsions:
REMARK  status: ('A' for Active; 'I' for Inactive)
REMARK    1  A    between atoms: O_2  and  C_3 
REMARK    2  A    between atoms: C_9  and  N_10 
REMARK       I    between atoms: N_10  and  C_11 
REMARK       I    between atoms: C_11  and  N_13 
REMARK    3  A    between atoms: N_13  and  C_14 
REMARK    4  A    between atoms: C_14  and  C_15 
ROOT
HETATM    1  N   UNL     1     -41.967 -48.197   9.464  1.00  0.00    -0.305 N 
HETATM    2  C   UNL     1     -41.589 -48.759  10.662  1.00  0.00     0.320 C 
HETATM    3  O   UNL     1     -42.104 -48.529  11.751  1.00  0.00    -0.247 OA
HETATM    4  N   UNL     1     -40.522 -49.628  10.537  1.00  0.00    -0.342 N 
HETATM    5  H   UNL     1     -41.266 -48.132   8.735  1.00  0.00     0.171 HD
HETATM    6  H   UNL     1     -40.469 -50.109   9.649  1.00  0.00     0.164 HD
ENDROOT
BRANCH   1   7
HETATM    7  C   UNL     1     -43.105 -47.361   9.299  1.00  0.00     0.087 A 
HETATM    8  C   UNL     1     -43.013 -45.975   9.467  1.00  0.00     0.169 A 
HETATM    9  N   UNL     1     -44.060 -45.121   9.333  1.00  0.00    -0.345 N 
HETATM   10  C   UNL     1     -45.258 -45.666   9.039  1.00  0.00     0.090 A 
ATOM     11  HN  UNL     1     -43.947 -44.114   9.450  1.00  0.00     0.167 HD
HETATM   12  C   UNL     1     -45.457 -47.019   8.849  1.00  0.00     0.019 A 
HETATM   13  C   UNL     1     -44.363 -47.870   8.966  1.00  0.00     0.035 A 
BRANCH   8  14
HETATM   14  O   UNL     1     -41.778 -45.446   9.812  1.00  0.00    -0.339 OA
HETATM   15  C   UNL     1     -41.785 -44.913  11.138  1.00  0.00     0.211 C 
ENDBRANCH   8  14
ENDBRANCH   1   7
BRANCH   4  16
HETATM   16  C   UNL     1     -40.111 -50.373  11.717  1.00  0.00     0.131 C 
BRANCH  16  17
HETATM   17  C   UNL     1     -38.777 -49.920  12.285  1.00  0.00     0.029 C 
HETATM   18  C   UNL     1     -38.059 -51.017  13.059  1.00  0.00     0.034 C 
HETATM   19  C   UNL     1     -37.365 -50.292  14.199  1.00  0.00     0.168 C 
HETATM   20  O   UNL     1     -37.715 -48.907  14.106  1.00  0.00    -0.391 OA
HETATM   21  C   UNL     1     -38.914 -48.827  13.328  1.00  0.00     0.173 C 
ENDBRANCH  16  17
ENDBRANCH   4  16
TORSDOF 4
ENDMDL
MODEL 5
REMARK VINA RESULT:      -5.7      1.313      2.078
REMARK  4 active torsions:
REMARK  status: ('A' for Active; 'I' for Inactive)
REMARK    1  A    between atoms: O_2  and  C_3 
REMARK    2  A    between atoms: C_9  and  N_10 
REMARK       I    between atoms: N_10  and  C_11 
REMARK       I    between atoms: C_11  and  N_13 
REMARK    3  A    between atoms: N_13  and  C_14 
REMARK    4  A    between atoms: C_14  and  C_15 
ROOT
HETATM    1  N   UNL     1     -40.686 -49.960  10.741  1.00  0.00    -0.305 N 
HETATM    2  C   UNL     1     -41.589 -48.932  10.893  1.00  0.00     0.320 C 
HETATM    3  O   UNL     1     -42.226 -48.688  11.912  1.00  0.00    -0.247 OA
HETATM    4  N   UNL     1     -41.741 -48.174   9.748  1.00  0.00    -0.342 N 
HETATM    5  H   UNL     1     -40.532 -50.313   9.804  1.00  0.00     0.171 HD
HETATM    6  H   UNL     1     -40.916 -48.117   9.165  1.00  0.00     0.164 HD
ENDROOT
BRANCH   1   7
HETATM    7  C   UNL     1     -40.264 -50.813  11.797  1.00  0.00     0.087 A 
HETATM    8  C   UNL     1     -39.136 -50.504  12.567  1.00  0.00     0.169 A 
HETATM    9  N   UNL     1     -38.673 -51.279  13.581  1.00  0.00    -0.345 N 
HETATM   10  C   UNL     1     -39.345 -52.420  13.834  1.00  0.00     0.090 A 
ATOM     11  HN  UNL     1     -37.855 -51.010  14.128  1.00  0.00     0.167 HD
HETATM   12  C   UNL     1     -40.470 -52.815  13.138  1.00  0.00     0.019 A 
HETATM   13  C   UNL     1     -40.939 -51.992  12.120  1.00  0.00     0.035 A 
BRANCH   8  14
HETATM   14  O   UNL     1     -38.439 -49.346  12.256  1.00  0.00    -0.339 OA
HETATM   15  C   UNL     1     -38.297 -48.495  13.395  1.00  0.00     0.211 C 
ENDBRANCH   8  14
ENDBRANCH   1   7
BRANCH   4  16
HETATM   16  C   UNL     1     -42.579 -46.988   9.824  1.00  0.00     0.131 C 
BRANCH  16  17
HETATM   17  C   UNL     1     -43.757 -47.015   8.865  1.00  0.00     0.029 C 
HETATM   18  C   UNL     1     -45.061 -47.420   9.538  1.00  0.00     0.034 C 
HETATM   19  C   UNL     1     -45.801 -48.227   8.487  1.00  0.00     0.168 C 
HETATM   20  O   UNL     1     -44.954 -48.318   7.337  1.00  0.00    -0.391 OA
HETATM   21  C   UNL     1     -43.617 -48.063   7.777  1.00  0.00     0.173 C 
ENDBRANCH  16  17
ENDBRANCH   4  16
TORSDOF 4
ENDMDL
MODEL 6
REMARK VINA RESULT:      -5.7      2.121      3.433
REMARK  4 active torsions:
REMARK  status: ('A' for Active; 'I' for Inactive)
REMARK    1  A    between atoms: O_2  and  C_3 
REMARK    2  A    between atoms: C_9  and  N_10 
REMARK       I    between atoms: N_10  and  C_11 
REMARK       I    between atoms: C_11  and  N_13 
REMARK    3  A    between atoms: N_13  and  C_14 
REMARK    4  A    between atoms: C_14  and  C_15 
ROOT
HETATM    1  N   UNL     1     -41.152 -51.262  11.391  1.00  0.00    -0.305 N 
HETATM    2  C   UNL     1     -41.322 -49.929  11.687  1.00  0.00     0.320 C 
HETATM    3  O   UNL     1     -41.714 -49.481  12.760  1.00  0.00    -0.247 OA
HETATM    4  N   UNL     1     -41.019 -49.098  10.626  1.00  0.00    -0.342 N 
HETATM    5  H   UNL     1     -41.221 -51.538  10.418  1.00  0.00     0.171 HD
HETATM    6  H   UNL     1     -40.303 -49.449  10.003  1.00  0.00     0.164 HD
ENDROOT
BRANCH   1   7
HETATM    7  C   UNL     1     -41.285 -52.313  12.338  1.00  0.00     0.087 A 
HETATM    8  C   UNL     1     -40.190 -52.742  13.098  1.00  0.00     0.169 A 
HETATM    9  N   UNL     1     -40.245 -53.745  14.012  1.00  0.00    -0.345 N 
HETATM   10  C   UNL     1     -41.432 -54.364  14.168  1.00  0.00     0.090 A 
ATOM     11  HN  UNL     1     -39.426 -54.017  14.556  1.00  0.00     0.167 HD
HETATM   12  C   UNL     1     -42.574 -54.017  13.473  1.00  0.00     0.019 A 
HETATM   13  C   UNL     1     -42.498 -52.970  12.561  1.00  0.00     0.035 A 
BRANCH   8  14
HETATM   14  O   UNL     1     -38.971 -52.116  12.886  1.00  0.00    -0.339 OA
HETATM   15  C   UNL     1     -38.562 -51.358  14.026  1.00  0.00     0.211 C 
ENDBRANCH   8  14
ENDBRANCH   1   7
BRANCH   4  16
HETATM   16  C   UNL     1     -41.046 -47.662  10.858  1.00  0.00     0.131 C 
BRANCH  16  17
HETATM   17  C   UNL     1     -42.373 -47.015  10.501  1.00  0.00     0.029 C 
HETATM   18  C   UNL     1     -42.993 -47.592   9.237  1.00  0.00     0.034 C 
HETATM   19  C   UNL     1     -43.670 -46.410   8.566  1.00  0.00     0.168 C 
HETATM   20  O   UNL     1     -43.400 -45.250   9.360  1.00  0.00    -0.391 OA
HETATM   21  C   UNL     1     -42.246 -45.543  10.154  1.00  0.00     0.173 C 
ENDBRANCH  16  17
ENDBRANCH   4  16
TORSDOF 4
ENDMDL
MODEL 7
REMARK VINA RESULT:      -5.6      2.859      5.754
REMARK  4 active torsions:
REMARK  status: ('A' for Active; 'I' for Inactive)
REMARK    1  A    between atoms: O_2  and  C_3 
REMARK    2  A    between atoms: C_9  and  N_10 
REMARK       I    between atoms: N_10  and  C_11 
REMARK       I    between atoms: C_11  and  N_13 
REMARK    3  A    between atoms: N_13  and  C_14 
REMARK    4  A    between atoms: C_14  and  C_15 
ROOT
HETATM    1  N   UNL     1     -42.111 -49.420  11.353  1.00  0.00    -0.305 N 
HETATM    2  C   UNL     1     -42.829 -49.705  12.492  1.00  0.00     0.320 C 
HETATM    3  O   UNL     1     -43.022 -48.932  13.425  1.00  0.00    -0.247 OA
HETATM    4  N   UNL     1     -43.321 -50.996  12.510  1.00  0.00    -0.342 N 
HETATM    5  H   UNL     1     -41.682 -50.197  10.863  1.00  0.00     0.171 HD
HETATM    6  H   UNL     1     -43.536 -51.381  11.599  1.00  0.00     0.164 HD
ENDROOT
BRANCH   1   7
HETATM    7  C   UNL     1     -41.596 -48.134  11.035  1.00  0.00     0.087 A 
HETATM    8  C   UNL     1     -42.295 -47.266  10.188  1.00  0.00     0.169 A 
HETATM    9  N   UNL     1     -41.857 -46.030   9.837  1.00  0.00    -0.345 N 
HETATM   10  C   UNL     1     -40.664 -45.642  10.330  1.00  0.00     0.090 A 
ATOM     11  HN  UNL     1     -42.405 -45.422   9.228  1.00  0.00     0.167 HD
HETATM   12  C   UNL     1     -39.896 -46.418  11.175  1.00  0.00     0.019 A 
HETATM   13  C   UNL     1     -40.379 -47.671  11.541  1.00  0.00     0.035 A 
BRANCH   8  14
HETATM   14  O   UNL     1     -43.499 -47.708   9.661  1.00  0.00    -0.339 OA
HETATM   15  C   UNL     1     -43.539 -47.560   8.240  1.00  0.00     0.211 C 
ENDBRANCH   8  14
ENDBRANCH   1   7
BRANCH   4  16
HETATM   16  C   UNL     1     -44.197 -51.374  13.608  1.00  0.00     0.131 C 
BRANCH  16  17
HETATM   17  C   UNL     1     -45.118 -52.536  13.277  1.00  0.00     0.029 C 
HETATM   18  C   UNL     1     -45.846 -53.083  14.497  1.00  0.00     0.034 C 
HETATM   19  C   UNL     1     -45.936 -54.579  14.253  1.00  0.00     0.168 C 
HETATM   20  O   UNL     1     -45.259 -54.857  13.023  1.00  0.00    -0.391 OA
HETATM   21  C   UNL     1     -44.376 -53.759  12.770  1.00  0.00     0.173 C 
ENDBRANCH  16  17
ENDBRANCH   4  16
TORSDOF 4
ENDMDL
MODEL 8
REMARK VINA RESULT:      -5.6      3.286      5.284
REMARK  4 active torsions:
REMARK  status: ('A' for Active; 'I' for Inactive)
REMARK    1  A    between atoms: O_2  and  C_3 
REMARK    2  A    between atoms: C_9  and  N_10 
REMARK       I    between atoms: N_10  and  C_11 
REMARK       I    between atoms: C_11  and  N_13 
REMARK    3  A    between atoms: N_13  and  C_14 
REMARK    4  A    between atoms: C_14  and  C_15 
ROOT
HETATM    1  N   UNL     1     -42.904 -52.578  12.075  1.00  0.00    -0.305 N 
HETATM    2  C   UNL     1     -42.470 -51.324  12.441  1.00  0.00     0.320 C 
HETATM    3  O   UNL     1     -42.767 -50.742  13.479  1.00  0.00    -0.247 OA
HETATM    4  N   UNL     1     -41.650 -50.739  11.496  1.00  0.00    -0.342 N 
HETATM    5  H   UNL     1     -42.941 -52.789  11.084  1.00  0.00     0.171 HD
HETATM    6  H   UNL     1     -41.096 -51.390  10.954  1.00  0.00     0.164 HD
ENDROOT
BRANCH   1   7
HETATM    7  C   UNL     1     -43.661 -53.437  12.916  1.00  0.00     0.087 A 
HETATM    8  C   UNL     1     -45.057 -53.489  12.824  1.00  0.00     0.169 A 
HETATM    9  N   UNL     1     -45.841 -54.280  13.602  1.00  0.00    -0.345 N 
HETATM   10  C   UNL     1     -45.217 -55.039  14.525  1.00  0.00     0.090 A 
ATOM     11  HN  UNL     1     -46.855 -54.299  13.493  1.00  0.00     0.167 HD
HETATM   12  C   UNL     1     -43.847 -55.065  14.695  1.00  0.00     0.019 A 
HETATM   13  C   UNL     1     -43.064 -54.266  13.869  1.00  0.00     0.035 A 
BRANCH   8  14
HETATM   14  O   UNL     1     -45.676 -52.665  11.896  1.00  0.00    -0.339 OA
HETATM   15  C   UNL     1     -46.513 -51.694  12.527  1.00  0.00     0.211 C 
ENDBRANCH   8  14
ENDBRANCH   1   7
BRANCH   4  16
HETATM   16  C   UNL     1     -41.033 -49.463  11.826  1.00  0.00     0.131 C 
BRANCH  16  17
HETATM   17  C   UNL     1     -41.300 -48.377  10.798  1.00  0.00     0.029 C 
HETATM   18  C   UNL     1     -40.561 -47.081  11.099  1.00  0.00     0.034 C 
HETATM   19  C   UNL     1     -41.512 -45.984  10.654  1.00  0.00     0.168 C 
HETATM   20  O   UNL     1     -42.713 -46.613  10.196  1.00  0.00    -0.391 OA
HETATM   21  C   UNL     1     -42.747 -47.924  10.771  1.00  0.00     0.173 C 
ENDBRANCH  16  17
ENDBRANCH   4  16
TORSDOF 4
ENDMDL
MODEL 9
REMARK VINA RESULT:      -5.4      2.143      5.998
REMARK  4 active torsions:
REMARK  status: ('A' for Active; 'I' for Inactive)
REMARK    1  A    between atoms: O_2  and  C_3 
REMARK    2  A    between atoms: C_9  and  N_10 
REMARK       I    between atoms: N_10  and  C_11 
REMARK       I    between atoms: C_11  and  N_13 
REMARK    3  A    between atoms: N_13  and  C_14 
REMARK    4  A    between atoms: C_14  and  C_15 
ROOT
HETATM    1  N   UNL     1     -41.211 -48.703  10.524  1.00  0.00    -0.305 N 
HETATM    2  C   UNL     1     -40.769 -49.515  11.543  1.00  0.00     0.320 C 
HETATM    3  O   UNL     1     -40.439 -49.137  12.663  1.00  0.00    -0.247 OA
HETATM    4  N   UNL     1     -40.707 -50.847  11.184  1.00  0.00    -0.342 N 
HETATM    5  H   UNL     1     -41.072 -49.027   9.573  1.00  0.00     0.171 HD
HETATM    6  H   UNL     1     -41.389 -51.133  10.494  1.00  0.00     0.164 HD
ENDROOT
BRANCH   1   7
HETATM    7  C   UNL     1     -41.474 -47.314  10.667  1.00  0.00     0.087 A 
HETATM    8  C   UNL     1     -42.786 -46.827  10.703  1.00  0.00     0.169 A 
HETATM    9  N   UNL     1     -43.107 -45.513  10.828  1.00  0.00    -0.345 N 
HETATM   10  C   UNL     1     -42.083 -44.640  10.902  1.00  0.00     0.090 A 
ATOM     11  HN  UNL     1     -44.077 -45.202  10.864  1.00  0.00     0.167 HD
HETATM   12  C   UNL     1     -40.754 -45.014  10.880  1.00  0.00     0.019 A 
HETATM   13  C   UNL     1     -40.451 -46.368  10.777  1.00  0.00     0.035 A 
BRANCH   8  14
HETATM   14  O   UNL     1     -43.819 -47.744  10.581  1.00  0.00    -0.339 OA
HETATM   15  C   UNL     1     -44.675 -47.431   9.480  1.00  0.00     0.211 C 
ENDBRANCH   8  14
ENDBRANCH   1   7
BRANCH   4  16
HETATM   16  C   UNL     1     -40.368 -51.815  12.216  1.00  0.00     0.131 C 
BRANCH  16  17
HETATM   17  C   UNL     1     -41.341 -52.979  12.298  1.00  0.00     0.029 C 
HETATM   18  C   UNL     1     -42.778 -52.535  12.533  1.00  0.00     0.034 C 
HETATM   19  C   UNL     1     -43.372 -53.610  13.426  1.00  0.00     0.168 C 
HETATM   20  O   UNL     1     -42.333 -54.551  13.717  1.00  0.00    -0.391 OA
HETATM   21  C   UNL     1     -41.086 -53.887  13.485  1.00  0.00     0.173 C 
ENDBRANCH  16  17
ENDBRANCH   4  16
TORSDOF 4
ENDMDL
