MODEL 1
REMARK VINA RESULT:      -6.6      0.000      0.000
REMARK  6 active torsions:
REMARK  status: ('A' for Active; 'I' for Inactive)
REMARK    1  A    between atoms: N_11  and  C_12 
REMARK    2  A    between atoms: C_12  and  C_13 
REMARK    3  A    between atoms: C_13  and  O_14 
REMARK    4  A    between atoms: C_13  and  C_15 
REMARK    5  A    between atoms: C_15  and  O_16 
REMARK    6  A    between atoms: O_16  and  C_17 
ROOT
HETATM    1  C   UNL     1     -40.452 -55.297  16.219  1.00  0.00     0.164 C 
HETATM    2  N   UNL     1     -41.138 -54.597  15.149  1.00  0.00    -0.269 N 
HETATM    3  C   UNL     1     -40.403 -53.685  14.367  1.00  0.00     0.332 A 
HETATM    4  O   UNL     1     -39.207 -53.473  14.580  1.00  0.00    -0.246 OA
HETATM    5  N   UNL     1     -41.088 -53.038  13.337  1.00  0.00    -0.287 N 
HETATM    6  C   UNL     1     -40.405 -52.083  12.482  1.00  0.00     0.163 C 
HETATM    7  C   UNL     1     -42.416 -53.321  13.126  1.00  0.00     0.145 A 
HETATM    8  N   UNL     1     -43.202 -52.790  12.151  1.00  0.00    -0.336 N 
ATOM      9  HN  UNL     1     -42.941 -52.102  11.444  1.00  0.00     0.168 HD
HETATM   10  C   UNL     1     -44.376 -53.362  12.323  1.00  0.00     0.185 A 
HETATM   11  N   UNL     1     -44.357 -54.257  13.366  1.00  0.00    -0.333 N 
HETATM   12  C   UNL     1     -43.097 -54.215  13.898  1.00  0.00     0.149 A 
HETATM   13  C   UNL     1     -42.488 -54.913  14.977  1.00  0.00     0.282 A 
HETATM   14  O   UNL     1     -43.089 -55.734  15.665  1.00  0.00    -0.265 OA
ENDROOT
BRANCH  11  15
HETATM   15  C   UNL     1     -45.482 -55.079  13.774  1.00  0.00     0.164 C 
BRANCH  15  16
HETATM   16  C   UNL     1     -46.350 -54.446  14.873  1.00  0.00     0.160 C 
BRANCH  16  17
HETATM   17  O   UNL     1     -45.730 -54.651  16.150  1.00  0.00    -0.392 OA
HETATM   18  H   UNL     1     -44.920 -55.176  16.021  1.00  0.00     0.210 HD
ENDBRANCH  16  17
BRANCH  16  19
HETATM   19  C   UNL     1     -46.660 -52.965  14.598  1.00  0.00     0.209 C 
BRANCH  19  20
HETATM   20  O   UNL     1     -47.683 -52.494  15.482  1.00  0.00    -0.349 OA
BRANCH  20  21
HETATM   21  C   UNL     1     -47.282 -51.513  16.355  1.00  0.00     0.069 A 
HETATM   22  C   UNL     1     -48.077 -50.956  17.362  1.00  0.00     0.040 A 
HETATM   23  C   UNL     1     -47.555 -49.974  18.209  1.00  0.00     0.045 A 
HETATM   24  C   UNL     1     -46.240 -49.555  18.046  1.00  0.00     0.116 A 
HETATM   25  F   UNL     1     -45.740 -48.615  18.858  1.00  0.00    -0.206 F 
HETATM   26  C   UNL     1     -45.435 -50.107  17.056  1.00  0.00     0.045 A 
HETATM   27  C   UNL     1     -45.955 -51.093  16.216  1.00  0.00     0.040 A 
ENDBRANCH  20  21
ENDBRANCH  19  20
ENDBRANCH  16  19
ENDBRANCH  15  16
ENDBRANCH  11  15
TORSDOF 6
ENDMDL
MODEL 2
REMARK VINA RESULT:      -6.6      5.836      8.825
REMARK  6 active torsions:
REMARK  status: ('A' for Active; 'I' for Inactive)
REMARK    1  A    between atoms: N_11  and  C_12 
REMARK    2  A    between atoms: C_12  and  C_13 
REMARK    3  A    between atoms: C_13  and  O_14 
REMARK    4  A    between atoms: C_13  and  C_15 
REMARK    5  A    between atoms: C_15  and  O_16 
REMARK    6  A    between atoms: O_16  and  C_17 
ROOT
HETATM    1  C   UNL     1     -41.347 -43.072  11.540  1.00  0.00     0.164 C 
HETATM    2  N   UNL     1     -41.669 -44.423  11.119  1.00  0.00    -0.269 N 
HETATM    3  C   UNL     1     -42.788 -44.617  10.286  1.00  0.00     0.332 A 
HETATM    4  O   UNL     1     -43.490 -43.670   9.922  1.00  0.00    -0.246 OA
HETATM    5  N   UNL     1     -43.063 -45.927   9.888  1.00  0.00    -0.287 N 
HETATM    6  C   UNL     1     -44.198 -46.213   9.028  1.00  0.00     0.163 C 
HETATM    7  C   UNL     1     -42.241 -46.946  10.305  1.00  0.00     0.145 A 
HETATM    8  N   UNL     1     -42.370 -48.261   9.979  1.00  0.00    -0.336 N 
ATOM      9  HN  UNL     1     -43.088 -48.692   9.396  1.00  0.00     0.168 HD
HETATM   10  C   UNL     1     -41.360 -48.852  10.583  1.00  0.00     0.185 A 
HETATM   11  N   UNL     1     -40.580 -47.951  11.268  1.00  0.00    -0.333 N 
HETATM   12  C   UNL     1     -41.161 -46.723  11.106  1.00  0.00     0.149 A 
HETATM   13  C   UNL     1     -40.809 -45.428  11.573  1.00  0.00     0.282 A 
HETATM   14  O   UNL     1     -39.827 -45.216  12.279  1.00  0.00    -0.265 OA
ENDROOT
BRANCH  11  15
HETATM   15  C   UNL     1     -39.369 -48.288  11.996  1.00  0.00     0.164 C 
BRANCH  15  16
HETATM   16  C   UNL     1     -38.912 -49.743  11.805  1.00  0.00     0.160 C 
BRANCH  16  17
HETATM   17  O   UNL     1     -37.510 -49.768  11.508  1.00  0.00    -0.392 OA
HETATM   18  H   UNL     1     -37.298 -49.007  10.938  1.00  0.00     0.210 HD
ENDBRANCH  16  17
BRANCH  16  19
HETATM   19  C   UNL     1     -39.278 -50.637  13.002  1.00  0.00     0.209 C 
BRANCH  19  20
HETATM   20  O   UNL     1     -39.384 -52.004  12.592  1.00  0.00    -0.349 OA
BRANCH  20  21
HETATM   21  C   UNL     1     -40.627 -52.561  12.764  1.00  0.00     0.069 A 
HETATM   22  C   UNL     1     -41.819 -52.053  12.237  1.00  0.00     0.040 A 
HETATM   23  C   UNL     1     -43.028 -52.717  12.460  1.00  0.00     0.045 A 
HETATM   24  C   UNL     1     -43.040 -53.890  13.207  1.00  0.00     0.116 A 
HETATM   25  F   UNL     1     -44.198 -54.527  13.419  1.00  0.00    -0.206 F 
HETATM   26  C   UNL     1     -41.861 -54.413  13.728  1.00  0.00     0.045 A 
HETATM   27  C   UNL     1     -40.654 -53.751  13.499  1.00  0.00     0.040 A 
ENDBRANCH  20  21
ENDBRANCH  19  20
ENDBRANCH  16  19
ENDBRANCH  15  16
ENDBRANCH  11  15
TORSDOF 6
ENDMDL
MODEL 3
REMARK VINA RESULT:      -6.5      1.930      2.338
REMARK  6 active torsions:
REMARK  status: ('A' for Active; 'I' for Inactive)
REMARK    1  A    between atoms: N_11  and  C_12 
REMARK    2  A    between atoms: C_12  and  C_13 
REMARK    3  A    between atoms: C_13  and  O_14 
REMARK    4  A    between atoms: C_13  and  C_15 
REMARK    5  A    between atoms: C_15  and  O_16 
REMARK    6  A    between atoms: O_16  and  C_17 
ROOT
HETATM    1  C   UNL     1     -40.516 -55.271  16.270  1.00  0.00     0.164 C 
HETATM    2  N   UNL     1     -41.192 -54.604  15.173  1.00  0.00    -0.269 N 
HETATM    3  C   UNL     1     -40.445 -53.731  14.358  1.00  0.00     0.332 A 
HETATM    4  O   UNL     1     -39.247 -53.525  14.566  1.00  0.00    -0.246 OA
HETATM    5  N   UNL     1     -41.122 -53.115  13.303  1.00  0.00    -0.287 N 
HETATM    6  C   UNL     1     -40.426 -52.201  12.414  1.00  0.00     0.163 C 
HETATM    7  C   UNL     1     -42.453 -53.390  13.101  1.00  0.00     0.145 A 
HETATM    8  N   UNL     1     -43.231 -52.887  12.105  1.00  0.00    -0.336 N 
ATOM      9  HN  UNL     1     -42.961 -52.229  11.374  1.00  0.00     0.168 HD
HETATM   10  C   UNL     1     -44.411 -53.438  12.297  1.00  0.00     0.185 A 
HETATM   11  N   UNL     1     -44.404 -54.293  13.373  1.00  0.00    -0.333 N 
HETATM   12  C   UNL     1     -43.144 -54.246  13.905  1.00  0.00     0.149 A 
HETATM   13  C   UNL     1     -42.546 -54.910  15.010  1.00  0.00     0.282 A 
HETATM   14  O   UNL     1     -43.157 -55.698  15.728  1.00  0.00    -0.265 OA
ENDROOT
BRANCH  11  15
HETATM   15  C   UNL     1     -45.540 -55.087  13.809  1.00  0.00     0.164 C 
BRANCH  15  16
HETATM   16  C   UNL     1     -46.395 -54.408  14.891  1.00  0.00     0.160 C 
BRANCH  16  17
HETATM   17  O   UNL     1     -45.864 -54.718  16.185  1.00  0.00    -0.392 OA
HETATM   18  H   UNL     1     -45.430 -53.923  16.543  1.00  0.00     0.210 HD
ENDBRANCH  16  17
BRANCH  16  19
HETATM   19  C   UNL     1     -46.541 -52.894  14.660  1.00  0.00     0.209 C 
BRANCH  19  20
HETATM   20  O   UNL     1     -46.034 -52.165  15.784  1.00  0.00    -0.349 OA
BRANCH  20  21
HETATM   21  C   UNL     1     -44.833 -51.536  15.566  1.00  0.00     0.069 A 
HETATM   22  C   UNL     1     -44.578 -50.614  14.545  1.00  0.00     0.040 A 
HETATM   23  C   UNL     1     -43.318 -50.019  14.432  1.00  0.00     0.045 A 
HETATM   24  C   UNL     1     -42.320 -50.347  15.342  1.00  0.00     0.116 A 
HETATM   25  F   UNL     1     -41.114 -49.776  15.234  1.00  0.00    -0.206 F 
HETATM   26  C   UNL     1     -42.562 -51.254  16.368  1.00  0.00     0.045 A 
HETATM   27  C   UNL     1     -43.823 -51.842  16.484  1.00  0.00     0.040 A 
ENDBRANCH  20  21
ENDBRANCH  19  20
ENDBRANCH  16  19
ENDBRANCH  15  16
ENDBRANCH  11  15
TORSDOF 6
ENDMDL
MODEL 4
REMARK VINA RESULT:      -6.4      5.051      7.368
REMARK  6 active torsions:
REMARK  status: ('A' for Active; 'I' for Inactive)
REMARK    1  A    between atoms: N_11  and  C_12 
REMARK    2  A    between atoms: C_12  and  C_13 
REMARK    3  A    between atoms: C_13  and  O_14 
REMARK    4  A    between atoms: C_13  and  C_15 
REMARK    5  A    between atoms: C_15  and  O_16 
REMARK    6  A    between atoms: O_16  and  C_17 
ROOT
HETATM    1  C   UNL     1     -38.957 -46.000  15.215  1.00  0.00     0.164 C 
HETATM    2  N   UNL     1     -39.536 -46.210  13.901  1.00  0.00    -0.269 N 
HETATM    3  C   UNL     1     -39.384 -45.199  12.932  1.00  0.00     0.332 A 
HETATM    4  O   UNL     1     -38.780 -44.153  13.184  1.00  0.00    -0.246 OA
HETATM    5  N   UNL     1     -39.941 -45.438  11.674  1.00  0.00    -0.287 N 
HETATM    6  C   UNL     1     -39.827 -44.448  10.617  1.00  0.00     0.163 C 
HETATM    7  C   UNL     1     -40.588 -46.627  11.436  1.00  0.00     0.145 A 
HETATM    8  N   UNL     1     -41.155 -47.006  10.259  1.00  0.00    -0.336 N 
ATOM      9  HN  UNL     1     -41.201 -46.477   9.388  1.00  0.00     0.168 HD
HETATM   10  C   UNL     1     -41.631 -48.211  10.495  1.00  0.00     0.185 A 
HETATM   11  N   UNL     1     -41.368 -48.619  11.780  1.00  0.00    -0.333 N 
HETATM   12  C   UNL     1     -40.712 -47.587  12.395  1.00  0.00     0.149 A 
HETATM   13  C   UNL     1     -40.190 -47.430  13.707  1.00  0.00     0.282 A 
HETATM   14  O   UNL     1     -40.281 -48.299  14.571  1.00  0.00    -0.265 OA
ENDROOT
BRANCH  11  15
HETATM   15  C   UNL     1     -41.723 -49.917  12.328  1.00  0.00     0.164 C 
BRANCH  15  16
HETATM   16  C   UNL     1     -40.627 -50.982  12.167  1.00  0.00     0.160 C 
BRANCH  16  17
HETATM   17  O   UNL     1     -39.781 -50.976  13.324  1.00  0.00    -0.392 OA
HETATM   18  H   UNL     1     -38.857 -50.874  13.034  1.00  0.00     0.210 HD
ENDBRANCH  16  17
BRANCH  16  19
HETATM   19  C   UNL     1     -41.202 -52.376  11.863  1.00  0.00     0.209 C 
BRANCH  19  20
HETATM   20  O   UNL     1     -41.177 -53.194  13.038  1.00  0.00    -0.349 OA
BRANCH  20  21
HETATM   21  C   UNL     1     -42.381 -53.767  13.365  1.00  0.00     0.069 A 
HETATM   22  C   UNL     1     -42.609 -54.593  14.471  1.00  0.00     0.040 A 
HETATM   23  C   UNL     1     -43.886 -55.106  14.717  1.00  0.00     0.045 A 
HETATM   24  C   UNL     1     -44.931 -54.788  13.857  1.00  0.00     0.116 A 
HETATM   25  F   UNL     1     -46.154 -55.278  14.094  1.00  0.00    -0.206 F 
HETATM   26  C   UNL     1     -44.722 -53.960  12.759  1.00  0.00     0.045 A 
HETATM   27  C   UNL     1     -43.448 -53.444  12.519  1.00  0.00     0.040 A 
ENDBRANCH  20  21
ENDBRANCH  19  20
ENDBRANCH  16  19
ENDBRANCH  15  16
ENDBRANCH  11  15
TORSDOF 6
ENDMDL
MODEL 5
REMARK VINA RESULT:      -6.4      4.161      6.226
REMARK  6 active torsions:
REMARK  status: ('A' for Active; 'I' for Inactive)
REMARK    1  A    between atoms: N_11  and  C_12 
REMARK    2  A    between atoms: C_12  and  C_13 
REMARK    3  A    between atoms: C_13  and  O_14 
REMARK    4  A    between atoms: C_13  and  C_15 
REMARK    5  A    between atoms: C_15  and  O_16 
REMARK    6  A    between atoms: O_16  and  C_17 
ROOT
HETATM    1  C   UNL     1     -38.791 -46.687  15.293  1.00  0.00     0.164 C 
HETATM    2  N   UNL     1     -39.332 -47.202  14.049  1.00  0.00    -0.269 N 
HETATM    3  C   UNL     1     -39.674 -46.284  13.038  1.00  0.00     0.332 A 
HETATM    4  O   UNL     1     -39.529 -45.069  13.195  1.00  0.00    -0.246 OA
HETATM    5  N   UNL     1     -40.180 -46.812  11.847  1.00  0.00    -0.287 N 
HETATM    6  C   UNL     1     -40.556 -45.934  10.753  1.00  0.00     0.163 C 
HETATM    7  C   UNL     1     -40.306 -48.173  11.711  1.00  0.00     0.145 A 
HETATM    8  N   UNL     1     -40.757 -48.828  10.608  1.00  0.00    -0.336 N 
ATOM      9  HN  UNL     1     -41.079 -48.422   9.729  1.00  0.00     0.168 HD
HETATM   10  C   UNL     1     -40.686 -50.103  10.928  1.00  0.00     0.185 A 
HETATM   11  N   UNL     1     -40.185 -50.282  12.195  1.00  0.00    -0.333 N 
HETATM   12  C   UNL     1     -39.959 -49.035  12.709  1.00  0.00     0.149 A 
HETATM   13  C   UNL     1     -39.448 -48.592  13.959  1.00  0.00     0.282 A 
HETATM   14  O   UNL     1     -39.115 -49.362  14.856  1.00  0.00    -0.265 OA
ENDROOT
BRANCH  11  15
HETATM   15  C   UNL     1     -39.942 -51.573  12.817  1.00  0.00     0.164 C 
BRANCH  15  16
HETATM   16  C   UNL     1     -41.007 -52.632  12.489  1.00  0.00     0.160 C 
BRANCH  16  17
HETATM   17  O   UNL     1     -40.541 -53.461  11.416  1.00  0.00    -0.392 OA
HETATM   18  H   UNL     1     -39.569 -53.404  11.377  1.00  0.00     0.210 HD
ENDBRANCH  16  17
BRANCH  16  19
HETATM   19  C   UNL     1     -41.427 -53.445  13.725  1.00  0.00     0.209 C 
BRANCH  19  20
HETATM   20  O   UNL     1     -42.682 -54.094  13.493  1.00  0.00    -0.349 OA
BRANCH  20  21
HETATM   21  C   UNL     1     -43.785 -53.303  13.698  1.00  0.00     0.069 A 
HETATM   22  C   UNL     1     -44.028 -52.537  14.843  1.00  0.00     0.040 A 
HETATM   23  C   UNL     1     -45.179 -51.750  14.933  1.00  0.00     0.045 A 
HETATM   24  C   UNL     1     -46.082 -51.730  13.877  1.00  0.00     0.116 A 
HETATM   25  F   UNL     1     -47.184 -50.975  13.963  1.00  0.00    -0.206 F 
HETATM   26  C   UNL     1     -45.849 -52.478  12.728  1.00  0.00     0.045 A 
HETATM   27  C   UNL     1     -44.695 -53.258  12.636  1.00  0.00     0.040 A 
ENDBRANCH  20  21
ENDBRANCH  19  20
ENDBRANCH  16  19
ENDBRANCH  15  16
ENDBRANCH  11  15
TORSDOF 6
ENDMDL
MODEL 6
REMARK VINA RESULT:      -6.3      2.675      4.638
REMARK  6 active torsions:
REMARK  status: ('A' for Active; 'I' for Inactive)
REMARK    1  A    between atoms: N_11  and  C_12 
REMARK    2  A    between atoms: C_12  and  C_13 
REMARK    3  A    between atoms: C_13  and  O_14 
REMARK    4  A    between atoms: C_13  and  C_15 
REMARK    5  A    between atoms: C_15  and  O_16 
REMARK    6  A    between atoms: O_16  and  C_17 
ROOT
HETATM    1  C   UNL     1     -42.666 -56.352  18.498  1.00  0.00     0.164 C 
HETATM    2  N   UNL     1     -41.525 -56.034  17.660  1.00  0.00    -0.269 N 
HETATM    3  C   UNL     1     -40.237 -56.347  18.135  1.00  0.00     0.332 A 
HETATM    4  O   UNL     1     -40.069 -56.874  19.238  1.00  0.00    -0.246 OA
HETATM    5  N   UNL     1     -39.161 -56.041  17.299  1.00  0.00    -0.287 N 
HETATM    6  C   UNL     1     -37.800 -56.333  17.712  1.00  0.00     0.163 C 
HETATM    7  C   UNL     1     -39.400 -55.472  16.071  1.00  0.00     0.145 A 
HETATM    8  N   UNL     1     -38.459 -55.142  15.146  1.00  0.00    -0.336 N 
ATOM      9  HN  UNL     1     -37.447 -55.251  15.218  1.00  0.00     0.168 HD
HETATM   10  C   UNL     1     -39.146 -54.652  14.135  1.00  0.00     0.185 A 
HETATM   11  N   UNL     1     -40.498 -54.676  14.380  1.00  0.00    -0.333 N 
HETATM   12  C   UNL     1     -40.661 -55.186  15.639  1.00  0.00     0.149 A 
HETATM   13  C   UNL     1     -41.817 -55.450  16.424  1.00  0.00     0.282 A 
HETATM   14  O   UNL     1     -42.957 -55.214  16.034  1.00  0.00    -0.265 OA
ENDROOT
BRANCH  11  15
HETATM   15  C   UNL     1     -41.519 -54.248  13.440  1.00  0.00     0.164 C 
BRANCH  15  16
HETATM   16  C   UNL     1     -41.154 -52.973  12.662  1.00  0.00     0.160 C 
BRANCH  16  17
HETATM   17  O   UNL     1     -40.646 -53.332  11.370  1.00  0.00    -0.392 OA
HETATM   18  H   UNL     1     -41.387 -53.641  10.819  1.00  0.00     0.210 HD
ENDBRANCH  16  17
BRANCH  16  19
HETATM   19  C   UNL     1     -42.324 -51.978  12.581  1.00  0.00     0.209 C 
BRANCH  19  20
HETATM   20  O   UNL     1     -43.562 -52.674  12.406  1.00  0.00    -0.349 OA
BRANCH  20  21
HETATM   21  C   UNL     1     -44.591 -52.226  13.197  1.00  0.00     0.069 A 
HETATM   22  C   UNL     1     -45.895 -51.973  12.759  1.00  0.00     0.040 A 
HETATM   23  C   UNL     1     -46.869 -51.537  13.662  1.00  0.00     0.045 A 
HETATM   24  C   UNL     1     -46.536 -51.359  15.000  1.00  0.00     0.116 A 
HETATM   25  F   UNL     1     -47.470 -50.944  15.864  1.00  0.00    -0.206 F 
HETATM   26  C   UNL     1     -45.246 -51.618  15.452  1.00  0.00     0.045 A 
HETATM   27  C   UNL     1     -44.276 -52.059  14.550  1.00  0.00     0.040 A 
ENDBRANCH  20  21
ENDBRANCH  19  20
ENDBRANCH  16  19
ENDBRANCH  15  16
ENDBRANCH  11  15
TORSDOF 6
ENDMDL
MODEL 7
REMARK VINA RESULT:      -6.3      4.095      5.889
REMARK  6 active torsions:
REMARK  status: ('A' for Active; 'I' for Inactive)
REMARK    1  A    between atoms: N_11  and  C_12 
REMARK    2  A    between atoms: C_12  and  C_13 
REMARK    3  A    between atoms: C_13  and  O_14 
REMARK    4  A    between atoms: C_13  and  C_15 
REMARK    5  A    between atoms: C_15  and  O_16 
REMARK    6  A    between atoms: O_16  and  C_17 
ROOT
HETATM    1  C   UNL     1     -43.146 -47.494  15.697  1.00  0.00     0.164 C 
HETATM    2  N   UNL     1     -42.613 -47.650  14.356  1.00  0.00    -0.269 N 
HETATM    3  C   UNL     1     -42.668 -46.547  13.482  1.00  0.00     0.332 A 
HETATM    4  O   UNL     1     -43.161 -45.472  13.832  1.00  0.00    -0.246 OA
HETATM    5  N   UNL     1     -42.134 -46.725  12.203  1.00  0.00    -0.287 N 
HETATM    6  C   UNL     1     -42.149 -45.638  11.240  1.00  0.00     0.163 C 
HETATM    7  C   UNL     1     -41.579 -47.936  11.865  1.00  0.00     0.145 A 
HETATM    8  N   UNL     1     -41.002 -48.246  10.672  1.00  0.00    -0.336 N 
ATOM      9  HN  UNL     1     -40.904 -47.647   9.852  1.00  0.00     0.168 HD
HETATM   10  C   UNL     1     -40.600 -49.492  10.813  1.00  0.00     0.185 A 
HETATM   11  N   UNL     1     -40.885 -49.979  12.066  1.00  0.00    -0.333 N 
HETATM   12  C   UNL     1     -41.536 -48.981  12.739  1.00  0.00     0.149 A 
HETATM   13  C   UNL     1     -42.065 -48.900  14.056  1.00  0.00     0.282 A 
HETATM   14  O   UNL     1     -42.013 -49.831  14.855  1.00  0.00    -0.265 OA
ENDROOT
BRANCH  11  15
HETATM   15  C   UNL     1     -40.526 -51.304  12.543  1.00  0.00     0.164 C 
BRANCH  15  16
HETATM   16  C   UNL     1     -41.366 -52.435  11.929  1.00  0.00     0.160 C 
BRANCH  16  17
HETATM   17  O   UNL     1     -40.495 -53.439  11.391  1.00  0.00    -0.392 OA
HETATM   18  H   UNL     1     -41.030 -54.080  10.891  1.00  0.00     0.210 HD
ENDBRANCH  16  17
BRANCH  16  19
HETATM   19  C   UNL     1     -42.389 -53.013  12.922  1.00  0.00     0.209 C 
BRANCH  19  20
HETATM   20  O   UNL     1     -43.691 -53.059  12.328  1.00  0.00    -0.349 OA
BRANCH  20  21
HETATM   21  C   UNL     1     -44.691 -52.510  13.092  1.00  0.00     0.069 A 
HETATM   22  C   UNL     1     -45.941 -52.103  12.613  1.00  0.00     0.040 A 
HETATM   23  C   UNL     1     -46.893 -51.574  13.489  1.00  0.00     0.045 A 
HETATM   24  C   UNL     1     -46.592 -51.457  14.841  1.00  0.00     0.116 A 
HETATM   25  F   UNL     1     -47.505 -50.951  15.680  1.00  0.00    -0.206 F 
HETATM   26  C   UNL     1     -45.357 -51.866  15.333  1.00  0.00     0.045 A 
HETATM   27  C   UNL     1     -44.410 -52.401  14.458  1.00  0.00     0.040 A 
ENDBRANCH  20  21
ENDBRANCH  19  20
ENDBRANCH  16  19
ENDBRANCH  15  16
ENDBRANCH  11  15
TORSDOF 6
ENDMDL
MODEL 8
REMARK VINA RESULT:      -6.2      4.603      7.145
REMARK  6 active torsions:
REMARK  status: ('A' for Active; 'I' for Inactive)
REMARK    1  A    between atoms: N_11  and  C_12 
REMARK    2  A    between atoms: C_12  and  C_13 
REMARK    3  A    between atoms: C_13  and  O_14 
REMARK    4  A    between atoms: C_13  and  C_15 
REMARK    5  A    between atoms: C_15  and  O_16 
REMARK    6  A    between atoms: O_16  and  C_17 
ROOT
HETATM    1  C   UNL     1     -44.843 -54.966  14.265  1.00  0.00     0.164 C 
HETATM    2  N   UNL     1     -43.470 -54.507  14.350  1.00  0.00    -0.269 N 
HETATM    3  C   UNL     1     -42.595 -55.171  15.231  1.00  0.00     0.332 A 
HETATM    4  O   UNL     1     -42.977 -56.118  15.925  1.00  0.00    -0.246 OA
HETATM    5  N   UNL     1     -41.276 -54.714  15.280  1.00  0.00    -0.287 N 
HETATM    6  C   UNL     1     -40.309 -55.345  16.161  1.00  0.00     0.163 C 
HETATM    7  C   UNL     1     -40.893 -53.669  14.475  1.00  0.00     0.145 A 
HETATM    8  N   UNL     1     -39.644 -53.136  14.397  1.00  0.00    -0.336 N 
ATOM      9  HN  UNL     1     -38.814 -53.411  14.922  1.00  0.00     0.168 HD
HETATM   10  C   UNL     1     -39.746 -52.183  13.494  1.00  0.00     0.185 A 
HETATM   11  N   UNL     1     -41.018 -52.106  12.979  1.00  0.00    -0.333 N 
HETATM   12  C   UNL     1     -41.764 -53.052  13.627  1.00  0.00     0.149 A 
HETATM   13  C   UNL     1     -43.128 -53.437  13.518  1.00  0.00     0.282 A 
HETATM   14  O   UNL     1     -43.914 -52.899  12.742  1.00  0.00    -0.265 OA
ENDROOT
BRANCH  11  15
HETATM   15  C   UNL     1     -41.435 -51.189  11.932  1.00  0.00     0.164 C 
BRANCH  15  16
HETATM   16  C   UNL     1     -40.410 -50.084  11.628  1.00  0.00     0.160 C 
BRANCH  16  17
HETATM   17  O   UNL     1     -40.288 -49.923  10.208  1.00  0.00    -0.392 OA
HETATM   18  H   UNL     1     -39.517 -49.358  10.024  1.00  0.00     0.210 HD
ENDBRANCH  16  17
BRANCH  16  19
HETATM   19  C   UNL     1     -40.739 -48.763  12.345  1.00  0.00     0.209 C 
BRANCH  19  20
HETATM   20  O   UNL     1     -39.555 -47.977  12.513  1.00  0.00    -0.349 OA
BRANCH  20  21
HETATM   21  C   UNL     1     -39.715 -46.637  12.261  1.00  0.00     0.069 A 
HETATM   22  C   UNL     1     -39.507 -45.610  13.189  1.00  0.00     0.040 A 
HETATM   23  C   UNL     1     -39.680 -44.275  12.814  1.00  0.00     0.045 A 
HETATM   24  C   UNL     1     -40.059 -43.971  11.512  1.00  0.00     0.116 A 
HETATM   25  F   UNL     1     -40.223 -42.693  11.152  1.00  0.00    -0.206 F 
HETATM   26  C   UNL     1     -40.259 -44.980  10.575  1.00  0.00     0.045 A 
HETATM   27  C   UNL     1     -40.078 -46.313  10.950  1.00  0.00     0.040 A 
ENDBRANCH  20  21
ENDBRANCH  19  20
ENDBRANCH  16  19
ENDBRANCH  15  16
ENDBRANCH  11  15
TORSDOF 6
ENDMDL
MODEL 9
REMARK VINA RESULT:      -6.2      5.204      7.826
REMARK  6 active torsions:
REMARK  status: ('A' for Active; 'I' for Inactive)
REMARK    1  A    between atoms: N_11  and  C_12 
REMARK    2  A    between atoms: C_12  and  C_13 
REMARK    3  A    between atoms: C_13  and  O_14 
REMARK    4  A    between atoms: C_13  and  C_15 
REMARK    5  A    between atoms: C_15  and  O_16 
REMARK    6  A    between atoms: O_16  and  C_17 
ROOT
HETATM    1  C   UNL     1     -39.726 -44.105  12.593  1.00  0.00     0.164 C 
HETATM    2  N   UNL     1     -40.393 -45.261  12.024  1.00  0.00    -0.269 N 
HETATM    3  C   UNL     1     -41.336 -45.053  10.999  1.00  0.00     0.332 A 
HETATM    4  O   UNL     1     -41.603 -43.919  10.590  1.00  0.00    -0.246 OA
HETATM    5  N   UNL     1     -41.951 -46.187  10.463  1.00  0.00    -0.287 N 
HETATM    6  C   UNL     1     -42.934 -46.060   9.402  1.00  0.00     0.163 C 
HETATM    7  C   UNL     1     -41.608 -47.429  10.938  1.00  0.00     0.145 A 
HETATM    8  N   UNL     1     -42.103 -48.618  10.498  1.00  0.00    -0.336 N 
ATOM      9  HN  UNL     1     -42.801 -48.773   9.771  1.00  0.00     0.168 HD
HETATM   10  C   UNL     1     -41.479 -49.524  11.222  1.00  0.00     0.185 A 
HETATM   11  N   UNL     1     -40.587 -48.950  12.097  1.00  0.00    -0.333 N 
HETATM   12  C   UNL     1     -40.686 -47.596  11.928  1.00  0.00     0.149 A 
HETATM   13  C   UNL     1     -40.017 -46.503  12.543  1.00  0.00     0.282 A 
HETATM   14  O   UNL     1     -39.171 -46.646  13.422  1.00  0.00    -0.265 OA
ENDROOT
BRANCH  11  15
HETATM   15  C   UNL     1     -39.715 -49.687  12.995  1.00  0.00     0.164 C 
BRANCH  15  16
HETATM   16  C   UNL     1     -39.349 -51.093  12.494  1.00  0.00     0.160 C 
BRANCH  16  17
HETATM   17  O   UNL     1     -37.924 -51.208  12.390  1.00  0.00    -0.392 OA
HETATM   18  H   UNL     1     -37.689 -52.152  12.356  1.00  0.00     0.210 HD
ENDBRANCH  16  17
BRANCH  16  19
HETATM   19  C   UNL     1     -39.970 -52.206  13.356  1.00  0.00     0.209 C 
BRANCH  19  20
HETATM   20  O   UNL     1     -41.226 -51.779  13.895  1.00  0.00    -0.349 OA
BRANCH  20  21
HETATM   21  C   UNL     1     -42.232 -52.710  13.816  1.00  0.00     0.069 A 
HETATM   22  C   UNL     1     -42.466 -53.726  14.748  1.00  0.00     0.040 A 
HETATM   23  C   UNL     1     -43.537 -54.608  14.575  1.00  0.00     0.045 A 
HETATM   24  C   UNL     1     -44.370 -54.469  13.472  1.00  0.00     0.116 A 
HETATM   25  F   UNL     1     -45.396 -55.312  13.308  1.00  0.00    -0.206 F 
HETATM   26  C   UNL     1     -44.156 -53.457  12.542  1.00  0.00     0.045 A 
HETATM   27  C   UNL     1     -43.090 -52.573  12.720  1.00  0.00     0.040 A 
ENDBRANCH  20  21
ENDBRANCH  19  20
ENDBRANCH  16  19
ENDBRANCH  15  16
ENDBRANCH  11  15
TORSDOF 6
ENDMDL
