MODEL 1
REMARK VINA RESULT:      -6.4      0.000      0.000
REMARK  4 active torsions:
REMARK  status: ('A' for Active; 'I' for Inactive)
REMARK    1  A    between atoms: C_8  and  N_9 
REMARK       I    between atoms: N_9  and  C_10 
REMARK       I    between atoms: C_10  and  N_12 
REMARK    2  A    between atoms: N_12  and  C_13 
REMARK    3  A    between atoms: C_13  and  C_14 
REMARK    4  A    between atoms: C_14  and  C_15 
ROOT
HETATM    1  N   UNL     1     -40.515 -49.820  10.686  1.00  0.00    -0.306 N 
HETATM    2  C   UNL     1     -41.162 -48.620  10.856  1.00  0.00     0.320 C 
HETATM    3  O   UNL     1     -41.171 -47.959  11.889  1.00  0.00    -0.247 OA
HETATM    4  N   UNL     1     -41.854 -48.196   9.741  1.00  0.00    -0.343 N 
HETATM    5  H   UNL     1     -40.420 -50.185   9.749  1.00  0.00     0.171 HD
HETATM    6  H   UNL     1     -41.505 -48.473   8.834  1.00  0.00     0.164 HD
ENDROOT
BRANCH   1   7
HETATM    7  C   UNL     1     -39.813 -50.508  11.714  1.00  0.00     0.077 A 
HETATM    8  C   UNL     1     -38.468 -50.217  11.931  1.00  0.00     0.158 A 
HETATM    9  F   UNL     1     -37.834 -49.301  11.183  1.00  0.00    -0.202 F 
HETATM   10  C   UNL     1     -37.792 -50.865  12.953  1.00  0.00     0.132 A 
HETATM   11  N   UNL     1     -38.358 -51.794  13.762  1.00  0.00    -0.372 N 
HETATM   12  C   UNL     1     -39.655 -52.079  13.523  1.00  0.00     0.090 A 
ATOM     13  HN  UNL     1     -37.834 -52.252  14.508  1.00  0.00     0.164 HD
HETATM   14  C   UNL     1     -40.406 -51.478  12.526  1.00  0.00     0.050 A 
ENDBRANCH   1   7
BRANCH   4  15
HETATM   15  C   UNL     1     -42.491 -46.891   9.844  1.00  0.00     0.128 C 
BRANCH  15  16
HETATM   16  C   UNL     1     -43.438 -46.535   8.702  1.00  0.00     0.053 C 
BRANCH  16  17
HETATM   17  C   UNL     1     -44.643 -47.421   8.622  1.00  0.00    -0.082 C 
HETATM   18  C   UNL     1     -45.681 -47.430   9.465  1.00  0.00    -0.024 C 
HETATM   19  C   UNL     1     -46.699 -48.450   9.077  1.00  0.00     0.027 C 
HETATM   20  C   UNL     1     -46.284 -48.823   7.655  1.00  0.00     0.008 C 
HETATM   21  C   UNL     1     -44.813 -48.431   7.527  1.00  0.00     0.034 C 
ENDBRANCH  16  17
ENDBRANCH  15  16
ENDBRANCH   4  15
TORSDOF 4
ENDMDL
MODEL 2
REMARK VINA RESULT:      -6.0      4.020      5.568
REMARK  4 active torsions:
REMARK  status: ('A' for Active; 'I' for Inactive)
REMARK    1  A    between atoms: C_8  and  N_9 
REMARK       I    between atoms: N_9  and  C_10 
REMARK       I    between atoms: C_10  and  N_12 
REMARK    2  A    between atoms: N_12  and  C_13 
REMARK    3  A    between atoms: C_13  and  C_14 
REMARK    4  A    between atoms: C_14  and  C_15 
ROOT
HETATM    1  N   UNL     1     -41.359 -51.405  11.354  1.00  0.00    -0.306 N 
HETATM    2  C   UNL     1     -42.014 -52.002  12.406  1.00  0.00     0.320 C 
HETATM    3  O   UNL     1     -42.239 -51.477  13.491  1.00  0.00    -0.247 OA
HETATM    4  N   UNL     1     -42.400 -53.303  12.157  1.00  0.00    -0.343 N 
HETATM    5  H   UNL     1     -41.390 -51.859  10.452  1.00  0.00     0.171 HD
HETATM    6  H   UNL     1     -42.610 -53.559  11.202  1.00  0.00     0.164 HD
ENDROOT
BRANCH   1   7
HETATM    7  C   UNL     1     -40.785 -50.105  11.398  1.00  0.00     0.077 A 
HETATM    8  C   UNL     1     -39.454 -49.963  11.783  1.00  0.00     0.158 A 
HETATM    9  F   UNL     1     -38.715 -51.034  12.111  1.00  0.00    -0.202 F 
HETATM   10  C   UNL     1     -38.885 -48.699  11.797  1.00  0.00     0.132 A 
HETATM   11  N   UNL     1     -39.555 -47.567  11.471  1.00  0.00    -0.372 N 
HETATM   12  C   UNL     1     -40.849 -47.721  11.122  1.00  0.00     0.090 A 
ATOM     13  HN  UNL     1     -39.107 -46.650  11.487  1.00  0.00     0.164 HD
HETATM   14  C   UNL     1     -41.495 -48.946  11.079  1.00  0.00     0.050 A 
ENDBRANCH   1   7
BRANCH   4  15
HETATM   15  C   UNL     1     -43.166 -53.952  13.210  1.00  0.00     0.128 C 
BRANCH  15  16
HETATM   16  C   UNL     1     -44.629 -54.229  12.878  1.00  0.00     0.053 C 
BRANCH  16  17
HETATM   17  C   UNL     1     -45.590 -53.340  13.607  1.00  0.00    -0.082 C 
HETATM   18  C   UNL     1     -46.263 -53.642  14.722  1.00  0.00    -0.024 C 
HETATM   19  C   UNL     1     -47.134 -52.514  15.165  1.00  0.00     0.027 C 
HETATM   20  C   UNL     1     -46.617 -51.339  14.336  1.00  0.00     0.008 C 
HETATM   21  C   UNL     1     -45.898 -51.950  13.136  1.00  0.00     0.034 C 
ENDBRANCH  16  17
ENDBRANCH  15  16
ENDBRANCH   4  15
TORSDOF 4
ENDMDL
MODEL 3
REMARK VINA RESULT:      -6.0      2.699      6.333
REMARK  4 active torsions:
REMARK  status: ('A' for Active; 'I' for Inactive)
REMARK    1  A    between atoms: C_8  and  N_9 
REMARK       I    between atoms: N_9  and  C_10 
REMARK       I    between atoms: C_10  and  N_12 
REMARK    2  A    between atoms: N_12  and  C_13 
REMARK    3  A    between atoms: C_13  and  C_14 
REMARK    4  A    between atoms: C_14  and  C_15 
ROOT
HETATM    1  N   UNL     1     -40.984 -49.393  10.621  1.00  0.00    -0.306 N 
HETATM    2  C   UNL     1     -41.033 -50.142  11.773  1.00  0.00     0.320 C 
HETATM    3  O   UNL     1     -41.601 -49.813  12.808  1.00  0.00    -0.247 OA
HETATM    4  N   UNL     1     -40.350 -51.337  11.691  1.00  0.00    -0.343 N 
HETATM    5  H   UNL     1     -40.650 -49.836   9.776  1.00  0.00     0.171 HD
HETATM    6  H   UNL     1     -40.280 -51.782  10.786  1.00  0.00     0.164 HD
ENDROOT
BRANCH   1   7
HETATM    7  C   UNL     1     -41.531 -48.087  10.486  1.00  0.00     0.077 A 
HETATM    8  C   UNL     1     -40.776 -46.989  10.891  1.00  0.00     0.158 A 
HETATM    9  F   UNL     1     -39.546 -47.151  11.402  1.00  0.00    -0.202 F 
HETATM   10  C   UNL     1     -41.297 -45.715  10.732  1.00  0.00     0.132 A 
HETATM   11  N   UNL     1     -42.524 -45.460  10.214  1.00  0.00    -0.372 N 
HETATM   12  C   UNL     1     -43.250 -46.537   9.848  1.00  0.00     0.090 A 
ATOM     13  HN  UNL     1     -42.878 -44.510  10.106  1.00  0.00     0.164 HD
HETATM   14  C   UNL     1     -42.805 -47.844   9.970  1.00  0.00     0.050 A 
ENDBRANCH   1   7
BRANCH   4  15
HETATM   15  C   UNL     1     -40.438 -52.203  12.858  1.00  0.00     0.128 C 
BRANCH  15  16
HETATM   16  C   UNL     1     -40.963 -53.610  12.589  1.00  0.00     0.053 C 
BRANCH  16  17
HETATM   17  C   UNL     1     -42.319 -53.867  13.171  1.00  0.00    -0.082 C 
HETATM   18  C   UNL     1     -43.494 -53.533  12.629  1.00  0.00    -0.024 C 
HETATM   19  C   UNL     1     -44.639 -53.943  13.493  1.00  0.00     0.027 C 
HETATM   20  C   UNL     1     -43.987 -54.901  14.490  1.00  0.00     0.008 C 
HETATM   21  C   UNL     1     -42.497 -54.568  14.485  1.00  0.00     0.034 C 
ENDBRANCH  16  17
ENDBRANCH  15  16
ENDBRANCH   4  15
TORSDOF 4
ENDMDL
MODEL 4
REMARK VINA RESULT:      -5.9      4.399      5.925
REMARK  4 active torsions:
REMARK  status: ('A' for Active; 'I' for Inactive)
REMARK    1  A    between atoms: C_8  and  N_9 
REMARK       I    between atoms: N_9  and  C_10 
REMARK       I    between atoms: C_10  and  N_12 
REMARK    2  A    between atoms: N_12  and  C_13 
REMARK    3  A    between atoms: C_13  and  C_14 
REMARK    4  A    between atoms: C_14  and  C_15 
ROOT
HETATM    1  N   UNL     1     -43.335 -52.842  11.992  1.00  0.00    -0.306 N 
HETATM    2  C   UNL     1     -42.252 -52.150  12.477  1.00  0.00     0.320 C 
HETATM    3  O   UNL     1     -42.066 -51.856  13.653  1.00  0.00    -0.247 OA
HETATM    4  N   UNL     1     -41.352 -51.768  11.504  1.00  0.00    -0.343 N 
HETATM    5  H   UNL     1     -43.297 -53.187  11.043  1.00  0.00     0.171 HD
HETATM    6  H   UNL     1     -41.270 -52.349  10.681  1.00  0.00     0.164 HD
ENDROOT
BRANCH   1   7
HETATM    7  C   UNL     1     -44.441 -53.261  12.782  1.00  0.00     0.077 A 
HETATM    8  C   UNL     1     -45.425 -52.336  13.119  1.00  0.00     0.158 A 
HETATM    9  F   UNL     1     -45.340 -51.061  12.708  1.00  0.00    -0.202 F 
HETATM   10  C   UNL     1     -46.518 -52.752  13.864  1.00  0.00     0.132 A 
HETATM   11  N   UNL     1     -46.689 -54.021  14.309  1.00  0.00    -0.372 N 
HETATM   12  C   UNL     1     -45.715 -54.898  13.992  1.00  0.00     0.090 A 
ATOM     13  HN  UNL     1     -47.507 -54.297  14.852  1.00  0.00     0.164 HD
HETATM   14  C   UNL     1     -44.591 -54.568  13.250  1.00  0.00     0.050 A 
ENDBRANCH   1   7
BRANCH   4  15
HETATM   15  C   UNL     1     -40.147 -51.100  11.976  1.00  0.00     0.128 C 
BRANCH  15  16
HETATM   16  C   UNL     1     -39.905 -49.708  11.402  1.00  0.00     0.053 C 
BRANCH  16  17
HETATM   17  C   UNL     1     -41.099 -48.807  11.485  1.00  0.00    -0.082 C 
HETATM   18  C   UNL     1     -41.765 -48.272  10.457  1.00  0.00    -0.024 C 
HETATM   19  C   UNL     1     -42.901 -47.421  10.917  1.00  0.00     0.027 C 
HETATM   20  C   UNL     1     -43.040 -47.805  12.389  1.00  0.00     0.008 C 
HETATM   21  C   UNL     1     -41.697 -48.405  12.800  1.00  0.00     0.034 C 
ENDBRANCH  16  17
ENDBRANCH  15  16
ENDBRANCH   4  15
TORSDOF 4
ENDMDL
MODEL 5
REMARK VINA RESULT:      -5.8      4.284      5.365
REMARK  4 active torsions:
REMARK  status: ('A' for Active; 'I' for Inactive)
REMARK    1  A    between atoms: C_8  and  N_9 
REMARK       I    between atoms: N_9  and  C_10 
REMARK       I    between atoms: C_10  and  N_12 
REMARK    2  A    between atoms: N_12  and  C_13 
REMARK    3  A    between atoms: C_13  and  C_14 
REMARK    4  A    between atoms: C_14  and  C_15 
ROOT
HETATM    1  N   UNL     1     -41.262 -51.626  11.527  1.00  0.00    -0.306 N 
HETATM    2  C   UNL     1     -42.191 -52.136  12.402  1.00  0.00     0.320 C 
HETATM    3  O   UNL     1     -42.256 -51.875  13.598  1.00  0.00    -0.247 OA
HETATM    4  N   UNL     1     -43.075 -53.022  11.823  1.00  0.00    -0.343 N 
HETATM    5  H   UNL     1     -41.411 -51.763  10.537  1.00  0.00     0.171 HD
HETATM    6  H   UNL     1     -43.297 -52.898  10.845  1.00  0.00     0.164 HD
ENDROOT
BRANCH   1   7
HETATM    7  C   UNL     1     -40.191 -50.768  11.900  1.00  0.00     0.077 A 
HETATM    8  C   UNL     1     -40.215 -49.436  11.494  1.00  0.00     0.158 A 
HETATM    9  F   UNL     1     -41.231 -48.959  10.758  1.00  0.00    -0.202 F 
HETATM   10  C   UNL     1     -39.187 -48.591  11.884  1.00  0.00     0.132 A 
HETATM   11  N   UNL     1     -38.130 -48.986  12.636  1.00  0.00    -0.372 N 
HETATM   12  C   UNL     1     -38.113 -50.285  13.001  1.00  0.00     0.090 A 
ATOM     13  HN  UNL     1     -37.390 -48.339  12.910  1.00  0.00     0.164 HD
HETATM   14  C   UNL     1     -39.099 -51.196  12.658  1.00  0.00     0.050 A 
ENDBRANCH   1   7
BRANCH   4  15
HETATM   15  C   UNL     1     -44.128 -53.530  12.691  1.00  0.00     0.128 C 
BRANCH  15  16
HETATM   16  C   UNL     1     -45.478 -52.833  12.557  1.00  0.00     0.053 C 
BRANCH  16  17
HETATM   17  C   UNL     1     -45.993 -52.268  13.844  1.00  0.00    -0.082 C 
HETATM   18  C   UNL     1     -47.013 -52.741  14.569  1.00  0.00    -0.024 C 
HETATM   19  C   UNL     1     -47.248 -51.920  15.793  1.00  0.00     0.027 C 
HETATM   20  C   UNL     1     -45.981 -51.072  15.884  1.00  0.00     0.008 C 
HETATM   21  C   UNL     1     -45.378 -51.058  14.481  1.00  0.00     0.034 C 
ENDBRANCH  16  17
ENDBRANCH  15  16
ENDBRANCH   4  15
TORSDOF 4
ENDMDL
MODEL 6
REMARK VINA RESULT:      -5.8      4.556      7.056
REMARK  4 active torsions:
REMARK  status: ('A' for Active; 'I' for Inactive)
REMARK    1  A    between atoms: C_8  and  N_9 
REMARK       I    between atoms: N_9  and  C_10 
REMARK       I    between atoms: C_10  and  N_12 
REMARK    2  A    between atoms: N_12  and  C_13 
REMARK    3  A    between atoms: C_13  and  C_14 
REMARK    4  A    between atoms: C_14  and  C_15 
ROOT
HETATM    1  N   UNL     1     -43.323 -52.788  11.963  1.00  0.00    -0.306 N 
HETATM    2  C   UNL     1     -42.197 -52.183  12.469  1.00  0.00     0.320 C 
HETATM    3  O   UNL     1     -41.955 -52.016  13.660  1.00  0.00    -0.247 OA
HETATM    4  N   UNL     1     -41.323 -51.732  11.502  1.00  0.00    -0.343 N 
HETATM    5  H   UNL     1     -43.334 -53.035  10.984  1.00  0.00     0.171 HD
HETATM    6  H   UNL     1     -41.294 -52.228  10.622  1.00  0.00     0.164 HD
ENDROOT
BRANCH   1   7
HETATM    7  C   UNL     1     -44.411 -53.251  12.753  1.00  0.00     0.077 A 
HETATM    8  C   UNL     1     -45.417 -52.358  13.113  1.00  0.00     0.158 A 
HETATM    9  F   UNL     1     -45.370 -51.075  12.724  1.00  0.00    -0.202 F 
HETATM   10  C   UNL     1     -46.493 -52.817  13.858  1.00  0.00     0.132 A 
HETATM   11  N   UNL     1     -46.626 -54.098  14.282  1.00  0.00    -0.372 N 
HETATM   12  C   UNL     1     -45.630 -54.943  13.943  1.00  0.00     0.090 A 
ATOM     13  HN  UNL     1     -47.432 -54.405  14.826  1.00  0.00     0.164 HD
HETATM   14  C   UNL     1     -44.522 -54.569  13.199  1.00  0.00     0.050 A 
ENDBRANCH   1   7
BRANCH   4  15
HETATM   15  C   UNL     1     -40.078 -51.154  11.987  1.00  0.00     0.128 C 
BRANCH  15  16
HETATM   16  C   UNL     1     -39.786 -49.736  11.506  1.00  0.00     0.053 C 
BRANCH  16  17
HETATM   17  C   UNL     1     -39.070 -48.894  12.518  1.00  0.00    -0.082 C 
HETATM   18  C   UNL     1     -39.490 -47.730  13.024  1.00  0.00    -0.024 C 
HETATM   19  C   UNL     1     -38.516 -47.170  14.006  1.00  0.00     0.027 C 
HETATM   20  C   UNL     1     -37.594 -48.356  14.285  1.00  0.00     0.008 C 
HETATM   21  C   UNL     1     -37.749 -49.302  13.096  1.00  0.00     0.034 C 
ENDBRANCH  16  17
ENDBRANCH  15  16
ENDBRANCH   4  15
TORSDOF 4
ENDMDL
MODEL 7
REMARK VINA RESULT:      -5.8      4.326      6.952
REMARK  4 active torsions:
REMARK  status: ('A' for Active; 'I' for Inactive)
REMARK    1  A    between atoms: C_8  and  N_9 
REMARK       I    between atoms: N_9  and  C_10 
REMARK       I    between atoms: C_10  and  N_12 
REMARK    2  A    between atoms: N_12  and  C_13 
REMARK    3  A    between atoms: C_13  and  C_14 
REMARK    4  A    between atoms: C_14  and  C_15 
ROOT
HETATM    1  N   UNL     1     -42.242 -52.569  11.762  1.00  0.00    -0.306 N 
HETATM    2  C   UNL     1     -41.564 -51.428  12.122  1.00  0.00     0.320 C 
HETATM    3  O   UNL     1     -41.605 -50.897  13.226  1.00  0.00    -0.247 OA
HETATM    4  N   UNL     1     -40.814 -50.880  11.101  1.00  0.00    -0.343 N 
HETATM    5  H   UNL     1     -41.995 -53.019  10.892  1.00  0.00     0.171 HD
HETATM    6  H   UNL     1     -40.444 -51.505  10.398  1.00  0.00     0.164 HD
ENDROOT
BRANCH   1   7
HETATM    7  C   UNL     1     -43.151 -53.264  12.607  1.00  0.00     0.077 A 
HETATM    8  C   UNL     1     -42.651 -54.140  13.568  1.00  0.00     0.158 A 
HETATM    9  F   UNL     1     -41.330 -54.332  13.702  1.00  0.00    -0.202 F 
HETATM   10  C   UNL     1     -43.535 -54.794  14.411  1.00  0.00     0.132 A 
HETATM   11  N   UNL     1     -44.882 -54.649  14.353  1.00  0.00    -0.372 N 
HETATM   12  C   UNL     1     -45.349 -53.813  13.402  1.00  0.00     0.090 A 
ATOM     13  HN  UNL     1     -45.506 -55.142  14.992  1.00  0.00     0.164 HD
HETATM   14  C   UNL     1     -44.537 -53.118  12.520  1.00  0.00     0.050 A 
ENDBRANCH   1   7
BRANCH   4  15
HETATM   15  C   UNL     1     -40.014 -49.716  11.453  1.00  0.00     0.128 C 
BRANCH  15  16
HETATM   16  C   UNL     1     -38.525 -49.982  11.650  1.00  0.00     0.053 C 
BRANCH  16  17
HETATM   17  C   UNL     1     -38.030 -49.642  13.022  1.00  0.00    -0.082 C 
HETATM   18  C   UNL     1     -37.435 -50.476  13.882  1.00  0.00    -0.024 C 
HETATM   19  C   UNL     1     -37.080 -49.791  15.160  1.00  0.00     0.027 C 
HETATM   20  C   UNL     1     -37.236 -48.312  14.809  1.00  0.00     0.008 C 
HETATM   21  C   UNL     1     -38.155 -48.261  13.590  1.00  0.00     0.034 C 
ENDBRANCH  16  17
ENDBRANCH  15  16
ENDBRANCH   4  15
TORSDOF 4
ENDMDL
MODEL 8
REMARK VINA RESULT:      -5.6      4.038      6.052
REMARK  4 active torsions:
REMARK  status: ('A' for Active; 'I' for Inactive)
REMARK    1  A    between atoms: C_8  and  N_9 
REMARK       I    between atoms: N_9  and  C_10 
REMARK       I    between atoms: C_10  and  N_12 
REMARK    2  A    between atoms: N_12  and  C_13 
REMARK    3  A    between atoms: C_13  and  C_14 
REMARK    4  A    between atoms: C_14  and  C_15 
ROOT
HETATM    1  N   UNL     1     -41.271 -49.773  11.101  1.00  0.00    -0.306 N 
HETATM    2  C   UNL     1     -41.997 -50.451  12.051  1.00  0.00     0.320 C 
HETATM    3  O   UNL     1     -42.610 -49.934  12.978  1.00  0.00    -0.247 OA
HETATM    4  N   UNL     1     -41.971 -51.822  11.899  1.00  0.00    -0.343 N 
HETATM    5  H   UNL     1     -40.961 -50.279  10.283  1.00  0.00     0.171 HD
HETATM    6  H   UNL     1     -41.865 -52.193  10.965  1.00  0.00     0.164 HD
ENDROOT
BRANCH   1   7
HETATM    7  C   UNL     1     -41.069 -48.365  11.097  1.00  0.00     0.077 A 
HETATM    8  C   UNL     1     -41.942 -47.555  10.375  1.00  0.00     0.158 A 
HETATM    9  F   UNL     1     -42.965 -48.088   9.688  1.00  0.00    -0.202 F 
HETATM   10  C   UNL     1     -41.763 -46.181  10.396  1.00  0.00     0.132 A 
HETATM   11  N   UNL     1     -40.766 -45.560  11.072  1.00  0.00    -0.372 N 
HETATM   12  C   UNL     1     -39.917 -46.362  11.747  1.00  0.00     0.090 A 
ATOM     13  HN  UNL     1     -40.663 -44.545  11.071  1.00  0.00     0.164 HD
HETATM   14  C   UNL     1     -40.023 -47.743  11.782  1.00  0.00     0.050 A 
ENDBRANCH   1   7
BRANCH   4  15
HETATM   15  C   UNL     1     -42.789 -52.582  12.834  1.00  0.00     0.128 C 
BRANCH  15  16
HETATM   16  C   UNL     1     -43.987 -53.298  12.219  1.00  0.00     0.053 C 
BRANCH  16  17
HETATM   17  C   UNL     1     -45.098 -53.554  13.191  1.00  0.00    -0.082 C 
HETATM   18  C   UNL     1     -45.299 -54.674  13.892  1.00  0.00    -0.024 C 
HETATM   19  C   UNL     1     -46.509 -54.574  14.760  1.00  0.00     0.027 C 
HETATM   20  C   UNL     1     -46.818 -53.078  14.743  1.00  0.00     0.008 C 
HETATM   21  C   UNL     1     -46.141 -52.520  13.492  1.00  0.00     0.034 C 
ENDBRANCH  16  17
ENDBRANCH  15  16
ENDBRANCH   4  15
TORSDOF 4
ENDMDL
MODEL 9
REMARK VINA RESULT:      -5.5      3.750      5.464
REMARK  4 active torsions:
REMARK  status: ('A' for Active; 'I' for Inactive)
REMARK    1  A    between atoms: C_8  and  N_9 
REMARK       I    between atoms: N_9  and  C_10 
REMARK       I    between atoms: C_10  and  N_12 
REMARK    2  A    between atoms: N_12  and  C_13 
REMARK    3  A    between atoms: C_13  and  C_14 
REMARK    4  A    between atoms: C_14  and  C_15 
ROOT
HETATM    1  N   UNL     1     -41.814 -52.833  11.994  1.00  0.00    -0.306 N 
HETATM    2  C   UNL     1     -41.456 -51.517  12.167  1.00  0.00     0.320 C 
HETATM    3  O   UNL     1     -41.653 -50.856  13.180  1.00  0.00    -0.247 OA
HETATM    4  N   UNL     1     -40.848 -50.955  11.064  1.00  0.00    -0.343 N 
HETATM    5  H   UNL     1     -41.442 -53.330  11.197  1.00  0.00     0.171 HD
HETATM    6  H   UNL     1     -40.316 -51.562  10.455  1.00  0.00     0.164 HD
ENDROOT
BRANCH   1   7
HETATM    7  C   UNL     1     -42.534 -53.602  12.949  1.00  0.00     0.077 A 
HETATM    8  C   UNL     1     -43.914 -53.736  12.814  1.00  0.00     0.158 A 
HETATM    9  F   UNL     1     -44.565 -53.149  11.798  1.00  0.00    -0.202 F 
HETATM   10  C   UNL     1     -44.611 -54.511  13.728  1.00  0.00     0.132 A 
HETATM   11  N   UNL     1     -44.031 -55.147  14.775  1.00  0.00    -0.372 N 
HETATM   12  C   UNL     1     -42.697 -54.988  14.903  1.00  0.00     0.090 A 
ATOM     13  HN  UNL     1     -44.572 -55.714  15.429  1.00  0.00     0.164 HD
HETATM   14  C   UNL     1     -41.924 -54.235  14.035  1.00  0.00     0.050 A 
ENDBRANCH   1   7
BRANCH   4  15
HETATM   15  C   UNL     1     -40.378 -49.586  11.224  1.00  0.00     0.128 C 
BRANCH  15  16
HETATM   16  C   UNL     1     -41.303 -48.509  10.667  1.00  0.00     0.053 C 
BRANCH  16  17
HETATM   17  C   UNL     1     -40.894 -47.116  11.035  1.00  0.00    -0.082 C 
HETATM   18  C   UNL     1     -39.921 -46.771  11.885  1.00  0.00    -0.024 C 
HETATM   19  C   UNL     1     -39.797 -45.290  12.012  1.00  0.00     0.027 C 
HETATM   20  C   UNL     1     -40.619 -44.776  10.830  1.00  0.00     0.008 C 
HETATM   21  C   UNL     1     -41.567 -45.911  10.449  1.00  0.00     0.034 C 
ENDBRANCH  16  17
ENDBRANCH  15  16
ENDBRANCH   4  15
TORSDOF 4
ENDMDL
