MODEL 1
REMARK VINA RESULT:      -5.9      0.000      0.000
REMARK  7 active torsions:
REMARK  status: ('A' for Active; 'I' for Inactive)
REMARK    1  A    between atoms: C_2  and  C_3 
REMARK    2  A    between atoms: C_3  and  N_4 
REMARK       I    between atoms: N_4  and  C_5 
REMARK    3  A    between atoms: C_5  and  C_7 
REMARK    4  A    between atoms: C_7  and  N_8 
REMARK    5  A    between atoms: C_11  and  C_12 
REMARK    6  A    between atoms: C_12  and  N_13 
REMARK    7  A    between atoms: N_17  and  C_18 
ROOT
HETATM    1  N   UNL     1     -43.478 -54.247  15.145  1.00  0.00    -0.256 N 
HETATM    2  C   UNL     1     -42.967 -53.279  14.302  1.00  0.00     0.273 C 
HETATM    3  O   UNL     1     -43.402 -52.148  14.132  1.00  0.00    -0.266 OA
HETATM    4  C   UNL     1     -41.743 -53.634  13.621  1.00  0.00     0.110 C 
HETATM    5  C   UNL     1     -40.903 -54.424  14.300  1.00  0.00     0.123 C 
HETATM    6  N   UNL     1     -41.263 -54.975  15.512  1.00  0.00    -0.303 N 
HETATM    7  C   UNL     1     -42.596 -54.962  15.960  1.00  0.00     0.332 C 
HETATM    8  O   UNL     1     -42.943 -55.484  17.021  1.00  0.00    -0.246 OA
ENDROOT
BRANCH   1   9
HETATM    9  C   UNL     1     -44.846 -54.105  15.634  1.00  0.00     0.239 C 
BRANCH   9  10
HETATM   10  C   UNL     1     -45.863 -54.502  14.557  1.00  0.00     0.236 C 
HETATM   11  N   UNL     1     -46.887 -53.647  14.242  1.00  0.00    -0.356 N 
HETATM   12  H   UNL     1     -47.435 -53.975  13.458  1.00  0.00     0.162 HD
HETATM   13  O   UNL     1     -45.753 -55.556  13.931  1.00  0.00    -0.272 OA
BRANCH  11  14
HETATM   14  C   UNL     1     -46.880 -52.217  14.439  1.00  0.00     0.149 C 
BRANCH  14  15
HETATM   15  C   UNL     1     -46.456 -51.510  13.210  1.00  0.00    -0.018 C 
HETATM   16  C   UNL     1     -46.830 -51.939  11.996  1.00  0.00     0.008 C 
ENDBRANCH  14  15
ENDBRANCH  11  14
ENDBRANCH   9  10
ENDBRANCH   1   9
BRANCH   4  17
HETATM   17  C   UNL     1     -41.316 -52.978  12.319  1.00  0.00    -0.030 C 
BRANCH  17  18
HETATM   18  N   UNL     1     -40.962 -52.433  11.238  1.00  0.00    -0.365 N 
ATOM     19  HN2 UNL     1     -41.210 -52.873  12.124  1.00  0.00     0.165 HD
ATOM     20  HN1 UNL     1     -40.676 -51.992  10.364  1.00  0.00     0.165 HD
ENDBRANCH  17  18
ENDBRANCH   4  17
BRANCH   6  21
HETATM   21  C   UNL     1     -40.245 -55.653  16.285  1.00  0.00     0.094 A 
HETATM   22  C   UNL     1     -39.375 -54.897  17.266  1.00  0.00     0.028 A 
HETATM   23  C   UNL     1     -38.766 -55.467  16.024  1.00  0.00     0.028 A 
ENDBRANCH   6  21
TORSDOF 7
ENDMDL
MODEL 2
REMARK VINA RESULT:      -5.6      7.065     10.305
REMARK  7 active torsions:
REMARK  status: ('A' for Active; 'I' for Inactive)
REMARK    1  A    between atoms: C_2  and  C_3 
REMARK    2  A    between atoms: C_3  and  N_4 
REMARK       I    between atoms: N_4  and  C_5 
REMARK    3  A    between atoms: C_5  and  C_7 
REMARK    4  A    between atoms: C_7  and  N_8 
REMARK    5  A    between atoms: C_11  and  C_12 
REMARK    6  A    between atoms: C_12  and  N_13 
REMARK    7  A    between atoms: N_17  and  C_18 
ROOT
HETATM    1  N   UNL     1     -42.512 -45.534  10.983  1.00  0.00    -0.256 N 
HETATM    2  C   UNL     1     -42.703 -46.363  12.072  1.00  0.00     0.273 C 
HETATM    3  O   UNL     1     -42.660 -46.047  13.253  1.00  0.00    -0.266 OA
HETATM    4  C   UNL     1     -43.070 -47.725  11.756  1.00  0.00     0.110 C 
HETATM    5  C   UNL     1     -43.826 -47.889  10.664  1.00  0.00     0.123 C 
HETATM    6  N   UNL     1     -44.106 -46.833   9.823  1.00  0.00    -0.303 N 
HETATM    7  C   UNL     1     -43.406 -45.616   9.911  1.00  0.00     0.332 C 
HETATM    8  O   UNL     1     -43.613 -44.676   9.142  1.00  0.00    -0.246 OA
ENDROOT
BRANCH   1   9
HETATM    9  C   UNL     1     -41.855 -44.247  11.184  1.00  0.00     0.239 C 
BRANCH   9  10
HETATM   10  C   UNL     1     -40.357 -44.335  10.867  1.00  0.00     0.236 C 
HETATM   11  N   UNL     1     -39.439 -44.116  11.861  1.00  0.00    -0.356 N 
HETATM   12  H   UNL     1     -38.490 -44.292  11.555  1.00  0.00     0.162 HD
HETATM   13  O   UNL     1     -39.957 -44.647   9.745  1.00  0.00    -0.272 OA
BRANCH  11  14
HETATM   14  C   UNL     1     -39.674 -44.280  13.275  1.00  0.00     0.149 C 
BRANCH  14  15
HETATM   15  C   UNL     1     -38.964 -45.467  13.802  1.00  0.00    -0.018 C 
HETATM   16  C   UNL     1     -39.222 -46.696  13.334  1.00  0.00     0.008 C 
ENDBRANCH  14  15
ENDBRANCH  11  14
ENDBRANCH   9  10
ENDBRANCH   1   9
BRANCH   4  17
HETATM   17  C   UNL     1     -42.821 -48.878  12.714  1.00  0.00    -0.030 C 
BRANCH  17  18
HETATM   18  N   UNL     1     -42.613 -49.835  13.508  1.00  0.00    -0.365 N 
ATOM     19  HN2 UNL     1     -42.806 -49.085  12.844  1.00  0.00     0.165 HD
ATOM     20  HN1 UNL     1     -42.445 -50.609  14.150  1.00  0.00     0.165 HD
ENDBRANCH  17  18
ENDBRANCH   4  17
BRANCH   6  21
HETATM   21  C   UNL     1     -45.084 -47.032   8.776  1.00  0.00     0.094 A 
HETATM   22  C   UNL     1     -46.560 -46.812   9.034  1.00  0.00     0.028 A 
HETATM   23  C   UNL     1     -46.052 -48.196   8.777  1.00  0.00     0.028 A 
ENDBRANCH   6  21
TORSDOF 7
ENDMDL
MODEL 3
REMARK VINA RESULT:      -5.5      3.246      5.407
REMARK  7 active torsions:
REMARK  status: ('A' for Active; 'I' for Inactive)
REMARK    1  A    between atoms: C_2  and  C_3 
REMARK    2  A    between atoms: C_3  and  N_4 
REMARK       I    between atoms: N_4  and  C_5 
REMARK    3  A    between atoms: C_5  and  C_7 
REMARK    4  A    between atoms: C_7  and  N_8 
REMARK    5  A    between atoms: C_11  and  C_12 
REMARK    6  A    between atoms: C_12  and  N_13 
REMARK    7  A    between atoms: N_17  and  C_18 
ROOT
HETATM    1  N   UNL     1     -42.187 -51.217  13.020  1.00  0.00    -0.256 N 
HETATM    2  C   UNL     1     -41.187 -51.941  13.642  1.00  0.00     0.273 C 
HETATM    3  O   UNL     1     -40.320 -51.508  14.388  1.00  0.00    -0.266 OA
HETATM    4  C   UNL     1     -41.240 -53.371  13.437  1.00  0.00     0.110 C 
HETATM    5  C   UNL     1     -42.463 -53.902  13.325  1.00  0.00     0.123 C 
HETATM    6  N   UNL     1     -43.586 -53.103  13.264  1.00  0.00    -0.303 N 
HETATM    7  C   UNL     1     -43.492 -51.716  13.044  1.00  0.00     0.332 C 
HETATM    8  O   UNL     1     -44.485 -50.993  12.946  1.00  0.00    -0.246 OA
ENDROOT
BRANCH   1   9
HETATM    9  C   UNL     1     -42.047 -49.768  12.917  1.00  0.00     0.239 C 
BRANCH   9  10
HETATM   10  C   UNL     1     -41.542 -49.359  11.528  1.00  0.00     0.236 C 
HETATM   11  N   UNL     1     -42.351 -48.627  10.699  1.00  0.00    -0.356 N 
HETATM   12  H   UNL     1     -41.877 -48.340   9.852  1.00  0.00     0.162 HD
HETATM   13  O   UNL     1     -40.401 -49.635  11.155  1.00  0.00    -0.272 OA
BRANCH  11  14
HETATM   14  C   UNL     1     -43.436 -47.774  11.121  1.00  0.00     0.149 C 
BRANCH  14  15
HETATM   15  C   UNL     1     -44.388 -47.531  10.014  1.00  0.00    -0.018 C 
HETATM   16  C   UNL     1     -43.958 -47.285   8.768  1.00  0.00     0.008 C 
ENDBRANCH  14  15
ENDBRANCH  11  14
ENDBRANCH   9  10
ENDBRANCH   1   9
BRANCH   4  17
HETATM   17  C   UNL     1     -40.014 -54.259  13.571  1.00  0.00    -0.030 C 
BRANCH  17  18
HETATM   18  N   UNL     1     -38.996 -54.995  13.680  1.00  0.00    -0.365 N 
ATOM     19  HN2 UNL     1     -39.842 -54.430  13.604  1.00  0.00     0.165 HD
ATOM     20  HN1 UNL     1     -38.173 -55.590  13.768  1.00  0.00     0.165 HD
ENDBRANCH  17  18
ENDBRANCH   4  17
BRANCH   6  21
HETATM   21  C   UNL     1     -44.883 -53.738  13.343  1.00  0.00     0.094 A 
HETATM   22  C   UNL     1     -45.583 -53.922  14.672  1.00  0.00     0.028 A 
HETATM   23  C   UNL     1     -45.079 -55.119  13.929  1.00  0.00     0.028 A 
ENDBRANCH   6  21
TORSDOF 7
ENDMDL
MODEL 4
REMARK VINA RESULT:      -5.4      8.034     10.814
REMARK  7 active torsions:
REMARK  status: ('A' for Active; 'I' for Inactive)
REMARK    1  A    between atoms: C_2  and  C_3 
REMARK    2  A    between atoms: C_3  and  N_4 
REMARK       I    between atoms: N_4  and  C_5 
REMARK    3  A    between atoms: C_5  and  C_7 
REMARK    4  A    between atoms: C_7  and  N_8 
REMARK    5  A    between atoms: C_11  and  C_12 
REMARK    6  A    between atoms: C_12  and  N_13 
REMARK    7  A    between atoms: N_17  and  C_18 
ROOT
HETATM    1  N   UNL     1     -41.734 -45.678  11.030  1.00  0.00    -0.256 N 
HETATM    2  C   UNL     1     -41.491 -46.921  11.582  1.00  0.00     0.273 C 
HETATM    3  O   UNL     1     -41.224 -47.167  12.750  1.00  0.00    -0.266 OA
HETATM    4  C   UNL     1     -41.656 -48.041  10.684  1.00  0.00     0.110 C 
HETATM    5  C   UNL     1     -42.608 -47.910   9.753  1.00  0.00     0.123 C 
HETATM    6  N   UNL     1     -43.281 -46.718   9.582  1.00  0.00    -0.303 N 
HETATM    7  C   UNL     1     -42.828 -45.525  10.174  1.00  0.00     0.332 C 
HETATM    8  O   UNL     1     -43.393 -44.444  10.000  1.00  0.00    -0.246 OA
ENDROOT
BRANCH   1   9
HETATM    9  C   UNL     1     -41.307 -44.488  11.759  1.00  0.00     0.239 C 
BRANCH   9  10
HETATM   10  C   UNL     1     -40.483 -43.556  10.862  1.00  0.00     0.236 C 
HETATM   11  N   UNL     1     -40.530 -42.201  11.065  1.00  0.00    -0.356 N 
HETATM   12  H   UNL     1     -39.877 -41.701  10.476  1.00  0.00     0.162 HD
HETATM   13  O   UNL     1     -39.739 -44.001   9.988  1.00  0.00    -0.272 OA
BRANCH  11  14
HETATM   14  C   UNL     1     -40.872 -41.548  12.306  1.00  0.00     0.149 C 
BRANCH  14  15
HETATM   15  C   UNL     1     -39.664 -41.268  13.114  1.00  0.00    -0.018 C 
HETATM   16  C   UNL     1     -39.316 -40.013  13.434  1.00  0.00     0.008 C 
ENDBRANCH  14  15
ENDBRANCH  11  14
ENDBRANCH   9  10
ENDBRANCH   1   9
BRANCH   4  17
HETATM   17  C   UNL     1     -40.965 -49.375  10.910  1.00  0.00    -0.030 C 
BRANCH  17  18
HETATM   18  N   UNL     1     -40.390 -50.482  11.097  1.00  0.00    -0.365 N 
ATOM     19  HN2 UNL     1     -40.878 -49.594  10.977  1.00  0.00     0.165 HD
ATOM     20  HN1 UNL     1     -39.925 -51.378  11.247  1.00  0.00     0.165 HD
ENDBRANCH  17  18
ENDBRANCH   4  17
BRANCH   6  21
HETATM   21  C   UNL     1     -44.428 -46.699   8.701  1.00  0.00     0.094 A 
HETATM   22  C   UNL     1     -45.828 -46.909   9.236  1.00  0.00     0.028 A 
HETATM   23  C   UNL     1     -45.209 -47.949   8.355  1.00  0.00     0.028 A 
ENDBRANCH   6  21
TORSDOF 7
ENDMDL
MODEL 5
REMARK VINA RESULT:      -5.3      3.224      6.396
REMARK  7 active torsions:
REMARK  status: ('A' for Active; 'I' for Inactive)
REMARK    1  A    between atoms: C_2  and  C_3 
REMARK    2  A    between atoms: C_3  and  N_4 
REMARK       I    between atoms: N_4  and  C_5 
REMARK    3  A    between atoms: C_5  and  C_7 
REMARK    4  A    between atoms: C_7  and  N_8 
REMARK    5  A    between atoms: C_11  and  C_12 
REMARK    6  A    between atoms: C_12  and  N_13 
REMARK    7  A    between atoms: N_17  and  C_18 
ROOT
HETATM    1  N   UNL     1     -41.542 -50.752  13.093  1.00  0.00    -0.256 N 
HETATM    2  C   UNL     1     -40.686 -51.616  13.749  1.00  0.00     0.273 C 
HETATM    3  O   UNL     1     -39.855 -51.325  14.599  1.00  0.00    -0.266 OA
HETATM    4  C   UNL     1     -40.865 -53.017  13.441  1.00  0.00     0.110 C 
HETATM    5  C   UNL     1     -42.120 -53.404  13.183  1.00  0.00     0.123 C 
HETATM    6  N   UNL     1     -43.143 -52.486  13.077  1.00  0.00    -0.303 N 
HETATM    7  C   UNL     1     -42.887 -51.107  12.965  1.00  0.00     0.332 C 
HETATM    8  O   UNL     1     -43.787 -50.276  12.828  1.00  0.00    -0.246 OA
ENDROOT
BRANCH   1   9
HETATM    9  C   UNL     1     -41.244 -49.323  13.104  1.00  0.00     0.239 C 
BRANCH   9  10
HETATM   10  C   UNL     1     -40.742 -48.852  11.733  1.00  0.00     0.236 C 
HETATM   11  N   UNL     1     -39.424 -48.515  11.572  1.00  0.00    -0.356 N 
HETATM   12  H   UNL     1     -39.194 -48.310  10.609  1.00  0.00     0.162 HD
HETATM   13  O   UNL     1     -41.490 -48.814  10.756  1.00  0.00    -0.272 OA
BRANCH  11  14
HETATM   14  C   UNL     1     -38.329 -48.990  12.384  1.00  0.00     0.149 C 
BRANCH  14  15
HETATM   15  C   UNL     1     -37.616 -50.105  11.721  1.00  0.00    -0.018 C 
HETATM   16  C   UNL     1     -37.165 -51.156  12.421  1.00  0.00     0.008 C 
ENDBRANCH  14  15
ENDBRANCH  11  14
ENDBRANCH   9  10
ENDBRANCH   1   9
BRANCH   4  17
HETATM   17  C   UNL     1     -39.755 -54.039  13.622  1.00  0.00    -0.030 C 
BRANCH  17  18
HETATM   18  N   UNL     1     -38.834 -54.887  13.770  1.00  0.00    -0.365 N 
ATOM     19  HN2 UNL     1     -39.554 -54.172  13.663  1.00  0.00     0.165 HD
ATOM     20  HN1 UNL     1     -38.090 -55.574  13.891  1.00  0.00     0.165 HD
ENDBRANCH  17  18
ENDBRANCH   4  17
BRANCH   6  21
HETATM   21  C   UNL     1     -44.501 -52.979  12.995  1.00  0.00     0.094 A 
HETATM   22  C   UNL     1     -45.310 -53.252  14.245  1.00  0.00     0.028 A 
HETATM   23  C   UNL     1     -44.877 -54.394  13.381  1.00  0.00     0.028 A 
ENDBRANCH   6  21
TORSDOF 7
ENDMDL
MODEL 6
REMARK VINA RESULT:      -5.3      3.553      4.827
REMARK  7 active torsions:
REMARK  status: ('A' for Active; 'I' for Inactive)
REMARK    1  A    between atoms: C_2  and  C_3 
REMARK    2  A    between atoms: C_3  and  N_4 
REMARK       I    between atoms: N_4  and  C_5 
REMARK    3  A    between atoms: C_5  and  C_7 
REMARK    4  A    between atoms: C_7  and  N_8 
REMARK    5  A    between atoms: C_11  and  C_12 
REMARK    6  A    between atoms: C_12  and  N_13 
REMARK    7  A    between atoms: N_17  and  C_18 
ROOT
HETATM    1  N   UNL     1     -42.117 -50.877  12.805  1.00  0.00    -0.256 N 
HETATM    2  C   UNL     1     -42.435 -49.616  12.338  1.00  0.00     0.273 C 
HETATM    3  O   UNL     1     -43.271 -48.850  12.798  1.00  0.00    -0.266 OA
HETATM    4  C   UNL     1     -41.624 -49.140  11.240  1.00  0.00     0.110 C 
HETATM    5  C   UNL     1     -40.347 -49.540  11.238  1.00  0.00     0.123 C 
HETATM    6  N   UNL     1     -39.886 -50.464  12.152  1.00  0.00    -0.303 N 
HETATM    7  C   UNL     1     -40.770 -51.224  12.940  1.00  0.00     0.332 C 
HETATM    8  O   UNL     1     -40.378 -52.083  13.733  1.00  0.00    -0.246 OA
ENDROOT
BRANCH   1   9
HETATM    9  C   UNL     1     -43.056 -51.556  13.693  1.00  0.00     0.239 C 
BRANCH   9  10
HETATM   10  C   UNL     1     -43.851 -52.629  12.939  1.00  0.00     0.236 C 
HETATM   11  N   UNL     1     -45.221 -52.568  12.916  1.00  0.00    -0.356 N 
HETATM   12  H   UNL     1     -45.627 -53.273  12.314  1.00  0.00     0.162 HD
HETATM   13  O   UNL     1     -43.285 -53.523  12.310  1.00  0.00    -0.272 OA
BRANCH  11  14
HETATM   14  C   UNL     1     -46.013 -51.376  13.098  1.00  0.00     0.149 C 
BRANCH  14  15
HETATM   15  C   UNL     1     -46.840 -51.465  14.322  1.00  0.00    -0.018 C 
HETATM   16  C   UNL     1     -46.307 -51.276  15.538  1.00  0.00     0.008 C 
ENDBRANCH  14  15
ENDBRANCH  11  14
ENDBRANCH   9  10
ENDBRANCH   1   9
BRANCH   4  17
HETATM   17  C   UNL     1     -42.109 -48.073  10.273  1.00  0.00    -0.030 C 
BRANCH  17  18
HETATM   18  N   UNL     1     -42.511 -47.187   9.470  1.00  0.00    -0.365 N 
ATOM     19  HN2 UNL     1     -42.150 -47.885  10.121  1.00  0.00     0.165 HD
ATOM     20  HN1 UNL     1     -42.836 -46.471   8.821  1.00  0.00     0.165 HD
ENDBRANCH  17  18
ENDBRANCH   4  17
BRANCH   6  21
HETATM   21  C   UNL     1     -38.462 -50.703  12.226  1.00  0.00     0.094 A 
HETATM   22  C   UNL     1     -37.543 -49.739  12.945  1.00  0.00     0.028 A 
HETATM   23  C   UNL     1     -37.457 -49.873  11.457  1.00  0.00     0.028 A 
ENDBRANCH   6  21
TORSDOF 7
ENDMDL
MODEL 7
REMARK VINA RESULT:      -5.3      5.646      8.474
REMARK  7 active torsions:
REMARK  status: ('A' for Active; 'I' for Inactive)
REMARK    1  A    between atoms: C_2  and  C_3 
REMARK    2  A    between atoms: C_3  and  N_4 
REMARK       I    between atoms: N_4  and  C_5 
REMARK    3  A    between atoms: C_5  and  C_7 
REMARK    4  A    between atoms: C_7  and  N_8 
REMARK    5  A    between atoms: C_11  and  C_12 
REMARK    6  A    between atoms: C_12  and  N_13 
REMARK    7  A    between atoms: N_17  and  C_18 
ROOT
HETATM    1  N   UNL     1     -41.346 -48.594  11.992  1.00  0.00    -0.256 N 
HETATM    2  C   UNL     1     -42.577 -48.308  11.433  1.00  0.00     0.273 C 
HETATM    3  O   UNL     1     -43.674 -48.641  11.860  1.00  0.00    -0.266 OA
HETATM    4  C   UNL     1     -42.544 -47.457  10.266  1.00  0.00     0.110 C 
HETATM    5  C   UNL     1     -41.581 -46.528  10.245  1.00  0.00     0.123 C 
HETATM    6  N   UNL     1     -40.601 -46.493  11.215  1.00  0.00    -0.303 N 
HETATM    7  C   UNL     1     -40.403 -47.569  12.100  1.00  0.00     0.332 C 
HETATM    8  O   UNL     1     -39.506 -47.573  12.946  1.00  0.00    -0.246 OA
ENDROOT
BRANCH   1   9
HETATM    9  C   UNL     1     -41.251 -49.671  12.972  1.00  0.00     0.239 C 
BRANCH   9  10
HETATM   10  C   UNL     1     -40.950 -51.013  12.292  1.00  0.00     0.236 C 
HETATM   11  N   UNL     1     -39.651 -51.429  12.157  1.00  0.00    -0.356 N 
HETATM   12  H   UNL     1     -39.585 -52.366  11.779  1.00  0.00     0.162 HD
HETATM   13  O   UNL     1     -41.856 -51.751  11.905  1.00  0.00    -0.272 OA
BRANCH  11  14
HETATM   14  C   UNL     1     -38.544 -51.015  12.984  1.00  0.00     0.149 C 
BRANCH  14  15
HETATM   15  C   UNL     1     -37.344 -50.725  12.167  1.00  0.00    -0.018 C 
HETATM   16  C   UNL     1     -37.398 -49.880  11.128  1.00  0.00     0.008 C 
ENDBRANCH  14  15
ENDBRANCH  11  14
ENDBRANCH   9  10
ENDBRANCH   1   9
BRANCH   4  17
HETATM   17  C   UNL     1     -43.657 -47.449   9.231  1.00  0.00    -0.030 C 
BRANCH  17  18
HETATM   18  N   UNL     1     -44.580 -47.442   8.373  1.00  0.00    -0.365 N 
ATOM     19  HN2 UNL     1     -43.811 -47.425   9.042  1.00  0.00     0.165 HD
ATOM     20  HN1 UNL     1     -45.328 -47.437   7.678  1.00  0.00     0.165 HD
ENDBRANCH  17  18
ENDBRANCH   4  17
BRANCH   6  21
HETATM   21  C   UNL     1     -39.711 -45.353  11.249  1.00  0.00     0.094 A 
HETATM   22  C   UNL     1     -39.946 -44.207  12.209  1.00  0.00     0.028 A 
HETATM   23  C   UNL     1     -40.118 -43.988  10.740  1.00  0.00     0.028 A 
ENDBRANCH   6  21
TORSDOF 7
ENDMDL
MODEL 8
REMARK VINA RESULT:      -5.3      2.117      6.062
REMARK  7 active torsions:
REMARK  status: ('A' for Active; 'I' for Inactive)
REMARK    1  A    between atoms: C_2  and  C_3 
REMARK    2  A    between atoms: C_3  and  N_4 
REMARK       I    between atoms: N_4  and  C_5 
REMARK    3  A    between atoms: C_5  and  C_7 
REMARK    4  A    between atoms: C_7  and  N_8 
REMARK    5  A    between atoms: C_11  and  C_12 
REMARK    6  A    between atoms: C_12  and  N_13 
REMARK    7  A    between atoms: N_17  and  C_18 
ROOT
HETATM    1  N   UNL     1     -43.979 -52.639  14.187  1.00  0.00    -0.256 N 
HETATM    2  C   UNL     1     -44.914 -52.878  13.198  1.00  0.00     0.273 C 
HETATM    3  O   UNL     1     -44.955 -53.837  12.441  1.00  0.00    -0.266 OA
HETATM    4  C   UNL     1     -45.994 -51.920  13.124  1.00  0.00     0.110 C 
HETATM    5  C   UNL     1     -46.388 -51.390  14.288  1.00  0.00     0.123 C 
HETATM    6  N   UNL     1     -45.701 -51.642  15.457  1.00  0.00    -0.303 N 
HETATM    7  C   UNL     1     -44.423 -52.229  15.447  1.00  0.00     0.332 C 
HETATM    8  O   UNL     1     -43.776 -52.424  16.479  1.00  0.00    -0.246 OA
ENDROOT
BRANCH   1   9
HETATM    9  C   UNL     1     -42.712 -53.363  14.148  1.00  0.00     0.239 C 
BRANCH   9  10
HETATM   10  C   UNL     1     -41.558 -52.436  13.744  1.00  0.00     0.236 C 
HETATM   11  N   UNL     1     -40.271 -52.905  13.769  1.00  0.00    -0.356 N 
HETATM   12  H   UNL     1     -39.610 -52.235  13.396  1.00  0.00     0.162 HD
HETATM   13  O   UNL     1     -41.767 -51.288  13.351  1.00  0.00    -0.272 OA
BRANCH  11  14
HETATM   14  C   UNL     1     -39.877 -54.289  13.663  1.00  0.00     0.149 C 
BRANCH  14  15
HETATM   15  C   UNL     1     -39.165 -54.738  14.881  1.00  0.00    -0.018 C 
HETATM   16  C   UNL     1     -39.830 -55.248  15.928  1.00  0.00     0.008 C 
ENDBRANCH  14  15
ENDBRANCH  11  14
ENDBRANCH   9  10
ENDBRANCH   1   9
BRANCH   4  17
HETATM   17  C   UNL     1     -46.794 -51.692  11.852  1.00  0.00    -0.030 C 
BRANCH  17  18
HETATM   18  N   UNL     1     -47.459 -51.504  10.798  1.00  0.00    -0.365 N 
ATOM     19  HN2 UNL     1     -46.941 -51.691  11.656  1.00  0.00     0.165 HD
ATOM     20  HN1 UNL     1     -47.996 -51.350   9.944  1.00  0.00     0.165 HD
ENDBRANCH  17  18
ENDBRANCH   4  17
BRANCH   6  21
HETATM   21  C   UNL     1     -46.288 -51.205  16.704  1.00  0.00     0.094 A 
HETATM   22  C   UNL     1     -47.059 -52.165  17.584  1.00  0.00     0.028 A 
HETATM   23  C   UNL     1     -47.782 -51.054  16.892  1.00  0.00     0.028 A 
ENDBRANCH   6  21
TORSDOF 7
ENDMDL
MODEL 9
REMARK VINA RESULT:      -5.3      8.109     10.415
REMARK  7 active torsions:
REMARK  status: ('A' for Active; 'I' for Inactive)
REMARK    1  A    between atoms: C_2  and  C_3 
REMARK    2  A    between atoms: C_3  and  N_4 
REMARK       I    between atoms: N_4  and  C_5 
REMARK    3  A    between atoms: C_5  and  C_7 
REMARK    4  A    between atoms: C_7  and  N_8 
REMARK    5  A    between atoms: C_11  and  C_12 
REMARK    6  A    between atoms: C_12  and  N_13 
REMARK    7  A    between atoms: N_17  and  C_18 
ROOT
HETATM    1  N   UNL     1     -42.133 -45.368  10.774  1.00  0.00    -0.256 N 
HETATM    2  C   UNL     1     -40.905 -45.477  11.399  1.00  0.00     0.273 C 
HETATM    3  O   UNL     1     -39.915 -46.060  10.979  1.00  0.00    -0.266 OA
HETATM    4  C   UNL     1     -40.777 -44.750  12.641  1.00  0.00     0.110 C 
HETATM    5  C   UNL     1     -41.454 -43.599  12.719  1.00  0.00     0.123 C 
HETATM    6  N   UNL     1     -42.330 -43.217  11.724  1.00  0.00    -0.303 N 
HETATM    7  C   UNL     1     -42.758 -44.119  10.733  1.00  0.00     0.332 C 
HETATM    8  O   UNL     1     -43.571 -43.807   9.861  1.00  0.00    -0.246 OA
ENDROOT
BRANCH   1   9
HETATM    9  C   UNL     1     -42.456 -46.292   9.692  1.00  0.00     0.239 C 
BRANCH   9  10
HETATM   10  C   UNL     1     -43.043 -47.600  10.238  1.00  0.00     0.236 C 
HETATM   11  N   UNL     1     -44.393 -47.822  10.163  1.00  0.00    -0.356 N 
HETATM   12  H   UNL     1     -44.648 -48.753  10.470  1.00  0.00     0.162 HD
HETATM   13  O   UNL     1     -42.319 -48.481  10.703  1.00  0.00    -0.272 OA
BRANCH  11  14
HETATM   14  C   UNL     1     -45.295 -47.213   9.215  1.00  0.00     0.149 C 
BRANCH  14  15
HETATM   15  C   UNL     1     -46.480 -48.068   8.979  1.00  0.00    -0.018 C 
HETATM   16  C   UNL     1     -46.523 -48.928   7.951  1.00  0.00     0.008 C 
ENDBRANCH  14  15
ENDBRANCH  11  14
ENDBRANCH   9  10
ENDBRANCH   1   9
BRANCH   4  17
HETATM   17  C   UNL     1     -39.764 -45.133  13.708  1.00  0.00    -0.030 C 
BRANCH  17  18
HETATM   18  N   UNL     1     -38.924 -45.450  14.593  1.00  0.00    -0.365 N 
ATOM     19  HN2 UNL     1     -39.575 -45.174  13.857  1.00  0.00     0.165 HD
ATOM     20  HN1 UNL     1     -38.244 -45.707  15.309  1.00  0.00     0.165 HD
ENDBRANCH  17  18
ENDBRANCH   4  17
BRANCH   6  21
HETATM   21  C   UNL     1     -42.877 -41.878  11.770  1.00  0.00     0.094 A 
HETATM   22  C   UNL     1     -42.178 -40.724  11.084  1.00  0.00     0.028 A 
HETATM   23  C   UNL     1     -42.242 -40.767  12.578  1.00  0.00     0.028 A 
ENDBRANCH   6  21
TORSDOF 7
ENDMDL
