MODEL 1
REMARK VINA RESULT:      -5.9      0.000      0.000
REMARK  4 active torsions:
REMARK  status: ('A' for Active; 'I' for Inactive)
REMARK    1  A    between atoms: O_2  and  C_3 
REMARK    2  A    between atoms: C_3  and  C_4 
REMARK    3  A    between atoms: C_4  and  N_5 
REMARK    4  A    between atoms: C_6  and  N_18 
ROOT
HETATM    1  N   UNL     1     -40.647 -48.720  12.040  1.00  0.00    -0.172 N 
HETATM    2  C   UNL     1     -41.658 -49.664  12.222  1.00  0.00     0.685 A 
HETATM    3  N   UNL     1     -42.732 -49.291  11.533  1.00  0.00    -0.174 N 
ATOM      4  HN  UNL     1     -43.608 -49.806  11.440  1.00  0.00     0.186 HD
HETATM    5  C   UNL     1     -42.433 -48.084  10.974  1.00  0.00     0.160 A 
HETATM    6  N   UNL     1     -43.220 -47.330  10.123  1.00  0.00    -0.287 N 
HETATM    7  C   UNL     1     -44.534 -47.748   9.686  1.00  0.00     0.163 C 
HETATM    8  C   UNL     1     -42.720 -46.132   9.621  1.00  0.00     0.330 A 
HETATM    9  O   UNL     1     -43.340 -45.404   8.841  1.00  0.00    -0.246 OA
HETATM   10  N   UNL     1     -41.459 -45.757  10.022  1.00  0.00    -0.273 N 
HETATM   11  C   UNL     1     -40.616 -46.449  10.856  1.00  0.00     0.280 A 
HETATM   12  O   UNL     1     -39.511 -46.005  11.144  1.00  0.00    -0.265 OA
HETATM   13  C   UNL     1     -41.174 -47.682  11.310  1.00  0.00     0.164 A 
HETATM   14  H   UNL     1     -41.111 -44.886   9.653  1.00  0.00     0.173 HD
ENDROOT
BRANCH   2  15
HETATM   15  N   UNL     1     -41.506 -50.867  12.858  1.00  0.00    -0.213 N 
HETATM   16  C   UNL     1     -41.634 -51.088  14.308  1.00  0.00     0.167 C 
HETATM   17  C   UNL     1     -40.664 -52.216  14.707  1.00  0.00     0.188 C 
HETATM   18  O   UNL     1     -41.003 -53.436  14.034  1.00  0.00    -0.388 OA
HETATM   19  C   UNL     1     -40.956 -53.254  12.605  1.00  0.00     0.188 C 
HETATM   20  C   UNL     1     -41.867 -52.103  12.126  1.00  0.00     0.167 C 
ENDBRANCH   2  15
BRANCH   1  21
HETATM   21  C   UNL     1     -39.235 -48.844  12.336  1.00  0.00     0.174 C 
BRANCH  21  22
HETATM   22  C   UNL     1     -38.500 -49.770  11.376  1.00  0.00     0.187 C 
BRANCH  22  23
HETATM   23  O   UNL     1     -38.278 -51.020  12.031  1.00  0.00    -0.394 OA
HETATM   24  C   UNL     1     -37.499 -50.858  13.209  1.00  0.00     0.201 C 
ENDBRANCH  22  23
ENDBRANCH  21  22
ENDBRANCH   1  21
TORSDOF 4
ENDMDL
MODEL 2
REMARK VINA RESULT:      -5.8      1.864      2.558
REMARK  4 active torsions:
REMARK  status: ('A' for Active; 'I' for Inactive)
REMARK    1  A    between atoms: O_2  and  C_3 
REMARK    2  A    between atoms: C_3  and  C_4 
REMARK    3  A    between atoms: C_4  and  N_5 
REMARK    4  A    between atoms: C_6  and  N_18 
ROOT
HETATM    1  N   UNL     1     -40.595 -47.495  12.185  1.00  0.00    -0.172 N 
HETATM    2  C   UNL     1     -40.611 -48.754  11.583  1.00  0.00     0.685 A 
HETATM    3  N   UNL     1     -41.411 -48.718  10.521  1.00  0.00    -0.174 N 
ATOM      4  HN  UNL     1     -41.584 -49.477   9.861  1.00  0.00     0.186 HD
HETATM    5  C   UNL     1     -41.955 -47.469  10.489  1.00  0.00     0.160 A 
HETATM    6  N   UNL     1     -42.807 -46.944   9.533  1.00  0.00    -0.287 N 
HETATM    7  C   UNL     1     -43.251 -47.691   8.377  1.00  0.00     0.163 C 
HETATM    8  C   UNL     1     -43.228 -45.623   9.654  1.00  0.00     0.330 A 
HETATM    9  O   UNL     1     -43.969 -45.063   8.841  1.00  0.00    -0.246 OA
HETATM   10  N   UNL     1     -42.778 -44.914  10.743  1.00  0.00    -0.273 N 
HETATM   11  C   UNL     1     -41.932 -45.359  11.728  1.00  0.00     0.280 A 
HETATM   12  O   UNL     1     -41.606 -44.628  12.656  1.00  0.00    -0.265 OA
HETATM   13  C   UNL     1     -41.511 -46.708  11.530  1.00  0.00     0.164 A 
HETATM   14  H   UNL     1     -43.094 -43.960  10.819  1.00  0.00     0.173 HD
ENDROOT
BRANCH   2  15
HETATM   15  N   UNL     1     -39.796 -49.800  11.923  1.00  0.00    -0.213 N 
HETATM   16  C   UNL     1     -40.250 -51.149  12.296  1.00  0.00     0.167 C 
HETATM   17  C   UNL     1     -39.256 -51.721  13.325  1.00  0.00     0.188 C 
HETATM   18  O   UNL     1     -37.945 -51.829  12.754  1.00  0.00    -0.388 OA
HETATM   19  C   UNL     1     -37.480 -50.539  12.312  1.00  0.00     0.188 C 
HETATM   20  C   UNL     1     -38.449 -49.872  11.312  1.00  0.00     0.167 C 
ENDBRANCH   2  15
BRANCH   1  21
HETATM   21  C   UNL     1     -39.661 -46.977  13.163  1.00  0.00     0.174 C 
BRANCH  21  22
HETATM   22  C   UNL     1     -39.903 -47.516  14.567  1.00  0.00     0.187 C 
BRANCH  22  23
HETATM   23  O   UNL     1     -38.798 -48.348  14.930  1.00  0.00    -0.394 OA
HETATM   24  C   UNL     1     -37.557 -47.717  14.643  1.00  0.00     0.201 C 
ENDBRANCH  22  23
ENDBRANCH  21  22
ENDBRANCH   1  21
TORSDOF 4
ENDMDL
MODEL 3
REMARK VINA RESULT:      -5.5      1.534      1.666
REMARK  4 active torsions:
REMARK  status: ('A' for Active; 'I' for Inactive)
REMARK    1  A    between atoms: O_2  and  C_3 
REMARK    2  A    between atoms: C_3  and  C_4 
REMARK    3  A    between atoms: C_4  and  N_5 
REMARK    4  A    between atoms: C_6  and  N_18 
ROOT
HETATM    1  N   UNL     1     -40.632 -49.513  12.944  1.00  0.00    -0.172 N 
HETATM    2  C   UNL     1     -41.694 -50.265  12.441  1.00  0.00     0.685 A 
HETATM    3  N   UNL     1     -42.304 -49.571  11.484  1.00  0.00    -0.174 N 
ATOM      4  HN  UNL     1     -43.085 -49.884  10.906  1.00  0.00     0.186 HD
HETATM    5  C   UNL     1     -41.681 -48.360  11.428  1.00  0.00     0.160 A 
HETATM    6  N   UNL     1     -41.931 -47.322  10.548  1.00  0.00    -0.287 N 
HETATM    7  C   UNL     1     -42.936 -47.393   9.511  1.00  0.00     0.163 C 
HETATM    8  C   UNL     1     -41.156 -46.169  10.624  1.00  0.00     0.330 A 
HETATM    9  O   UNL     1     -41.291 -45.202   9.868  1.00  0.00    -0.246 OA
HETATM   10  N   UNL     1     -40.184 -46.123  11.596  1.00  0.00    -0.273 N 
HETATM   11  C   UNL     1     -39.873 -47.108  12.501  1.00  0.00     0.280 A 
HETATM   12  O   UNL     1     -38.983 -46.945  13.328  1.00  0.00    -0.265 OA
HETATM   13  C   UNL     1     -40.680 -48.275  12.351  1.00  0.00     0.164 A 
HETATM   14  H   UNL     1     -39.634 -45.280  11.641  1.00  0.00     0.173 HD
ENDROOT
BRANCH   2  15
HETATM   15  N   UNL     1     -41.950 -51.573  12.753  1.00  0.00    -0.213 N 
HETATM   16  C   UNL     1     -43.173 -52.071  13.406  1.00  0.00     0.167 C 
HETATM   17  C   UNL     1     -42.790 -53.281  14.279  1.00  0.00     0.188 C 
HETATM   18  O   UNL     1     -42.250 -54.335  13.471  1.00  0.00    -0.388 OA
HETATM   19  C   UNL     1     -41.085 -53.878  12.757  1.00  0.00     0.188 C 
HETATM   20  C   UNL     1     -41.372 -52.631  11.893  1.00  0.00     0.167 C 
ENDBRANCH   2  15
BRANCH   1  21
HETATM   21  C   UNL     1     -39.522 -49.957  13.762  1.00  0.00     0.174 C 
BRANCH  21  22
HETATM   22  C   UNL     1     -38.405 -50.606  12.956  1.00  0.00     0.187 C 
BRANCH  22  23
HETATM   23  O   UNL     1     -38.215 -51.939  13.434  1.00  0.00    -0.394 OA
HETATM   24  C   UNL     1     -38.748 -52.103  14.741  1.00  0.00     0.201 C 
ENDBRANCH  22  23
ENDBRANCH  21  22
ENDBRANCH   1  21
TORSDOF 4
ENDMDL
MODEL 4
REMARK VINA RESULT:      -5.4      2.203      3.433
REMARK  4 active torsions:
REMARK  status: ('A' for Active; 'I' for Inactive)
REMARK    1  A    between atoms: O_2  and  C_3 
REMARK    2  A    between atoms: C_3  and  C_4 
REMARK    3  A    between atoms: C_4  and  N_5 
REMARK    4  A    between atoms: C_6  and  N_18 
ROOT
HETATM    1  N   UNL     1     -41.404 -51.660  12.792  1.00  0.00    -0.172 N 
HETATM    2  C   UNL     1     -42.753 -51.613  13.142  1.00  0.00     0.685 A 
HETATM    3  N   UNL     1     -43.275 -50.468  12.711  1.00  0.00    -0.174 N 
ATOM      4  HN  UNL     1     -44.250 -50.175  12.783  1.00  0.00     0.186 HD
HETATM    5  C   UNL     1     -42.250 -49.762  12.155  1.00  0.00     0.160 A 
HETATM    6  N   UNL     1     -42.317 -48.533  11.523  1.00  0.00    -0.287 N 
HETATM    7  C   UNL     1     -43.553 -47.799  11.354  1.00  0.00     0.163 C 
HETATM    8  C   UNL     1     -41.158 -47.986  10.980  1.00  0.00     0.330 A 
HETATM    9  O   UNL     1     -41.125 -46.908  10.380  1.00  0.00    -0.246 OA
HETATM   10  N   UNL     1     -39.994 -48.705  11.122  1.00  0.00    -0.273 N 
HETATM   11  C   UNL     1     -39.846 -49.927  11.729  1.00  0.00     0.280 A 
HETATM   12  O   UNL     1     -38.748 -50.468  11.797  1.00  0.00    -0.265 OA
HETATM   13  C   UNL     1     -41.074 -50.448  12.236  1.00  0.00     0.164 A 
HETATM   14  H   UNL     1     -39.163 -48.295  10.727  1.00  0.00     0.173 HD
ENDROOT
BRANCH   2  15
HETATM   15  N   UNL     1     -43.465 -52.652  13.678  1.00  0.00    -0.213 N 
HETATM   16  C   UNL     1     -43.464 -53.045  15.097  1.00  0.00     0.167 C 
HETATM   17  C   UNL     1     -43.647 -54.573  15.170  1.00  0.00     0.188 C 
HETATM   18  O   UNL     1     -44.904 -54.959  14.597  1.00  0.00    -0.388 OA
HETATM   19  C   UNL     1     -44.981 -54.538  13.221  1.00  0.00     0.188 C 
HETATM   20  C   UNL     1     -44.757 -53.019  13.054  1.00  0.00     0.167 C 
ENDBRANCH   2  15
BRANCH   1  21
HETATM   21  C   UNL     1     -40.517 -52.806  12.778  1.00  0.00     0.174 C 
BRANCH  21  22
HETATM   22  C   UNL     1     -39.724 -52.966  14.069  1.00  0.00     0.187 C 
BRANCH  22  23
HETATM   23  O   UNL     1     -40.135 -54.177  14.706  1.00  0.00    -0.394 OA
HETATM   24  C   UNL     1     -39.019 -54.997  15.030  1.00  0.00     0.201 C 
ENDBRANCH  22  23
ENDBRANCH  21  22
ENDBRANCH   1  21
TORSDOF 4
ENDMDL
MODEL 5
REMARK VINA RESULT:      -5.2      3.802      6.854
REMARK  4 active torsions:
REMARK  status: ('A' for Active; 'I' for Inactive)
REMARK    1  A    between atoms: O_2  and  C_3 
REMARK    2  A    between atoms: C_3  and  C_4 
REMARK    3  A    between atoms: C_4  and  N_5 
REMARK    4  A    between atoms: C_6  and  N_18 
ROOT
HETATM    1  N   UNL     1     -42.086 -54.352  14.531  1.00  0.00    -0.172 N 
HETATM    2  C   UNL     1     -40.893 -54.474  15.245  1.00  0.00     0.685 A 
HETATM    3  N   UNL     1     -40.027 -53.567  14.804  1.00  0.00    -0.174 N 
ATOM      4  HN  UNL     1     -39.090 -53.389  15.168  1.00  0.00     0.186 HD
HETATM    5  C   UNL     1     -40.637 -52.920  13.771  1.00  0.00     0.160 A 
HETATM    6  N   UNL     1     -40.147 -51.857  13.034  1.00  0.00    -0.287 N 
HETATM    7  C   UNL     1     -38.855 -51.255  13.282  1.00  0.00     0.163 C 
HETATM    8  C   UNL     1     -40.940 -51.302  12.034  1.00  0.00     0.330 A 
HETATM    9  O   UNL     1     -40.598 -50.341  11.341  1.00  0.00    -0.246 OA
HETATM   10  N   UNL     1     -42.178 -51.866  11.825  1.00  0.00    -0.273 N 
HETATM   11  C   UNL     1     -42.736 -52.915  12.513  1.00  0.00     0.280 A 
HETATM   12  O   UNL     1     -43.852 -53.332  12.228  1.00  0.00    -0.265 OA
HETATM   13  C   UNL     1     -41.887 -53.417  13.544  1.00  0.00     0.164 A 
HETATM   14  H   UNL     1     -42.740 -51.456  11.096  1.00  0.00     0.173 HD
ENDROOT
BRANCH   2  15
HETATM   15  N   UNL     1     -40.711 -55.274  16.341  1.00  0.00    -0.213 N 
HETATM   16  C   UNL     1     -39.605 -56.227  16.527  1.00  0.00     0.167 C 
HETATM   17  C   UNL     1     -40.133 -57.417  17.352  1.00  0.00     0.188 C 
HETATM   18  O   UNL     1     -40.573 -56.980  18.645  1.00  0.00    -0.388 OA
HETATM   19  C   UNL     1     -41.614 -55.993  18.516  1.00  0.00     0.188 C 
HETATM   20  C   UNL     1     -41.181 -54.784  17.658  1.00  0.00     0.167 C 
ENDBRANCH   2  15
BRANCH   1  21
HETATM   21  C   UNL     1     -43.387 -54.903  14.849  1.00  0.00     0.174 C 
BRANCH  21  22
HETATM   22  C   UNL     1     -44.214 -54.001  15.756  1.00  0.00     0.187 C 
BRANCH  22  23
HETATM   23  O   UNL     1     -45.533 -54.542  15.853  1.00  0.00    -0.394 OA
HETATM   24  C   UNL     1     -46.174 -54.578  14.585  1.00  0.00     0.201 C 
ENDBRANCH  22  23
ENDBRANCH  21  22
ENDBRANCH   1  21
TORSDOF 4
ENDMDL
MODEL 6
REMARK VINA RESULT:      -5.2      4.413      7.876
REMARK  4 active torsions:
REMARK  status: ('A' for Active; 'I' for Inactive)
REMARK    1  A    between atoms: O_2  and  C_3 
REMARK    2  A    between atoms: C_3  and  C_4 
REMARK    3  A    between atoms: C_4  and  N_5 
REMARK    4  A    between atoms: C_6  and  N_18 
ROOT
HETATM    1  N   UNL     1     -41.956 -53.582  14.365  1.00  0.00    -0.172 N 
HETATM    2  C   UNL     1     -42.988 -54.295  14.976  1.00  0.00     0.685 A 
HETATM    3  N   UNL     1     -42.464 -55.249  15.741  1.00  0.00    -0.174 N 
ATOM      4  HN  UNL     1     -42.973 -55.897  16.343  1.00  0.00     0.186 HD
HETATM    5  C   UNL     1     -41.114 -55.190  15.563  1.00  0.00     0.160 A 
HETATM    6  N   UNL     1     -40.145 -55.950  16.194  1.00  0.00    -0.287 N 
HETATM    7  C   UNL     1     -40.455 -56.957  17.185  1.00  0.00     0.163 C 
HETATM    8  C   UNL     1     -38.805 -55.714  15.905  1.00  0.00     0.330 A 
HETATM    9  O   UNL     1     -37.872 -56.325  16.433  1.00  0.00    -0.246 OA
HETATM   10  N   UNL     1     -38.521 -54.735  14.981  1.00  0.00    -0.273 N 
HETATM   11  C   UNL     1     -39.420 -53.938  14.317  1.00  0.00     0.280 A 
HETATM   12  O   UNL     1     -39.042 -53.099  13.508  1.00  0.00    -0.265 OA
HETATM   13  C   UNL     1     -40.774 -54.207  14.681  1.00  0.00     0.164 A 
HETATM   14  H   UNL     1     -37.546 -54.578  14.779  1.00  0.00     0.173 HD
ENDROOT
BRANCH   2  15
HETATM   15  N   UNL     1     -44.313 -53.952  14.938  1.00  0.00    -0.213 N 
HETATM   16  C   UNL     1     -45.233 -54.224  13.822  1.00  0.00     0.167 C 
HETATM   17  C   UNL     1     -46.261 -53.078  13.760  1.00  0.00     0.188 C 
HETATM   18  O   UNL     1     -47.027 -53.021  14.970  1.00  0.00    -0.388 OA
HETATM   19  C   UNL     1     -46.162 -52.820  16.105  1.00  0.00     0.188 C 
HETATM   20  C   UNL     1     -45.066 -53.903  16.212  1.00  0.00     0.167 C 
ENDBRANCH   2  15
BRANCH   1  21
HETATM   21  C   UNL     1     -42.020 -52.296  13.701  1.00  0.00     0.174 C 
BRANCH  21  22
HETATM   22  C   UNL     1     -42.275 -52.407  12.204  1.00  0.00     0.187 C 
BRANCH  22  23
HETATM   23  O   UNL     1     -41.272 -51.657  11.516  1.00  0.00    -0.394 OA
HETATM   24  C   UNL     1     -40.978 -50.441  12.191  1.00  0.00     0.201 C 
ENDBRANCH  22  23
ENDBRANCH  21  22
ENDBRANCH   1  21
TORSDOF 4
ENDMDL
MODEL 7
REMARK VINA RESULT:      -5.2      2.256      6.054
REMARK  4 active torsions:
REMARK  status: ('A' for Active; 'I' for Inactive)
REMARK    1  A    between atoms: O_2  and  C_3 
REMARK    2  A    between atoms: C_3  and  C_4 
REMARK    3  A    between atoms: C_4  and  N_5 
REMARK    4  A    between atoms: C_6  and  N_18 
ROOT
HETATM    1  N   UNL     1     -41.343 -51.323  13.258  1.00  0.00    -0.172 N 
HETATM    2  C   UNL     1     -42.270 -50.550  12.557  1.00  0.00     0.685 A 
HETATM    3  N   UNL     1     -43.442 -51.176  12.549  1.00  0.00    -0.174 N 
ATOM      4  HN  UNL     1     -44.317 -50.831  12.151  1.00  0.00     0.186 HD
HETATM    5  C   UNL     1     -43.247 -52.370  13.177  1.00  0.00     0.160 A 
HETATM    6  N   UNL     1     -44.193 -53.340  13.459  1.00  0.00    -0.287 N 
HETATM    7  C   UNL     1     -45.590 -53.204  13.111  1.00  0.00     0.163 C 
HETATM    8  C   UNL     1     -43.804 -54.485  14.148  1.00  0.00     0.330 A 
HETATM    9  O   UNL     1     -44.579 -55.392  14.462  1.00  0.00    -0.246 OA
HETATM   10  N   UNL     1     -42.478 -54.592  14.498  1.00  0.00    -0.273 N 
HETATM   11  C   UNL     1     -41.483 -53.676  14.260  1.00  0.00     0.280 A 
HETATM   12  O   UNL     1     -40.331 -53.889  14.619  1.00  0.00    -0.265 OA
HETATM   13  C   UNL     1     -41.952 -52.512  13.579  1.00  0.00     0.164 A 
HETATM   14  H   UNL     1     -42.210 -55.427  14.993  1.00  0.00     0.173 HD
ENDROOT
BRANCH   2  15
HETATM   15  N   UNL     1     -42.053 -49.273  12.111  1.00  0.00    -0.213 N 
HETATM   16  C   UNL     1     -41.188 -48.901  10.979  1.00  0.00     0.167 C 
HETATM   17  C   UNL     1     -40.572 -47.521  11.283  1.00  0.00     0.188 C 
HETATM   18  O   UNL     1     -41.598 -46.528  11.412  1.00  0.00    -0.388 OA
HETATM   19  C   UNL     1     -42.512 -46.881  12.469  1.00  0.00     0.188 C 
HETATM   20  C   UNL     1     -43.138 -48.278  12.266  1.00  0.00     0.167 C 
ENDBRANCH   2  15
BRANCH   1  21
HETATM   21  C   UNL     1     -40.051 -50.927  13.780  1.00  0.00     0.174 C 
BRANCH  21  22
HETATM   22  C   UNL     1     -38.910 -51.165  12.799  1.00  0.00     0.187 C 
BRANCH  22  23
HETATM   23  O   UNL     1     -38.207 -49.935  12.614  1.00  0.00    -0.394 OA
HETATM   24  C   UNL     1     -37.517 -49.913  11.372  1.00  0.00     0.201 C 
ENDBRANCH  22  23
ENDBRANCH  21  22
ENDBRANCH   1  21
TORSDOF 4
ENDMDL
MODEL 8
REMARK VINA RESULT:      -5.1      4.840      7.154
REMARK  4 active torsions:
REMARK  status: ('A' for Active; 'I' for Inactive)
REMARK    1  A    between atoms: O_2  and  C_3 
REMARK    2  A    between atoms: C_3  and  C_4 
REMARK    3  A    between atoms: C_4  and  N_5 
REMARK    4  A    between atoms: C_6  and  N_18 
ROOT
HETATM    1  N   UNL     1     -43.918 -52.014  14.372  1.00  0.00    -0.172 N 
HETATM    2  C   UNL     1     -42.818 -52.189  15.213  1.00  0.00     0.685 A 
HETATM    3  N   UNL     1     -43.231 -52.180  16.477  1.00  0.00    -0.174 N 
ATOM      4  HN  UNL     1     -42.658 -52.330  17.308  1.00  0.00     0.186 HD
HETATM    5  C   UNL     1     -44.571 -51.929  16.444  1.00  0.00     0.160 A 
HETATM    6  N   UNL     1     -45.447 -51.880  17.514  1.00  0.00    -0.287 N 
HETATM    7  C   UNL     1     -45.034 -52.108  18.882  1.00  0.00     0.163 C 
HETATM    8  C   UNL     1     -46.797 -51.647  17.274  1.00  0.00     0.330 A 
HETATM    9  O   UNL     1     -47.655 -51.608  18.160  1.00  0.00    -0.246 OA
HETATM   10  N   UNL     1     -47.182 -51.459  15.967  1.00  0.00    -0.273 N 
HETATM   11  C   UNL     1     -46.379 -51.496  14.854  1.00  0.00     0.280 A 
HETATM   12  O   UNL     1     -46.843 -51.307  13.735  1.00  0.00    -0.265 OA
HETATM   13  C   UNL     1     -45.013 -51.771  15.164  1.00  0.00     0.164 A 
HETATM   14  H   UNL     1     -48.163 -51.287  15.808  1.00  0.00     0.173 HD
ENDROOT
BRANCH   2  15
HETATM   15  N   UNL     1     -41.552 -52.503  14.798  1.00  0.00    -0.213 N 
HETATM   16  C   UNL     1     -40.385 -51.607  14.867  1.00  0.00     0.167 C 
HETATM   17  C   UNL     1     -39.467 -51.925  13.671  1.00  0.00     0.188 C 
HETATM   18  O   UNL     1     -39.000 -53.279  13.739  1.00  0.00    -0.388 OA
HETATM   19  C   UNL     1     -40.111 -54.197  13.741  1.00  0.00     0.188 C 
HETATM   20  C   UNL     1     -41.110 -53.914  14.884  1.00  0.00     0.167 C 
ENDBRANCH   2  15
BRANCH   1  21
HETATM   21  C   UNL     1     -44.008 -52.252  12.946  1.00  0.00     0.174 C 
BRANCH  21  22
HETATM   22  C   UNL     1     -44.047 -53.731  12.586  1.00  0.00     0.187 C 
BRANCH  22  23
HETATM   23  O   UNL     1     -45.388 -54.200  12.741  1.00  0.00    -0.394 OA
HETATM   24  C   UNL     1     -45.482 -55.171  13.775  1.00  0.00     0.201 C 
ENDBRANCH  22  23
ENDBRANCH  21  22
ENDBRANCH   1  21
TORSDOF 4
ENDMDL
MODEL 9
REMARK VINA RESULT:      -5.1      1.756      5.775
REMARK  4 active torsions:
REMARK  status: ('A' for Active; 'I' for Inactive)
REMARK    1  A    between atoms: O_2  and  C_3 
REMARK    2  A    between atoms: C_3  and  C_4 
REMARK    3  A    between atoms: C_4  and  N_5 
REMARK    4  A    between atoms: C_6  and  N_18 
ROOT
HETATM    1  N   UNL     1     -41.689 -49.757  11.696  1.00  0.00    -0.172 N 
HETATM    2  C   UNL     1     -42.800 -48.916  11.773  1.00  0.00     0.685 A 
HETATM    3  N   UNL     1     -43.648 -49.397  12.678  1.00  0.00    -0.174 N 
ATOM      4  HN  UNL     1     -44.524 -48.972  12.980  1.00  0.00     0.186 HD
HETATM    5  C   UNL     1     -43.115 -50.571  13.121  1.00  0.00     0.160 A 
HETATM    6  N   UNL     1     -43.612 -51.405  14.107  1.00  0.00    -0.287 N 
HETATM    7  C   UNL     1     -44.826 -51.121  14.841  1.00  0.00     0.163 C 
HETATM    8  C   UNL     1     -42.899 -52.550  14.449  1.00  0.00     0.330 A 
HETATM    9  O   UNL     1     -43.252 -53.340  15.329  1.00  0.00    -0.246 OA
HETATM   10  N   UNL     1     -41.733 -52.796  13.763  1.00  0.00    -0.273 N 
HETATM   11  C   UNL     1     -41.172 -52.020  12.779  1.00  0.00     0.280 A 
HETATM   12  O   UNL     1     -40.125 -52.350  12.235  1.00  0.00    -0.265 OA
HETATM   13  C   UNL     1     -41.933 -50.846  12.497  1.00  0.00     0.164 A 
HETATM   14  H   UNL     1     -41.229 -53.630  14.019  1.00  0.00     0.173 HD
ENDROOT
BRANCH   2  15
HETATM   15  N   UNL     1     -42.912 -47.701  11.153  1.00  0.00    -0.213 N 
HETATM   16  C   UNL     1     -43.812 -47.396  10.029  1.00  0.00     0.167 C 
HETATM   17  C   UNL     1     -43.128 -46.340   9.141  1.00  0.00     0.188 C 
HETATM   18  O   UNL     1     -42.903 -45.130   9.878  1.00  0.00    -0.388 OA
HETATM   19  C   UNL     1     -42.077 -45.388  11.030  1.00  0.00     0.188 C 
HETATM   20  C   UNL     1     -42.670 -46.477  11.951  1.00  0.00     0.167 C 
ENDBRANCH   2  15
BRANCH   1  21
HETATM   21  C   UNL     1     -40.399 -49.492  11.091  1.00  0.00     0.174 C 
BRANCH  21  22
HETATM   22  C   UNL     1     -39.547 -48.521  11.898  1.00  0.00     0.187 C 
BRANCH  22  23
HETATM   23  O   UNL     1     -38.857 -49.256  12.911  1.00  0.00    -0.394 OA
HETATM   24  C   UNL     1     -37.645 -49.810  12.417  1.00  0.00     0.201 C 
ENDBRANCH  22  23
ENDBRANCH  21  22
ENDBRANCH   1  21
TORSDOF 4
ENDMDL
