MODEL 1
REMARK VINA RESULT:      -6.0      0.000      0.000
REMARK  2 active torsions:
REMARK  status: ('A' for Active; 'I' for Inactive)
REMARK    1  A    between atoms: C_9  and  N_11 
REMARK       I    between atoms: N_11  and  C_12 
REMARK       I    between atoms: C_12  and  N_14 
REMARK    2  A    between atoms: N_14  and  C_15 
ROOT
HETATM    1  N   UNL     1     -41.537 -48.615  10.647  1.00  0.00    -0.338 N 
HETATM    2  C   UNL     1     -42.855 -48.224  10.703  1.00  0.00     0.323 C 
HETATM    3  O   UNL     1     -43.474 -48.194  11.764  1.00  0.00    -0.247 OA
HETATM    4  N   UNL     1     -43.351 -47.937   9.454  1.00  0.00    -0.274 N 
HETATM    5  H   UNL     1     -40.993 -48.155   9.923  1.00  0.00     0.164 HD
HETATM    6  H   UNL     1     -42.870 -48.265   8.638  1.00  0.00     0.174 HD
ENDROOT
BRANCH   1   7
HETATM    7  C   UNL     1     -40.781 -48.943  11.872  1.00  0.00     0.090 C 
HETATM    8  C   UNL     1     -40.776 -50.467  12.039  1.00  0.00     0.061 C 
HETATM    9  C   UNL     1     -39.487 -51.097  12.578  1.00  0.00     0.225 C 
HETATM   10  N   UNL     1     -38.335 -50.446  11.950  1.00  0.00     0.093 N 
HETATM   11  C   UNL     1     -39.412 -51.144  14.109  1.00  0.00     0.036 C 
HETATM   12  C   UNL     1     -37.093 -51.191  12.138  1.00  0.00     0.310 C 
HETATM   13  C   UNL     1     -38.238 -49.060  12.420  1.00  0.00     0.225 C 
HETATM   14  C   UNL     1     -38.089 -48.927  13.943  1.00  0.00     0.036 C 
HETATM   15  C   UNL     1     -39.406 -48.260  11.832  1.00  0.00     0.061 C 
HETATM   16  C   UNL     1     -38.931 -49.872  14.795  1.00  0.00     0.004 C 
ENDBRANCH   1   7
BRANCH   4  17
HETATM   17  C   UNL     1     -44.644 -47.550   9.285  1.00  0.00     0.231 A 
HETATM   18  N   UNL     1     -45.772 -48.204   9.472  1.00  0.00    -0.330 N 
HETATM   19  C   UNL     1     -46.744 -47.320   9.091  1.00  0.00     0.116 A 
ATOM     20  HN  UNL     1     -45.893 -49.154   9.823  1.00  0.00     0.168 HD
HETATM   21  C   UNL     1     -46.163 -46.139   8.699  1.00  0.00     0.162 A 
HETATM   22  O   UNL     1     -44.819 -46.264   8.839  1.00  0.00    -0.290 OA
ENDBRANCH   4  17
TORSDOF 2
ENDMDL
MODEL 2
REMARK VINA RESULT:      -5.9      3.995      5.509
REMARK  2 active torsions:
REMARK  status: ('A' for Active; 'I' for Inactive)
REMARK    1  A    between atoms: C_9  and  N_11 
REMARK       I    between atoms: N_11  and  C_12 
REMARK       I    between atoms: C_12  and  N_14 
REMARK    2  A    between atoms: N_14  and  C_15 
ROOT
HETATM    1  N   UNL     1     -42.681 -50.838  12.101  1.00  0.00    -0.338 N 
HETATM    2  C   UNL     1     -41.960 -49.667  12.162  1.00  0.00     0.323 C 
HETATM    3  O   UNL     1     -41.413 -49.300  13.198  1.00  0.00    -0.247 OA
HETATM    4  N   UNL     1     -41.990 -48.993  10.964  1.00  0.00    -0.274 N 
HETATM    5  H   UNL     1     -42.652 -51.302  11.198  1.00  0.00     0.164 HD
HETATM    6  H   UNL     1     -42.688 -49.219  10.281  1.00  0.00     0.174 HD
ENDROOT
BRANCH   1   7
HETATM    7  C   UNL     1     -42.765 -51.748  13.261  1.00  0.00     0.090 C 
HETATM    8  C   UNL     1     -44.148 -51.580  13.902  1.00  0.00     0.061 C 
HETATM    9  C   UNL     1     -44.813 -52.848  14.446  1.00  0.00     0.225 C 
HETATM   10  N   UNL     1     -44.595 -53.948  13.503  1.00  0.00     0.093 N 
HETATM   11  C   UNL     1     -44.421 -53.186  15.890  1.00  0.00     0.036 C 
HETATM   12  C   UNL     1     -45.464 -55.094  13.760  1.00  0.00     0.310 C 
HETATM   13  C   UNL     1     -43.174 -54.309  13.491  1.00  0.00     0.225 C 
HETATM   14  C   UNL     1     -42.628 -54.741  14.860  1.00  0.00     0.036 C 
HETATM   15  C   UNL     1     -42.385 -53.172  12.832  1.00  0.00     0.061 C 
HETATM   16  C   UNL     1     -43.113 -53.945  16.068  1.00  0.00     0.004 C 
ENDBRANCH   1   7
BRANCH   4  17
HETATM   17  C   UNL     1     -41.355 -47.798  10.817  1.00  0.00     0.231 A 
HETATM   18  N   UNL     1     -40.104 -47.453  11.040  1.00  0.00    -0.330 N 
HETATM   19  C   UNL     1     -40.067 -46.115  10.763  1.00  0.00     0.116 A 
ATOM     20  HN  UNL     1     -39.336 -48.050  11.349  1.00  0.00     0.168 HD
HETATM   21  C   UNL     1     -41.310 -45.694  10.357  1.00  0.00     0.162 A 
HETATM   22  O   UNL     1     -42.141 -46.767  10.367  1.00  0.00    -0.290 OA
ENDBRANCH   4  17
TORSDOF 2
ENDMDL
MODEL 3
REMARK VINA RESULT:      -5.6      4.026      5.307
REMARK  2 active torsions:
REMARK  status: ('A' for Active; 'I' for Inactive)
REMARK    1  A    between atoms: C_9  and  N_11 
REMARK       I    between atoms: N_11  and  C_12 
REMARK       I    between atoms: C_12  and  N_14 
REMARK    2  A    between atoms: N_14  and  C_15 
ROOT
HETATM    1  N   UNL     1     -41.963 -52.363  11.534  1.00  0.00    -0.338 N 
HETATM    2  C   UNL     1     -42.868 -52.509  12.560  1.00  0.00     0.323 C 
HETATM    3  O   UNL     1     -42.665 -52.030  13.672  1.00  0.00    -0.247 OA
HETATM    4  N   UNL     1     -43.947 -53.270  12.176  1.00  0.00    -0.274 N 
HETATM    5  H   UNL     1     -42.380 -52.313  10.609  1.00  0.00     0.164 HD
HETATM    6  H   UNL     1     -43.886 -53.847  11.359  1.00  0.00     0.174 HD
ENDROOT
BRANCH   1   7
HETATM    7  C   UNL     1     -40.737 -51.555  11.702  1.00  0.00     0.090 C 
HETATM    8  C   UNL     1     -41.143 -50.078  11.765  1.00  0.00     0.061 C 
HETATM    9  C   UNL     1     -40.358 -49.191  12.737  1.00  0.00     0.225 C 
HETATM   10  N   UNL     1     -40.137 -49.922  13.987  1.00  0.00     0.093 N 
HETATM   11  C   UNL     1     -39.079 -48.593  12.138  1.00  0.00     0.036 C 
HETATM   12  C   UNL     1     -39.703 -49.057  15.080  1.00  0.00     0.310 C 
HETATM   13  C   UNL     1     -39.212 -51.035  13.747  1.00  0.00     0.225 C 
HETATM   14  C   UNL     1     -37.844 -50.601  13.201  1.00  0.00     0.036 C 
HETATM   15  C   UNL     1     -39.923 -52.088  12.890  1.00  0.00     0.061 C 
HETATM   16  C   UNL     1     -37.848 -49.489  12.157  1.00  0.00     0.004 C 
ENDBRANCH   1   7
BRANCH   4  17
HETATM   17  C   UNL     1     -44.951 -53.552  13.050  1.00  0.00     0.231 A 
HETATM   18  N   UNL     1     -45.723 -52.759  13.763  1.00  0.00    -0.330 N 
HETATM   19  C   UNL     1     -46.507 -53.612  14.490  1.00  0.00     0.116 A 
ATOM     20  HN  UNL     1     -45.733 -51.739  13.771  1.00  0.00     0.168 HD
HETATM   21  C   UNL     1     -46.191 -54.910  14.172  1.00  0.00     0.162 A 
HETATM   22  O   UNL     1     -45.210 -54.888  13.235  1.00  0.00    -0.290 OA
ENDBRANCH   4  17
TORSDOF 2
ENDMDL
MODEL 4
REMARK VINA RESULT:      -5.6      1.867      2.766
REMARK  2 active torsions:
REMARK  status: ('A' for Active; 'I' for Inactive)
REMARK    1  A    between atoms: C_9  and  N_11 
REMARK       I    between atoms: N_11  and  C_12 
REMARK       I    between atoms: C_12  and  N_14 
REMARK    2  A    between atoms: N_14  and  C_15 
ROOT
HETATM    1  N   UNL     1     -40.729 -46.798  10.273  1.00  0.00    -0.338 N 
HETATM    2  C   UNL     1     -42.057 -47.152  10.346  1.00  0.00     0.323 C 
HETATM    3  O   UNL     1     -42.528 -47.685  11.347  1.00  0.00    -0.247 OA
HETATM    4  N   UNL     1     -42.719 -46.874   9.174  1.00  0.00    -0.274 N 
HETATM    5  H   UNL     1     -40.545 -45.972   9.710  1.00  0.00     0.164 HD
HETATM    6  H   UNL     1     -42.198 -46.715   8.332  1.00  0.00     0.174 HD
ENDROOT
BRANCH   1   7
HETATM    7  C   UNL     1     -39.824 -46.972  11.427  1.00  0.00     0.090 C 
HETATM    8  C   UNL     1     -40.352 -46.114  12.583  1.00  0.00     0.061 C 
HETATM    9  C   UNL     1     -40.227 -46.705  13.991  1.00  0.00     0.225 C 
HETATM   10  N   UNL     1     -40.569 -48.129  13.948  1.00  0.00     0.093 N 
HETATM   11  C   UNL     1     -38.884 -46.412  14.671  1.00  0.00     0.036 C 
HETATM   12  C   UNL     1     -40.805 -48.695  15.273  1.00  0.00     0.310 C 
HETATM   13  C   UNL     1     -39.538 -48.857  13.200  1.00  0.00     0.225 C 
HETATM   14  C   UNL     1     -38.127 -48.724  13.790  1.00  0.00     0.036 C 
HETATM   15  C   UNL     1     -39.639 -48.468  11.721  1.00  0.00     0.061 C 
HETATM   16  C   UNL     1     -37.735 -47.345  14.311  1.00  0.00     0.004 C 
ENDBRANCH   1   7
BRANCH   4  17
HETATM   17  C   UNL     1     -44.040 -47.167   9.029  1.00  0.00     0.231 A 
HETATM   18  N   UNL     1     -45.092 -46.763   9.710  1.00  0.00    -0.330 N 
HETATM   19  C   UNL     1     -46.142 -47.429   9.138  1.00  0.00     0.116 A 
ATOM     20  HN  UNL     1     -45.119 -46.103  10.487  1.00  0.00     0.168 HD
HETATM   21  C   UNL     1     -45.683 -48.208   8.104  1.00  0.00     0.162 A 
HETATM   22  O   UNL     1     -44.341 -48.034   8.009  1.00  0.00    -0.290 OA
ENDBRANCH   4  17
TORSDOF 2
ENDMDL
MODEL 5
REMARK VINA RESULT:      -5.5      3.441      5.797
REMARK  2 active torsions:
REMARK  status: ('A' for Active; 'I' for Inactive)
REMARK    1  A    between atoms: C_9  and  N_11 
REMARK       I    between atoms: N_11  and  C_12 
REMARK       I    between atoms: C_12  and  N_14 
REMARK    2  A    between atoms: N_14  and  C_15 
ROOT
HETATM    1  N   UNL     1     -41.438 -49.344  11.734  1.00  0.00    -0.338 N 
HETATM    2  C   UNL     1     -42.317 -50.254  12.275  1.00  0.00     0.323 C 
HETATM    3  O   UNL     1     -43.247 -49.902  12.996  1.00  0.00    -0.247 OA
HETATM    4  N   UNL     1     -41.979 -51.544  11.940  1.00  0.00    -0.274 N 
HETATM    5  H   UNL     1     -41.070 -49.606  10.824  1.00  0.00     0.164 HD
HETATM    6  H   UNL     1     -41.058 -51.746  11.600  1.00  0.00     0.174 HD
ENDROOT
BRANCH   1   7
HETATM    7  C   UNL     1     -41.619 -47.892  11.932  1.00  0.00     0.090 C 
HETATM    8  C   UNL     1     -40.321 -47.323  12.517  1.00  0.00     0.061 C 
HETATM    9  C   UNL     1     -39.895 -45.935  12.026  1.00  0.00     0.225 C 
HETATM   10  N   UNL     1     -40.125 -45.844  10.582  1.00  0.00     0.093 N 
HETATM   11  C   UNL     1     -40.509 -44.779  12.824  1.00  0.00     0.036 C 
HETATM   12  C   UNL     1     -39.447 -44.703   9.972  1.00  0.00     0.310 C 
HETATM   13  C   UNL     1     -41.567 -45.853  10.314  1.00  0.00     0.225 C 
HETATM   14  C   UNL     1     -42.334 -44.708  10.992  1.00  0.00     0.036 C 
HETATM   15  C   UNL     1     -42.116 -47.248  10.629  1.00  0.00     0.061 C 
HETATM   16  C   UNL     1     -41.915 -44.356  12.415  1.00  0.00     0.004 C 
ENDBRANCH   1   7
BRANCH   4  17
HETATM   17  C   UNL     1     -42.710 -52.599  12.391  1.00  0.00     0.231 A 
HETATM   18  N   UNL     1     -43.880 -53.065  12.008  1.00  0.00    -0.330 N 
HETATM   19  C   UNL     1     -44.126 -54.107  12.859  1.00  0.00     0.116 A 
ATOM     20  HN  UNL     1     -44.470 -52.725  11.248  1.00  0.00     0.168 HD
HETATM   21  C   UNL     1     -43.071 -54.250  13.728  1.00  0.00     0.162 A 
HETATM   22  O   UNL     1     -42.147 -53.304  13.426  1.00  0.00    -0.290 OA
ENDBRANCH   4  17
TORSDOF 2
ENDMDL
MODEL 6
REMARK VINA RESULT:      -5.5      3.286      6.046
REMARK  2 active torsions:
REMARK  status: ('A' for Active; 'I' for Inactive)
REMARK    1  A    between atoms: C_9  and  N_11 
REMARK       I    between atoms: N_11  and  C_12 
REMARK       I    between atoms: C_12  and  N_14 
REMARK    2  A    between atoms: N_14  and  C_15 
ROOT
HETATM    1  N   UNL     1     -40.500 -49.400  10.688  1.00  0.00    -0.338 N 
HETATM    2  C   UNL     1     -41.051 -50.267  11.604  1.00  0.00     0.323 C 
HETATM    3  O   UNL     1     -41.621 -49.861  12.614  1.00  0.00    -0.247 OA
HETATM    4  N   UNL     1     -40.832 -51.577  11.253  1.00  0.00    -0.274 N 
HETATM    5  H   UNL     1     -40.524 -49.732   9.729  1.00  0.00     0.164 HD
HETATM    6  H   UNL     1     -40.122 -51.803  10.583  1.00  0.00     0.174 HD
ENDROOT
BRANCH   1   7
HETATM    7  C   UNL     1     -40.637 -47.936  10.839  1.00  0.00     0.090 C 
HETATM    8  C   UNL     1     -42.099 -47.563  10.568  1.00  0.00     0.061 C 
HETATM    9  C   UNL     1     -42.696 -46.449  11.435  1.00  0.00     0.225 C 
HETATM   10  N   UNL     1     -42.251 -46.625  12.819  1.00  0.00     0.093 N 
HETATM   11  C   UNL     1     -42.457 -45.038  10.884  1.00  0.00     0.036 C 
HETATM   12  C   UNL     1     -43.024 -45.828  13.768  1.00  0.00     0.310 C 
HETATM   13  C   UNL     1     -40.810 -46.365  12.907  1.00  0.00     0.225 C 
HETATM   14  C   UNL     1     -40.400 -44.957  12.451  1.00  0.00     0.036 C 
HETATM   15  C   UNL     1     -40.063 -47.498  12.193  1.00  0.00     0.061 C 
HETATM   16  C   UNL     1     -41.111 -44.407  11.219  1.00  0.00     0.004 C 
ENDBRANCH   1   7
BRANCH   4  17
HETATM   17  C   UNL     1     -41.279 -52.596  12.037  1.00  0.00     0.231 A 
HETATM   18  N   UNL     1     -42.502 -52.988  12.328  1.00  0.00    -0.330 N 
HETATM   19  C   UNL     1     -42.326 -54.027  13.200  1.00  0.00     0.116 A 
ATOM     20  HN  UNL     1     -43.381 -52.604  11.982  1.00  0.00     0.168 HD
HETATM   21  C   UNL     1     -40.984 -54.244  13.393  1.00  0.00     0.162 A 
HETATM   22  O   UNL     1     -40.300 -53.348  12.637  1.00  0.00    -0.290 OA
ENDBRANCH   4  17
TORSDOF 2
ENDMDL
MODEL 7
REMARK VINA RESULT:      -5.4      3.824      5.673
REMARK  2 active torsions:
REMARK  status: ('A' for Active; 'I' for Inactive)
REMARK    1  A    between atoms: C_9  and  N_11 
REMARK       I    between atoms: N_11  and  C_12 
REMARK       I    between atoms: C_12  and  N_14 
REMARK    2  A    between atoms: N_14  and  C_15 
ROOT
HETATM    1  N   UNL     1     -41.741 -49.522  12.865  1.00  0.00    -0.338 N 
HETATM    2  C   UNL     1     -41.639 -48.388  12.092  1.00  0.00     0.323 C 
HETATM    3  O   UNL     1     -42.501 -48.090  11.269  1.00  0.00    -0.247 OA
HETATM    4  N   UNL     1     -40.469 -47.712  12.340  1.00  0.00    -0.274 N 
HETATM    5  H   UNL     1     -41.331 -49.438  13.791  1.00  0.00     0.164 HD
HETATM    6  H   UNL     1     -39.712 -48.177  12.804  1.00  0.00     0.174 HD
ENDROOT
BRANCH   1   7
HETATM    7  C   UNL     1     -42.932 -50.394  12.796  1.00  0.00     0.090 C 
HETATM    8  C   UNL     1     -42.456 -51.838  12.596  1.00  0.00     0.061 C 
HETATM    9  C   UNL     1     -43.247 -52.929  13.326  1.00  0.00     0.225 C 
HETATM   10  N   UNL     1     -43.571 -52.467  14.678  1.00  0.00     0.093 N 
HETATM   11  C   UNL     1     -44.459 -53.446  12.542  1.00  0.00     0.036 C 
HETATM   12  C   UNL     1     -44.019 -53.547  15.552  1.00  0.00     0.310 C 
HETATM   13  C   UNL     1     -44.537 -51.366  14.600  1.00  0.00     0.225 C 
HETATM   14  C   UNL     1     -45.850 -51.736  13.896  1.00  0.00     0.036 C 
HETATM   15  C   UNL     1     -43.834 -50.138  14.011  1.00  0.00     0.061 C 
HETATM   16  C   UNL     1     -45.733 -52.620  12.658  1.00  0.00     0.004 C 
ENDBRANCH   1   7
BRANCH   4  17
HETATM   17  C   UNL     1     -40.163 -46.571  11.664  1.00  0.00     0.231 A 
HETATM   18  N   UNL     1     -40.045 -46.338  10.374  1.00  0.00    -0.330 N 
HETATM   19  C   UNL     1     -39.671 -45.025  10.298  1.00  0.00     0.116 A 
ATOM     20  HN  UNL     1     -40.198 -46.990   9.604  1.00  0.00     0.168 HD
HETATM   21  C   UNL     1     -39.595 -44.495  11.563  1.00  0.00     0.162 A 
HETATM   22  O   UNL     1     -39.927 -45.469  12.448  1.00  0.00    -0.290 OA
ENDBRANCH   4  17
TORSDOF 2
ENDMDL
MODEL 8
REMARK VINA RESULT:      -5.4      3.946      5.990
REMARK  2 active torsions:
REMARK  status: ('A' for Active; 'I' for Inactive)
REMARK    1  A    between atoms: C_9  and  N_11 
REMARK       I    between atoms: N_11  and  C_12 
REMARK       I    between atoms: C_12  and  N_14 
REMARK    2  A    between atoms: N_14  and  C_15 
ROOT
HETATM    1  N   UNL     1     -43.171 -49.924  12.163  1.00  0.00    -0.338 N 
HETATM    2  C   UNL     1     -43.152 -51.046  12.961  1.00  0.00     0.323 C 
HETATM    3  O   UNL     1     -42.274 -51.225  13.801  1.00  0.00    -0.247 OA
HETATM    4  N   UNL     1     -44.182 -51.902  12.652  1.00  0.00    -0.274 N 
HETATM    5  H   UNL     1     -44.101 -49.608  11.905  1.00  0.00     0.164 HD
HETATM    6  H   UNL     1     -44.662 -51.811  11.776  1.00  0.00     0.174 HD
ENDROOT
BRANCH   1   7
HETATM    7  C   UNL     1     -42.178 -48.844  12.335  1.00  0.00     0.090 C 
HETATM    8  C   UNL     1     -41.658 -48.448  10.948  1.00  0.00     0.061 C 
HETATM    9  C   UNL     1     -41.383 -46.958  10.716  1.00  0.00     0.225 C 
HETATM   10  N   UNL     1     -42.457 -46.170  11.326  1.00  0.00     0.093 N 
HETATM   11  C   UNL     1     -39.976 -46.514  11.135  1.00  0.00     0.036 C 
HETATM   12  C   UNL     1     -42.465 -44.781  10.875  1.00  0.00     0.310 C 
HETATM   13  C   UNL     1     -42.383 -46.289  12.786  1.00  0.00     0.225 C 
HETATM   14  C   UNL     1     -41.049 -45.818  13.384  1.00  0.00     0.036 C 
HETATM   15  C   UNL     1     -42.780 -47.715  13.183  1.00  0.00     0.061 C 
HETATM   16  C   UNL     1     -39.788 -46.192  12.612  1.00  0.00     0.004 C 
ENDBRANCH   1   7
BRANCH   4  17
HETATM   17  C   UNL     1     -44.333 -53.083  13.311  1.00  0.00     0.231 A 
HETATM   18  N   UNL     1     -43.617 -53.634  14.269  1.00  0.00    -0.330 N 
HETATM   19  C   UNL     1     -44.221 -54.840  14.493  1.00  0.00     0.116 A 
ATOM     20  HN  UNL     1     -42.797 -53.247  14.738  1.00  0.00     0.168 HD
HETATM   21  C   UNL     1     -45.309 -54.970  13.665  1.00  0.00     0.162 A 
HETATM   22  O   UNL     1     -45.406 -53.843  12.916  1.00  0.00    -0.290 OA
ENDBRANCH   4  17
TORSDOF 2
ENDMDL
MODEL 9
REMARK VINA RESULT:      -5.4      2.571      3.584
REMARK  2 active torsions:
REMARK  status: ('A' for Active; 'I' for Inactive)
REMARK    1  A    between atoms: C_9  and  N_11 
REMARK       I    between atoms: N_11  and  C_12 
REMARK       I    between atoms: C_12  and  N_14 
REMARK    2  A    between atoms: N_14  and  C_15 
ROOT
HETATM    1  N   UNL     1     -41.140 -50.644  11.810  1.00  0.00    -0.338 N 
HETATM    2  C   UNL     1     -41.898 -49.522  11.561  1.00  0.00     0.323 C 
HETATM    3  O   UNL     1     -42.853 -49.219  12.270  1.00  0.00    -0.247 OA
HETATM    4  N   UNL     1     -41.469 -48.864  10.433  1.00  0.00    -0.274 N 
HETATM    5  H   UNL     1     -40.161 -50.554  11.554  1.00  0.00     0.164 HD
HETATM    6  H   UNL     1     -40.882 -49.336   9.771  1.00  0.00     0.174 HD
ENDROOT
BRANCH   1   7
HETATM    7  C   UNL     1     -41.394 -51.495  12.991  1.00  0.00     0.090 C 
HETATM    8  C   UNL     1     -41.656 -52.924  12.502  1.00  0.00     0.061 C 
HETATM    9  C   UNL     1     -41.095 -54.059  13.365  1.00  0.00     0.225 C 
HETATM   10  N   UNL     1     -39.751 -53.699  13.821  1.00  0.00     0.093 N 
HETATM   11  C   UNL     1     -42.033 -54.502  14.495  1.00  0.00     0.036 C 
HETATM   12  C   UNL     1     -39.011 -54.838  14.358  1.00  0.00     0.310 C 
HETATM   13  C   UNL     1     -39.838 -52.584  14.771  1.00  0.00     0.225 C 
HETATM   14  C   UNL     1     -40.695 -52.885  16.009  1.00  0.00     0.036 C 
HETATM   15  C   UNL     1     -40.258 -51.322  14.009  1.00  0.00     0.061 C 
HETATM   16  C   UNL     1     -41.980 -53.673  15.772  1.00  0.00     0.004 C 
ENDBRANCH   1   7
BRANCH   4  17
HETATM   17  C   UNL     1     -42.097 -47.738   9.998  1.00  0.00     0.231 A 
HETATM   18  N   UNL     1     -42.915 -47.544   8.985  1.00  0.00    -0.330 N 
HETATM   19  C   UNL     1     -43.181 -46.203   9.015  1.00  0.00     0.116 A 
ATOM     20  HN  UNL     1     -43.271 -48.237   8.327  1.00  0.00     0.168 HD
HETATM   21  C   UNL     1     -42.520 -45.627  10.073  1.00  0.00     0.162 A 
HETATM   22  O   UNL     1     -41.838 -46.602  10.724  1.00  0.00    -0.290 OA
ENDBRANCH   4  17
TORSDOF 2
ENDMDL
