MODEL 1
REMARK VINA RESULT:      -6.0      0.000      0.000
REMARK  5 active torsions:
REMARK  status: ('A' for Active; 'I' for Inactive)
REMARK    1  A    between atoms: C_2  and  C_5 
REMARK    2  A    between atoms: N_8  and  C_9 
REMARK    3  A    between atoms: C_9  and  C_10 
REMARK       I    between atoms: C_10  and  N_12 
REMARK    4  A    between atoms: N_12  and  C_13 
REMARK    5  A    between atoms: C_13  and  C_14 
ROOT
HETATM    1  C   UNL     1     -45.262 -48.060   8.953  1.00  0.00     0.133 A 
HETATM    2  C   UNL     1     -44.311 -47.804   7.928  1.00  0.00     0.054 A 
HETATM    3  C   UNL     1     -43.158 -47.441   8.582  1.00  0.00     0.113 A 
HETATM    4  N   UNL     1     -43.450 -47.469   9.916  1.00  0.00    -0.294 N 
HETATM    5  N   UNL     1     -44.722 -47.841  10.169  1.00  0.00    -0.294 N 
ATOM      6  HN  UNL     1     -45.175 -47.936  11.078  1.00  0.00     0.187 HD
ENDROOT
BRANCH   4   7
HETATM    7  C   UNL     1     -42.533 -47.281  11.023  1.00  0.00     0.250 C 
BRANCH   7   8
HETATM    8  C   UNL     1     -41.799 -48.547  11.387  1.00  0.00     0.237 C 
HETATM    9  O   UNL     1     -42.388 -49.495  11.909  1.00  0.00    -0.272 OA
HETATM   10  N   UNL     1     -40.438 -48.578  11.127  1.00  0.00    -0.359 N 
HETATM   11  H   UNL     1     -40.031 -47.887  10.505  1.00  0.00     0.162 HD
BRANCH  10  12
HETATM   12  C   UNL     1     -39.710 -49.785  11.443  1.00  0.00     0.127 C 
BRANCH  12  13
HETATM   13  C   UNL     1     -38.268 -49.635  11.810  1.00  0.00     0.003 A 
HETATM   14  C   UNL     1     -37.163 -50.095  10.893  1.00  0.00     0.007 A 
HETATM   15  C   UNL     1     -37.332 -50.737  12.244  1.00  0.00     0.007 A 
ENDBRANCH  12  13
ENDBRANCH  10  12
ENDBRANCH   7   8
ENDBRANCH   4   7
BRANCH   1  16
HETATM   16  C   UNL     1     -46.684 -48.524   8.765  1.00  0.00     0.433 C 
HETATM   17  F   UNL     1     -47.014 -49.517   9.640  1.00  0.00    -0.165 F 
HETATM   18  F   UNL     1     -46.908 -49.023   7.520  1.00  0.00    -0.165 F 
HETATM   19  F   UNL     1     -47.587 -47.526   8.963  1.00  0.00    -0.165 F 
ENDBRANCH   1  16
TORSDOF 5
ENDMDL
MODEL 2
REMARK VINA RESULT:      -5.8      3.164      4.103
REMARK  5 active torsions:
REMARK  status: ('A' for Active; 'I' for Inactive)
REMARK    1  A    between atoms: C_2  and  C_5 
REMARK    2  A    between atoms: N_8  and  C_9 
REMARK    3  A    between atoms: C_9  and  C_10 
REMARK       I    between atoms: C_10  and  N_12 
REMARK    4  A    between atoms: N_12  and  C_13 
REMARK    5  A    between atoms: C_13  and  C_14 
ROOT
HETATM    1  C   UNL     1     -42.878 -47.786   9.611  1.00  0.00     0.133 A 
HETATM    2  C   UNL     1     -43.329 -47.509  10.930  1.00  0.00     0.054 A 
HETATM    3  C   UNL     1     -42.378 -48.049  11.763  1.00  0.00     0.113 A 
HETATM    4  N   UNL     1     -41.442 -48.624  10.951  1.00  0.00    -0.294 N 
HETATM    5  N   UNL     1     -41.722 -48.480   9.639  1.00  0.00    -0.294 N 
ATOM      6  HN  UNL     1     -41.180 -48.820   8.845  1.00  0.00     0.187 HD
ENDROOT
BRANCH   4   7
HETATM    7  C   UNL     1     -40.180 -49.219  11.345  1.00  0.00     0.250 C 
BRANCH   7   8
HETATM    8  C   UNL     1     -40.360 -50.530  12.067  1.00  0.00     0.237 C 
HETATM    9  O   UNL     1     -39.820 -50.735  13.155  1.00  0.00    -0.272 OA
HETATM   10  N   UNL     1     -41.138 -51.489  11.438  1.00  0.00    -0.359 N 
HETATM   11  H   UNL     1     -41.741 -51.219  10.668  1.00  0.00     0.162 HD
BRANCH  10  12
HETATM   12  C   UNL     1     -41.349 -52.748  12.114  1.00  0.00     0.127 C 
BRANCH  12  13
HETATM   13  C   UNL     1     -42.599 -52.887  12.922  1.00  0.00     0.003 A 
HETATM   14  C   UNL     1     -42.906 -54.143  13.698  1.00  0.00     0.007 A 
HETATM   15  C   UNL     1     -43.809 -53.719  12.571  1.00  0.00     0.007 A 
ENDBRANCH  12  13
ENDBRANCH  10  12
ENDBRANCH   7   8
ENDBRANCH   4   7
BRANCH   1  16
HETATM   16  C   UNL     1     -43.550 -47.375   8.326  1.00  0.00     0.433 C 
HETATM   17  F   UNL     1     -44.897 -47.582   8.368  1.00  0.00    -0.165 F 
HETATM   18  F   UNL     1     -43.091 -48.072   7.253  1.00  0.00    -0.165 F 
HETATM   19  F   UNL     1     -43.376 -46.055   8.047  1.00  0.00    -0.165 F 
ENDBRANCH   1  16
TORSDOF 5
ENDMDL
MODEL 3
REMARK VINA RESULT:      -5.7      4.327      7.296
REMARK  5 active torsions:
REMARK  status: ('A' for Active; 'I' for Inactive)
REMARK    1  A    between atoms: C_2  and  C_5 
REMARK    2  A    between atoms: N_8  and  C_9 
REMARK    3  A    between atoms: C_9  and  C_10 
REMARK       I    between atoms: C_10  and  N_12 
REMARK    4  A    between atoms: N_12  and  C_13 
REMARK    5  A    between atoms: C_13  and  C_14 
ROOT
HETATM    1  C   UNL     1     -38.957 -48.333  12.199  1.00  0.00     0.133 A 
HETATM    2  C   UNL     1     -39.271 -47.554  13.346  1.00  0.00     0.054 A 
HETATM    3  C   UNL     1     -40.161 -46.601  12.909  1.00  0.00     0.113 A 
HETATM    4  N   UNL     1     -40.326 -46.819  11.570  1.00  0.00    -0.294 N 
HETATM    5  N   UNL     1     -39.606 -47.864  11.113  1.00  0.00    -0.294 N 
ATOM      6  HN  UNL     1     -39.561 -48.220  10.159  1.00  0.00     0.187 HD
ENDROOT
BRANCH   4   7
HETATM    7  C   UNL     1     -41.256 -46.154  10.678  1.00  0.00     0.250 C 
BRANCH   7   8
HETATM    8  C   UNL     1     -42.313 -47.088  10.146  1.00  0.00     0.237 C 
HETATM    9  O   UNL     1     -42.484 -48.202  10.643  1.00  0.00    -0.272 OA
HETATM   10  N   UNL     1     -43.057 -46.639   9.066  1.00  0.00    -0.359 N 
HETATM   11  H   UNL     1     -43.048 -45.653   8.826  1.00  0.00     0.162 HD
BRANCH  10  12
HETATM   12  C   UNL     1     -44.093 -47.501   8.546  1.00  0.00     0.127 C 
BRANCH  12  13
HETATM   13  C   UNL     1     -45.365 -47.586   9.327  1.00  0.00     0.003 A 
HETATM   14  C   UNL     1     -46.543 -48.391   8.840  1.00  0.00     0.007 A 
HETATM   15  C   UNL     1     -46.669 -46.900   9.001  1.00  0.00     0.007 A 
ENDBRANCH  12  13
ENDBRANCH  10  12
ENDBRANCH   7   8
ENDBRANCH   4   7
BRANCH   1  16
HETATM   16  C   UNL     1     -38.046 -49.532  12.148  1.00  0.00     0.433 C 
HETATM   17  F   UNL     1     -37.222 -49.499  11.063  1.00  0.00    -0.165 F 
HETATM   18  F   UNL     1     -38.732 -50.704  12.071  1.00  0.00    -0.165 F 
HETATM   19  F   UNL     1     -37.236 -49.617  13.239  1.00  0.00    -0.165 F 
ENDBRANCH   1  16
TORSDOF 5
ENDMDL
MODEL 4
REMARK VINA RESULT:      -5.4      3.790      5.774
REMARK  5 active torsions:
REMARK  status: ('A' for Active; 'I' for Inactive)
REMARK    1  A    between atoms: C_2  and  C_5 
REMARK    2  A    between atoms: N_8  and  C_9 
REMARK    3  A    between atoms: C_9  and  C_10 
REMARK       I    between atoms: C_10  and  N_12 
REMARK    4  A    between atoms: N_12  and  C_13 
REMARK    5  A    between atoms: C_13  and  C_14 
ROOT
HETATM    1  C   UNL     1     -45.057 -51.617  13.978  1.00  0.00     0.133 A 
HETATM    2  C   UNL     1     -44.213 -51.921  15.080  1.00  0.00     0.054 A 
HETATM    3  C   UNL     1     -42.936 -51.653  14.648  1.00  0.00     0.113 A 
HETATM    4  N   UNL     1     -43.051 -51.236  13.353  1.00  0.00    -0.294 N 
HETATM    5  N   UNL     1     -44.328 -51.206  12.920  1.00  0.00    -0.294 N 
ATOM      6  HN  UNL     1     -44.667 -50.933  11.998  1.00  0.00     0.187 HD
ENDROOT
BRANCH   4   7
HETATM    7  C   UNL     1     -41.999 -50.722  12.497  1.00  0.00     0.250 C 
BRANCH   7   8
HETATM    8  C   UNL     1     -42.280 -49.322  12.014  1.00  0.00     0.237 C 
HETATM    9  O   UNL     1     -42.864 -48.508  12.731  1.00  0.00    -0.272 OA
HETATM   10  N   UNL     1     -41.872 -49.010  10.726  1.00  0.00    -0.359 N 
HETATM   11  H   UNL     1     -41.209 -49.614  10.251  1.00  0.00     0.162 HD
BRANCH  10  12
HETATM   12  C   UNL     1     -42.107 -47.670  10.241  1.00  0.00     0.127 C 
BRANCH  12  13
HETATM   13  C   UNL     1     -43.389 -47.423   9.513  1.00  0.00     0.003 A 
HETATM   14  C   UNL     1     -43.523 -47.679   8.033  1.00  0.00     0.007 A 
HETATM   15  C   UNL     1     -43.681 -46.281   8.570  1.00  0.00     0.007 A 
ENDBRANCH  12  13
ENDBRANCH  10  12
ENDBRANCH   7   8
ENDBRANCH   4   7
BRANCH   1  16
HETATM   16  C   UNL     1     -46.561 -51.709  13.943  1.00  0.00     0.433 C 
HETATM   17  F   UNL     1     -47.073 -51.227  12.776  1.00  0.00    -0.165 F 
HETATM   18  F   UNL     1     -47.149 -50.997  14.941  1.00  0.00    -0.165 F 
HETATM   19  F   UNL     1     -47.006 -52.991  14.054  1.00  0.00    -0.165 F 
ENDBRANCH   1  16
TORSDOF 5
ENDMDL
MODEL 5
REMARK VINA RESULT:      -5.4      4.144      5.064
REMARK  5 active torsions:
REMARK  status: ('A' for Active; 'I' for Inactive)
REMARK    1  A    between atoms: C_2  and  C_5 
REMARK    2  A    between atoms: N_8  and  C_9 
REMARK    3  A    between atoms: C_9  and  C_10 
REMARK       I    between atoms: C_10  and  N_12 
REMARK    4  A    between atoms: N_12  and  C_13 
REMARK    5  A    between atoms: C_13  and  C_14 
ROOT
HETATM    1  C   UNL     1     -44.928 -52.706  13.333  1.00  0.00     0.133 A 
HETATM    2  C   UNL     1     -44.389 -53.836  14.006  1.00  0.00     0.054 A 
HETATM    3  C   UNL     1     -43.111 -53.975  13.522  1.00  0.00     0.113 A 
HETATM    4  N   UNL     1     -42.941 -52.982  12.600  1.00  0.00    -0.294 N 
HETATM    5  N   UNL     1     -44.030 -52.197  12.464  1.00  0.00    -0.294 N 
ATOM      6  HN  UNL     1     -44.148 -51.397  11.843  1.00  0.00     0.187 HD
ENDROOT
BRANCH   4   7
HETATM    7  C   UNL     1     -41.722 -52.632  11.896  1.00  0.00     0.250 C 
BRANCH   7   8
HETATM    8  C   UNL     1     -41.260 -51.230  12.204  1.00  0.00     0.237 C 
HETATM    9  O   UNL     1     -41.537 -50.692  13.277  1.00  0.00    -0.272 OA
HETATM   10  N   UNL     1     -40.537 -50.579  11.218  1.00  0.00    -0.359 N 
HETATM   11  H   UNL     1     -40.140 -51.114  10.452  1.00  0.00     0.162 HD
BRANCH  10  12
HETATM   12  C   UNL     1     -40.060 -49.243  11.490  1.00  0.00     0.127 C 
BRANCH  12  13
HETATM   13  C   UNL     1     -38.594 -49.079  11.735  1.00  0.00     0.003 A 
HETATM   14  C   UNL     1     -37.662 -50.263  11.791  1.00  0.00     0.007 A 
HETATM   15  C   UNL     1     -37.854 -49.401  13.010  1.00  0.00     0.007 A 
ENDBRANCH  12  13
ENDBRANCH  10  12
ENDBRANCH   7   8
ENDBRANCH   4   7
BRANCH   1  16
HETATM   16  C   UNL     1     -46.298 -52.110  13.530  1.00  0.00     0.433 C 
HETATM   17  F   UNL     1     -47.149 -52.982  14.140  1.00  0.00    -0.165 F 
HETATM   18  F   UNL     1     -46.888 -51.760  12.355  1.00  0.00    -0.165 F 
HETATM   19  F   UNL     1     -46.272 -50.994  14.309  1.00  0.00    -0.165 F 
ENDBRANCH   1  16
TORSDOF 5
ENDMDL
MODEL 6
REMARK VINA RESULT:      -5.4      3.990      5.540
REMARK  5 active torsions:
REMARK  status: ('A' for Active; 'I' for Inactive)
REMARK    1  A    between atoms: C_2  and  C_5 
REMARK    2  A    between atoms: N_8  and  C_9 
REMARK    3  A    between atoms: C_9  and  C_10 
REMARK       I    between atoms: C_10  and  N_12 
REMARK    4  A    between atoms: N_12  and  C_13 
REMARK    5  A    between atoms: C_13  and  C_14 
ROOT
HETATM    1  C   UNL     1     -44.749 -52.869  12.937  1.00  0.00     0.133 A 
HETATM    2  C   UNL     1     -44.248 -54.065  13.520  1.00  0.00     0.054 A 
HETATM    3  C   UNL     1     -42.902 -54.071  13.244  1.00  0.00     0.113 A 
HETATM    4  N   UNL     1     -42.656 -52.939  12.519  1.00  0.00    -0.294 N 
HETATM    5  N   UNL     1     -43.760 -52.192  12.318  1.00  0.00    -0.294 N 
ATOM      6  HN  UNL     1     -43.833 -51.311  11.809  1.00  0.00     0.187 HD
ENDROOT
BRANCH   4   7
HETATM    7  C   UNL     1     -41.367 -52.431  12.091  1.00  0.00     0.250 C 
BRANCH   7   8
HETATM    8  C   UNL     1     -41.304 -50.924  12.115  1.00  0.00     0.237 C 
HETATM    9  O   UNL     1     -41.628 -50.291  13.121  1.00  0.00    -0.272 OA
HETATM   10  N   UNL     1     -40.890 -50.297  10.951  1.00  0.00    -0.359 N 
HETATM   11  H   UNL     1     -40.424 -50.837  10.229  1.00  0.00     0.162 HD
BRANCH  10  12
HETATM   12  C   UNL     1     -40.797 -48.855  10.948  1.00  0.00     0.127 C 
BRANCH  12  13
HETATM   13  C   UNL     1     -41.914 -48.101  10.301  1.00  0.00     0.003 A 
HETATM   14  C   UNL     1     -42.162 -46.643  10.595  1.00  0.00     0.007 A 
HETATM   15  C   UNL     1     -43.204 -47.668  10.955  1.00  0.00     0.007 A 
ENDBRANCH  12  13
ENDBRANCH  10  12
ENDBRANCH   7   8
ENDBRANCH   4   7
BRANCH   1  16
HETATM   16  C   UNL     1     -46.171 -52.372  12.985  1.00  0.00     0.433 C 
HETATM   17  F   UNL     1     -46.756 -52.385  11.754  1.00  0.00    -0.165 F 
HETATM   18  F   UNL     1     -46.259 -51.091  13.435  1.00  0.00    -0.165 F 
HETATM   19  F   UNL     1     -46.961 -53.132  13.791  1.00  0.00    -0.165 F 
ENDBRANCH   1  16
TORSDOF 5
ENDMDL
MODEL 7
REMARK VINA RESULT:      -5.3      3.266      4.889
REMARK  5 active torsions:
REMARK  status: ('A' for Active; 'I' for Inactive)
REMARK    1  A    between atoms: C_2  and  C_5 
REMARK    2  A    between atoms: N_8  and  C_9 
REMARK    3  A    between atoms: C_9  and  C_10 
REMARK       I    between atoms: C_10  and  N_12 
REMARK    4  A    between atoms: N_12  and  C_13 
REMARK    5  A    between atoms: C_13  and  C_14 
ROOT
HETATM    1  C   UNL     1     -42.694 -47.557   9.730  1.00  0.00     0.133 A 
HETATM    2  C   UNL     1     -42.020 -46.533  10.450  1.00  0.00     0.054 A 
HETATM    3  C   UNL     1     -41.283 -47.184  11.409  1.00  0.00     0.113 A 
HETATM    4  N   UNL     1     -41.545 -48.516  11.254  1.00  0.00    -0.294 N 
HETATM    5  N   UNL     1     -42.400 -48.770  10.242  1.00  0.00    -0.294 N 
ATOM      6  HN  UNL     1     -42.747 -49.677   9.931  1.00  0.00     0.187 HD
ENDROOT
BRANCH   4   7
HETATM    7  C   UNL     1     -40.918 -49.624  11.947  1.00  0.00     0.250 C 
BRANCH   7   8
HETATM    8  C   UNL     1     -41.904 -50.701  12.325  1.00  0.00     0.237 C 
HETATM    9  O   UNL     1     -41.763 -51.858  11.926  1.00  0.00    -0.272 OA
HETATM   10  N   UNL     1     -42.976 -50.319  13.116  1.00  0.00    -0.359 N 
HETATM   11  H   UNL     1     -42.946 -49.430  13.605  1.00  0.00     0.162 HD
BRANCH  10  12
HETATM   12  C   UNL     1     -43.926 -51.331  13.514  1.00  0.00     0.127 C 
BRANCH  12  13
HETATM   13  C   UNL     1     -45.371 -51.051  13.253  1.00  0.00     0.003 A 
HETATM   14  C   UNL     1     -46.453 -51.519  14.193  1.00  0.00     0.007 A 
HETATM   15  C   UNL     1     -46.409 -52.040  12.781  1.00  0.00     0.007 A 
ENDBRANCH  12  13
ENDBRANCH  10  12
ENDBRANCH   7   8
ENDBRANCH   4   7
BRANCH   1  16
HETATM   16  C   UNL     1     -43.609 -47.372   8.547  1.00  0.00     0.433 C 
HETATM   17  F   UNL     1     -43.773 -46.056   8.231  1.00  0.00    -0.165 F 
HETATM   18  F   UNL     1     -44.856 -47.868   8.771  1.00  0.00    -0.165 F 
HETATM   19  F   UNL     1     -43.136 -47.978   7.424  1.00  0.00    -0.165 F 
ENDBRANCH   1  16
TORSDOF 5
ENDMDL
MODEL 8
REMARK VINA RESULT:      -5.2      4.106      5.353
REMARK  5 active torsions:
REMARK  status: ('A' for Active; 'I' for Inactive)
REMARK    1  A    between atoms: C_2  and  C_5 
REMARK    2  A    between atoms: N_8  and  C_9 
REMARK    3  A    between atoms: C_9  and  C_10 
REMARK       I    between atoms: C_10  and  N_12 
REMARK    4  A    between atoms: N_12  and  C_13 
REMARK    5  A    between atoms: C_13  and  C_14 
ROOT
HETATM    1  C   UNL     1     -43.213 -47.376   9.847  1.00  0.00     0.133 A 
HETATM    2  C   UNL     1     -43.211 -48.030  11.109  1.00  0.00     0.054 A 
HETATM    3  C   UNL     1     -41.984 -47.753  11.663  1.00  0.00     0.113 A 
HETATM    4  N   UNL     1     -41.314 -46.994  10.746  1.00  0.00    -0.294 N 
HETATM    5  N   UNL     1     -42.037 -46.752   9.633  1.00  0.00    -0.294 N 
ATOM      6  HN  UNL     1     -41.757 -46.215   8.812  1.00  0.00     0.187 HD
ENDROOT
BRANCH   4   7
HETATM    7  C   UNL     1     -40.025 -46.350  10.909  1.00  0.00     0.250 C 
BRANCH   7   8
HETATM    8  C   UNL     1     -40.102 -44.854  10.737  1.00  0.00     0.237 C 
HETATM    9  O   UNL     1     -39.879 -44.328   9.646  1.00  0.00    -0.272 OA
HETATM   10  N   UNL     1     -40.409 -44.110  11.865  1.00  0.00    -0.359 N 
HETATM   11  H   UNL     1     -40.800 -44.573  12.680  1.00  0.00     0.162 HD
BRANCH  10  12
HETATM   12  C   UNL     1     -40.512 -42.676  11.730  1.00  0.00     0.127 C 
BRANCH  12  13
HETATM   13  C   UNL     1     -39.831 -41.842  12.768  1.00  0.00     0.003 A 
HETATM   14  C   UNL     1     -40.602 -41.165  13.873  1.00  0.00     0.007 A 
HETATM   15  C   UNL     1     -39.850 -40.336  12.866  1.00  0.00     0.007 A 
ENDBRANCH  12  13
ENDBRANCH  10  12
ENDBRANCH   7   8
ENDBRANCH   4   7
BRANCH   1  16
HETATM   16  C   UNL     1     -44.346 -47.342   8.853  1.00  0.00     0.433 C 
HETATM   17  F   UNL     1     -45.472 -47.932   9.345  1.00  0.00    -0.165 F 
HETATM   18  F   UNL     1     -44.046 -47.996   7.699  1.00  0.00    -0.165 F 
HETATM   19  F   UNL     1     -44.699 -46.073   8.511  1.00  0.00    -0.165 F 
ENDBRANCH   1  16
TORSDOF 5
ENDMDL
MODEL 9
REMARK VINA RESULT:      -5.1      5.464      7.660
REMARK  5 active torsions:
REMARK  status: ('A' for Active; 'I' for Inactive)
REMARK    1  A    between atoms: C_2  and  C_5 
REMARK    2  A    between atoms: N_8  and  C_9 
REMARK    3  A    between atoms: C_9  and  C_10 
REMARK       I    between atoms: C_10  and  N_12 
REMARK    4  A    between atoms: N_12  and  C_13 
REMARK    5  A    between atoms: C_13  and  C_14 
ROOT
HETATM    1  C   UNL     1     -39.199 -50.502  12.664  1.00  0.00     0.133 A 
HETATM    2  C   UNL     1     -39.317 -50.713  14.064  1.00  0.00     0.054 A 
HETATM    3  C   UNL     1     -40.070 -51.855  14.199  1.00  0.00     0.113 A 
HETATM    4  N   UNL     1     -40.382 -52.260  12.932  1.00  0.00    -0.294 N 
HETATM    5  N   UNL     1     -39.866 -51.454  11.980  1.00  0.00    -0.294 N 
ATOM      6  HN  UNL     1     -39.959 -51.545  10.969  1.00  0.00     0.187 HD
ENDROOT
BRANCH   4   7
HETATM    7  C   UNL     1     -41.059 -53.479  12.538  1.00  0.00     0.250 C 
BRANCH   7   8
HETATM    8  C   UNL     1     -42.503 -53.504  12.973  1.00  0.00     0.237 C 
HETATM    9  O   UNL     1     -42.839 -54.048  14.025  1.00  0.00    -0.272 OA
HETATM   10  N   UNL     1     -43.422 -52.910  12.123  1.00  0.00    -0.359 N 
HETATM   11  H   UNL     1     -43.098 -52.286  11.391  1.00  0.00     0.162 HD
BRANCH  10  12
HETATM   12  C   UNL     1     -44.811 -52.896  12.521  1.00  0.00     0.127 C 
BRANCH  12  13
HETATM   13  C   UNL     1     -45.353 -51.612  13.062  1.00  0.00     0.003 A 
HETATM   14  C   UNL     1     -44.692 -50.893  14.210  1.00  0.00     0.007 A 
HETATM   15  C   UNL     1     -46.092 -51.426  14.365  1.00  0.00     0.007 A 
ENDBRANCH  12  13
ENDBRANCH  10  12
ENDBRANCH   7   8
ENDBRANCH   4   7
BRANCH   1  16
HETATM   16  C   UNL     1     -38.437 -49.394  11.982  1.00  0.00     0.433 C 
HETATM   17  F   UNL     1     -37.564 -48.780  12.831  1.00  0.00    -0.165 F 
HETATM   18  F   UNL     1     -39.255 -48.417  11.506  1.00  0.00    -0.165 F 
HETATM   19  F   UNL     1     -37.697 -49.841  10.932  1.00  0.00    -0.165 F 
ENDBRANCH   1  16
TORSDOF 5
ENDMDL
