MODEL 1
REMARK VINA RESULT:      -6.0      0.000      0.000
REMARK  5 active torsions:
REMARK  status: ('A' for Active; 'I' for Inactive)
REMARK    1  A    between atoms: N_7  and  C_8 
REMARK    2  A    between atoms: C_8  and  C_9 
REMARK       I    between atoms: C_9  and  N_11 
REMARK    3  A    between atoms: N_11  and  C_12 
REMARK    4  A    between atoms: C_12  and  C_13 
REMARK    5  A    between atoms: C_13  and  C_14 
ROOT
HETATM    1  C   UNL     1     -42.471 -52.962  12.710  1.00  0.00     0.235 C 
HETATM    2  O   UNL     1     -42.455 -53.186  13.921  1.00  0.00    -0.272 OA
HETATM    3  N   UNL     1     -43.655 -52.932  11.996  1.00  0.00    -0.359 N 
HETATM    4  H   UNL     1     -43.672 -52.648  11.024  1.00  0.00     0.162 HD
ENDROOT
BRANCH   1   5
HETATM    5  C   UNL     1     -41.186 -52.663  11.926  1.00  0.00     0.235 C 
BRANCH   5   6
HETATM    6  N   UNL     1     -40.517 -51.414  12.318  1.00  0.00    -0.301 N 
HETATM    7  C   UNL     1     -41.000 -50.206  11.862  1.00  0.00     0.102 C 
HETATM    8  C   UNL     1     -40.439 -49.046  12.198  1.00  0.00     0.092 C 
HETATM    9  C   UNL     1     -39.231 -49.043  13.035  1.00  0.00     0.252 C 
HETATM   10  N   UNL     1     -38.728 -50.286  13.372  1.00  0.00    -0.271 N 
HETATM   11  O   UNL     1     -38.742 -47.966  13.364  1.00  0.00    -0.268 OA
HETATM   12  C   UNL     1     -37.469 -50.351  14.085  1.00  0.00     0.164 C 
HETATM   13  C   UNL     1     -39.374 -51.493  13.113  1.00  0.00     0.331 C 
HETATM   14  O   UNL     1     -38.949 -52.568  13.542  1.00  0.00    -0.246 OA
ENDBRANCH   5   6
ENDBRANCH   1   5
BRANCH   3  15
HETATM   15  C   UNL     1     -44.891 -53.105  12.738  1.00  0.00     0.127 C 
BRANCH  15  16
HETATM   16  C   UNL     1     -45.768 -51.861  12.870  1.00  0.00     0.053 C 
BRANCH  16  17
HETATM   17  C   UNL     1     -45.909 -51.429  14.326  1.00  0.00    -0.082 A 
HETATM   18  C   UNL     1     -47.046 -51.636  15.006  1.00  0.00    -0.024 A 
HETATM   19  C   UNL     1     -47.272 -51.263  16.433  1.00  0.00     0.027 A 
HETATM   20  C   UNL     1     -46.120 -50.593  17.174  1.00  0.00     0.004 A 
HETATM   21  C   UNL     1     -44.810 -50.366  16.429  1.00  0.00     0.005 A 
HETATM   22  C   UNL     1     -44.714 -50.773  14.959  1.00  0.00     0.034 A 
ENDBRANCH  16  17
ENDBRANCH  15  16
ENDBRANCH   3  15
TORSDOF 5
ENDMDL
MODEL 2
REMARK VINA RESULT:      -6.0      2.814      3.843
REMARK  5 active torsions:
REMARK  status: ('A' for Active; 'I' for Inactive)
REMARK    1  A    between atoms: N_7  and  C_8 
REMARK    2  A    between atoms: C_8  and  C_9 
REMARK       I    between atoms: C_9  and  N_11 
REMARK    3  A    between atoms: N_11  and  C_12 
REMARK    4  A    between atoms: C_12  and  C_13 
REMARK    5  A    between atoms: C_13  and  C_14 
ROOT
HETATM    1  C   UNL     1     -41.261 -50.491  12.118  1.00  0.00     0.235 C 
HETATM    2  O   UNL     1     -41.380 -50.079  13.272  1.00  0.00    -0.272 OA
HETATM    3  N   UNL     1     -41.798 -51.705  11.726  1.00  0.00    -0.359 N 
HETATM    4  H   UNL     1     -41.786 -51.991  10.754  1.00  0.00     0.162 HD
ENDROOT
BRANCH   1   5
HETATM    5  C   UNL     1     -40.548 -49.671  11.035  1.00  0.00     0.235 C 
BRANCH   5   6
HETATM    6  N   UNL     1     -41.080 -48.312  10.860  1.00  0.00    -0.301 N 
HETATM    7  C   UNL     1     -42.240 -48.117  10.140  1.00  0.00     0.102 C 
HETATM    8  C   UNL     1     -42.770 -46.909   9.964  1.00  0.00     0.092 C 
HETATM    9  C   UNL     1     -42.075 -45.730  10.499  1.00  0.00     0.252 C 
HETATM   10  N   UNL     1     -40.863 -45.973  11.117  1.00  0.00    -0.271 N 
HETATM   11  O   UNL     1     -42.591 -44.624  10.357  1.00  0.00    -0.268 OA
HETATM   12  C   UNL     1     -40.069 -44.841  11.550  1.00  0.00     0.164 C 
HETATM   13  C   UNL     1     -40.363 -47.243  11.397  1.00  0.00     0.331 C 
HETATM   14  O   UNL     1     -39.336 -47.411  12.060  1.00  0.00    -0.246 OA
ENDBRANCH   5   6
ENDBRANCH   1   5
BRANCH   3  15
HETATM   15  C   UNL     1     -42.570 -52.446  12.706  1.00  0.00     0.127 C 
BRANCH  15  16
HETATM   16  C   UNL     1     -43.857 -53.088  12.193  1.00  0.00     0.053 C 
BRANCH  16  17
HETATM   17  C   UNL     1     -44.995 -52.939  13.198  1.00  0.00    -0.082 A 
HETATM   18  C   UNL     1     -45.463 -53.994  13.881  1.00  0.00    -0.024 A 
HETATM   19  C   UNL     1     -46.558 -53.943  14.893  1.00  0.00     0.027 A 
HETATM   20  C   UNL     1     -47.195 -52.586  15.170  1.00  0.00     0.004 A 
HETATM   21  C   UNL     1     -46.666 -51.368  14.422  1.00  0.00     0.005 A 
HETATM   22  C   UNL     1     -45.554 -51.557  13.392  1.00  0.00     0.034 A 
ENDBRANCH  16  17
ENDBRANCH  15  16
ENDBRANCH   3  15
TORSDOF 5
ENDMDL
MODEL 3
REMARK VINA RESULT:      -5.9      1.349      1.947
REMARK  5 active torsions:
REMARK  status: ('A' for Active; 'I' for Inactive)
REMARK    1  A    between atoms: N_7  and  C_8 
REMARK    2  A    between atoms: C_8  and  C_9 
REMARK       I    between atoms: C_9  and  N_11 
REMARK    3  A    between atoms: N_11  and  C_12 
REMARK    4  A    between atoms: C_12  and  C_13 
REMARK    5  A    between atoms: C_13  and  C_14 
ROOT
HETATM    1  C   UNL     1     -42.776 -53.974  13.453  1.00  0.00     0.235 C 
HETATM    2  O   UNL     1     -43.132 -54.073  14.627  1.00  0.00    -0.272 OA
HETATM    3  N   UNL     1     -43.668 -53.625  12.454  1.00  0.00    -0.359 N 
HETATM    4  H   UNL     1     -43.350 -53.445  11.509  1.00  0.00     0.162 HD
ENDROOT
BRANCH   1   5
HETATM    5  C   UNL     1     -41.318 -54.191  13.029  1.00  0.00     0.235 C 
BRANCH   5   6
HETATM    6  N   UNL     1     -40.432 -53.051  13.310  1.00  0.00    -0.301 N 
HETATM    7  C   UNL     1     -39.631 -53.067  14.432  1.00  0.00     0.102 C 
HETATM    8  C   UNL     1     -38.803 -52.066  14.725  1.00  0.00     0.092 C 
HETATM    9  C   UNL     1     -38.775 -50.876  13.864  1.00  0.00     0.252 C 
HETATM   10  N   UNL     1     -39.677 -50.867  12.817  1.00  0.00    -0.271 N 
HETATM   11  O   UNL     1     -37.983 -49.974  14.128  1.00  0.00    -0.268 OA
HETATM   12  C   UNL     1     -39.788 -49.669  12.011  1.00  0.00     0.164 C 
HETATM   13  C   UNL     1     -40.463 -51.956  12.447  1.00  0.00     0.331 C 
HETATM   14  O   UNL     1     -41.162 -51.944  11.430  1.00  0.00    -0.246 OA
ENDBRANCH   5   6
ENDBRANCH   1   5
BRANCH   3  15
HETATM   15  C   UNL     1     -45.029 -53.309  12.850  1.00  0.00     0.127 C 
BRANCH  15  16
HETATM   16  C   UNL     1     -45.363 -51.823  12.959  1.00  0.00     0.053 C 
BRANCH  16  17
HETATM   17  C   UNL     1     -45.743 -51.439  14.385  1.00  0.00    -0.082 A 
HETATM   18  C   UNL     1     -46.977 -51.660  14.861  1.00  0.00    -0.024 A 
HETATM   19  C   UNL     1     -47.435 -51.334  16.242  1.00  0.00     0.027 A 
HETATM   20  C   UNL     1     -46.420 -50.698  17.186  1.00  0.00     0.004 A 
HETATM   21  C   UNL     1     -45.004 -50.456  16.676  1.00  0.00     0.005 A 
HETATM   22  C   UNL     1     -44.667 -50.814  15.230  1.00  0.00     0.034 A 
ENDBRANCH  16  17
ENDBRANCH  15  16
ENDBRANCH   3  15
TORSDOF 5
ENDMDL
MODEL 4
REMARK VINA RESULT:      -5.7      3.719      5.016
REMARK  5 active torsions:
REMARK  status: ('A' for Active; 'I' for Inactive)
REMARK    1  A    between atoms: N_7  and  C_8 
REMARK    2  A    between atoms: C_8  and  C_9 
REMARK       I    between atoms: C_9  and  N_11 
REMARK    3  A    between atoms: N_11  and  C_12 
REMARK    4  A    between atoms: C_12  and  C_13 
REMARK    5  A    between atoms: C_13  and  C_14 
ROOT
HETATM    1  C   UNL     1     -41.200 -49.057  12.245  1.00  0.00     0.235 C 
HETATM    2  O   UNL     1     -40.919 -48.907  13.435  1.00  0.00    -0.272 OA
HETATM    3  N   UNL     1     -42.111 -50.013  11.834  1.00  0.00    -0.359 N 
HETATM    4  H   UNL     1     -42.415 -50.064  10.868  1.00  0.00     0.162 HD
ENDROOT
BRANCH   1   5
HETATM    5  C   UNL     1     -40.591 -48.170  11.152  1.00  0.00     0.235 C 
BRANCH   5   6
HETATM    6  N   UNL     1     -41.352 -46.941  10.879  1.00  0.00    -0.301 N 
HETATM    7  C   UNL     1     -41.055 -45.784  11.568  1.00  0.00     0.102 C 
HETATM    8  C   UNL     1     -41.706 -44.643  11.349  1.00  0.00     0.092 C 
HETATM    9  C   UNL     1     -42.816 -44.617  10.386  1.00  0.00     0.252 C 
HETATM   10  N   UNL     1     -43.140 -45.829   9.806  1.00  0.00    -0.271 N 
HETATM   11  O   UNL     1     -43.386 -43.551  10.170  1.00  0.00    -0.268 OA
HETATM   12  C   UNL     1     -44.305 -45.895   8.948  1.00  0.00     0.164 C 
HETATM   13  C   UNL     1     -42.392 -46.996   9.952  1.00  0.00     0.331 C 
HETATM   14  O   UNL     1     -42.649 -48.022   9.317  1.00  0.00    -0.246 OA
ENDBRANCH   5   6
ENDBRANCH   1   5
BRANCH   3  15
HETATM   15  C   UNL     1     -42.780 -50.790  12.861  1.00  0.00     0.127 C 
BRANCH  15  16
HETATM   16  C   UNL     1     -44.198 -50.346  13.213  1.00  0.00     0.053 C 
BRANCH  16  17
HETATM   17  C   UNL     1     -45.042 -51.515  13.711  1.00  0.00    -0.082 A 
HETATM   18  C   UNL     1     -46.090 -51.321  14.525  1.00  0.00    -0.024 A 
HETATM   19  C   UNL     1     -46.981 -52.397  15.048  1.00  0.00     0.027 A 
HETATM   20  C   UNL     1     -46.674 -53.830  14.626  1.00  0.00     0.004 A 
HETATM   21  C   UNL     1     -45.501 -54.075  13.683  1.00  0.00     0.005 A 
HETATM   22  C   UNL     1     -44.650 -52.887  13.237  1.00  0.00     0.034 A 
ENDBRANCH  16  17
ENDBRANCH  15  16
ENDBRANCH   3  15
TORSDOF 5
ENDMDL
MODEL 5
REMARK VINA RESULT:      -5.7      2.385      6.779
REMARK  5 active torsions:
REMARK  status: ('A' for Active; 'I' for Inactive)
REMARK    1  A    between atoms: N_7  and  C_8 
REMARK    2  A    between atoms: C_8  and  C_9 
REMARK       I    between atoms: C_9  and  N_11 
REMARK    3  A    between atoms: N_11  and  C_12 
REMARK    4  A    between atoms: C_12  and  C_13 
REMARK    5  A    between atoms: C_13  and  C_14 
ROOT
HETATM    1  C   UNL     1     -43.007 -53.609  12.819  1.00  0.00     0.235 C 
HETATM    2  O   UNL     1     -42.163 -54.124  13.553  1.00  0.00    -0.272 OA
HETATM    3  N   UNL     1     -42.667 -52.632  11.901  1.00  0.00    -0.359 N 
HETATM    4  H   UNL     1     -43.344 -52.286  11.232  1.00  0.00     0.162 HD
ENDROOT
BRANCH   1   5
HETATM    5  C   UNL     1     -44.478 -54.045  12.849  1.00  0.00     0.235 C 
BRANCH   5   6
HETATM    6  N   UNL     1     -45.311 -53.289  13.796  1.00  0.00    -0.301 N 
HETATM    7  C   UNL     1     -45.944 -52.136  13.383  1.00  0.00     0.102 C 
HETATM    8  C   UNL     1     -46.719 -51.422  14.197  1.00  0.00     0.092 C 
HETATM    9  C   UNL     1     -46.867 -51.835  15.599  1.00  0.00     0.252 C 
HETATM   10  N   UNL     1     -46.124 -52.934  15.986  1.00  0.00    -0.271 N 
HETATM   11  O   UNL     1     -47.610 -51.186  16.331  1.00  0.00    -0.268 OA
HETATM   12  C   UNL     1     -46.126 -53.312  17.385  1.00  0.00     0.164 C 
HETATM   13  C   UNL     1     -45.401 -53.743  15.111  1.00  0.00     0.331 C 
HETATM   14  O   UNL     1     -44.855 -54.785  15.483  1.00  0.00    -0.246 OA
ENDBRANCH   5   6
ENDBRANCH   1   5
BRANCH   3  15
HETATM   15  C   UNL     1     -41.263 -52.283  11.781  1.00  0.00     0.127 C 
BRANCH  15  16
HETATM   16  C   UNL     1     -40.945 -50.790  11.792  1.00  0.00     0.053 C 
BRANCH  16  17
HETATM   17  C   UNL     1     -39.761 -50.477  12.701  1.00  0.00    -0.082 A 
HETATM   18  C   UNL     1     -38.990 -49.399  12.494  1.00  0.00    -0.024 A 
HETATM   19  C   UNL     1     -37.824 -49.004  13.336  1.00  0.00     0.027 A 
HETATM   20  C   UNL     1     -37.481 -49.897  14.523  1.00  0.00     0.004 A 
HETATM   21  C   UNL     1     -38.355 -51.116  14.793  1.00  0.00     0.005 A 
HETATM   22  C   UNL     1     -39.509 -51.425  13.840  1.00  0.00     0.034 A 
ENDBRANCH  16  17
ENDBRANCH  15  16
ENDBRANCH   3  15
TORSDOF 5
ENDMDL
MODEL 6
REMARK VINA RESULT:      -5.6      2.268      3.575
REMARK  5 active torsions:
REMARK  status: ('A' for Active; 'I' for Inactive)
REMARK    1  A    between atoms: N_7  and  C_8 
REMARK    2  A    between atoms: C_8  and  C_9 
REMARK       I    between atoms: C_9  and  N_11 
REMARK    3  A    between atoms: N_11  and  C_12 
REMARK    4  A    between atoms: C_12  and  C_13 
REMARK    5  A    between atoms: C_13  and  C_14 
ROOT
HETATM    1  C   UNL     1     -40.525 -51.196  11.943  1.00  0.00     0.235 C 
HETATM    2  O   UNL     1     -39.831 -51.923  12.653  1.00  0.00    -0.272 OA
HETATM    3  N   UNL     1     -41.899 -51.344  11.881  1.00  0.00    -0.359 N 
HETATM    4  H   UNL     1     -42.474 -50.680  11.377  1.00  0.00     0.162 HD
ENDROOT
BRANCH   1   5
HETATM    5  C   UNL     1     -39.917 -50.056  11.114  1.00  0.00     0.235 C 
BRANCH   5   6
HETATM    6  N   UNL     1     -40.084 -48.722  11.710  1.00  0.00    -0.301 N 
HETATM    7  C   UNL     1     -39.216 -48.298  12.694  1.00  0.00     0.102 C 
HETATM    8  C   UNL     1     -39.316 -47.096  13.257  1.00  0.00     0.092 C 
HETATM    9  C   UNL     1     -40.418 -46.204  12.866  1.00  0.00     0.252 C 
HETATM   10  N   UNL     1     -41.320 -46.723  11.957  1.00  0.00    -0.271 N 
HETATM   11  O   UNL     1     -40.479 -45.085  13.369  1.00  0.00    -0.268 OA
HETATM   12  C   UNL     1     -42.497 -45.944  11.630  1.00  0.00     0.164 C 
HETATM   13  C   UNL     1     -41.155 -47.935  11.288  1.00  0.00     0.331 C 
HETATM   14  O   UNL     1     -41.922 -48.299  10.394  1.00  0.00    -0.246 OA
ENDBRANCH   5   6
ENDBRANCH   1   5
BRANCH   3  15
HETATM   15  C   UNL     1     -42.506 -52.345  12.740  1.00  0.00     0.127 C 
BRANCH  15  16
HETATM   16  C   UNL     1     -43.791 -52.981  12.216  1.00  0.00     0.053 C 
BRANCH  16  17
HETATM   17  C   UNL     1     -44.937 -52.826  13.210  1.00  0.00    -0.082 A 
HETATM   18  C   UNL     1     -45.515 -51.635  13.426  1.00  0.00    -0.024 A 
HETATM   19  C   UNL     1     -46.649 -51.390  14.364  1.00  0.00     0.027 A 
HETATM   20  C   UNL     1     -47.192 -52.586  15.137  1.00  0.00     0.004 A 
HETATM   21  C   UNL     1     -46.567 -53.955  14.893  1.00  0.00     0.005 A 
HETATM   22  C   UNL     1     -45.392 -54.069  13.923  1.00  0.00     0.034 A 
ENDBRANCH  16  17
ENDBRANCH  15  16
ENDBRANCH   3  15
TORSDOF 5
ENDMDL
MODEL 7
REMARK VINA RESULT:      -5.6      3.433      5.224
REMARK  5 active torsions:
REMARK  status: ('A' for Active; 'I' for Inactive)
REMARK    1  A    between atoms: N_7  and  C_8 
REMARK    2  A    between atoms: C_8  and  C_9 
REMARK       I    between atoms: C_9  and  N_11 
REMARK    3  A    between atoms: N_11  and  C_12 
REMARK    4  A    between atoms: C_12  and  C_13 
REMARK    5  A    between atoms: C_13  and  C_14 
ROOT
HETATM    1  C   UNL     1     -40.735 -50.047  12.167  1.00  0.00     0.235 C 
HETATM    2  O   UNL     1     -41.294 -49.968  13.261  1.00  0.00    -0.272 OA
HETATM    3  N   UNL     1     -40.774 -51.209  11.417  1.00  0.00    -0.359 N 
HETATM    4  H   UNL     1     -40.400 -51.236  10.476  1.00  0.00     0.162 HD
ENDROOT
BRANCH   1   5
HETATM    5  C   UNL     1     -39.993 -48.854  11.550  1.00  0.00     0.235 C 
BRANCH   5   6
HETATM    6  N   UNL     1     -40.875 -47.785  11.058  1.00  0.00    -0.301 N 
HETATM    7  C   UNL     1     -41.935 -48.097  10.234  1.00  0.00     0.102 C 
HETATM    8  C   UNL     1     -42.770 -47.168   9.772  1.00  0.00     0.092 C 
HETATM    9  C   UNL     1     -42.531 -45.755  10.097  1.00  0.00     0.252 C 
HETATM   10  N   UNL     1     -41.393 -45.490  10.835  1.00  0.00    -0.271 N 
HETATM   11  O   UNL     1     -43.327 -44.912   9.691  1.00  0.00    -0.268 OA
HETATM   12  C   UNL     1     -41.033 -44.108  11.078  1.00  0.00     0.164 C 
HETATM   13  C   UNL     1     -40.582 -46.467  11.409  1.00  0.00     0.331 C 
HETATM   14  O   UNL     1     -39.648 -46.183  12.163  1.00  0.00    -0.246 OA
ENDBRANCH   5   6
ENDBRANCH   1   5
BRANCH   3  15
HETATM   15  C   UNL     1     -41.562 -52.314  11.932  1.00  0.00     0.127 C 
BRANCH  15  16
HETATM   16  C   UNL     1     -40.768 -53.495  12.486  1.00  0.00     0.053 C 
BRANCH  16  17
HETATM   17  C   UNL     1     -41.446 -54.099  13.711  1.00  0.00    -0.082 A 
HETATM   18  C   UNL     1     -40.739 -54.456  14.793  1.00  0.00    -0.024 A 
HETATM   19  C   UNL     1     -41.315 -55.037  16.041  1.00  0.00     0.027 A 
HETATM   20  C   UNL     1     -42.825 -55.243  16.088  1.00  0.00     0.004 A 
HETATM   21  C   UNL     1     -43.654 -54.826  14.878  1.00  0.00     0.005 A 
HETATM   22  C   UNL     1     -42.940 -54.263  13.650  1.00  0.00     0.034 A 
ENDBRANCH  16  17
ENDBRANCH  15  16
ENDBRANCH   3  15
TORSDOF 5
ENDMDL
MODEL 8
REMARK VINA RESULT:      -5.6      2.854      6.705
REMARK  5 active torsions:
REMARK  status: ('A' for Active; 'I' for Inactive)
REMARK    1  A    between atoms: N_7  and  C_8 
REMARK    2  A    between atoms: C_8  and  C_9 
REMARK       I    between atoms: C_9  and  N_11 
REMARK    3  A    between atoms: N_11  and  C_12 
REMARK    4  A    between atoms: C_12  and  C_13 
REMARK    5  A    between atoms: C_13  and  C_14 
ROOT
HETATM    1  C   UNL     1     -40.818 -51.399  12.263  1.00  0.00     0.235 C 
HETATM    2  O   UNL     1     -40.784 -51.001  13.428  1.00  0.00    -0.272 OA
HETATM    3  N   UNL     1     -40.508 -50.564  11.205  1.00  0.00    -0.359 N 
HETATM    4  H   UNL     1     -40.438 -50.922  10.259  1.00  0.00     0.162 HD
ENDROOT
BRANCH   1   5
HETATM    5  C   UNL     1     -41.169 -52.852  11.915  1.00  0.00     0.235 C 
BRANCH   5   6
HETATM    6  N   UNL     1     -42.246 -53.425  12.735  1.00  0.00    -0.301 N 
HETATM    7  C   UNL     1     -43.561 -53.133  12.441  1.00  0.00     0.102 C 
HETATM    8  C   UNL     1     -44.573 -53.637  13.145  1.00  0.00     0.092 C 
HETATM    9  C   UNL     1     -44.291 -54.486  14.310  1.00  0.00     0.252 C 
HETATM   10  N   UNL     1     -42.955 -54.656  14.624  1.00  0.00    -0.271 N 
HETATM   11  O   UNL     1     -45.233 -54.970  14.931  1.00  0.00    -0.268 OA
HETATM   12  C   UNL     1     -42.616 -55.374  15.835  1.00  0.00     0.164 C 
HETATM   13  C   UNL     1     -41.898 -54.221  13.826  1.00  0.00     0.331 C 
HETATM   14  O   UNL     1     -40.725 -54.504  14.083  1.00  0.00    -0.246 OA
ENDBRANCH   5   6
ENDBRANCH   1   5
BRANCH   3  15
HETATM   15  C   UNL     1     -40.069 -49.216  11.519  1.00  0.00     0.127 C 
BRANCH  15  16
HETATM   16  C   UNL     1     -41.013 -48.093  11.097  1.00  0.00     0.053 C 
BRANCH  16  17
HETATM   17  C   UNL     1     -40.472 -46.726  11.502  1.00  0.00    -0.082 A 
HETATM   18  C   UNL     1     -40.486 -45.691  10.650  1.00  0.00    -0.024 A 
HETATM   19  C   UNL     1     -39.996 -44.317  10.961  1.00  0.00     0.027 A 
HETATM   20  C   UNL     1     -39.433 -44.071  12.356  1.00  0.00     0.004 A 
HETATM   21  C   UNL     1     -39.426 -45.227  13.351  1.00  0.00     0.005 A 
HETATM   22  C   UNL     1     -39.936 -46.595  12.901  1.00  0.00     0.034 A 
ENDBRANCH  16  17
ENDBRANCH  15  16
ENDBRANCH   3  15
TORSDOF 5
ENDMDL
MODEL 9
REMARK VINA RESULT:      -5.4      2.956      6.868
REMARK  5 active torsions:
REMARK  status: ('A' for Active; 'I' for Inactive)
REMARK    1  A    between atoms: N_7  and  C_8 
REMARK    2  A    between atoms: C_8  and  C_9 
REMARK       I    between atoms: C_9  and  N_11 
REMARK    3  A    between atoms: N_11  and  C_12 
REMARK    4  A    between atoms: C_12  and  C_13 
REMARK    5  A    between atoms: C_13  and  C_14 
ROOT
HETATM    1  C   UNL     1     -41.011 -51.211  12.170  1.00  0.00     0.235 C 
HETATM    2  O   UNL     1     -41.468 -50.613  13.145  1.00  0.00    -0.272 OA
HETATM    3  N   UNL     1     -40.029 -50.649  11.374  1.00  0.00    -0.359 N 
HETATM    4  H   UNL     1     -39.586 -51.184  10.636  1.00  0.00     0.162 HD
ENDROOT
BRANCH   1   5
HETATM    5  C   UNL     1     -41.471 -52.627  11.801  1.00  0.00     0.235 C 
BRANCH   5   6
HETATM    6  N   UNL     1     -41.992 -53.406  12.935  1.00  0.00    -0.301 N 
HETATM    7  C   UNL     1     -41.125 -53.883  13.895  1.00  0.00     0.102 C 
HETATM    8  C   UNL     1     -41.547 -54.582  14.946  1.00  0.00     0.092 C 
HETATM    9  C   UNL     1     -42.974 -54.912  15.070  1.00  0.00     0.252 C 
HETATM   10  N   UNL     1     -43.780 -54.502  14.024  1.00  0.00    -0.271 N 
HETATM   11  O   UNL     1     -43.354 -55.529  16.061  1.00  0.00    -0.268 OA
HETATM   12  C   UNL     1     -45.170 -54.909  14.024  1.00  0.00     0.164 C 
HETATM   13  C   UNL     1     -43.359 -53.679  12.981  1.00  0.00     0.331 C 
HETATM   14  O   UNL     1     -44.144 -53.238  12.138  1.00  0.00    -0.246 OA
ENDBRANCH   5   6
ENDBRANCH   1   5
BRANCH   3  15
HETATM   15  C   UNL     1     -39.503 -49.355  11.768  1.00  0.00     0.127 C 
BRANCH  15  16
HETATM   16  C   UNL     1     -38.007 -49.310  12.072  1.00  0.00     0.053 C 
BRANCH  16  17
HETATM   17  C   UNL     1     -37.743 -49.252  13.573  1.00  0.00    -0.082 A 
HETATM   18  C   UNL     1     -37.484 -48.090  14.191  1.00  0.00    -0.024 A 
HETATM   19  C   UNL     1     -37.230 -47.934  15.652  1.00  0.00     0.027 A 
HETATM   20  C   UNL     1     -37.267 -49.194  16.510  1.00  0.00     0.004 A 
HETATM   21  C   UNL     1     -37.580 -50.524  15.836  1.00  0.00     0.005 A 
HETATM   22  C   UNL     1     -37.799 -50.554  14.324  1.00  0.00     0.034 A 
ENDBRANCH  16  17
ENDBRANCH  15  16
ENDBRANCH   3  15
TORSDOF 5
ENDMDL
