MODEL 1
REMARK VINA RESULT:      -6.3      0.000      0.000
REMARK  6 active torsions:
REMARK  status: ('A' for Active; 'I' for Inactive)
REMARK    1  A    between atoms: O_1  and  C_2 
REMARK    2  A    between atoms: C_2  and  C_3 
REMARK    3  A    between atoms: C_2  and  C_14 
REMARK    4  A    between atoms: C_3  and  N_4 
REMARK       I    between atoms: N_4  and  C_5 
REMARK    5  A    between atoms: C_5  and  C_7 
REMARK    6  A    between atoms: C_7  and  C_8 
ROOT
HETATM    1  N   UNL     1     -42.477 -48.444  10.165  1.00  0.00    -0.358 N 
HETATM    2  C   UNL     1     -42.713 -47.269   9.493  1.00  0.00     0.223 C 
HETATM    3  O   UNL     1     -42.346 -46.179   9.929  1.00  0.00    -0.273 OA
HETATM    4  H   UNL     1     -42.607 -49.339   9.707  1.00  0.00     0.162 HD
ENDROOT
BRANCH   1   5
HETATM    5  C   UNL     1     -41.840 -48.459  11.467  1.00  0.00     0.154 C 
BRANCH   5   6
HETATM    6  C   UNL     1     -40.500 -49.212  11.465  1.00  0.00     0.140 C 
BRANCH   6   7
HETATM    7  O   UNL     1     -40.416 -49.974  10.259  1.00  0.00    -0.394 OA
HETATM    8  H   UNL     1     -40.357 -49.339   9.523  1.00  0.00     0.210 HD
ENDBRANCH   6   7
BRANCH   6   9
HETATM    9  C   UNL     1     -40.221 -50.080  12.724  1.00  0.00     0.016 C 
HETATM   10  C   UNL     1     -40.013 -49.203  13.979  1.00  0.00     0.007 C 
HETATM   11  C   UNL     1     -38.629 -48.561  14.067  1.00  0.00     0.000 C 
HETATM   12  C   UNL     1     -37.517 -49.598  13.947  1.00  0.00     0.000 C 
HETATM   13  C   UNL     1     -37.678 -50.483  12.715  1.00  0.00     0.000 C 
HETATM   14  C   UNL     1     -39.072 -51.101  12.636  1.00  0.00     0.007 C 
ENDBRANCH   6   9
ENDBRANCH   5   6
ENDBRANCH   1   5
BRANCH   2  15
HETATM   15  C   UNL     1     -43.442 -47.429   8.170  1.00  0.00     0.161 C 
BRANCH  15  16
HETATM   16  C   UNL     1     -44.885 -47.727   8.375  1.00  0.00     0.043 A 
HETATM   17  C   UNL     1     -45.769 -47.203   9.349  1.00  0.00     0.054 A 
HETATM   18  C   UNL     1     -46.973 -47.794   9.068  1.00  0.00     0.169 A 
HETATM   19  O   UNL     1     -46.834 -48.612   7.997  1.00  0.00    -0.250 OA
HETATM   20  N   UNL     1     -45.524 -48.572   7.552  1.00  0.00    -0.265 N 
ATOM     21  HN  UNL     1     -45.127 -49.080   6.762  1.00  0.00     0.194 HD
ENDBRANCH  15  16
ENDBRANCH   2  15
TORSDOF 6
ENDMDL
MODEL 2
REMARK VINA RESULT:      -6.0      3.892      5.536
REMARK  6 active torsions:
REMARK  status: ('A' for Active; 'I' for Inactive)
REMARK    1  A    between atoms: O_1  and  C_2 
REMARK    2  A    between atoms: C_2  and  C_3 
REMARK    3  A    between atoms: C_2  and  C_14 
REMARK    4  A    between atoms: C_3  and  N_4 
REMARK       I    between atoms: N_4  and  C_5 
REMARK    5  A    between atoms: C_5  and  C_7 
REMARK    6  A    between atoms: C_7  and  C_8 
ROOT
HETATM    1  N   UNL     1     -41.773 -51.652  11.861  1.00  0.00    -0.358 N 
HETATM    2  C   UNL     1     -40.991 -50.602  12.276  1.00  0.00     0.223 C 
HETATM    3  O   UNL     1     -40.604 -50.494  13.439  1.00  0.00    -0.273 OA
HETATM    4  H   UNL     1     -41.919 -51.832  10.873  1.00  0.00     0.162 HD
ENDROOT
BRANCH   1   5
HETATM    5  C   UNL     1     -42.248 -52.660  12.789  1.00  0.00     0.154 C 
BRANCH   5   6
HETATM    6  C   UNL     1     -43.781 -52.708  12.883  1.00  0.00     0.140 C 
BRANCH   6   7
HETATM    7  O   UNL     1     -44.280 -53.385  11.727  1.00  0.00    -0.394 OA
HETATM    8  H   UNL     1     -43.734 -53.101  10.972  1.00  0.00     0.210 HD
ENDBRANCH   6   7
BRANCH   6   9
HETATM    9  C   UNL     1     -44.478 -51.336  13.101  1.00  0.00     0.016 C 
HETATM   10  C   UNL     1     -44.081 -50.710  14.457  1.00  0.00     0.007 C 
HETATM   11  C   UNL     1     -44.806 -51.315  15.658  1.00  0.00     0.000 C 
HETATM   12  C   UNL     1     -46.320 -51.284  15.477  1.00  0.00     0.000 C 
HETATM   13  C   UNL     1     -46.760 -51.899  14.152  1.00  0.00     0.000 C 
HETATM   14  C   UNL     1     -46.011 -51.295  12.967  1.00  0.00     0.007 C 
ENDBRANCH   6   9
ENDBRANCH   5   6
ENDBRANCH   1   5
BRANCH   2  15
HETATM   15  C   UNL     1     -40.631 -49.606  11.188  1.00  0.00     0.161 C 
BRANCH  15  16
HETATM   16  C   UNL     1     -41.783 -48.726  10.852  1.00  0.00     0.043 A 
HETATM   17  C   UNL     1     -42.817 -48.257  11.699  1.00  0.00     0.054 A 
HETATM   18  C   UNL     1     -43.590 -47.470  10.887  1.00  0.00     0.169 A 
HETATM   19  O   UNL     1     -43.063 -47.455   9.639  1.00  0.00    -0.250 OA
HETATM   20  N   UNL     1     -41.923 -48.239   9.610  1.00  0.00    -0.265 N 
ATOM     21  HN  UNL     1     -41.314 -48.411   8.810  1.00  0.00     0.194 HD
ENDBRANCH  15  16
ENDBRANCH   2  15
TORSDOF 6
ENDMDL
MODEL 3
REMARK VINA RESULT:      -5.8      4.477      5.913
REMARK  6 active torsions:
REMARK  status: ('A' for Active; 'I' for Inactive)
REMARK    1  A    between atoms: O_1  and  C_2 
REMARK    2  A    between atoms: C_2  and  C_3 
REMARK    3  A    between atoms: C_2  and  C_14 
REMARK    4  A    between atoms: C_3  and  N_4 
REMARK       I    between atoms: N_4  and  C_5 
REMARK    5  A    between atoms: C_5  and  C_7 
REMARK    6  A    between atoms: C_7  and  C_8 
ROOT
HETATM    1  N   UNL     1     -42.414 -51.111  12.160  1.00  0.00    -0.358 N 
HETATM    2  C   UNL     1     -41.230 -50.422  12.055  1.00  0.00     0.223 C 
HETATM    3  O   UNL     1     -40.154 -50.991  11.882  1.00  0.00    -0.273 OA
HETATM    4  H   UNL     1     -43.303 -50.626  12.105  1.00  0.00     0.162 HD
ENDROOT
BRANCH   1   5
HETATM    5  C   UNL     1     -42.454 -52.560  12.140  1.00  0.00     0.154 C 
BRANCH   5   6
HETATM    6  C   UNL     1     -43.323 -53.146  13.264  1.00  0.00     0.140 C 
BRANCH   6   7
HETATM    7  O   UNL     1     -42.547 -54.115  13.971  1.00  0.00    -0.394 OA
HETATM    8  H   UNL     1     -43.163 -54.802  14.284  1.00  0.00     0.210 HD
ENDBRANCH   6   7
BRANCH   6   9
HETATM    9  C   UNL     1     -44.699 -53.714  12.816  1.00  0.00     0.016 C 
HETATM   10  C   UNL     1     -45.723 -52.585  12.571  1.00  0.00     0.007 C 
HETATM   11  C   UNL     1     -46.333 -52.009  13.848  1.00  0.00     0.000 C 
HETATM   12  C   UNL     1     -46.938 -53.100  14.726  1.00  0.00     0.000 C 
HETATM   13  C   UNL     1     -45.957 -54.235  15.001  1.00  0.00     0.000 C 
HETATM   14  C   UNL     1     -45.346 -54.784  13.715  1.00  0.00     0.007 C 
ENDBRANCH   6   9
ENDBRANCH   5   6
ENDBRANCH   1   5
BRANCH   2  15
HETATM   15  C   UNL     1     -41.361 -48.912  12.152  1.00  0.00     0.161 C 
BRANCH  15  16
HETATM   16  C   UNL     1     -42.212 -48.367  11.060  1.00  0.00     0.043 A 
HETATM   17  C   UNL     1     -43.472 -47.728  11.151  1.00  0.00     0.054 A 
HETATM   18  C   UNL     1     -43.788 -47.410   9.857  1.00  0.00     0.169 A 
HETATM   19  O   UNL     1     -42.791 -47.820   9.036  1.00  0.00    -0.250 OA
HETATM   20  N   UNL     1     -41.793 -48.419   9.786  1.00  0.00    -0.265 N 
ATOM     21  HN  UNL     1     -40.920 -48.817   9.442  1.00  0.00     0.194 HD
ENDBRANCH  15  16
ENDBRANCH   2  15
TORSDOF 6
ENDMDL
MODEL 4
REMARK VINA RESULT:      -5.8      4.588      7.596
REMARK  6 active torsions:
REMARK  status: ('A' for Active; 'I' for Inactive)
REMARK    1  A    between atoms: O_1  and  C_2 
REMARK    2  A    between atoms: C_2  and  C_3 
REMARK    3  A    between atoms: C_2  and  C_14 
REMARK    4  A    between atoms: C_3  and  N_4 
REMARK       I    between atoms: N_4  and  C_5 
REMARK    5  A    between atoms: C_5  and  C_7 
REMARK    6  A    between atoms: C_7  and  C_8 
ROOT
HETATM    1  N   UNL     1     -41.364 -53.313  14.108  1.00  0.00    -0.358 N 
HETATM    2  C   UNL     1     -40.433 -52.842  13.215  1.00  0.00     0.223 C 
HETATM    3  O   UNL     1     -40.509 -53.070  12.008  1.00  0.00    -0.273 OA
HETATM    4  H   UNL     1     -41.398 -52.958  15.057  1.00  0.00     0.162 HD
ENDROOT
BRANCH   1   5
HETATM    5  C   UNL     1     -42.457 -54.168  13.687  1.00  0.00     0.154 C 
BRANCH   5   6
HETATM    6  C   UNL     1     -43.698 -53.375  13.251  1.00  0.00     0.140 C 
BRANCH   6   7
HETATM    7  O   UNL     1     -43.577 -53.085  11.857  1.00  0.00    -0.394 OA
HETATM    8  H   UNL     1     -44.255 -53.611  11.396  1.00  0.00     0.210 HD
ENDBRANCH   6   7
BRANCH   6   9
HETATM    9  C   UNL     1     -44.003 -52.100  14.088  1.00  0.00     0.016 C 
HETATM   10  C   UNL     1     -44.516 -52.461  15.499  1.00  0.00     0.007 C 
HETATM   11  C   UNL     1     -45.983 -52.886  15.538  1.00  0.00     0.000 C 
HETATM   12  C   UNL     1     -46.889 -51.845  14.889  1.00  0.00     0.000 C 
HETATM   13  C   UNL     1     -46.424 -51.463  13.487  1.00  0.00     0.000 C 
HETATM   14  C   UNL     1     -44.952 -51.060  13.466  1.00  0.00     0.007 C 
ENDBRANCH   6   9
ENDBRANCH   5   6
ENDBRANCH   1   5
BRANCH   2  15
HETATM   15  C   UNL     1     -39.323 -52.009  13.831  1.00  0.00     0.161 C 
BRANCH  15  16
HETATM   16  C   UNL     1     -38.781 -51.020  12.861  1.00  0.00     0.043 A 
HETATM   17  C   UNL     1     -37.451 -50.868  12.398  1.00  0.00     0.054 A 
HETATM   18  C   UNL     1     -37.517 -49.831  11.506  1.00  0.00     0.169 A 
HETATM   19  O   UNL     1     -38.795 -49.387  11.425  1.00  0.00    -0.250 OA
HETATM   20  N   UNL     1     -39.597 -50.133  12.271  1.00  0.00    -0.265 N 
ATOM     21  HN  UNL     1     -40.602 -50.031  12.416  1.00  0.00     0.194 HD
ENDBRANCH  15  16
ENDBRANCH   2  15
TORSDOF 6
ENDMDL
MODEL 5
REMARK VINA RESULT:      -5.8      3.512      4.507
REMARK  6 active torsions:
REMARK  status: ('A' for Active; 'I' for Inactive)
REMARK    1  A    between atoms: O_1  and  C_2 
REMARK    2  A    between atoms: C_2  and  C_3 
REMARK    3  A    between atoms: C_2  and  C_14 
REMARK    4  A    between atoms: C_3  and  N_4 
REMARK       I    between atoms: N_4  and  C_5 
REMARK    5  A    between atoms: C_5  and  C_7 
REMARK    6  A    between atoms: C_7  and  C_8 
ROOT
HETATM    1  N   UNL     1     -42.184 -50.457  11.964  1.00  0.00    -0.358 N 
HETATM    2  C   UNL     1     -41.595 -49.304  11.507  1.00  0.00     0.223 C 
HETATM    3  O   UNL     1     -40.436 -49.278  11.095  1.00  0.00    -0.273 OA
HETATM    4  H   UNL     1     -43.186 -50.505  12.112  1.00  0.00     0.162 HD
ENDROOT
BRANCH   1   5
HETATM    5  C   UNL     1     -41.447 -51.703  12.052  1.00  0.00     0.154 C 
BRANCH   5   6
HETATM    6  C   UNL     1     -42.294 -52.857  12.612  1.00  0.00     0.140 C 
BRANCH   6   7
HETATM    7  O   UNL     1     -43.431 -53.030  11.765  1.00  0.00    -0.394 OA
HETATM    8  H   UNL     1     -43.698 -53.965  11.832  1.00  0.00     0.210 HD
ENDBRANCH   6   7
BRANCH   6   9
HETATM    9  C   UNL     1     -42.697 -52.723  14.108  1.00  0.00     0.016 C 
HETATM   10  C   UNL     1     -41.521 -53.084  15.043  1.00  0.00     0.007 C 
HETATM   11  C   UNL     1     -41.289 -54.586  15.199  1.00  0.00     0.000 C 
HETATM   12  C   UNL     1     -42.559 -55.311  15.631  1.00  0.00     0.000 C 
HETATM   13  C   UNL     1     -43.747 -54.990  14.729  1.00  0.00     0.000 C 
HETATM   14  C   UNL     1     -43.951 -53.485  14.571  1.00  0.00     0.007 C 
ENDBRANCH   6   9
ENDBRANCH   5   6
ENDBRANCH   1   5
BRANCH   2  15
HETATM   15  C   UNL     1     -42.491 -48.078  11.534  1.00  0.00     0.161 C 
BRANCH  15  16
HETATM   16  C   UNL     1     -43.171 -47.870  10.227  1.00  0.00     0.043 A 
HETATM   17  C   UNL     1     -44.478 -47.388   9.973  1.00  0.00     0.054 A 
HETATM   18  C   UNL     1     -44.576 -47.373   8.607  1.00  0.00     0.169 A 
HETATM   19  O   UNL     1     -43.412 -47.808   8.067  1.00  0.00    -0.250 OA
HETATM   20  N   UNL     1     -42.520 -48.117   9.080  1.00  0.00    -0.265 N 
ATOM     21  HN  UNL     1     -41.566 -48.463   8.976  1.00  0.00     0.194 HD
ENDBRANCH  15  16
ENDBRANCH   2  15
TORSDOF 6
ENDMDL
MODEL 6
REMARK VINA RESULT:      -5.8      2.997      3.875
REMARK  6 active torsions:
REMARK  status: ('A' for Active; 'I' for Inactive)
REMARK    1  A    between atoms: O_1  and  C_2 
REMARK    2  A    between atoms: C_2  and  C_3 
REMARK    3  A    between atoms: C_2  and  C_14 
REMARK    4  A    between atoms: C_3  and  N_4 
REMARK       I    between atoms: N_4  and  C_5 
REMARK    5  A    between atoms: C_5  and  C_7 
REMARK    6  A    between atoms: C_7  and  C_8 
ROOT
HETATM    1  N   UNL     1     -41.623 -50.376  11.455  1.00  0.00    -0.358 N 
HETATM    2  C   UNL     1     -41.982 -49.089  11.773  1.00  0.00     0.223 C 
HETATM    3  O   UNL     1     -42.497 -48.800  12.852  1.00  0.00    -0.273 OA
HETATM    4  H   UNL     1     -41.028 -50.566  10.655  1.00  0.00     0.162 HD
ENDROOT
BRANCH   1   5
HETATM    5  C   UNL     1     -41.894 -51.484  12.349  1.00  0.00     0.154 C 
BRANCH   5   6
HETATM    6  C   UNL     1     -40.614 -52.172  12.849  1.00  0.00     0.140 C 
BRANCH   6   7
HETATM    7  O   UNL     1     -39.522 -51.728  12.042  1.00  0.00    -0.394 OA
HETATM    8  H   UNL     1     -38.735 -52.225  12.328  1.00  0.00     0.210 HD
ENDBRANCH   6   7
BRANCH   6   9
HETATM    9  C   UNL     1     -40.682 -53.723  12.936  1.00  0.00     0.016 C 
HETATM   10  C   UNL     1     -42.079 -54.203  13.388  1.00  0.00     0.007 C 
HETATM   11  C   UNL     1     -42.327 -54.069  14.890  1.00  0.00     0.000 C 
HETATM   12  C   UNL     1     -41.236 -54.754  15.705  1.00  0.00     0.000 C 
HETATM   13  C   UNL     1     -39.836 -54.304  15.297  1.00  0.00     0.000 C 
HETATM   14  C   UNL     1     -39.614 -54.428  13.792  1.00  0.00     0.007 C 
ENDBRANCH   6   9
ENDBRANCH   5   6
ENDBRANCH   1   5
BRANCH   2  15
HETATM   15  C   UNL     1     -41.677 -48.059  10.699  1.00  0.00     0.161 C 
BRANCH  15  16
HETATM   16  C   UNL     1     -42.840 -47.854   9.794  1.00  0.00     0.043 A 
HETATM   17  C   UNL     1     -44.116 -47.317  10.097  1.00  0.00     0.054 A 
HETATM   18  C   UNL     1     -44.784 -47.334   8.901  1.00  0.00     0.169 A 
HETATM   19  O   UNL     1     -43.974 -47.838   7.939  1.00  0.00    -0.250 OA
HETATM   20  N   UNL     1     -42.747 -48.162   8.492  1.00  0.00    -0.265 N 
ATOM     21  HN  UNL     1     -41.939 -48.555   8.009  1.00  0.00     0.194 HD
ENDBRANCH  15  16
ENDBRANCH   2  15
TORSDOF 6
ENDMDL
MODEL 7
REMARK VINA RESULT:      -5.7      6.187      9.427
REMARK  6 active torsions:
REMARK  status: ('A' for Active; 'I' for Inactive)
REMARK    1  A    between atoms: O_1  and  C_2 
REMARK    2  A    between atoms: C_2  and  C_3 
REMARK    3  A    between atoms: C_2  and  C_14 
REMARK    4  A    between atoms: C_3  and  N_4 
REMARK       I    between atoms: N_4  and  C_5 
REMARK    5  A    between atoms: C_5  and  C_7 
REMARK    6  A    between atoms: C_7  and  C_8 
ROOT
HETATM    1  N   UNL     1     -41.827 -53.402  14.179  1.00  0.00    -0.358 N 
HETATM    2  C   UNL     1     -40.587 -53.289  13.598  1.00  0.00     0.223 C 
HETATM    3  O   UNL     1     -40.403 -53.498  12.400  1.00  0.00    -0.273 OA
HETATM    4  H   UNL     1     -41.998 -53.040  15.111  1.00  0.00     0.162 HD
ENDROOT
BRANCH   1   5
HETATM    5  C   UNL     1     -42.983 -53.843  13.423  1.00  0.00     0.154 C 
BRANCH   5   6
HETATM    6  C   UNL     1     -44.170 -54.225  14.321  1.00  0.00     0.140 C 
BRANCH   6   7
HETATM    7  O   UNL     1     -43.980 -55.569  14.768  1.00  0.00    -0.394 OA
HETATM    8  H   UNL     1     -44.524 -55.683  15.568  1.00  0.00     0.210 HD
ENDBRANCH   6   7
BRANCH   6   9
HETATM    9  C   UNL     1     -45.576 -54.012  13.693  1.00  0.00     0.016 C 
HETATM   10  C   UNL     1     -45.585 -52.810  12.722  1.00  0.00     0.007 C 
HETATM   11  C   UNL     1     -45.647 -51.450  13.417  1.00  0.00     0.000 C 
HETATM   12  C   UNL     1     -46.820 -51.365  14.387  1.00  0.00     0.000 C 
HETATM   13  C   UNL     1     -46.848 -52.530  15.371  1.00  0.00     0.000 C 
HETATM   14  C   UNL     1     -46.767 -53.878  14.659  1.00  0.00     0.007 C 
ENDBRANCH   6   9
ENDBRANCH   5   6
ENDBRANCH   1   5
BRANCH   2  15
HETATM   15  C   UNL     1     -39.476 -52.870  14.545  1.00  0.00     0.161 C 
BRANCH  15  16
HETATM   16  C   UNL     1     -38.904 -54.040  15.265  1.00  0.00     0.043 A 
HETATM   17  C   UNL     1     -38.629 -54.184  16.647  1.00  0.00     0.054 A 
HETATM   18  C   UNL     1     -38.140 -55.457  16.766  1.00  0.00     0.169 A 
HETATM   19  O   UNL     1     -38.123 -56.049  15.547  1.00  0.00    -0.250 OA
HETATM   20  N   UNL     1     -38.607 -55.166  14.598  1.00  0.00    -0.265 N 
ATOM     21  HN  UNL     1     -38.716 -55.335  13.598  1.00  0.00     0.194 HD
ENDBRANCH  15  16
ENDBRANCH   2  15
TORSDOF 6
ENDMDL
MODEL 8
REMARK VINA RESULT:      -5.5      4.132      5.047
REMARK  6 active torsions:
REMARK  status: ('A' for Active; 'I' for Inactive)
REMARK    1  A    between atoms: O_1  and  C_2 
REMARK    2  A    between atoms: C_2  and  C_3 
REMARK    3  A    between atoms: C_2  and  C_14 
REMARK    4  A    between atoms: C_3  and  N_4 
REMARK       I    between atoms: N_4  and  C_5 
REMARK    5  A    between atoms: C_5  and  C_7 
REMARK    6  A    between atoms: C_7  and  C_8 
ROOT
HETATM    1  N   UNL     1     -40.754 -51.248  11.470  1.00  0.00    -0.358 N 
HETATM    2  C   UNL     1     -41.769 -51.634  12.311  1.00  0.00     0.223 C 
HETATM    3  O   UNL     1     -42.571 -50.829  12.783  1.00  0.00    -0.273 OA
HETATM    4  H   UNL     1     -40.230 -51.936  10.940  1.00  0.00     0.162 HD
ENDROOT
BRANCH   1   5
HETATM    5  C   UNL     1     -40.526 -49.854  11.144  1.00  0.00     0.154 C 
BRANCH   5   6
HETATM    6  C   UNL     1     -39.232 -49.302  11.763  1.00  0.00     0.140 C 
BRANCH   6   7
HETATM    7  O   UNL     1     -38.125 -49.822  11.024  1.00  0.00    -0.394 OA
HETATM    8  H   UNL     1     -38.363 -50.726  10.751  1.00  0.00     0.210 HD
ENDBRANCH   6   7
BRANCH   6   9
HETATM    9  C   UNL     1     -39.073 -49.532  13.292  1.00  0.00     0.016 C 
HETATM   10  C   UNL     1     -40.126 -48.736  14.095  1.00  0.00     0.007 C 
HETATM   11  C   UNL     1     -39.801 -47.251  14.245  1.00  0.00     0.000 C 
HETATM   12  C   UNL     1     -38.408 -47.034  14.826  1.00  0.00     0.000 C 
HETATM   13  C   UNL     1     -37.333 -47.797  14.059  1.00  0.00     0.000 C 
HETATM   14  C   UNL     1     -37.684 -49.274  13.903  1.00  0.00     0.007 C 
ENDBRANCH   6   9
ENDBRANCH   5   6
ENDBRANCH   1   5
BRANCH   2  15
HETATM   15  C   UNL     1     -41.830 -53.125  12.592  1.00  0.00     0.161 C 
BRANCH  15  16
HETATM   16  C   UNL     1     -43.229 -53.580  12.817  1.00  0.00     0.043 A 
HETATM   17  C   UNL     1     -43.751 -54.351  13.884  1.00  0.00     0.054 A 
HETATM   18  C   UNL     1     -45.088 -54.455  13.607  1.00  0.00     0.169 A 
HETATM   19  O   UNL     1     -45.364 -53.790  12.460  1.00  0.00    -0.250 OA
HETATM   20  N   UNL     1     -44.200 -53.232  11.959  1.00  0.00    -0.265 N 
ATOM     21  HN  UNL     1     -44.101 -52.672  11.112  1.00  0.00     0.194 HD
ENDBRANCH  15  16
ENDBRANCH   2  15
TORSDOF 6
ENDMDL
MODEL 9
REMARK VINA RESULT:      -5.4      2.800      6.001
REMARK  6 active torsions:
REMARK  status: ('A' for Active; 'I' for Inactive)
REMARK    1  A    between atoms: O_1  and  C_2 
REMARK    2  A    between atoms: C_2  and  C_3 
REMARK    3  A    between atoms: C_2  and  C_14 
REMARK    4  A    between atoms: C_3  and  N_4 
REMARK       I    between atoms: N_4  and  C_5 
REMARK    5  A    between atoms: C_5  and  C_7 
REMARK    6  A    between atoms: C_7  and  C_8 
ROOT
HETATM    1  N   UNL     1     -42.050 -48.790  10.653  1.00  0.00    -0.358 N 
HETATM    2  C   UNL     1     -42.091 -49.550  11.797  1.00  0.00     0.223 C 
HETATM    3  O   UNL     1     -42.924 -49.358  12.681  1.00  0.00    -0.273 OA
HETATM    4  H   UNL     1     -41.493 -49.082   9.857  1.00  0.00     0.162 HD
ENDROOT
BRANCH   1   5
HETATM    5  C   UNL     1     -42.947 -47.670  10.451  1.00  0.00     0.154 C 
BRANCH   5   6
HETATM    6  C   UNL     1     -42.212 -46.321  10.394  1.00  0.00     0.140 C 
BRANCH   6   7
HETATM    7  O   UNL     1     -42.262 -45.841   9.049  1.00  0.00    -0.394 OA
HETATM    8  H   UNL     1     -41.626 -46.368   8.534  1.00  0.00     0.210 HD
ENDBRANCH   6   7
BRANCH   6   9
HETATM    9  C   UNL     1     -40.763 -46.328  10.958  1.00  0.00     0.016 C 
HETATM   10  C   UNL     1     -40.755 -46.167  12.495  1.00  0.00     0.007 C 
HETATM   11  C   UNL     1     -40.976 -44.732  12.971  1.00  0.00     0.000 C 
HETATM   12  C   UNL     1     -39.990 -43.765  12.326  1.00  0.00     0.000 C 
HETATM   13  C   UNL     1     -39.969 -43.883  10.805  1.00  0.00     0.000 C 
HETATM   14  C   UNL     1     -39.765 -45.326  10.349  1.00  0.00     0.007 C 
ENDBRANCH   6   9
ENDBRANCH   5   6
ENDBRANCH   1   5
BRANCH   2  15
HETATM   15  C   UNL     1     -41.043 -50.647  11.871  1.00  0.00     0.161 C 
BRANCH  15  16
HETATM   16  C   UNL     1     -39.674 -50.083  12.017  1.00  0.00     0.043 A 
HETATM   17  C   UNL     1     -39.077 -49.485  13.154  1.00  0.00     0.054 A 
HETATM   18  C   UNL     1     -37.808 -49.171  12.746  1.00  0.00     0.169 A 
HETATM   19  O   UNL     1     -37.640 -49.554  11.457  1.00  0.00    -0.250 OA
HETATM   20  N   UNL     1     -38.808 -50.135  10.993  1.00  0.00    -0.265 N 
ATOM     21  HN  UNL     1     -38.977 -50.521  10.064  1.00  0.00     0.194 HD
ENDBRANCH  15  16
ENDBRANCH   2  15
TORSDOF 6
ENDMDL
