MODEL 1
REMARK VINA RESULT:      -6.6      0.000      0.000
REMARK  5 active torsions:
REMARK  status: ('A' for Active; 'I' for Inactive)
REMARK    1  A    between atoms: O_2  and  C_3 
REMARK    2  A    between atoms: C_7  and  C_9 
REMARK    3  A    between atoms: C_9  and  O_10 
REMARK    4  A    between atoms: C_9  and  C_11 
REMARK    5  A    between atoms: C_11  and  N_12 
ROOT
HETATM    1  C   UNL     1     -40.714 -53.519  12.836  1.00  0.00     0.169 C 
ENDROOT
BRANCH   1   2
HETATM    2  C   UNL     1     -42.145 -53.859  13.219  1.00  0.00    -0.025 A 
HETATM    3  C   UNL     1     -42.362 -54.632  14.372  1.00  0.00     0.010 A 
HETATM    4  C   UNL     1     -43.653 -54.967  14.786  1.00  0.00     0.003 A 
HETATM    5  C   UNL     1     -44.757 -54.516  14.065  1.00  0.00     0.037 A 
HETATM    6  C   UNL     1     -44.569 -53.730  12.930  1.00  0.00     0.068 A 
HETATM    7  C   UNL     1     -43.271 -53.430  12.496  1.00  0.00     0.046 A 
BRANCH   6   8
HETATM    8  O   UNL     1     -45.580 -53.227  12.155  1.00  0.00    -0.356 OA
HETATM    9  C   UNL     1     -46.378 -52.227  12.785  1.00  0.00     0.210 C 
ENDBRANCH   6   8
ENDBRANCH   1   2
BRANCH   1  10
HETATM   10  O   UNL     1     -40.663 -53.382  11.413  1.00  0.00    -0.389 OA
HETATM   11  H   UNL     1     -41.294 -52.679  11.166  1.00  0.00     0.210 HD
ENDBRANCH   1  10
BRANCH   1  12
HETATM   12  C   UNL     1     -40.101 -52.282  13.537  1.00  0.00     0.169 C 
BRANCH  12  13
HETATM   13  N   UNL     1     -40.317 -51.016  12.824  1.00  0.00    -0.305 N 
HETATM   14  C   UNL     1     -41.548 -50.387  12.892  1.00  0.00     0.125 C 
HETATM   15  C   UNL     1     -41.826 -49.285  12.189  1.00  0.00     0.117 C 
HETATM   16 CL   UNL     1     -43.367 -48.534  12.239  1.00  0.00    -0.077 Cl
HETATM   17  C   UNL     1     -40.772 -48.721  11.307  1.00  0.00     0.272 C 
HETATM   18  O   UNL     1     -40.966 -47.781  10.544  1.00  0.00    -0.266 OA
HETATM   19  N   UNL     1     -39.553 -49.338  11.388  1.00  0.00    -0.274 N 
HETATM   20  C   UNL     1     -39.269 -50.493  12.071  1.00  0.00     0.329 C 
HETATM   21  H   UNL     1     -38.821 -48.979  10.793  1.00  0.00     0.173 HD
HETATM   22  O   UNL     1     -38.164 -51.025  11.974  1.00  0.00    -0.246 OA
ENDBRANCH  12  13
ENDBRANCH   1  12
TORSDOF 5
ENDMDL
MODEL 2
REMARK VINA RESULT:      -6.5      2.615      6.447
REMARK  5 active torsions:
REMARK  status: ('A' for Active; 'I' for Inactive)
REMARK    1  A    between atoms: O_2  and  C_3 
REMARK    2  A    between atoms: C_7  and  C_9 
REMARK    3  A    between atoms: C_9  and  O_10 
REMARK    4  A    between atoms: C_9  and  C_11 
REMARK    5  A    between atoms: C_11  and  N_12 
ROOT
HETATM    1  C   UNL     1     -41.358 -49.473  11.085  1.00  0.00     0.169 C 
ENDROOT
BRANCH   1   2
HETATM    2  C   UNL     1     -41.229 -47.960  11.007  1.00  0.00    -0.025 A 
HETATM    3  C   UNL     1     -40.108 -47.354  11.600  1.00  0.00     0.010 A 
HETATM    4  C   UNL     1     -39.923 -45.971  11.550  1.00  0.00     0.003 A 
HETATM    5  C   UNL     1     -40.846 -45.166  10.887  1.00  0.00     0.037 A 
HETATM    6  C   UNL     1     -41.955 -45.745  10.273  1.00  0.00     0.068 A 
HETATM    7  C   UNL     1     -42.157 -47.128  10.359  1.00  0.00     0.046 A 
BRANCH   6   8
HETATM    8  O   UNL     1     -42.916 -45.050   9.588  1.00  0.00    -0.356 OA
HETATM    9  C   UNL     1     -43.925 -45.857   8.984  1.00  0.00     0.210 C 
ENDBRANCH   6   8
ENDBRANCH   1   2
BRANCH   1  10
HETATM   10  O   UNL     1     -40.196 -50.042  10.474  1.00  0.00    -0.389 OA
HETATM   11  H   UNL     1     -39.424 -49.759  10.999  1.00  0.00     0.210 HD
ENDBRANCH   1  10
BRANCH   1  12
HETATM   12  C   UNL     1     -41.589 -50.061  12.498  1.00  0.00     0.169 C 
BRANCH  12  13
HETATM   13  N   UNL     1     -42.604 -51.122  12.552  1.00  0.00    -0.305 N 
HETATM   14  C   UNL     1     -43.874 -50.838  13.023  1.00  0.00     0.125 C 
HETATM   15  C   UNL     1     -44.805 -51.783  13.180  1.00  0.00     0.117 C 
HETATM   16 CL   UNL     1     -46.363 -51.437  13.808  1.00  0.00    -0.077 Cl
HETATM   17  C   UNL     1     -44.457 -53.185  12.834  1.00  0.00     0.272 C 
HETATM   18  O   UNL     1     -45.204 -54.135  13.046  1.00  0.00    -0.266 OA
HETATM   19  N   UNL     1     -43.223 -53.358  12.270  1.00  0.00    -0.274 N 
HETATM   20  C   UNL     1     -42.245 -52.403  12.144  1.00  0.00     0.329 C 
HETATM   21  H   UNL     1     -42.959 -54.302  12.032  1.00  0.00     0.173 HD
HETATM   22  O   UNL     1     -41.126 -52.701  11.730  1.00  0.00    -0.246 OA
ENDBRANCH  12  13
ENDBRANCH   1  12
TORSDOF 5
ENDMDL
MODEL 3
REMARK VINA RESULT:      -6.3      2.280      3.349
REMARK  5 active torsions:
REMARK  status: ('A' for Active; 'I' for Inactive)
REMARK    1  A    between atoms: O_2  and  C_3 
REMARK    2  A    between atoms: C_7  and  C_9 
REMARK    3  A    between atoms: C_9  and  O_10 
REMARK    4  A    between atoms: C_9  and  C_11 
REMARK    5  A    between atoms: C_11  and  N_12 
ROOT
HETATM    1  C   UNL     1     -40.559 -50.087  11.801  1.00  0.00     0.169 C 
ENDROOT
BRANCH   1   2
HETATM    2  C   UNL     1     -41.287 -51.338  12.266  1.00  0.00    -0.025 A 
HETATM    3  C   UNL     1     -40.569 -52.545  12.327  1.00  0.00     0.010 A 
HETATM    4  C   UNL     1     -41.176 -53.725  12.760  1.00  0.00     0.003 A 
HETATM    5  C   UNL     1     -42.509 -53.719  13.163  1.00  0.00     0.037 A 
HETATM    6  C   UNL     1     -43.236 -52.531  13.133  1.00  0.00     0.068 A 
HETATM    7  C   UNL     1     -42.635 -51.357  12.659  1.00  0.00     0.046 A 
BRANCH   6   8
HETATM    8  O   UNL     1     -44.547 -52.410  13.514  1.00  0.00    -0.356 OA
HETATM    9  C   UNL     1     -45.355 -53.555  13.254  1.00  0.00     0.210 C 
ENDBRANCH   6   8
ENDBRANCH   1   2
BRANCH   1  10
HETATM   10  O   UNL     1     -40.600 -50.065  10.370  1.00  0.00    -0.389 OA
HETATM   11  H   UNL     1     -41.105 -49.273  10.107  1.00  0.00     0.210 HD
ENDBRANCH   1  10
BRANCH   1  12
HETATM   12  C   UNL     1     -41.063 -48.750  12.393  1.00  0.00     0.169 C 
BRANCH  12  13
HETATM   13  N   UNL     1     -41.714 -47.865  11.417  1.00  0.00    -0.305 N 
HETATM   14  C   UNL     1     -43.047 -48.053  11.097  1.00  0.00     0.125 C 
HETATM   15  C   UNL     1     -43.662 -47.338  10.150  1.00  0.00     0.117 C 
HETATM   16 CL   UNL     1     -45.301 -47.605   9.723  1.00  0.00    -0.077 Cl
HETATM   17  C   UNL     1     -42.880 -46.307   9.422  1.00  0.00     0.272 C 
HETATM   18  O   UNL     1     -43.324 -45.678   8.466  1.00  0.00    -0.266 OA
HETATM   19  N   UNL     1     -41.606 -46.109   9.879  1.00  0.00    -0.274 N 
HETATM   20  C   UNL     1     -40.952 -46.865  10.819  1.00  0.00     0.329 C 
HETATM   21  H   UNL     1     -41.051 -45.418   9.396  1.00  0.00     0.173 HD
HETATM   22  O   UNL     1     -39.763 -46.670  11.066  1.00  0.00    -0.246 OA
ENDBRANCH  12  13
ENDBRANCH   1  12
TORSDOF 5
ENDMDL
MODEL 4
REMARK VINA RESULT:      -6.2      2.142      2.595
REMARK  5 active torsions:
REMARK  status: ('A' for Active; 'I' for Inactive)
REMARK    1  A    between atoms: O_2  and  C_3 
REMARK    2  A    between atoms: C_7  and  C_9 
REMARK    3  A    between atoms: C_9  and  O_10 
REMARK    4  A    between atoms: C_9  and  C_11 
REMARK    5  A    between atoms: C_11  and  N_12 
ROOT
HETATM    1  C   UNL     1     -40.951 -52.792  12.476  1.00  0.00     0.169 C 
ENDROOT
BRANCH   1   2
HETATM    2  C   UNL     1     -42.146 -53.503  13.092  1.00  0.00    -0.025 A 
HETATM    3  C   UNL     1     -41.931 -54.320  14.215  1.00  0.00     0.010 A 
HETATM    4  C   UNL     1     -42.988 -54.989  14.835  1.00  0.00     0.003 A 
HETATM    5  C   UNL     1     -44.288 -54.836  14.358  1.00  0.00     0.037 A 
HETATM    6  C   UNL     1     -44.530 -54.014  13.259  1.00  0.00     0.068 A 
HETATM    7  C   UNL     1     -43.461 -53.377  12.615  1.00  0.00     0.046 A 
BRANCH   6   8
HETATM    8  O   UNL     1     -45.767 -53.787  12.715  1.00  0.00    -0.356 OA
HETATM    9  C   UNL     1     -46.103 -52.412  12.543  1.00  0.00     0.210 C 
ENDBRANCH   6   8
ENDBRANCH   1   2
BRANCH   1  10
HETATM   10  O   UNL     1     -40.542 -53.541  11.328  1.00  0.00    -0.389 OA
HETATM   11  H   UNL     1     -41.301 -54.090  11.053  1.00  0.00     0.210 HD
ENDBRANCH   1  10
BRANCH   1  12
HETATM   12  C   UNL     1     -41.160 -51.300  12.123  1.00  0.00     0.169 C 
BRANCH  12  13
HETATM   13  N   UNL     1     -40.096 -50.410  12.609  1.00  0.00    -0.305 N 
HETATM   14  C   UNL     1     -39.282 -50.815  13.652  1.00  0.00     0.125 C 
HETATM   15  C   UNL     1     -38.362 -50.010  14.194  1.00  0.00     0.117 C 
HETATM   16 CL   UNL     1     -37.387 -50.497  15.517  1.00  0.00    -0.077 Cl
HETATM   17  C   UNL     1     -38.215 -48.636  13.650  1.00  0.00     0.272 C 
HETATM   18  O   UNL     1     -37.479 -47.791  14.149  1.00  0.00    -0.266 OA
HETATM   19  N   UNL     1     -38.978 -48.359  12.548  1.00  0.00    -0.274 N 
HETATM   20  C   UNL     1     -39.954 -49.161  12.012  1.00  0.00     0.329 C 
HETATM   21  H   UNL     1     -38.902 -47.429  12.164  1.00  0.00     0.173 HD
HETATM   22  O   UNL     1     -40.663 -48.757  11.092  1.00  0.00    -0.246 OA
ENDBRANCH  12  13
ENDBRANCH   1  12
TORSDOF 5
ENDMDL
MODEL 5
REMARK VINA RESULT:      -6.0      2.605      3.922
REMARK  5 active torsions:
REMARK  status: ('A' for Active; 'I' for Inactive)
REMARK    1  A    between atoms: O_2  and  C_3 
REMARK    2  A    between atoms: C_7  and  C_9 
REMARK    3  A    between atoms: C_9  and  O_10 
REMARK    4  A    between atoms: C_9  and  C_11 
REMARK    5  A    between atoms: C_11  and  N_12 
ROOT
HETATM    1  C   UNL     1     -40.419 -50.017  11.804  1.00  0.00     0.169 C 
ENDROOT
BRANCH   1   2
HETATM    2  C   UNL     1     -40.685 -51.373  12.437  1.00  0.00    -0.025 A 
HETATM    3  C   UNL     1     -39.671 -51.958  13.215  1.00  0.00     0.010 A 
HETATM    4  C   UNL     1     -39.858 -53.194  13.836  1.00  0.00     0.003 A 
HETATM    5  C   UNL     1     -41.074 -53.863  13.709  1.00  0.00     0.037 A 
HETATM    6  C   UNL     1     -42.103 -53.294  12.962  1.00  0.00     0.068 A 
HETATM    7  C   UNL     1     -41.896 -52.072  12.308  1.00  0.00     0.046 A 
BRANCH   6   8
HETATM    8  O   UNL     1     -43.337 -53.859  12.779  1.00  0.00    -0.356 OA
HETATM    9  C   UNL     1     -43.952 -54.353  13.967  1.00  0.00     0.210 C 
ENDBRANCH   6   8
ENDBRANCH   1   2
BRANCH   1  10
HETATM   10  O   UNL     1     -40.410 -50.193  10.384  1.00  0.00    -0.389 OA
HETATM   11  H   UNL     1     -40.299 -51.146  10.210  1.00  0.00     0.210 HD
ENDBRANCH   1  10
BRANCH   1  12
HETATM   12  C   UNL     1     -41.379 -48.876  12.218  1.00  0.00     0.169 C 
BRANCH  12  13
HETATM   13  N   UNL     1     -41.021 -47.558  11.674  1.00  0.00    -0.305 N 
HETATM   14  C   UNL     1     -40.163 -46.731  12.377  1.00  0.00     0.125 C 
HETATM   15  C   UNL     1     -39.879 -45.489  11.975  1.00  0.00     0.117 C 
HETATM   16 CL   UNL     1     -38.853 -44.450  12.873  1.00  0.00    -0.077 Cl
HETATM   17  C   UNL     1     -40.509 -44.987  10.727  1.00  0.00     0.272 C 
HETATM   18  O   UNL     1     -40.396 -43.830  10.336  1.00  0.00    -0.266 OA
HETATM   19  N   UNL     1     -41.250 -45.907  10.036  1.00  0.00    -0.274 N 
HETATM   20  C   UNL     1     -41.583 -47.168  10.462  1.00  0.00     0.329 C 
HETATM   21  H   UNL     1     -41.695 -45.589   9.188  1.00  0.00     0.173 HD
HETATM   22  O   UNL     1     -42.358 -47.867   9.810  1.00  0.00    -0.246 OA
ENDBRANCH  12  13
ENDBRANCH   1  12
TORSDOF 5
ENDMDL
MODEL 6
REMARK VINA RESULT:      -6.0      2.420      3.317
REMARK  5 active torsions:
REMARK  status: ('A' for Active; 'I' for Inactive)
REMARK    1  A    between atoms: O_2  and  C_3 
REMARK    2  A    between atoms: C_7  and  C_9 
REMARK    3  A    between atoms: C_9  and  O_10 
REMARK    4  A    between atoms: C_9  and  C_11 
REMARK    5  A    between atoms: C_11  and  N_12 
ROOT
HETATM    1  C   UNL     1     -41.053 -52.778  12.464  1.00  0.00     0.169 C 
ENDROOT
BRANCH   1   2
HETATM    2  C   UNL     1     -42.270 -53.468  13.061  1.00  0.00    -0.025 A 
HETATM    3  C   UNL     1     -43.531 -53.198  12.502  1.00  0.00     0.010 A 
HETATM    4  C   UNL     1     -44.685 -53.811  12.995  1.00  0.00     0.003 A 
HETATM    5  C   UNL     1     -44.599 -54.723  14.044  1.00  0.00     0.037 A 
HETATM    6  C   UNL     1     -43.357 -55.024  14.600  1.00  0.00     0.068 A 
HETATM    7  C   UNL     1     -42.207 -54.377  14.130  1.00  0.00     0.046 A 
BRANCH   6   8
HETATM    8  O   UNL     1     -43.157 -55.910  15.626  1.00  0.00    -0.356 OA
HETATM    9  C   UNL     1     -42.097 -55.569  16.515  1.00  0.00     0.210 C 
ENDBRANCH   6   8
ENDBRANCH   1   2
BRANCH   1  10
HETATM   10  O   UNL     1     -40.601 -53.568  11.360  1.00  0.00    -0.389 OA
HETATM   11  H   UNL     1     -39.953 -54.209  11.709  1.00  0.00     0.210 HD
ENDBRANCH   1  10
BRANCH   1  12
HETATM   12  C   UNL     1     -41.250 -51.300  12.048  1.00  0.00     0.169 C 
BRANCH  12  13
HETATM   13  N   UNL     1     -40.198 -50.393  12.527  1.00  0.00    -0.305 N 
HETATM   14  C   UNL     1     -39.360 -50.791  13.554  1.00  0.00     0.125 C 
HETATM   15  C   UNL     1     -38.450 -49.972  14.090  1.00  0.00     0.117 C 
HETATM   16 CL   UNL     1     -37.445 -50.451  15.394  1.00  0.00    -0.077 Cl
HETATM   17  C   UNL     1     -38.339 -48.590  13.559  1.00  0.00     0.272 C 
HETATM   18  O   UNL     1     -37.613 -47.734  14.055  1.00  0.00    -0.266 OA
HETATM   19  N   UNL     1     -39.124 -48.318  12.470  1.00  0.00    -0.274 N 
HETATM   20  C   UNL     1     -40.091 -49.135  11.941  1.00  0.00     0.329 C 
HETATM   21  H   UNL     1     -39.073 -47.383  12.094  1.00  0.00     0.173 HD
HETATM   22  O   UNL     1     -40.821 -48.738  11.035  1.00  0.00    -0.246 OA
ENDBRANCH  12  13
ENDBRANCH   1  12
TORSDOF 5
ENDMDL
MODEL 7
REMARK VINA RESULT:      -5.9      2.140      2.935
REMARK  5 active torsions:
REMARK  status: ('A' for Active; 'I' for Inactive)
REMARK    1  A    between atoms: O_2  and  C_3 
REMARK    2  A    between atoms: C_7  and  C_9 
REMARK    3  A    between atoms: C_9  and  O_10 
REMARK    4  A    between atoms: C_9  and  C_11 
REMARK    5  A    between atoms: C_11  and  N_12 
ROOT
HETATM    1  C   UNL     1     -41.280 -50.858  12.290  1.00  0.00     0.169 C 
ENDROOT
BRANCH   1   2
HETATM    2  C   UNL     1     -42.025 -52.093  12.771  1.00  0.00    -0.025 A 
HETATM    3  C   UNL     1     -41.360 -52.980  13.635  1.00  0.00     0.010 A 
HETATM    4  C   UNL     1     -41.994 -54.124  14.124  1.00  0.00     0.003 A 
HETATM    5  C   UNL     1     -43.316 -54.394  13.776  1.00  0.00     0.037 A 
HETATM    6  C   UNL     1     -44.004 -53.518  12.939  1.00  0.00     0.068 A 
HETATM    7  C   UNL     1     -43.352 -52.393  12.418  1.00  0.00     0.046 A 
BRANCH   6   8
HETATM    8  O   UNL     1     -45.305 -53.681  12.542  1.00  0.00    -0.356 OA
HETATM    9  C   UNL     1     -46.089 -52.490  12.551  1.00  0.00     0.210 C 
ENDBRANCH   6   8
ENDBRANCH   1   2
BRANCH   1  10
HETATM   10  O   UNL     1     -40.669 -51.179  11.036  1.00  0.00    -0.389 OA
HETATM   11  H   UNL     1     -39.748 -51.442  11.221  1.00  0.00     0.210 HD
ENDBRANCH   1  10
BRANCH   1  12
HETATM   12  C   UNL     1     -42.116 -49.560  12.187  1.00  0.00     0.169 C 
BRANCH  12  13
HETATM   13  N   UNL     1     -41.330 -48.360  11.868  1.00  0.00    -0.305 N 
HETATM   14  C   UNL     1     -40.471 -47.827  12.813  1.00  0.00     0.125 C 
HETATM   15  C   UNL     1     -39.805 -46.686  12.610  1.00  0.00     0.117 C 
HETATM   16 CL   UNL     1     -38.778 -46.003  13.801  1.00  0.00    -0.077 Cl
HETATM   17  C   UNL     1     -39.998 -45.973  11.322  1.00  0.00     0.272 C 
HETATM   18  O   UNL     1     -39.517 -44.869  11.086  1.00  0.00    -0.266 OA
HETATM   19  N   UNL     1     -40.773 -46.627  10.402  1.00  0.00    -0.274 N 
HETATM   20  C   UNL     1     -41.495 -47.774  10.616  1.00  0.00     0.329 C 
HETATM   21  H   UNL     1     -40.925 -46.160   9.521  1.00  0.00     0.173 HD
HETATM   22  O   UNL     1     -42.255 -48.208   9.752  1.00  0.00    -0.246 OA
ENDBRANCH  12  13
ENDBRANCH   1  12
TORSDOF 5
ENDMDL
MODEL 8
REMARK VINA RESULT:      -5.7      3.429      4.792
REMARK  5 active torsions:
REMARK  status: ('A' for Active; 'I' for Inactive)
REMARK    1  A    between atoms: O_2  and  C_3 
REMARK    2  A    between atoms: C_7  and  C_9 
REMARK    3  A    between atoms: C_9  and  O_10 
REMARK    4  A    between atoms: C_9  and  C_11 
REMARK    5  A    between atoms: C_11  and  N_12 
ROOT
HETATM    1  C   UNL     1     -42.833 -52.404  13.234  1.00  0.00     0.169 C 
ENDROOT
BRANCH   1   2
HETATM    2  C   UNL     1     -44.108 -53.092  13.694  1.00  0.00    -0.025 A 
HETATM    3  C   UNL     1     -44.258 -54.465  13.432  1.00  0.00     0.010 A 
HETATM    4  C   UNL     1     -45.398 -55.159  13.842  1.00  0.00     0.003 A 
HETATM    5  C   UNL     1     -46.404 -54.497  14.543  1.00  0.00     0.037 A 
HETATM    6  C   UNL     1     -46.270 -53.142  14.834  1.00  0.00     0.068 A 
HETATM    7  C   UNL     1     -45.142 -52.441  14.386  1.00  0.00     0.046 A 
BRANCH   6   8
HETATM    8  O   UNL     1     -47.191 -52.398  15.523  1.00  0.00    -0.356 OA
HETATM    9  C   UNL     1     -46.681 -51.203  16.110  1.00  0.00     0.210 C 
ENDBRANCH   6   8
ENDBRANCH   1   2
BRANCH   1  10
HETATM   10  O   UNL     1     -43.208 -51.206  12.546  1.00  0.00    -0.389 OA
HETATM   11  H   UNL     1     -43.808 -51.463  11.821  1.00  0.00     0.210 HD
ENDBRANCH   1  10
BRANCH   1  12
HETATM   12  C   UNL     1     -41.787 -52.110  14.335  1.00  0.00     0.169 C 
BRANCH  12  13
HETATM   13  N   UNL     1     -40.850 -53.214  14.588  1.00  0.00    -0.305 N 
HETATM   14  C   UNL     1     -41.163 -54.182  15.526  1.00  0.00     0.125 C 
HETATM   15  C   UNL     1     -40.309 -55.154  15.861  1.00  0.00     0.117 C 
HETATM   16 CL   UNL     1     -40.680 -56.324  17.058  1.00  0.00    -0.077 Cl
HETATM   17  C   UNL     1     -38.980 -55.188  15.199  1.00  0.00     0.272 C 
HETATM   18  O   UNL     1     -38.091 -55.972  15.517  1.00  0.00    -0.266 OA
HETATM   19  N   UNL     1     -38.798 -54.265  14.205  1.00  0.00    -0.274 N 
HETATM   20  C   UNL     1     -39.650 -53.238  13.884  1.00  0.00     0.329 C 
HETATM   21  H   UNL     1     -37.901 -54.263  13.744  1.00  0.00     0.173 HD
HETATM   22  O   UNL     1     -39.327 -52.393  13.051  1.00  0.00    -0.246 OA
ENDBRANCH  12  13
ENDBRANCH   1  12
TORSDOF 5
ENDMDL
MODEL 9
REMARK VINA RESULT:      -5.6      3.828      5.327
REMARK  5 active torsions:
REMARK  status: ('A' for Active; 'I' for Inactive)
REMARK    1  A    between atoms: O_2  and  C_3 
REMARK    2  A    between atoms: C_7  and  C_9 
REMARK    3  A    between atoms: C_9  and  O_10 
REMARK    4  A    between atoms: C_9  and  C_11 
REMARK    5  A    between atoms: C_11  and  N_12 
ROOT
HETATM    1  C   UNL     1     -44.301 -53.927  16.060  1.00  0.00     0.169 C 
ENDROOT
BRANCH   1   2
HETATM    2  C   UNL     1     -45.475 -53.013  16.371  1.00  0.00    -0.025 A 
HETATM    3  C   UNL     1     -46.085 -52.324  15.308  1.00  0.00     0.010 A 
HETATM    4  C   UNL     1     -47.176 -51.481  15.524  1.00  0.00     0.003 A 
HETATM    5  C   UNL     1     -47.695 -51.324  16.808  1.00  0.00     0.037 A 
HETATM    6  C   UNL     1     -47.122 -52.012  17.875  1.00  0.00     0.068 A 
HETATM    7  C   UNL     1     -46.002 -52.826  17.659  1.00  0.00     0.046 A 
BRANCH   6   8
HETATM    8  O   UNL     1     -47.556 -51.938  19.172  1.00  0.00    -0.356 OA
HETATM    9  C   UNL     1     -48.933 -51.603  19.326  1.00  0.00     0.210 C 
ENDBRANCH   6   8
ENDBRANCH   1   2
BRANCH   1  10
HETATM   10  O   UNL     1     -44.321 -54.999  17.008  1.00  0.00    -0.389 OA
HETATM   11  H   UNL     1     -45.214 -55.390  16.987  1.00  0.00     0.210 HD
ENDBRANCH   1  10
BRANCH   1  12
HETATM   12  C   UNL     1     -44.229 -54.467  14.611  1.00  0.00     0.169 C 
BRANCH  12  13
HETATM   13  N   UNL     1     -43.263 -53.765  13.754  1.00  0.00    -0.305 N 
HETATM   14  C   UNL     1     -41.954 -53.607  14.174  1.00  0.00     0.125 C 
HETATM   15  C   UNL     1     -41.061 -52.898  13.478  1.00  0.00     0.117 C 
HETATM   16 CL   UNL     1     -39.453 -52.665  14.024  1.00  0.00    -0.077 Cl
HETATM   17  C   UNL     1     -41.496 -52.261  12.209  1.00  0.00     0.272 C 
HETATM   18  O   UNL     1     -40.784 -51.504  11.558  1.00  0.00    -0.266 OA
HETATM   19  N   UNL     1     -42.771 -52.562  11.812  1.00  0.00    -0.274 N 
HETATM   20  C   UNL     1     -43.708 -53.252  12.539  1.00  0.00     0.329 C 
HETATM   21  H   UNL     1     -43.094 -52.135  10.956  1.00  0.00     0.173 HD
HETATM   22  O   UNL     1     -44.864 -53.358  12.132  1.00  0.00    -0.246 OA
ENDBRANCH  12  13
ENDBRANCH   1  12
TORSDOF 5
ENDMDL
