MODEL 1
REMARK VINA RESULT:      -5.8      0.000      0.000
REMARK  2 active torsions:
REMARK  status: ('A' for Active; 'I' for Inactive)
REMARK       I    between atoms: C_2  and  N_3 
REMARK       I    between atoms: C_2  and  N_9 
REMARK    1  A    between atoms: N_3  and  C_4 
REMARK    2  A    between atoms: N_9  and  C_10 
ROOT
HETATM    1  O   UNL     1     -39.825 -53.474  13.144  1.00  0.00    -0.247 OA
HETATM    2  C   UNL     1     -40.511 -52.599  12.616  1.00  0.00     0.322 C 
HETATM    3  N   UNL     1     -41.848 -52.727  12.396  1.00  0.00    -0.338 N 
HETATM    4  N   UNL     1     -39.908 -51.464  12.167  1.00  0.00    -0.288 N 
HETATM    5  H   UNL     1     -42.356 -51.886  12.138  1.00  0.00     0.164 HD
HETATM    6  H   UNL     1     -38.903 -51.439  12.249  1.00  0.00     0.172 HD
ENDROOT
BRANCH   3   7
HETATM    7  C   UNL     1     -42.620 -53.859  12.855  1.00  0.00     0.086 C 
HETATM    8  C   UNL     1     -44.081 -53.780  12.410  1.00  0.00     0.025 C 
HETATM    9  C   UNL     1     -44.895 -54.437  13.525  1.00  0.00     0.002 C 
HETATM   10  C   UNL     1     -43.893 -54.846  14.600  1.00  0.00     0.002 C 
HETATM   11  C   UNL     1     -42.704 -53.929  14.376  1.00  0.00     0.025 C 
ENDBRANCH   3   7
BRANCH   4  12
HETATM   12  C   UNL     1     -40.548 -50.386  11.631  1.00  0.00     0.168 A 
HETATM   13  N   UNL     1     -40.570 -49.978  10.383  1.00  0.00    -0.279 N 
HETATM   14  N   UNL     1     -41.330 -48.837  10.231  1.00  0.00    -0.303 N 
ATOM     15  HN  UNL     1     -40.084 -50.448   9.619  1.00  0.00     0.189 HD
HETATM   16  C   UNL     1     -41.838 -48.437  11.377  1.00  0.00     0.160 A 
ATOM     17  HN  UNL     1     -41.481 -48.362   9.341  1.00  0.00     0.186 HD
HETATM   18  S   UNL     1     -41.449 -49.436  12.721  1.00  0.00    -0.046 SA
ENDBRANCH   4  12
TORSDOF 2
ENDMDL
MODEL 2
REMARK VINA RESULT:      -5.7      2.126      2.489
REMARK  2 active torsions:
REMARK  status: ('A' for Active; 'I' for Inactive)
REMARK       I    between atoms: C_2  and  N_3 
REMARK       I    between atoms: C_2  and  N_9 
REMARK    1  A    between atoms: N_3  and  C_4 
REMARK    2  A    between atoms: N_9  and  C_10 
ROOT
HETATM    1  O   UNL     1     -42.318 -54.224  13.936  1.00  0.00    -0.247 OA
HETATM    2  C   UNL     1     -42.141 -53.158  13.348  1.00  0.00     0.322 C 
HETATM    3  N   UNL     1     -43.132 -52.252  13.124  1.00  0.00    -0.338 N 
HETATM    4  N   UNL     1     -40.911 -52.880  12.834  1.00  0.00    -0.288 N 
HETATM    5  H   UNL     1     -42.850 -51.328  12.809  1.00  0.00     0.164 HD
HETATM    6  H   UNL     1     -40.223 -53.611  12.924  1.00  0.00     0.172 HD
ENDROOT
BRANCH   3   7
HETATM    7  C   UNL     1     -44.471 -52.401  13.645  1.00  0.00     0.086 C 
HETATM    8  C   UNL     1     -45.508 -52.569  12.534  1.00  0.00     0.025 C 
HETATM    9  C   UNL     1     -46.787 -51.910  13.050  1.00  0.00     0.002 C 
HETATM   10  C   UNL     1     -46.450 -51.347  14.427  1.00  0.00     0.002 C 
HETATM   11  C   UNL     1     -44.943 -51.164  14.402  1.00  0.00     0.025 C 
ENDBRANCH   3   7
BRANCH   4  12
HETATM   12  C   UNL     1     -40.552 -51.714  12.226  1.00  0.00     0.168 A 
HETATM   13  N   UNL     1     -40.824 -51.302  11.009  1.00  0.00    -0.279 N 
HETATM   14  N   UNL     1     -40.280 -50.059  10.755  1.00  0.00    -0.303 N 
ATOM     15  HN  UNL     1     -41.371 -51.836  10.333  1.00  0.00     0.189 HD
HETATM   16  C   UNL     1     -39.616 -49.600  11.795  1.00  0.00     0.160 A 
ATOM     17  HN  UNL     1     -40.380 -49.559   9.872  1.00  0.00     0.186 HD
HETATM   18  S   UNL     1     -39.628 -50.635  13.167  1.00  0.00    -0.046 SA
ENDBRANCH   4  12
TORSDOF 2
ENDMDL
MODEL 3
REMARK VINA RESULT:      -5.6      1.657      1.809
REMARK  2 active torsions:
REMARK  status: ('A' for Active; 'I' for Inactive)
REMARK       I    between atoms: C_2  and  N_3 
REMARK       I    between atoms: C_2  and  N_9 
REMARK    1  A    between atoms: N_3  and  C_4 
REMARK    2  A    between atoms: N_9  and  C_10 
ROOT
HETATM    1  O   UNL     1     -40.732 -52.853  12.127  1.00  0.00    -0.247 OA
HETATM    2  C   UNL     1     -41.112 -51.696  11.952  1.00  0.00     0.322 C 
HETATM    3  N   UNL     1     -42.323 -51.234  12.368  1.00  0.00    -0.338 N 
HETATM    4  N   UNL     1     -40.321 -50.835  11.254  1.00  0.00    -0.288 N 
HETATM    5  H   UNL     1     -42.464 -50.228  12.353  1.00  0.00     0.164 HD
HETATM    6  H   UNL     1     -39.476 -51.231  10.869  1.00  0.00     0.172 HD
ENDROOT
BRANCH   3   7
HETATM    7  C   UNL     1     -43.243 -52.026  13.151  1.00  0.00     0.086 C 
HETATM    8  C   UNL     1     -44.009 -53.036  12.296  1.00  0.00     0.025 C 
HETATM    9  C   UNL     1     -45.388 -53.174  12.941  1.00  0.00     0.002 C 
HETATM   10  C   UNL     1     -45.400 -52.217  14.129  1.00  0.00     0.002 C 
HETATM   11  C   UNL     1     -44.341 -51.182  13.790  1.00  0.00     0.025 C 
ENDBRANCH   3   7
BRANCH   4  12
HETATM   12  C   UNL     1     -40.578 -49.513  11.048  1.00  0.00     0.168 A 
HETATM   13  N   UNL     1     -41.330 -48.955  10.126  1.00  0.00    -0.279 N 
HETATM   14  N   UNL     1     -41.341 -47.580  10.238  1.00  0.00    -0.303 N 
ATOM     15  HN  UNL     1     -41.843 -49.475   9.414  1.00  0.00     0.189 HD
HETATM   16  C   UNL     1     -40.587 -47.169  11.236  1.00  0.00     0.160 A 
ATOM     17  HN  UNL     1     -41.866 -46.958   9.624  1.00  0.00     0.186 HD
HETATM   18  S   UNL     1     -39.832 -48.429  12.129  1.00  0.00    -0.046 SA
ENDBRANCH   4  12
TORSDOF 2
ENDMDL
MODEL 4
REMARK VINA RESULT:      -5.6      2.475      3.144
REMARK  2 active torsions:
REMARK  status: ('A' for Active; 'I' for Inactive)
REMARK       I    between atoms: C_2  and  N_3 
REMARK       I    between atoms: C_2  and  N_9 
REMARK    1  A    between atoms: N_3  and  C_4 
REMARK    2  A    between atoms: N_9  and  C_10 
ROOT
HETATM    1  O   UNL     1     -43.274 -54.998  14.371  1.00  0.00    -0.247 OA
HETATM    2  C   UNL     1     -42.973 -53.961  13.782  1.00  0.00     0.322 C 
HETATM    3  N   UNL     1     -43.817 -52.901  13.652  1.00  0.00    -0.338 N 
HETATM    4  N   UNL     1     -41.759 -53.873  13.171  1.00  0.00    -0.288 N 
HETATM    5  H   UNL     1     -43.414 -52.027  13.324  1.00  0.00     0.164 HD
HETATM    6  H   UNL     1     -41.195 -54.709  13.195  1.00  0.00     0.172 HD
ENDROOT
BRANCH   3   7
HETATM    7  C   UNL     1     -45.116 -52.844  14.281  1.00  0.00     0.086 C 
HETATM    8  C   UNL     1     -46.080 -51.921  13.534  1.00  0.00     0.025 C 
HETATM    9  C   UNL     1     -46.986 -51.306  14.601  1.00  0.00     0.002 C 
HETATM   10  C   UNL     1     -46.502 -51.858  15.939  1.00  0.00     0.002 C 
HETATM   11  C   UNL     1     -45.058 -52.251  15.685  1.00  0.00     0.025 C 
ENDBRANCH   3   7
BRANCH   4  12
HETATM   12  C   UNL     1     -41.264 -52.766  12.548  1.00  0.00     0.168 A 
HETATM   13  N   UNL     1     -41.396 -52.399  11.294  1.00  0.00    -0.279 N 
HETATM   14  N   UNL     1     -40.744 -51.211  11.037  1.00  0.00    -0.303 N 
ATOM     15  HN  UNL     1     -41.918 -52.928  10.594  1.00  0.00     0.189 HD
HETATM   16  C   UNL     1     -40.144 -50.746  12.112  1.00  0.00     0.160 A 
ATOM     17  HN  UNL     1     -40.727 -50.750  10.127  1.00  0.00     0.186 HD
HETATM   18  S   UNL     1     -40.353 -51.707  13.522  1.00  0.00    -0.046 SA
ENDBRANCH   4  12
TORSDOF 2
ENDMDL
MODEL 5
REMARK VINA RESULT:      -5.5      3.292      4.675
REMARK  2 active torsions:
REMARK  status: ('A' for Active; 'I' for Inactive)
REMARK       I    between atoms: C_2  and  N_3 
REMARK       I    between atoms: C_2  and  N_9 
REMARK    1  A    between atoms: N_3  and  C_4 
REMARK    2  A    between atoms: N_9  and  C_10 
ROOT
HETATM    1  O   UNL     1     -40.573 -47.336  11.304  1.00  0.00    -0.247 OA
HETATM    2  C   UNL     1     -41.522 -47.832  10.698  1.00  0.00     0.322 C 
HETATM    3  N   UNL     1     -42.045 -49.053  10.996  1.00  0.00    -0.338 N 
HETATM    4  N   UNL     1     -42.052 -47.166   9.636  1.00  0.00    -0.288 N 
HETATM    5  H   UNL     1     -42.940 -49.287  10.575  1.00  0.00     0.164 HD
HETATM    6  H   UNL     1     -41.581 -46.313   9.374  1.00  0.00     0.172 HD
ENDROOT
BRANCH   3   7
HETATM    7  C   UNL     1     -41.607 -49.848  12.119  1.00  0.00     0.086 C 
HETATM    8  C   UNL     1     -40.688 -50.994  11.692  1.00  0.00     0.025 C 
HETATM    9  C   UNL     1     -40.965 -52.140  12.666  1.00  0.00     0.002 C 
HETATM   10  C   UNL     1     -42.059 -51.643  13.607  1.00  0.00     0.002 C 
HETATM   11  C   UNL     1     -42.763 -50.550  12.824  1.00  0.00     0.025 C 
ENDBRANCH   3   7
BRANCH   4  12
HETATM   12  C   UNL     1     -43.145 -47.556   8.921  1.00  0.00     0.168 A 
HETATM   13  N   UNL     1     -43.197 -48.101   7.727  1.00  0.00    -0.279 N 
HETATM   14  N   UNL     1     -44.496 -48.353   7.335  1.00  0.00    -0.303 N 
ATOM     15  HN  UNL     1     -42.376 -48.311   7.158  1.00  0.00     0.189 HD
HETATM   16  C   UNL     1     -45.360 -47.977   8.254  1.00  0.00     0.160 A 
ATOM     17  HN  UNL     1     -44.754 -48.778   6.445  1.00  0.00     0.186 HD
HETATM   18  S   UNL     1     -44.654 -47.313   9.673  1.00  0.00    -0.046 SA
ENDBRANCH   4  12
TORSDOF 2
ENDMDL
MODEL 6
REMARK VINA RESULT:      -5.3      3.627      4.753
REMARK  2 active torsions:
REMARK  status: ('A' for Active; 'I' for Inactive)
REMARK       I    between atoms: C_2  and  N_3 
REMARK       I    between atoms: C_2  and  N_9 
REMARK    1  A    between atoms: N_3  and  C_4 
REMARK    2  A    between atoms: N_9  and  C_10 
ROOT
HETATM    1  O   UNL     1     -45.998 -55.380  14.096  1.00  0.00    -0.247 OA
HETATM    2  C   UNL     1     -45.246 -54.426  13.898  1.00  0.00     0.322 C 
HETATM    3  N   UNL     1     -45.404 -53.212  14.492  1.00  0.00    -0.338 N 
HETATM    4  N   UNL     1     -44.235 -54.555  12.995  1.00  0.00    -0.288 N 
HETATM    5  H   UNL     1     -44.630 -52.558  14.418  1.00  0.00     0.164 HD
HETATM    6  H   UNL     1     -44.203 -55.430  12.494  1.00  0.00     0.172 HD
ENDROOT
BRANCH   3   7
HETATM    7  C   UNL     1     -46.408 -52.948  15.496  1.00  0.00     0.086 C 
HETATM    8  C   UNL     1     -47.071 -51.583  15.307  1.00  0.00     0.025 C 
HETATM    9  C   UNL     1     -47.411 -51.082  16.711  1.00  0.00     0.002 C 
HETATM   10  C   UNL     1     -46.906 -52.149  17.677  1.00  0.00     0.002 C 
HETATM   11  C   UNL     1     -45.822 -52.877  16.902  1.00  0.00     0.025 C 
ENDBRANCH   3   7
BRANCH   4  12
HETATM   12  C   UNL     1     -43.287 -53.613  12.729  1.00  0.00     0.168 A 
HETATM   13  N   UNL     1     -43.294 -52.673  11.811  1.00  0.00    -0.279 N 
HETATM   14  N   UNL     1     -42.145 -51.911  11.850  1.00  0.00    -0.303 N 
ATOM     15  HN  UNL     1     -44.057 -52.525  11.149  1.00  0.00     0.189 HD
HETATM   16  C   UNL     1     -41.323 -52.321  12.793  1.00  0.00     0.160 A 
ATOM     17  HN  UNL     1     -41.955 -51.126  11.226  1.00  0.00     0.186 HD
HETATM   18  S   UNL     1     -41.901 -53.648  13.719  1.00  0.00    -0.046 SA
ENDBRANCH   4  12
TORSDOF 2
ENDMDL
MODEL 7
REMARK VINA RESULT:      -5.2      3.056      5.824
REMARK  2 active torsions:
REMARK  status: ('A' for Active; 'I' for Inactive)
REMARK       I    between atoms: C_2  and  N_3 
REMARK       I    between atoms: C_2  and  N_9 
REMARK    1  A    between atoms: N_3  and  C_4 
REMARK    2  A    between atoms: N_9  and  C_10 
ROOT
HETATM    1  O   UNL     1     -41.329 -48.726  11.229  1.00  0.00    -0.247 OA
HETATM    2  C   UNL     1     -40.995 -49.798  11.734  1.00  0.00     0.322 C 
HETATM    3  N   UNL     1     -39.892 -49.945  12.517  1.00  0.00    -0.338 N 
HETATM    4  N   UNL     1     -41.720 -50.916  11.455  1.00  0.00    -0.288 N 
HETATM    5  H   UNL     1     -39.811 -50.813  13.041  1.00  0.00     0.164 HD
HETATM    6  H   UNL     1     -42.470 -50.798  10.791  1.00  0.00     0.172 HD
ENDROOT
BRANCH   3   7
HETATM    7  C   UNL     1     -39.058 -48.839  12.924  1.00  0.00     0.086 C 
HETATM    8  C   UNL     1     -37.682 -49.299  13.406  1.00  0.00     0.025 C 
HETATM    9  C   UNL     1     -37.266 -48.312  14.496  1.00  0.00     0.002 C 
HETATM   10  C   UNL     1     -38.423 -47.328  14.643  1.00  0.00     0.002 C 
HETATM   11  C   UNL     1     -39.630 -48.085  14.119  1.00  0.00     0.025 C 
ENDBRANCH   3   7
BRANCH   4  12
HETATM   12  C   UNL     1     -41.513 -52.149  11.998  1.00  0.00     0.168 A 
HETATM   13  N   UNL     1     -40.849 -53.167  11.499  1.00  0.00    -0.279 N 
HETATM   14  N   UNL     1     -40.864 -54.254  12.348  1.00  0.00    -0.303 N 
ATOM     15  HN  UNL     1     -40.380 -53.155  10.593  1.00  0.00     0.189 HD
HETATM   16  C   UNL     1     -41.548 -54.002  13.444  1.00  0.00     0.160 A 
ATOM     17  HN  UNL     1     -40.404 -55.143  12.152  1.00  0.00     0.186 HD
HETATM   18  S   UNL     1     -42.200 -52.415  13.533  1.00  0.00    -0.046 SA
ENDBRANCH   4  12
TORSDOF 2
ENDMDL
MODEL 8
REMARK VINA RESULT:      -5.1      2.238      5.881
REMARK  2 active torsions:
REMARK  status: ('A' for Active; 'I' for Inactive)
REMARK       I    between atoms: C_2  and  N_3 
REMARK       I    between atoms: C_2  and  N_9 
REMARK    1  A    between atoms: N_3  and  C_4 
REMARK    2  A    between atoms: N_9  and  C_10 
ROOT
HETATM    1  O   UNL     1     -38.147 -49.326  11.570  1.00  0.00    -0.247 OA
HETATM    2  C   UNL     1     -39.292 -49.756  11.703  1.00  0.00     0.322 C 
HETATM    3  N   UNL     1     -40.402 -48.974  11.611  1.00  0.00    -0.338 N 
HETATM    4  N   UNL     1     -39.475 -51.068  12.018  1.00  0.00    -0.288 N 
HETATM    5  H   UNL     1     -41.297 -49.449  11.541  1.00  0.00     0.164 HD
HETATM    6  H   UNL     1     -38.634 -51.601  12.181  1.00  0.00     0.172 HD
ENDROOT
BRANCH   3   7
HETATM    7  C   UNL     1     -40.356 -47.577  11.245  1.00  0.00     0.086 C 
HETATM    8  C   UNL     1     -40.261 -46.663  12.467  1.00  0.00     0.025 C 
HETATM    9  C   UNL     1     -41.017 -45.386  12.097  1.00  0.00     0.002 C 
HETATM   10  C   UNL     1     -41.560 -45.607  10.688  1.00  0.00     0.002 C 
HETATM   11  C   UNL     1     -41.629 -47.117  10.542  1.00  0.00     0.025 C 
ENDBRANCH   3   7
BRANCH   4  12
HETATM   12  C   UNL     1     -40.680 -51.697  12.123  1.00  0.00     0.168 A 
HETATM   13  N   UNL     1     -41.355 -52.343  11.199  1.00  0.00    -0.279 N 
HETATM   14  N   UNL     1     -42.543 -52.843  11.689  1.00  0.00    -0.303 N 
ATOM     15  HN  UNL     1     -41.038 -52.460  10.236  1.00  0.00     0.189 HD
HETATM   16  C   UNL     1     -42.709 -52.540  12.959  1.00  0.00     0.160 A 
ATOM     17  HN  UNL     1     -43.211 -53.380  11.136  1.00  0.00     0.186 HD
HETATM   18  S   UNL     1     -41.416 -51.648  13.658  1.00  0.00    -0.046 SA
ENDBRANCH   4  12
TORSDOF 2
ENDMDL
MODEL 9
REMARK VINA RESULT:      -5.0      1.954      2.817
REMARK  2 active torsions:
REMARK  status: ('A' for Active; 'I' for Inactive)
REMARK       I    between atoms: C_2  and  N_3 
REMARK       I    between atoms: C_2  and  N_9 
REMARK    1  A    between atoms: N_3  and  C_4 
REMARK    2  A    between atoms: N_9  and  C_10 
ROOT
HETATM    1  O   UNL     1     -40.209 -49.574  13.849  1.00  0.00    -0.247 OA
HETATM    2  C   UNL     1     -40.940 -49.531  12.860  1.00  0.00     0.322 C 
HETATM    3  N   UNL     1     -41.688 -50.586  12.435  1.00  0.00    -0.338 N 
HETATM    4  N   UNL     1     -40.969 -48.399  12.105  1.00  0.00    -0.288 N 
HETATM    5  H   UNL     1     -42.400 -50.395  11.735  1.00  0.00     0.164 HD
HETATM    6  H   UNL     1     -40.329 -47.670  12.383  1.00  0.00     0.172 HD
ENDROOT
BRANCH   3   7
HETATM    7  C   UNL     1     -41.782 -51.831  13.161  1.00  0.00     0.086 C 
HETATM    8  C   UNL     1     -40.630 -52.780  12.830  1.00  0.00     0.025 C 
HETATM    9  C   UNL     1     -41.207 -54.193  12.928  1.00  0.00     0.002 C 
HETATM   10  C   UNL     1     -42.683 -54.026  13.275  1.00  0.00     0.002 C 
HETATM   11  C   UNL     1     -43.029 -52.628  12.793  1.00  0.00     0.025 C 
ENDBRANCH   3   7
BRANCH   4  12
HETATM   12  C   UNL     1     -41.781 -48.183  11.032  1.00  0.00     0.168 A 
HETATM   13  N   UNL     1     -41.591 -48.517   9.775  1.00  0.00    -0.279 N 
HETATM   14  N   UNL     1     -42.643 -48.121   8.976  1.00  0.00    -0.303 N 
ATOM     15  HN  UNL     1     -40.765 -49.009   9.432  1.00  0.00     0.189 HD
HETATM   16  C   UNL     1     -43.572 -47.500   9.671  1.00  0.00     0.160 A 
ATOM     17  HN  UNL     1     -42.696 -48.289   7.971  1.00  0.00     0.186 HD
HETATM   18  S   UNL     1     -43.245 -47.375  11.353  1.00  0.00    -0.046 SA
ENDBRANCH   4  12
TORSDOF 2
ENDMDL
