MODEL 1
REMARK VINA RESULT:      -6.7      0.000      0.000
REMARK  5 active torsions:
REMARK  status: ('A' for Active; 'I' for Inactive)
REMARK    1  A    between atoms: C_2  and  C_4 
REMARK    2  A    between atoms: C_4  and  N_5 
REMARK    3  A    between atoms: C_9  and  C_10 
REMARK    4  A    between atoms: C_10  and  N_11 
REMARK       I    between atoms: N_11  and  C_12 
REMARK       I    between atoms: C_12  and  N_14 
REMARK    5  A    between atoms: N_14  and  C_15 
ROOT
HETATM    1  N   UNL     1     -40.869 -52.745  11.737  1.00  0.00    -0.340 N 
HETATM    2  C   UNL     1     -40.580 -51.433  12.025  1.00  0.00     0.321 C 
HETATM    3  O   UNL     1     -40.191 -51.075  13.131  1.00  0.00    -0.247 OA
HETATM    4  N   UNL     1     -40.856 -50.611  10.968  1.00  0.00    -0.293 N 
HETATM    5  H   UNL     1     -40.950 -53.038  10.773  1.00  0.00     0.164 HD
HETATM    6  H   UNL     1     -41.581 -50.896  10.326  1.00  0.00     0.172 HD
ENDROOT
BRANCH   1   7
HETATM    7  C   UNL     1     -40.885 -53.778  12.752  1.00  0.00     0.158 C 
BRANCH   7   8
HETATM    8  C   UNL     1     -42.141 -53.682  13.627  1.00  0.00     0.167 C 
HETATM    9  O   UNL     1     -42.248 -54.888  14.415  1.00  0.00    -0.381 OA
HETATM   10  C   UNL     1     -43.402 -54.834  15.266  1.00  0.00     0.198 C 
HETATM   11  C   UNL     1     -44.697 -54.594  14.467  1.00  0.00     0.298 C 
HETATM   12  N   UNL     1     -44.653 -53.403  13.588  1.00  0.00     0.093 N 
HETATM   13  C   UNL     1     -43.418 -53.493  12.776  1.00  0.00     0.305 C 
BRANCH  12  14
HETATM   14  C   UNL     1     -44.762 -52.153  14.361  1.00  0.00     0.276 C 
BRANCH  14  15
HETATM   15  C   UNL     1     -46.038 -51.328  14.074  1.00  0.00     0.006 C 
HETATM   16  C   UNL     1     -46.661 -51.693  12.726  1.00  0.00     0.011 C 
HETATM   17  C   UNL     1     -47.057 -51.529  15.199  1.00  0.00     0.011 C 
ENDBRANCH  14  15
ENDBRANCH  12  14
ENDBRANCH   7   8
ENDBRANCH   1   7
BRANCH   4  18
HETATM   18  C   UNL     1     -40.665 -49.249  11.028  1.00  0.00     0.132 A 
HETATM   19  C   UNL     1     -41.582 -48.222  10.710  1.00  0.00     0.084 A 
HETATM   20  C   UNL     1     -40.884 -47.061  10.925  1.00  0.00     0.076 A 
HETATM   21  C   UNL     1     -41.211 -45.632  10.805  1.00  0.00     0.079 C 
HETATM   22  O   UNL     1     -39.629 -47.368  11.345  1.00  0.00    -0.241 OA
HETATM   23  N   UNL     1     -39.504 -48.742  11.453  1.00  0.00    -0.245 N 
ATOM     24  HN  UNL     1     -38.692 -49.261  11.788  1.00  0.00     0.196 HD
ENDBRANCH   4  18
TORSDOF 5
ENDMDL
MODEL 2
REMARK VINA RESULT:      -6.7      1.078      1.213
REMARK  5 active torsions:
REMARK  status: ('A' for Active; 'I' for Inactive)
REMARK    1  A    between atoms: C_2  and  C_4 
REMARK    2  A    between atoms: C_4  and  N_5 
REMARK    3  A    between atoms: C_9  and  C_10 
REMARK    4  A    between atoms: C_10  and  N_11 
REMARK       I    between atoms: N_11  and  C_12 
REMARK       I    between atoms: C_12  and  N_14 
REMARK    5  A    between atoms: N_14  and  C_15 
ROOT
HETATM    1  N   UNL     1     -41.133 -51.475  11.367  1.00  0.00    -0.340 N 
HETATM    2  C   UNL     1     -40.896 -50.142  11.606  1.00  0.00     0.321 C 
HETATM    3  O   UNL     1     -40.231 -49.756  12.561  1.00  0.00    -0.247 OA
HETATM    4  N   UNL     1     -41.549 -49.344  10.710  1.00  0.00    -0.293 N 
HETATM    5  H   UNL     1     -41.469 -51.766  10.459  1.00  0.00     0.164 HD
HETATM    6  H   UNL     1     -42.402 -49.695  10.300  1.00  0.00     0.172 HD
ENDROOT
BRANCH   1   7
HETATM    7  C   UNL     1     -40.749 -52.513  12.301  1.00  0.00     0.158 C 
BRANCH   7   8
HETATM    8  C   UNL     1     -41.919 -52.902  13.214  1.00  0.00     0.167 C 
HETATM    9  O   UNL     1     -41.700 -54.247  13.695  1.00  0.00    -0.381 OA
HETATM   10  C   UNL     1     -42.763 -54.647  14.571  1.00  0.00     0.198 C 
HETATM   11  C   UNL     1     -44.142 -54.533  13.894  1.00  0.00     0.298 C 
HETATM   12  N   UNL     1     -44.427 -53.196  13.323  1.00  0.00     0.093 N 
HETATM   13  C   UNL     1     -43.274 -52.820  12.473  1.00  0.00     0.305 C 
BRANCH  12  14
HETATM   14  C   UNL     1     -44.733 -52.211  14.374  1.00  0.00     0.276 C 
BRANCH  14  15
HETATM   15  C   UNL     1     -45.980 -51.340  14.096  1.00  0.00     0.006 C 
HETATM   16  C   UNL     1     -46.613 -51.668  12.743  1.00  0.00     0.011 C 
HETATM   17  C   UNL     1     -47.006 -51.519  15.218  1.00  0.00     0.011 C 
ENDBRANCH  14  15
ENDBRANCH  12  14
ENDBRANCH   7   8
ENDBRANCH   1   7
BRANCH   4  18
HETATM   18  C   UNL     1     -41.478 -47.970  10.762  1.00  0.00     0.132 A 
HETATM   19  C   UNL     1     -42.528 -47.046  10.965  1.00  0.00     0.084 A 
HETATM   20  C   UNL     1     -41.919 -45.818  10.910  1.00  0.00     0.076 A 
HETATM   21  C   UNL     1     -42.394 -44.432  11.045  1.00  0.00     0.079 C 
HETATM   22  O   UNL     1     -40.590 -45.990  10.690  1.00  0.00    -0.241 OA
HETATM   23  N   UNL     1     -40.303 -47.344  10.641  1.00  0.00    -0.245 N 
ATOM     24  HN  UNL     1     -39.385 -47.775  10.534  1.00  0.00     0.196 HD
ENDBRANCH   4  18
TORSDOF 5
ENDMDL
MODEL 3
REMARK VINA RESULT:      -6.6      2.153      3.559
REMARK  5 active torsions:
REMARK  status: ('A' for Active; 'I' for Inactive)
REMARK    1  A    between atoms: C_2  and  C_4 
REMARK    2  A    between atoms: C_4  and  N_5 
REMARK    3  A    between atoms: C_9  and  C_10 
REMARK    4  A    between atoms: C_10  and  N_11 
REMARK       I    between atoms: N_11  and  C_12 
REMARK       I    between atoms: C_12  and  N_14 
REMARK    5  A    between atoms: N_14  and  C_15 
ROOT
HETATM    1  N   UNL     1     -39.872 -49.962  11.068  1.00  0.00    -0.340 N 
HETATM    2  C   UNL     1     -40.552 -48.769  11.019  1.00  0.00     0.321 C 
HETATM    3  O   UNL     1     -40.403 -47.894  11.866  1.00  0.00    -0.247 OA
HETATM    4  N   UNL     1     -41.438 -48.735   9.980  1.00  0.00    -0.293 N 
HETATM    5  H   UNL     1     -39.833 -50.547  10.245  1.00  0.00     0.164 HD
HETATM    6  H   UNL     1     -41.824 -49.611   9.660  1.00  0.00     0.172 HD
ENDROOT
BRANCH   1   7
HETATM    7  C   UNL     1     -39.049 -50.342  12.198  1.00  0.00     0.158 C 
BRANCH   7   8
HETATM    8  C   UNL     1     -39.693 -51.480  13.000  1.00  0.00     0.167 C 
HETATM    9  O   UNL     1     -38.654 -52.391  13.421  1.00  0.00    -0.381 OA
HETATM   10  C   UNL     1     -39.209 -53.465  14.195  1.00  0.00     0.198 C 
HETATM   11  C   UNL     1     -40.312 -54.219  13.427  1.00  0.00     0.298 C 
HETATM   12  N   UNL     1     -41.393 -53.347  12.910  1.00  0.00     0.093 N 
HETATM   13  C   UNL     1     -40.754 -52.236  12.169  1.00  0.00     0.305 C 
BRANCH  12  14
HETATM   14  C   UNL     1     -42.291 -52.899  13.989  1.00  0.00     0.276 C 
BRANCH  14  15
HETATM   15  C   UNL     1     -43.710 -53.512  13.941  1.00  0.00     0.006 C 
HETATM   16  C   UNL     1     -44.221 -53.653  12.507  1.00  0.00     0.011 C 
HETATM   17  C   UNL     1     -43.719 -54.872  14.644  1.00  0.00     0.011 C 
ENDBRANCH  14  15
ENDBRANCH  12  14
ENDBRANCH   7   8
ENDBRANCH   1   7
BRANCH   4  18
HETATM   18  C   UNL     1     -42.248 -47.647   9.741  1.00  0.00     0.132 A 
HETATM   19  C   UNL     1     -43.626 -47.633   9.430  1.00  0.00     0.084 A 
HETATM   20  C   UNL     1     -43.928 -46.304   9.274  1.00  0.00     0.076 A 
HETATM   21  C   UNL     1     -45.160 -45.564   8.956  1.00  0.00     0.079 C 
HETATM   22  O   UNL     1     -42.807 -45.566   9.477  1.00  0.00    -0.241 OA
HETATM   23  N   UNL     1     -41.759 -46.405   9.815  1.00  0.00    -0.245 N 
ATOM     24  HN  UNL     1     -40.809 -46.132  10.068  1.00  0.00     0.196 HD
ENDBRANCH   4  18
TORSDOF 5
ENDMDL
MODEL 4
REMARK VINA RESULT:      -5.9      2.155      7.018
REMARK  5 active torsions:
REMARK  status: ('A' for Active; 'I' for Inactive)
REMARK    1  A    between atoms: C_2  and  C_4 
REMARK    2  A    between atoms: C_4  and  N_5 
REMARK    3  A    between atoms: C_9  and  C_10 
REMARK    4  A    between atoms: C_10  and  N_11 
REMARK       I    between atoms: N_11  and  C_12 
REMARK       I    between atoms: C_12  and  N_14 
REMARK    5  A    between atoms: N_14  and  C_15 
ROOT
HETATM    1  N   UNL     1     -40.373 -49.574  10.962  1.00  0.00    -0.340 N 
HETATM    2  C   UNL     1     -40.771 -50.459  11.935  1.00  0.00     0.321 C 
HETATM    3  O   UNL     1     -40.709 -50.191  13.130  1.00  0.00    -0.247 OA
HETATM    4  N   UNL     1     -41.152 -51.658  11.402  1.00  0.00    -0.293 N 
HETATM    5  H   UNL     1     -40.658 -49.726  10.004  1.00  0.00     0.164 HD
HETATM    6  H   UNL     1     -40.733 -51.940  10.528  1.00  0.00     0.172 HD
ENDROOT
BRANCH   1   7
HETATM    7  C   UNL     1     -39.710 -48.324  11.271  1.00  0.00     0.158 C 
BRANCH   7   8
HETATM    8  C   UNL     1     -40.584 -47.121  10.894  1.00  0.00     0.167 C 
HETATM    9  O   UNL     1     -40.186 -45.992  11.702  1.00  0.00    -0.381 OA
HETATM   10  C   UNL     1     -40.966 -44.834  11.368  1.00  0.00     0.198 C 
HETATM   11  C   UNL     1     -42.477 -45.096  11.512  1.00  0.00     0.298 C 
HETATM   12  N   UNL     1     -42.961 -46.275  10.756  1.00  0.00     0.093 N 
HETATM   13  C   UNL     1     -42.087 -47.418  11.104  1.00  0.00     0.305 C 
BRANCH  12  14
HETATM   14  C   UNL     1     -43.029 -46.001   9.310  1.00  0.00     0.276 C 
BRANCH  14  15
HETATM   15  C   UNL     1     -44.131 -46.784   8.558  1.00  0.00     0.006 C 
HETATM   16  C   UNL     1     -43.547 -47.912   7.707  1.00  0.00     0.011 C 
HETATM   17  C   UNL     1     -45.149 -47.344   9.554  1.00  0.00     0.011 C 
ENDBRANCH  14  15
ENDBRANCH  12  14
ENDBRANCH   7   8
ENDBRANCH   1   7
BRANCH   4  18
HETATM   18  C   UNL     1     -41.572 -52.710  12.186  1.00  0.00     0.132 A 
HETATM   19  C   UNL     1     -42.773 -52.829  12.920  1.00  0.00     0.084 A 
HETATM   20  C   UNL     1     -42.680 -54.054  13.531  1.00  0.00     0.076 A 
HETATM   21  C   UNL     1     -43.560 -54.822  14.426  1.00  0.00     0.079 C 
HETATM   22  O   UNL     1     -41.502 -54.635  13.187  1.00  0.00    -0.241 OA
HETATM   23  N   UNL     1     -40.823 -53.811  12.306  1.00  0.00    -0.245 N 
ATOM     24  HN  UNL     1     -39.934 -54.004  11.844  1.00  0.00     0.196 HD
ENDBRANCH   4  18
TORSDOF 5
ENDMDL
MODEL 5
REMARK VINA RESULT:      -5.8      1.613      2.415
REMARK  5 active torsions:
REMARK  status: ('A' for Active; 'I' for Inactive)
REMARK    1  A    between atoms: C_2  and  C_4 
REMARK    2  A    between atoms: C_4  and  N_5 
REMARK    3  A    between atoms: C_9  and  C_10 
REMARK    4  A    between atoms: C_10  and  N_11 
REMARK       I    between atoms: N_11  and  C_12 
REMARK       I    between atoms: C_12  and  N_14 
REMARK    5  A    between atoms: N_14  and  C_15 
ROOT
HETATM    1  N   UNL     1     -40.170 -49.893  12.414  1.00  0.00    -0.340 N 
HETATM    2  C   UNL     1     -40.545 -48.768  11.721  1.00  0.00     0.321 C 
HETATM    3  O   UNL     1     -41.327 -48.810  10.777  1.00  0.00    -0.247 OA
HETATM    4  N   UNL     1     -39.886 -47.657  12.165  1.00  0.00    -0.293 N 
HETATM    5  H   UNL     1     -39.727 -49.796  13.318  1.00  0.00     0.164 HD
HETATM    6  H   UNL     1     -38.971 -47.783  12.572  1.00  0.00     0.172 HD
ENDROOT
BRANCH   1   7
HETATM    7  C   UNL     1     -40.544 -51.227  11.993  1.00  0.00     0.158 C 
BRANCH   7   8
HETATM    8  C   UNL     1     -41.535 -51.865  12.975  1.00  0.00     0.167 C 
HETATM    9  O   UNL     1     -40.904 -53.014  13.583  1.00  0.00    -0.381 OA
HETATM   10  C   UNL     1     -41.790 -53.633  14.528  1.00  0.00     0.198 C 
HETATM   11  C   UNL     1     -43.133 -54.029  13.885  1.00  0.00     0.298 C 
HETATM   12  N   UNL     1     -43.822 -52.917  13.190  1.00  0.00     0.093 N 
HETATM   13  C   UNL     1     -42.844 -52.290  12.272  1.00  0.00     0.305 C 
BRANCH  12  14
HETATM   14  C   UNL     1     -44.426 -51.972  14.145  1.00  0.00     0.276 C 
BRANCH  14  15
HETATM   15  C   UNL     1     -45.799 -51.408  13.711  1.00  0.00     0.006 C 
HETATM   16  C   UNL     1     -46.383 -52.180  12.527  1.00  0.00     0.011 C 
HETATM   17  C   UNL     1     -46.773 -51.432  14.892  1.00  0.00     0.011 C 
ENDBRANCH  14  15
ENDBRANCH  12  14
ENDBRANCH   7   8
ENDBRANCH   1   7
BRANCH   4  18
HETATM   18  C   UNL     1     -40.083 -46.413  11.607  1.00  0.00     0.132 A 
HETATM   19  C   UNL     1     -40.349 -45.191  12.264  1.00  0.00     0.084 A 
HETATM   20  C   UNL     1     -40.477 -44.277  11.249  1.00  0.00     0.076 A 
HETATM   21  C   UNL     1     -40.744 -42.831  11.200  1.00  0.00     0.079 C 
HETATM   22  O   UNL     1     -40.298 -44.907  10.058  1.00  0.00    -0.241 OA
HETATM   23  N   UNL     1     -40.007 -46.241  10.283  1.00  0.00    -0.245 N 
ATOM     24  HN  UNL     1     -39.780 -46.948   9.583  1.00  0.00     0.196 HD
ENDBRANCH   4  18
TORSDOF 5
ENDMDL
MODEL 6
REMARK VINA RESULT:      -5.7      2.557      3.980
REMARK  5 active torsions:
REMARK  status: ('A' for Active; 'I' for Inactive)
REMARK    1  A    between atoms: C_2  and  C_4 
REMARK    2  A    between atoms: C_4  and  N_5 
REMARK    3  A    between atoms: C_9  and  C_10 
REMARK    4  A    between atoms: C_10  and  N_11 
REMARK       I    between atoms: N_11  and  C_12 
REMARK       I    between atoms: C_12  and  N_14 
REMARK    5  A    between atoms: N_14  and  C_15 
ROOT
HETATM    1  N   UNL     1     -40.077 -49.862  11.448  1.00  0.00    -0.340 N 
HETATM    2  C   UNL     1     -40.669 -48.624  11.389  1.00  0.00     0.321 C 
HETATM    3  O   UNL     1     -41.883 -48.473  11.477  1.00  0.00    -0.247 OA
HETATM    4  N   UNL     1     -39.755 -47.637  11.146  1.00  0.00    -0.293 N 
HETATM    5  H   UNL     1     -39.082 -49.931  11.615  1.00  0.00     0.164 HD
HETATM    6  H   UNL     1     -38.921 -47.883  10.633  1.00  0.00     0.172 HD
ENDROOT
BRANCH   1   7
HETATM    7  C   UNL     1     -40.843 -51.091  11.465  1.00  0.00     0.158 C 
BRANCH   7   8
HETATM    8  C   UNL     1     -40.547 -51.916  12.724  1.00  0.00     0.167 C 
HETATM    9  O   UNL     1     -39.144 -51.782  13.042  1.00  0.00    -0.381 OA
HETATM   10  C   UNL     1     -38.824 -52.524  14.229  1.00  0.00     0.198 C 
HETATM   11  C   UNL     1     -39.211 -54.009  14.102  1.00  0.00     0.298 C 
HETATM   12  N   UNL     1     -40.625 -54.236  13.723  1.00  0.00     0.093 N 
HETATM   13  C   UNL     1     -40.905 -53.407  12.528  1.00  0.00     0.305 C 
BRANCH  12  14
HETATM   14  C   UNL     1     -41.537 -53.975  14.850  1.00  0.00     0.276 C 
BRANCH  14  15
HETATM   15  C   UNL     1     -42.488 -55.146  15.192  1.00  0.00     0.006 C 
HETATM   16  C   UNL     1     -42.499 -55.451  16.691  1.00  0.00     0.011 C 
HETATM   17  C   UNL     1     -43.904 -54.832  14.704  1.00  0.00     0.011 C 
ENDBRANCH  14  15
ENDBRANCH  12  14
ENDBRANCH   7   8
ENDBRANCH   1   7
BRANCH   4  18
HETATM   18  C   UNL     1     -40.117 -46.314  11.024  1.00  0.00     0.132 A 
HETATM   19  C   UNL     1     -39.767 -45.230  11.860  1.00  0.00     0.084 A 
HETATM   20  C   UNL     1     -40.402 -44.150  11.302  1.00  0.00     0.076 A 
HETATM   21  C   UNL     1     -40.474 -42.719  11.637  1.00  0.00     0.079 C 
HETATM   22  O   UNL     1     -41.089 -44.555  10.203  1.00  0.00    -0.241 OA
HETATM   23  N   UNL     1     -40.875 -45.908  10.001  1.00  0.00    -0.245 N 
ATOM     24  HN  UNL     1     -41.224 -46.477   9.229  1.00  0.00     0.196 HD
ENDBRANCH   4  18
TORSDOF 5
ENDMDL
MODEL 7
REMARK VINA RESULT:      -5.7      3.605      7.123
REMARK  5 active torsions:
REMARK  status: ('A' for Active; 'I' for Inactive)
REMARK    1  A    between atoms: C_2  and  C_4 
REMARK    2  A    between atoms: C_4  and  N_5 
REMARK    3  A    between atoms: C_9  and  C_10 
REMARK    4  A    between atoms: C_10  and  N_11 
REMARK       I    between atoms: N_11  and  C_12 
REMARK       I    between atoms: C_12  and  N_14 
REMARK    5  A    between atoms: N_14  and  C_15 
ROOT
HETATM    1  N   UNL     1     -39.978 -50.765  12.663  1.00  0.00    -0.340 N 
HETATM    2  C   UNL     1     -39.285 -51.778  13.281  1.00  0.00     0.321 C 
HETATM    3  O   UNL     1     -38.059 -51.817  13.300  1.00  0.00    -0.247 OA
HETATM    4  N   UNL     1     -40.124 -52.735  13.778  1.00  0.00    -0.293 N 
HETATM    5  H   UNL     1     -40.958 -50.634  12.871  1.00  0.00     0.164 HD
HETATM    6  H   UNL     1     -41.014 -52.865  13.320  1.00  0.00     0.172 HD
ENDROOT
BRANCH   1   7
HETATM    7  C   UNL     1     -39.324 -49.753  11.859  1.00  0.00     0.158 C 
BRANCH   7   8
HETATM    8  C   UNL     1     -40.269 -48.583  11.559  1.00  0.00     0.167 C 
HETATM    9  O   UNL     1     -40.147 -47.609  12.620  1.00  0.00    -0.381 OA
HETATM   10  C   UNL     1     -41.001 -46.483  12.370  1.00  0.00     0.198 C 
HETATM   11  C   UNL     1     -42.472 -46.904  12.191  1.00  0.00     0.298 C 
HETATM   12  N   UNL     1     -42.681 -47.944  11.157  1.00  0.00     0.093 N 
HETATM   13  C   UNL     1     -41.738 -49.050  11.439  1.00  0.00     0.305 C 
BRANCH  12  14
HETATM   14  C   UNL     1     -42.553 -47.391   9.797  1.00  0.00     0.276 C 
BRANCH  14  15
HETATM   15  C   UNL     1     -43.837 -47.487   8.940  1.00  0.00     0.006 C 
HETATM   16  C   UNL     1     -44.574 -46.149   8.867  1.00  0.00     0.011 C 
HETATM   17  C   UNL     1     -43.493 -47.980   7.532  1.00  0.00     0.011 C 
ENDBRANCH  14  15
ENDBRANCH  12  14
ENDBRANCH   7   8
ENDBRANCH   1   7
BRANCH   4  18
HETATM   18  C   UNL     1     -39.657 -53.859  14.423  1.00  0.00     0.132 A 
HETATM   19  C   UNL     1     -39.895 -54.266  15.754  1.00  0.00     0.084 A 
HETATM   20  C   UNL     1     -39.187 -55.434  15.886  1.00  0.00     0.076 A 
HETATM   21  C   UNL     1     -38.989 -56.393  16.984  1.00  0.00     0.079 C 
HETATM   22  O   UNL     1     -38.564 -55.712  14.712  1.00  0.00    -0.241 OA
HETATM   23  N   UNL     1     -38.894 -54.746  13.777  1.00  0.00    -0.245 N 
ATOM     24  HN  UNL     1     -38.613 -54.718  12.796  1.00  0.00     0.196 HD
ENDBRANCH   4  18
TORSDOF 5
ENDMDL
MODEL 8
REMARK VINA RESULT:      -5.4      3.167      7.074
REMARK  5 active torsions:
REMARK  status: ('A' for Active; 'I' for Inactive)
REMARK    1  A    between atoms: C_2  and  C_4 
REMARK    2  A    between atoms: C_4  and  N_5 
REMARK    3  A    between atoms: C_9  and  C_10 
REMARK    4  A    between atoms: C_10  and  N_11 
REMARK       I    between atoms: N_11  and  C_12 
REMARK       I    between atoms: C_12  and  N_14 
REMARK    5  A    between atoms: N_14  and  C_15 
ROOT
HETATM    1  N   UNL     1     -39.797 -51.075  11.904  1.00  0.00    -0.340 N 
HETATM    2  C   UNL     1     -41.127 -51.380  12.061  1.00  0.00     0.321 C 
HETATM    3  O   UNL     1     -42.007 -50.527  12.000  1.00  0.00    -0.247 OA
HETATM    4  N   UNL     1     -41.311 -52.699  12.366  1.00  0.00    -0.293 N 
HETATM    5  H   UNL     1     -39.134 -51.817  11.720  1.00  0.00     0.164 HD
HETATM    6  H   UNL     1     -40.567 -53.180  12.849  1.00  0.00     0.172 HD
ENDROOT
BRANCH   1   7
HETATM    7  C   UNL     1     -39.317 -49.712  11.805  1.00  0.00     0.158 C 
BRANCH   7   8
HETATM    8  C   UNL     1     -38.664 -49.255  13.116  1.00  0.00     0.167 C 
HETATM    9  O   UNL     1     -37.837 -50.329  13.617  1.00  0.00    -0.381 OA
HETATM   10  C   UNL     1     -37.188 -49.937  14.836  1.00  0.00     0.198 C 
HETATM   11  C   UNL     1     -38.199 -49.487  15.908  1.00  0.00     0.298 C 
HETATM   12  N   UNL     1     -39.125 -48.423  15.457  1.00  0.00     0.093 N 
HETATM   13  C   UNL     1     -39.720 -48.863  14.175  1.00  0.00     0.305 C 
BRANCH  12  14
HETATM   14  C   UNL     1     -38.451 -47.115  15.378  1.00  0.00     0.276 C 
BRANCH  14  15
HETATM   15  C   UNL     1     -39.369 -45.942  14.962  1.00  0.00     0.006 C 
HETATM   16  C   UNL     1     -39.550 -44.931  16.095  1.00  0.00     0.011 C 
HETATM   17  C   UNL     1     -38.807 -45.249  13.719  1.00  0.00     0.011 C 
ENDBRANCH  14  15
ENDBRANCH  12  14
ENDBRANCH   7   8
ENDBRANCH   1   7
BRANCH   4  18
HETATM   18  C   UNL     1     -42.560 -53.234  12.589  1.00  0.00     0.132 A 
HETATM   19  C   UNL     1     -42.962 -54.121  13.613  1.00  0.00     0.084 A 
HETATM   20  C   UNL     1     -44.292 -54.349  13.365  1.00  0.00     0.076 A 
HETATM   21  C   UNL     1     -45.333 -55.153  14.024  1.00  0.00     0.079 C 
HETATM   22  O   UNL     1     -44.667 -53.646  12.266  1.00  0.00    -0.241 OA
HETATM   23  N   UNL     1     -43.591 -52.909  11.802  1.00  0.00    -0.245 N 
ATOM     24  HN  UNL     1     -43.585 -52.253  11.021  1.00  0.00     0.196 HD
ENDBRANCH   4  18
TORSDOF 5
ENDMDL
MODEL 9
REMARK VINA RESULT:      -5.3      3.211      7.054
REMARK  5 active torsions:
REMARK  status: ('A' for Active; 'I' for Inactive)
REMARK    1  A    between atoms: C_2  and  C_4 
REMARK    2  A    between atoms: C_4  and  N_5 
REMARK    3  A    between atoms: C_9  and  C_10 
REMARK    4  A    between atoms: C_10  and  N_11 
REMARK       I    between atoms: N_11  and  C_12 
REMARK       I    between atoms: C_12  and  N_14 
REMARK    5  A    between atoms: N_14  and  C_15 
ROOT
HETATM    1  N   UNL     1     -39.806 -50.793  11.719  1.00  0.00    -0.340 N 
HETATM    2  C   UNL     1     -41.106 -51.144  11.994  1.00  0.00     0.321 C 
HETATM    3  O   UNL     1     -41.990 -50.310  12.156  1.00  0.00    -0.247 OA
HETATM    4  N   UNL     1     -41.245 -52.496  12.135  1.00  0.00    -0.293 N 
HETATM    5  H   UNL     1     -39.168 -51.489  11.357  1.00  0.00     0.164 HD
HETATM    6  H   UNL     1     -40.445 -53.022  12.454  1.00  0.00     0.172 HD
ENDROOT
BRANCH   1   7
HETATM    7  C   UNL     1     -39.348 -49.420  11.750  1.00  0.00     0.158 C 
BRANCH   7   8
HETATM    8  C   UNL     1     -38.944 -48.999  13.168  1.00  0.00     0.167 C 
HETATM    9  O   UNL     1     -38.647 -47.585  13.162  1.00  0.00    -0.381 OA
HETATM   10  C   UNL     1     -38.282 -47.141  14.477  1.00  0.00     0.198 C 
HETATM   11  C   UNL     1     -37.094 -47.940  15.046  1.00  0.00     0.298 C 
HETATM   12  N   UNL     1     -37.293 -49.408  15.039  1.00  0.00     0.093 N 
HETATM   13  C   UNL     1     -37.717 -49.793  13.673  1.00  0.00     0.305 C 
BRANCH  12  14
HETATM   14  C   UNL     1     -38.233 -49.833  16.091  1.00  0.00     0.276 C 
BRANCH  14  15
HETATM   15  C   UNL     1     -38.507 -51.354  16.132  1.00  0.00     0.006 C 
HETATM   16  C   UNL     1     -38.102 -51.970  17.472  1.00  0.00     0.011 C 
HETATM   17  C   UNL     1     -39.985 -51.629  15.847  1.00  0.00     0.011 C 
ENDBRANCH  14  15
ENDBRANCH  12  14
ENDBRANCH   7   8
ENDBRANCH   1   7
BRANCH   4  18
HETATM   18  C   UNL     1     -42.455 -53.082  12.434  1.00  0.00     0.132 A 
HETATM   19  C   UNL     1     -42.765 -53.957  13.499  1.00  0.00     0.084 A 
HETATM   20  C   UNL     1     -44.092 -54.255  13.323  1.00  0.00     0.076 A 
HETATM   21  C   UNL     1     -45.061 -55.087  14.052  1.00  0.00     0.079 C 
HETATM   22  O   UNL     1     -44.553 -53.601  12.224  1.00  0.00    -0.241 OA
HETATM   23  N   UNL     1     -43.537 -52.828  11.690  1.00  0.00    -0.245 N 
ATOM     24  HN  UNL     1     -43.600 -52.195  10.892  1.00  0.00     0.196 HD
ENDBRANCH   4  18
TORSDOF 5
ENDMDL
