MODEL 1
REMARK VINA RESULT:      -5.3      0.000      0.000
REMARK  2 active torsions:
REMARK  status: ('A' for Active; 'I' for Inactive)
REMARK    1  A    between atoms: C_4  and  C_8 
REMARK    2  A    between atoms: C_14  and  N_15 
ROOT
HETATM    1  C   UNL     1     -42.105 -46.160  10.308  1.00  0.00     0.153 C 
HETATM    2  N   UNL     1     -41.335 -47.382  10.195  1.00  0.00    -0.350 N 
HETATM    3  C   UNL     1     -41.263 -48.343  11.159  1.00  0.00     0.218 C 
HETATM    4  O   UNL     1     -40.747 -49.427  10.898  1.00  0.00    -0.274 OA
HETATM    5  C   UNL     1     -41.733 -48.003  12.562  1.00  0.00     0.105 C 
HETATM    6  C   UNL     1     -42.608 -46.759  12.691  1.00  0.00     0.047 C 
HETATM    7  C   UNL     1     -42.087 -45.646  11.778  1.00  0.00     0.245 C 
HETATM    8  H   UNL     1     -41.028 -47.680   9.278  1.00  0.00     0.163 HD
ENDROOT
BRANCH   1   9
HETATM    9  C   UNL     1     -43.482 -46.393   9.741  1.00  0.00     0.001 A 
HETATM   10  C   UNL     1     -44.264 -47.536   9.732  1.00  0.00     0.120 A 
HETATM   11  N   UNL     1     -45.452 -47.197   9.146  1.00  0.00    -0.307 N 
HETATM   12  C   UNL     1     -46.608 -48.040   8.966  1.00  0.00     0.177 C 
HETATM   13  N   UNL     1     -45.490 -45.916   8.737  1.00  0.00    -0.310 N 
HETATM   14  C   UNL     1     -44.295 -45.434   9.088  1.00  0.00     0.118 A 
ATOM     15  HN  UNL     1     -46.253 -45.427   8.269  1.00  0.00     0.186 HD
ENDBRANCH   1   9
BRANCH   7  16
HETATM   16  N   UNL     1     -42.804 -44.391  12.032  1.00  0.00     0.085 N 
HETATM   17  H   UNL     1     -42.157 -43.602  12.019  1.00  0.00     0.313 HD
HETATM   18  H   UNL     1     -43.223 -44.410  12.961  1.00  0.00     0.313 HD
ENDBRANCH   7  16
TORSDOF 2
ENDMDL
MODEL 2
REMARK VINA RESULT:      -5.0      7.350      8.894
REMARK  2 active torsions:
REMARK  status: ('A' for Active; 'I' for Inactive)
REMARK    1  A    between atoms: C_4  and  C_8 
REMARK    2  A    between atoms: C_14  and  N_15 
ROOT
HETATM    1  C   UNL     1     -45.533 -54.212  14.550  1.00  0.00     0.153 C 
HETATM    2  N   UNL     1     -46.095 -53.866  13.261  1.00  0.00    -0.350 N 
HETATM    3  C   UNL     1     -46.316 -52.592  12.829  1.00  0.00     0.218 C 
HETATM    4  O   UNL     1     -46.611 -52.391  11.653  1.00  0.00    -0.274 OA
HETATM    5  C   UNL     1     -46.290 -51.465  13.846  1.00  0.00     0.105 C 
HETATM    6  C   UNL     1     -45.635 -51.788  15.187  1.00  0.00     0.047 C 
HETATM    7  C   UNL     1     -46.012 -53.203  15.635  1.00  0.00     0.245 C 
HETATM    8  H   UNL     1     -46.102 -54.566  12.529  1.00  0.00     0.163 HD
ENDROOT
BRANCH   1   9
HETATM    9  C   UNL     1     -44.036 -54.328  14.418  1.00  0.00     0.001 A 
HETATM   10  C   UNL     1     -43.196 -53.942  13.387  1.00  0.00     0.120 A 
HETATM   11  N   UNL     1     -41.920 -54.217  13.792  1.00  0.00    -0.307 N 
HETATM   12  C   UNL     1     -40.698 -53.934  13.081  1.00  0.00     0.177 C 
HETATM   13  N   UNL     1     -41.867 -54.791  15.008  1.00  0.00    -0.310 N 
HETATM   14  C   UNL     1     -43.147 -54.867  15.380  1.00  0.00     0.118 A 
ATOM     15  HN  UNL     1     -41.042 -55.097  15.524  1.00  0.00     0.186 HD
ENDBRANCH   1   9
BRANCH   7  16
HETATM   16  N   UNL     1     -45.543 -53.454  17.002  1.00  0.00     0.085 N 
HETATM   17  H   UNL     1     -44.539 -53.283  17.072  1.00  0.00     0.313 HD
HETATM   18  H   UNL     1     -45.690 -54.433  17.248  1.00  0.00     0.313 HD
ENDBRANCH   7  16
TORSDOF 2
ENDMDL
MODEL 3
REMARK VINA RESULT:      -4.8      2.669      3.923
REMARK  2 active torsions:
REMARK  status: ('A' for Active; 'I' for Inactive)
REMARK    1  A    between atoms: C_4  and  C_8 
REMARK    2  A    between atoms: C_14  and  N_15 
ROOT
HETATM    1  C   UNL     1     -42.082 -45.607  12.166  1.00  0.00     0.153 C 
HETATM    2  N   UNL     1     -42.917 -44.433  12.012  1.00  0.00    -0.350 N 
HETATM    3  C   UNL     1     -42.527 -43.280  11.398  1.00  0.00     0.218 C 
HETATM    4  O   UNL     1     -43.361 -42.415  11.143  1.00  0.00    -0.274 OA
HETATM    5  C   UNL     1     -41.047 -43.059  11.141  1.00  0.00     0.105 C 
HETATM    6  C   UNL     1     -40.160 -44.298  11.226  1.00  0.00     0.047 C 
HETATM    7  C   UNL     1     -40.600 -45.187  12.393  1.00  0.00     0.245 C 
HETATM    8  H   UNL     1     -43.917 -44.529  12.132  1.00  0.00     0.163 HD
ENDROOT
BRANCH   1   9
HETATM    9  C   UNL     1     -42.303 -46.524  10.991  1.00  0.00     0.001 A 
HETATM   10  C   UNL     1     -43.198 -46.431   9.939  1.00  0.00     0.120 A 
HETATM   11  N   UNL     1     -42.947 -47.489   9.111  1.00  0.00    -0.307 N 
HETATM   12  C   UNL     1     -43.585 -47.783   7.852  1.00  0.00     0.177 C 
HETATM   13  N   UNL     1     -41.968 -48.292   9.566  1.00  0.00    -0.310 N 
HETATM   14  C   UNL     1     -41.587 -47.713  10.707  1.00  0.00     0.118 A 
ATOM     15  HN  UNL     1     -41.603 -49.144   9.139  1.00  0.00     0.186 HD
ENDBRANCH   1   9
BRANCH   7  16
HETATM   16  N   UNL     1     -39.643 -46.280  12.598  1.00  0.00     0.085 N 
HETATM   17  H   UNL     1     -39.271 -46.602  11.704  1.00  0.00     0.313 HD
HETATM   18  H   UNL     1     -40.112 -47.079  13.024  1.00  0.00     0.313 HD
ENDBRANCH   7  16
TORSDOF 2
ENDMDL
MODEL 4
REMARK VINA RESULT:      -4.7      4.346      5.273
REMARK  2 active torsions:
REMARK  status: ('A' for Active; 'I' for Inactive)
REMARK    1  A    between atoms: C_4  and  C_8 
REMARK    2  A    between atoms: C_14  and  N_15 
ROOT
HETATM    1  C   UNL     1     -39.469 -49.467  11.603  1.00  0.00     0.153 C 
HETATM    2  N   UNL     1     -38.391 -50.414  11.410  1.00  0.00    -0.350 N 
HETATM    3  C   UNL     1     -37.567 -50.861  12.400  1.00  0.00     0.218 C 
HETATM    4  O   UNL     1     -36.812 -51.806  12.182  1.00  0.00    -0.274 OA
HETATM    5  C   UNL     1     -37.536 -50.106  13.716  1.00  0.00     0.105 C 
HETATM    6  C   UNL     1     -38.703 -49.157  13.971  1.00  0.00     0.047 C 
HETATM    7  C   UNL     1     -39.077 -48.417  12.684  1.00  0.00     0.245 C 
HETATM    8  H   UNL     1     -38.381 -50.976  10.568  1.00  0.00     0.163 HD
ENDROOT
BRANCH   1   9
HETATM    9  C   UNL     1     -40.741 -50.222  11.893  1.00  0.00     0.001 A 
HETATM   10  C   UNL     1     -40.957 -51.580  12.054  1.00  0.00     0.120 A 
HETATM   11  N   UNL     1     -42.280 -51.735  12.362  1.00  0.00    -0.307 N 
HETATM   12  C   UNL     1     -42.964 -52.965  12.678  1.00  0.00     0.177 C 
HETATM   13  N   UNL     1     -42.956 -50.572  12.381  1.00  0.00    -0.310 N 
HETATM   14  C   UNL     1     -42.026 -49.660  12.088  1.00  0.00     0.118 A 
ATOM     15  HN  UNL     1     -43.946 -50.423  12.575  1.00  0.00     0.186 HD
ENDBRANCH   1   9
BRANCH   7  16
HETATM   16  N   UNL     1     -40.068 -47.371  12.958  1.00  0.00     0.085 N 
HETATM   17  H   UNL     1     -40.594 -47.147  12.112  1.00  0.00     0.313 HD
HETATM   18  H   UNL     1     -39.599 -46.512  13.247  1.00  0.00     0.313 HD
ENDBRANCH   7  16
TORSDOF 2
ENDMDL
MODEL 5
REMARK VINA RESULT:      -4.7      3.525      5.091
REMARK  2 active torsions:
REMARK  status: ('A' for Active; 'I' for Inactive)
REMARK    1  A    between atoms: C_4  and  C_8 
REMARK    2  A    between atoms: C_14  and  N_15 
ROOT
HETATM    1  C   UNL     1     -38.503 -48.694  12.936  1.00  0.00     0.153 C 
HETATM    2  N   UNL     1     -37.553 -49.678  12.459  1.00  0.00    -0.350 N 
HETATM    3  C   UNL     1     -37.556 -50.994  12.816  1.00  0.00     0.218 C 
HETATM    4  O   UNL     1     -36.837 -51.789  12.214  1.00  0.00    -0.274 OA
HETATM    5  C   UNL     1     -38.376 -51.419  14.020  1.00  0.00     0.105 C 
HETATM    6  C   UNL     1     -39.435 -50.426  14.493  1.00  0.00     0.047 C 
HETATM    7  C   UNL     1     -38.895 -48.996  14.413  1.00  0.00     0.245 C 
HETATM    8  H   UNL     1     -37.005 -49.466  11.635  1.00  0.00     0.163 HD
ENDROOT
BRANCH   1   9
HETATM    9  C   UNL     1     -39.665 -48.630  11.978  1.00  0.00     0.001 A 
HETATM   10  C   UNL     1     -40.532 -47.590  11.692  1.00  0.00     0.120 A 
HETATM   11  N   UNL     1     -41.369 -48.032  10.706  1.00  0.00    -0.307 N 
HETATM   12  C   UNL     1     -42.403 -47.282  10.037  1.00  0.00     0.177 C 
HETATM   13  N   UNL     1     -41.133 -49.308  10.349  1.00  0.00    -0.310 N 
HETATM   14  C   UNL     1     -40.109 -49.671  11.126  1.00  0.00     0.118 A 
ATOM     15  HN  UNL     1     -41.621 -49.866   9.649  1.00  0.00     0.186 HD
ENDBRANCH   1   9
BRANCH   7  16
HETATM   16  N   UNL     1     -39.831 -48.054  15.037  1.00  0.00     0.085 N 
HETATM   17  H   UNL     1     -40.409 -48.532  15.729  1.00  0.00     0.313 HD
HETATM   18  H   UNL     1     -40.468 -47.678  14.335  1.00  0.00     0.313 HD
ENDBRANCH   7  16
TORSDOF 2
ENDMDL
MODEL 6
REMARK VINA RESULT:      -4.6      3.201      4.936
REMARK  2 active torsions:
REMARK  status: ('A' for Active; 'I' for Inactive)
REMARK    1  A    between atoms: C_4  and  C_8 
REMARK    2  A    between atoms: C_14  and  N_15 
ROOT
HETATM    1  C   UNL     1     -40.630 -48.690  12.475  1.00  0.00     0.153 C 
HETATM    2  N   UNL     1     -40.072 -48.426  13.785  1.00  0.00    -0.350 N 
HETATM    3  C   UNL     1     -38.745 -48.486  14.088  1.00  0.00     0.218 C 
HETATM    4  O   UNL     1     -38.348 -48.057  15.170  1.00  0.00    -0.274 OA
HETATM    5  C   UNL     1     -37.808 -49.178  13.115  1.00  0.00     0.105 C 
HETATM    6  C   UNL     1     -38.350 -49.399  11.706  1.00  0.00     0.047 C 
HETATM    7  C   UNL     1     -39.822 -49.815  11.763  1.00  0.00     0.245 C 
HETATM    8  H   UNL     1     -40.638 -47.931  14.463  1.00  0.00     0.163 HD
ENDROOT
BRANCH   1   9
HETATM    9  C   UNL     1     -40.714 -47.396  11.707  1.00  0.00     0.001 A 
HETATM   10  C   UNL     1     -40.054 -46.195  11.903  1.00  0.00     0.120 A 
HETATM   11  N   UNL     1     -40.443 -45.360  10.893  1.00  0.00    -0.307 N 
HETATM   12  C   UNL     1     -39.976 -44.020  10.639  1.00  0.00     0.177 C 
HETATM   13  N   UNL     1     -41.343 -45.921  10.064  1.00  0.00    -0.310 N 
HETATM   14  C   UNL     1     -41.513 -47.148  10.564  1.00  0.00     0.118 A 
ATOM     15  HN  UNL     1     -41.790 -45.506   9.246  1.00  0.00     0.186 HD
ENDBRANCH   1   9
BRANCH   7  16
HETATM   16  N   UNL     1     -40.300 -50.210  10.433  1.00  0.00     0.085 N 
HETATM   17  H   UNL     1     -39.559 -50.685   9.915  1.00  0.00     0.313 HD
HETATM   18  H   UNL     1     -40.551 -49.383   9.892  1.00  0.00     0.313 HD
ENDBRANCH   7  16
TORSDOF 2
ENDMDL
MODEL 7
REMARK VINA RESULT:      -4.6      5.240      7.156
REMARK  2 active torsions:
REMARK  status: ('A' for Active; 'I' for Inactive)
REMARK    1  A    between atoms: C_4  and  C_8 
REMARK    2  A    between atoms: C_14  and  N_15 
ROOT
HETATM    1  C   UNL     1     -41.500 -51.576  13.506  1.00  0.00     0.153 C 
HETATM    2  N   UNL     1     -40.898 -51.798  14.804  1.00  0.00    -0.350 N 
HETATM    3  C   UNL     1     -40.242 -52.936  15.169  1.00  0.00     0.218 C 
HETATM    4  O   UNL     1     -39.599 -52.958  16.215  1.00  0.00    -0.274 OA
HETATM    5  C   UNL     1     -40.414 -54.179  14.315  1.00  0.00     0.105 C 
HETATM    6  C   UNL     1     -40.979 -53.957  12.914  1.00  0.00     0.047 C 
HETATM    7  C   UNL     1     -42.091 -52.905  12.951  1.00  0.00     0.245 C 
HETATM    8  H   UNL     1     -40.722 -51.000  15.402  1.00  0.00     0.163 HD
ENDROOT
BRANCH   1   9
HETATM    9  C   UNL     1     -40.491 -50.913  12.603  1.00  0.00     0.001 A 
HETATM   10  C   UNL     1     -39.108 -50.903  12.663  1.00  0.00     0.120 A 
HETATM   11  N   UNL     1     -38.670 -50.205  11.572  1.00  0.00    -0.307 N 
HETATM   12  C   UNL     1     -37.303 -49.979  11.172  1.00  0.00     0.177 C 
HETATM   13  N   UNL     1     -39.675 -49.725  10.817  1.00  0.00    -0.310 N 
HETATM   14  C   UNL     1     -40.775 -50.145  11.447  1.00  0.00     0.118 A 
ATOM     15  HN  UNL     1     -39.611 -49.170   9.963  1.00  0.00     0.186 HD
ENDBRANCH   1   9
BRANCH   7  16
HETATM   16  N   UNL     1     -42.765 -52.820  11.650  1.00  0.00     0.085 N 
HETATM   17  H   UNL     1     -42.509 -53.615  11.064  1.00  0.00     0.313 HD
HETATM   18  H   UNL     1     -42.462 -51.982  11.155  1.00  0.00     0.313 HD
ENDBRANCH   7  16
TORSDOF 2
ENDMDL
MODEL 8
REMARK VINA RESULT:      -4.6      6.303      7.655
REMARK  2 active torsions:
REMARK  status: ('A' for Active; 'I' for Inactive)
REMARK    1  A    between atoms: C_4  and  C_8 
REMARK    2  A    between atoms: C_14  and  N_15 
ROOT
HETATM    1  C   UNL     1     -43.989 -52.833  15.130  1.00  0.00     0.153 C 
HETATM    2  N   UNL     1     -44.558 -54.149  14.926  1.00  0.00    -0.350 N 
HETATM    3  C   UNL     1     -45.804 -54.384  14.425  1.00  0.00     0.218 C 
HETATM    4  O   UNL     1     -46.125 -55.527  14.105  1.00  0.00    -0.274 OA
HETATM    5  C   UNL     1     -46.796 -53.236  14.376  1.00  0.00     0.105 C 
HETATM    6  C   UNL     1     -46.206 -51.836  14.515  1.00  0.00     0.047 C 
HETATM    7  C   UNL     1     -45.096 -51.830  15.569  1.00  0.00     0.245 C 
HETATM    8  H   UNL     1     -43.939 -54.950  14.909  1.00  0.00     0.163 HD
ENDROOT
BRANCH   1   9
HETATM    9  C   UNL     1     -43.229 -52.429  13.893  1.00  0.00     0.001 A 
HETATM   10  C   UNL     1     -42.295 -51.425  13.705  1.00  0.00     0.120 A 
HETATM   11  N   UNL     1     -41.867 -51.521  12.410  1.00  0.00    -0.307 N 
HETATM   12  C   UNL     1     -40.850 -50.727  11.766  1.00  0.00     0.177 C 
HETATM   13  N   UNL     1     -42.484 -52.500  11.723  1.00  0.00    -0.310 N 
HETATM   14  C   UNL     1     -43.314 -53.041  12.618  1.00  0.00     0.118 A 
ATOM     15  HN  UNL     1     -42.349 -52.766  10.748  1.00  0.00     0.186 HD
ENDBRANCH   1   9
BRANCH   7  16
HETATM   16  N   UNL     1     -44.652 -50.458  15.845  1.00  0.00     0.085 N 
HETATM   17  H   UNL     1     -45.339 -49.786  15.502  1.00  0.00     0.313 HD
HETATM   18  H   UNL     1     -43.782 -50.267  15.348  1.00  0.00     0.313 HD
ENDBRANCH   7  16
TORSDOF 2
ENDMDL
MODEL 9
REMARK VINA RESULT:      -4.5      2.881      5.357
REMARK  2 active torsions:
REMARK  status: ('A' for Active; 'I' for Inactive)
REMARK    1  A    between atoms: C_4  and  C_8 
REMARK    2  A    between atoms: C_14  and  N_15 
ROOT
HETATM    1  C   UNL     1     -41.656 -48.229  10.647  1.00  0.00     0.153 C 
HETATM    2  N   UNL     1     -41.261 -46.962  10.066  1.00  0.00    -0.350 N 
HETATM    3  C   UNL     1     -41.461 -45.747  10.649  1.00  0.00     0.218 C 
HETATM    4  O   UNL     1     -40.921 -44.749  10.177  1.00  0.00    -0.274 OA
HETATM    5  C   UNL     1     -42.435 -45.649  11.810  1.00  0.00     0.105 C 
HETATM    6  C   UNL     1     -42.807 -46.967  12.484  1.00  0.00     0.047 C 
HETATM    7  C   UNL     1     -42.990 -48.067  11.435  1.00  0.00     0.245 C 
HETATM    8  H   UNL     1     -40.583 -46.962   9.314  1.00  0.00     0.163 HD
ENDROOT
BRANCH   1   9
HETATM    9  C   UNL     1     -40.510 -48.776  11.458  1.00  0.00     0.001 A 
HETATM   10  C   UNL     1     -39.558 -48.119  12.218  1.00  0.00     0.120 A 
HETATM   11  N   UNL     1     -38.781 -49.082  12.798  1.00  0.00    -0.307 N 
HETATM   12  C   UNL     1     -37.696 -48.887  13.727  1.00  0.00     0.177 C 
HETATM   13  N   UNL     1     -39.137 -50.330  12.442  1.00  0.00    -0.310 N 
HETATM   14  C   UNL     1     -40.175 -50.143  11.624  1.00  0.00     0.118 A 
ATOM     15  HN  UNL     1     -38.713 -51.212  12.730  1.00  0.00     0.186 HD
ENDBRANCH   1   9
BRANCH   7  16
HETATM   16  N   UNL     1     -43.527 -49.285  12.051  1.00  0.00     0.085 N 
HETATM   17  H   UNL     1     -42.820 -50.021  12.063  1.00  0.00     0.313 HD
HETATM   18  H   UNL     1     -44.308 -49.640  11.500  1.00  0.00     0.313 HD
ENDBRANCH   7  16
TORSDOF 2
ENDMDL
