MODEL 1
REMARK VINA RESULT:      -5.0      0.000      0.000
REMARK  6 active torsions:
REMARK  status: ('A' for Active; 'I' for Inactive)
REMARK    1  A    between atoms: C_2  and  O_3 
REMARK    2  A    between atoms: O_3  and  C_4 
REMARK    3  A    between atoms: C_4  and  C_5 
REMARK    4  A    between atoms: C_4  and  C_7 
REMARK       I    between atoms: C_7  and  N_9 
REMARK    5  A    between atoms: N_9  and  C_10 
REMARK    6  A    between atoms: C_16  and  O_17 
ROOT
HETATM    1  C   UNL     1     -45.195 -53.929  13.981  1.00  0.00     0.251 C 
HETATM    2  O   UNL     1     -45.375 -54.543  12.930  1.00  0.00    -0.270 OA
HETATM    3  N   UNL     1     -44.004 -53.325  14.354  1.00  0.00    -0.322 N 
HETATM    4  H   UNL     1     -44.093 -52.598  15.063  1.00  0.00     0.169 HD
ENDROOT
BRANCH   3   5
HETATM    5  C   UNL     1     -42.846 -53.285  13.552  1.00  0.00     0.070 A 
HETATM    6  C   UNL     1     -41.868 -54.274  13.604  1.00  0.00     0.049 A 
HETATM    7  C   UNL     1     -40.782 -54.170  12.750  1.00  0.00     0.090 A 
HETATM    8  N   UNL     1     -40.619 -53.170  11.856  1.00  0.00    -0.372 N 
HETATM    9  C   UNL     1     -41.579 -52.219  11.832  1.00  0.00     0.126 A 
ATOM     10  HN  UNL     1     -39.814 -53.134  11.231  1.00  0.00     0.164 HD
HETATM   11  C   UNL     1     -42.686 -52.219  12.670  1.00  0.00     0.107 A 
BRANCH  11  12
HETATM   12  O   UNL     1     -43.647 -51.246  12.613  1.00  0.00    -0.357 OA
HETATM   13  H   UNL     1     -43.749 -50.961  11.689  1.00  0.00     0.217 HD
ENDBRANCH  11  12
ENDBRANCH   3   5
BRANCH   1  14
HETATM   14  C   UNL     1     -46.310 -53.773  15.037  1.00  0.00     0.213 C 
BRANCH  14  15
HETATM   15  O   UNL     1     -46.068 -54.580  16.195  1.00  0.00    -0.377 OA
BRANCH  15  16
HETATM   16  C   UNL     1     -45.838 -53.813  17.378  1.00  0.00     0.164 C 
HETATM   17  C   UNL     1     -44.476 -54.170  17.938  1.00  0.00     0.033 C 
ENDBRANCH  15  16
ENDBRANCH  14  15
BRANCH  14  18
HETATM   18  C   UNL     1     -46.505 -52.285  15.384  1.00  0.00     0.037 C 
HETATM   19  C   UNL     1     -46.817 -51.416  14.170  1.00  0.00     0.008 C 
ENDBRANCH  14  18
ENDBRANCH   1  14
TORSDOF 6
ENDMDL
MODEL 2
REMARK VINA RESULT:      -4.9      7.970      9.624
REMARK  6 active torsions:
REMARK  status: ('A' for Active; 'I' for Inactive)
REMARK    1  A    between atoms: C_2  and  O_3 
REMARK    2  A    between atoms: O_3  and  C_4 
REMARK    3  A    between atoms: C_4  and  C_5 
REMARK    4  A    between atoms: C_4  and  C_7 
REMARK       I    between atoms: C_7  and  N_9 
REMARK    5  A    between atoms: N_9  and  C_10 
REMARK    6  A    between atoms: C_16  and  O_17 
ROOT
HETATM    1  C   UNL     1     -42.782 -45.639   9.688  1.00  0.00     0.251 C 
HETATM    2  O   UNL     1     -43.543 -44.755   9.294  1.00  0.00    -0.270 OA
HETATM    3  N   UNL     1     -43.034 -46.999   9.604  1.00  0.00    -0.322 N 
HETATM    4  H   UNL     1     -42.208 -47.595   9.657  1.00  0.00     0.169 HD
ENDROOT
BRANCH   3   5
HETATM    5  C   UNL     1     -44.178 -47.562   9.004  1.00  0.00     0.070 A 
HETATM    6  C   UNL     1     -45.436 -47.506   9.598  1.00  0.00     0.049 A 
HETATM    7  C   UNL     1     -46.510 -48.053   8.916  1.00  0.00     0.090 A 
HETATM    8  N   UNL     1     -46.415 -48.629   7.697  1.00  0.00    -0.372 N 
HETATM    9  C   UNL     1     -45.182 -48.678   7.147  1.00  0.00     0.126 A 
ATOM     10  HN  UNL     1     -47.232 -49.008   7.217  1.00  0.00     0.164 HD
HETATM   11  C   UNL     1     -44.041 -48.185   7.766  1.00  0.00     0.107 A 
BRANCH  11  12
HETATM   12  O   UNL     1     -42.807 -48.240   7.176  1.00  0.00    -0.357 OA
HETATM   13  H   UNL     1     -42.254 -48.871   7.668  1.00  0.00     0.217 HD
ENDBRANCH  11  12
ENDBRANCH   3   5
BRANCH   1  14
HETATM   14  C   UNL     1     -41.427 -45.313  10.350  1.00  0.00     0.213 C 
BRANCH  14  15
HETATM   15  O   UNL     1     -41.246 -43.903  10.533  1.00  0.00    -0.377 OA
BRANCH  15  16
HETATM   16  C   UNL     1     -40.553 -43.577  11.740  1.00  0.00     0.164 C 
HETATM   17  C   UNL     1     -40.546 -42.071  11.910  1.00  0.00     0.033 C 
ENDBRANCH  15  16
ENDBRANCH  14  15
BRANCH  14  18
HETATM   18  C   UNL     1     -41.277 -46.103  11.664  1.00  0.00     0.037 C 
HETATM   19  C   UNL     1     -40.157 -47.139  11.621  1.00  0.00     0.008 C 
ENDBRANCH  14  18
ENDBRANCH   1  14
TORSDOF 6
ENDMDL
MODEL 3
REMARK VINA RESULT:      -4.8      2.348      3.235
REMARK  6 active torsions:
REMARK  status: ('A' for Active; 'I' for Inactive)
REMARK    1  A    between atoms: C_2  and  O_3 
REMARK    2  A    between atoms: O_3  and  C_4 
REMARK    3  A    between atoms: C_4  and  C_5 
REMARK    4  A    between atoms: C_4  and  C_7 
REMARK       I    between atoms: C_7  and  N_9 
REMARK    5  A    between atoms: N_9  and  C_10 
REMARK    6  A    between atoms: C_16  and  O_17 
ROOT
HETATM    1  C   UNL     1     -43.462 -52.080  12.875  1.00  0.00     0.251 C 
HETATM    2  O   UNL     1     -43.446 -51.605  14.009  1.00  0.00    -0.270 OA
HETATM    3  N   UNL     1     -42.444 -51.944  11.942  1.00  0.00    -0.322 N 
HETATM    4  H   UNL     1     -42.445 -52.641  11.199  1.00  0.00     0.169 HD
ENDROOT
BRANCH   3   5
HETATM    5  C   UNL     1     -41.223 -51.284  12.187  1.00  0.00     0.070 A 
HETATM    6  C   UNL     1     -40.156 -51.903  12.830  1.00  0.00     0.049 A 
HETATM    7  C   UNL     1     -38.981 -51.188  12.992  1.00  0.00     0.090 A 
HETATM    8  N   UNL     1     -38.801 -49.923  12.550  1.00  0.00    -0.372 N 
HETATM    9  C   UNL     1     -39.855 -49.342  11.937  1.00  0.00     0.126 A 
ATOM     10  HN  UNL     1     -37.916 -49.433  12.674  1.00  0.00     0.164 HD
HETATM   11  C   UNL     1     -41.083 -49.967  11.756  1.00  0.00     0.107 A 
BRANCH  11  12
HETATM   12  O   UNL     1     -42.128 -49.354  11.120  1.00  0.00    -0.357 OA
HETATM   13  H   UNL     1     -41.813 -49.001  10.270  1.00  0.00     0.217 HD
ENDBRANCH  11  12
ENDBRANCH   3   5
BRANCH   1  14
HETATM   14  C   UNL     1     -44.661 -52.895  12.347  1.00  0.00     0.213 C 
BRANCH  14  15
HETATM   15  O   UNL     1     -44.470 -54.304  12.525  1.00  0.00    -0.377 OA
BRANCH  15  16
HETATM   16  C   UNL     1     -45.066 -54.807  13.723  1.00  0.00     0.164 C 
HETATM   17  C   UNL     1     -43.971 -55.108  14.727  1.00  0.00     0.033 C 
ENDBRANCH  15  16
ENDBRANCH  14  15
BRANCH  14  18
HETATM   18  C   UNL     1     -45.967 -52.391  12.990  1.00  0.00     0.037 C 
HETATM   19  C   UNL     1     -46.909 -51.718  11.996  1.00  0.00     0.008 C 
ENDBRANCH  14  18
ENDBRANCH   1  14
TORSDOF 6
ENDMDL
MODEL 4
REMARK VINA RESULT:      -4.8      2.691      3.957
REMARK  6 active torsions:
REMARK  status: ('A' for Active; 'I' for Inactive)
REMARK    1  A    between atoms: C_2  and  O_3 
REMARK    2  A    between atoms: O_3  and  C_4 
REMARK    3  A    between atoms: C_4  and  C_5 
REMARK    4  A    between atoms: C_4  and  C_7 
REMARK       I    between atoms: C_7  and  N_9 
REMARK    5  A    between atoms: N_9  and  C_10 
REMARK    6  A    between atoms: C_16  and  O_17 
ROOT
HETATM    1  C   UNL     1     -43.254 -51.148  13.303  1.00  0.00     0.251 C 
HETATM    2  O   UNL     1     -42.980 -50.509  14.319  1.00  0.00    -0.270 OA
HETATM    3  N   UNL     1     -42.607 -51.017  12.084  1.00  0.00    -0.322 N 
HETATM    4  H   UNL     1     -42.710 -51.812  11.454  1.00  0.00     0.169 HD
ENDROOT
BRANCH   3   5
HETATM    5  C   UNL     1     -41.506 -50.169  11.854  1.00  0.00     0.070 A 
HETATM    6  C   UNL     1     -41.647 -48.796  11.667  1.00  0.00     0.049 A 
HETATM    7  C   UNL     1     -40.503 -48.036  11.485  1.00  0.00     0.090 A 
HETATM    8  N   UNL     1     -39.251 -48.546  11.491  1.00  0.00    -0.372 N 
HETATM    9  C   UNL     1     -39.143 -49.881  11.666  1.00  0.00     0.126 A 
ATOM     10  HN  UNL     1     -38.430 -47.953  11.370  1.00  0.00     0.164 HD
HETATM   11  C   UNL     1     -40.231 -50.729  11.824  1.00  0.00     0.107 A 
BRANCH  11  12
HETATM   12  O   UNL     1     -40.087 -52.077  12.010  1.00  0.00    -0.357 OA
HETATM   13  H   UNL     1     -39.354 -52.230  12.631  1.00  0.00     0.217 HD
ENDBRANCH  11  12
ENDBRANCH   3   5
BRANCH   1  14
HETATM   14  C   UNL     1     -44.394 -52.188  13.275  1.00  0.00     0.213 C 
BRANCH  14  15
HETATM   15  O   UNL     1     -44.371 -53.037  14.429  1.00  0.00    -0.377 OA
BRANCH  15  16
HETATM   16  C   UNL     1     -44.083 -54.402  14.117  1.00  0.00     0.164 C 
HETATM   17  C   UNL     1     -45.380 -55.117  13.797  1.00  0.00     0.033 C 
ENDBRANCH  15  16
ENDBRANCH  14  15
BRANCH  14  18
HETATM   18  C   UNL     1     -45.750 -51.481  13.089  1.00  0.00     0.037 C 
HETATM   19  C   UNL     1     -46.594 -51.447  14.360  1.00  0.00     0.008 C 
ENDBRANCH  14  18
ENDBRANCH   1  14
TORSDOF 6
ENDMDL
MODEL 5
REMARK VINA RESULT:      -4.7      2.305      5.570
REMARK  6 active torsions:
REMARK  status: ('A' for Active; 'I' for Inactive)
REMARK    1  A    between atoms: C_2  and  O_3 
REMARK    2  A    between atoms: O_3  and  C_4 
REMARK    3  A    between atoms: C_4  and  C_5 
REMARK    4  A    between atoms: C_4  and  C_7 
REMARK       I    between atoms: C_7  and  N_9 
REMARK    5  A    between atoms: N_9  and  C_10 
REMARK    6  A    between atoms: C_16  and  O_17 
ROOT
HETATM    1  C   UNL     1     -41.871 -53.698  13.863  1.00  0.00     0.251 C 
HETATM    2  O   UNL     1     -41.994 -53.359  15.039  1.00  0.00    -0.270 OA
HETATM    3  N   UNL     1     -42.920 -54.017  13.014  1.00  0.00    -0.322 N 
HETATM    4  H   UNL     1     -42.704 -53.955  12.020  1.00  0.00     0.169 HD
ENDROOT
BRANCH   3   5
HETATM    5  C   UNL     1     -44.282 -53.945  13.370  1.00  0.00     0.070 A 
HETATM    6  C   UNL     1     -44.946 -54.995  13.997  1.00  0.00     0.049 A 
HETATM    7  C   UNL     1     -46.276 -54.818  14.343  1.00  0.00     0.090 A 
HETATM    8  N   UNL     1     -46.968 -53.679  14.121  1.00  0.00    -0.372 N 
HETATM    9  C   UNL     1     -46.302 -52.679  13.503  1.00  0.00     0.126 A 
ATOM     10  HN  UNL     1     -47.943 -53.579  14.404  1.00  0.00     0.164 HD
HETATM   11  C   UNL     1     -44.980 -52.772  13.090  1.00  0.00     0.107 A 
BRANCH  11  12
HETATM   12  O   UNL     1     -44.330 -51.736  12.476  1.00  0.00    -0.357 OA
HETATM   13  H   UNL     1     -43.562 -52.089  11.997  1.00  0.00     0.217 HD
ENDBRANCH  11  12
ENDBRANCH   3   5
BRANCH   1  14
HETATM   14  C   UNL     1     -40.488 -53.820  13.189  1.00  0.00     0.213 C 
BRANCH  14  15
HETATM   15  O   UNL     1     -40.330 -52.880  12.118  1.00  0.00    -0.377 OA
BRANCH  15  16
HETATM   16  C   UNL     1     -40.062 -51.552  12.571  1.00  0.00     0.164 C 
HETATM   17  C   UNL     1     -41.029 -50.599  11.897  1.00  0.00     0.033 C 
ENDBRANCH  15  16
ENDBRANCH  14  15
BRANCH  14  18
HETATM   18  C   UNL     1     -39.373 -53.705  14.245  1.00  0.00     0.037 C 
HETATM   19  C   UNL     1     -39.012 -55.039  14.892  1.00  0.00     0.008 C 
ENDBRANCH  14  18
ENDBRANCH   1  14
TORSDOF 6
ENDMDL
MODEL 6
REMARK VINA RESULT:      -4.7      1.685      2.036
REMARK  6 active torsions:
REMARK  status: ('A' for Active; 'I' for Inactive)
REMARK    1  A    between atoms: C_2  and  O_3 
REMARK    2  A    between atoms: O_3  and  C_4 
REMARK    3  A    between atoms: C_4  and  C_5 
REMARK    4  A    between atoms: C_4  and  C_7 
REMARK       I    between atoms: C_7  and  N_9 
REMARK    5  A    between atoms: N_9  and  C_10 
REMARK    6  A    between atoms: C_16  and  O_17 
ROOT
HETATM    1  C   UNL     1     -45.108 -53.719  14.286  1.00  0.00     0.251 C 
HETATM    2  O   UNL     1     -45.053 -54.945  14.205  1.00  0.00    -0.270 OA
HETATM    3  N   UNL     1     -44.011 -52.871  14.253  1.00  0.00    -0.322 N 
HETATM    4  H   UNL     1     -44.220 -51.905  14.002  1.00  0.00     0.169 HD
ENDROOT
BRANCH   3   5
HETATM    5  C   UNL     1     -42.681 -53.297  14.067  1.00  0.00     0.070 A 
HETATM    6  C   UNL     1     -41.910 -53.813  15.105  1.00  0.00     0.049 A 
HETATM    7  C   UNL     1     -40.624 -54.242  14.818  1.00  0.00     0.090 A 
HETATM    8  N   UNL     1     -40.073 -54.203  13.585  1.00  0.00    -0.372 N 
HETATM    9  C   UNL     1     -40.840 -53.690  12.597  1.00  0.00     0.126 A 
ATOM     10  HN  UNL     1     -39.128 -54.543  13.408  1.00  0.00     0.164 HD
HETATM   11  C   UNL     1     -42.127 -53.206  12.792  1.00  0.00     0.107 A 
BRANCH  11  12
HETATM   12  O   UNL     1     -42.882 -52.703  11.767  1.00  0.00    -0.357 OA
HETATM   13  H   UNL     1     -42.292 -52.472  11.029  1.00  0.00     0.217 HD
ENDBRANCH  11  12
ENDBRANCH   3   5
BRANCH   1  14
HETATM   14  C   UNL     1     -46.447 -52.970  14.452  1.00  0.00     0.213 C 
BRANCH  14  15
HETATM   15  O   UNL     1     -46.748 -52.710  15.829  1.00  0.00    -0.377 OA
BRANCH  15  16
HETATM   16  C   UNL     1     -46.769 -51.317  16.147  1.00  0.00     0.164 C 
HETATM   17  C   UNL     1     -47.974 -51.032  17.021  1.00  0.00     0.033 C 
ENDBRANCH  15  16
ENDBRANCH  14  15
BRANCH  14  18
HETATM   18  C   UNL     1     -46.447 -51.690  13.596  1.00  0.00     0.037 C 
HETATM   19  C   UNL     1     -46.810 -51.940  12.135  1.00  0.00     0.008 C 
ENDBRANCH  14  18
ENDBRANCH   1  14
TORSDOF 6
ENDMDL
MODEL 7
REMARK VINA RESULT:      -4.6      8.505     10.466
REMARK  6 active torsions:
REMARK  status: ('A' for Active; 'I' for Inactive)
REMARK    1  A    between atoms: C_2  and  O_3 
REMARK    2  A    between atoms: O_3  and  C_4 
REMARK    3  A    between atoms: C_4  and  C_5 
REMARK    4  A    between atoms: C_4  and  C_7 
REMARK       I    between atoms: C_7  and  N_9 
REMARK    5  A    between atoms: N_9  and  C_10 
REMARK    6  A    between atoms: C_16  and  O_17 
ROOT
HETATM    1  C   UNL     1     -41.464 -43.592  11.166  1.00  0.00     0.251 C 
HETATM    2  O   UNL     1     -40.479 -43.709  10.438  1.00  0.00    -0.270 OA
HETATM    3  N   UNL     1     -42.512 -44.497  11.235  1.00  0.00    -0.322 N 
HETATM    4  H   UNL     1     -43.070 -44.446  12.087  1.00  0.00     0.169 HD
ENDROOT
BRANCH   3   5
HETATM    5  C   UNL     1     -42.567 -45.708  10.518  1.00  0.00     0.070 A 
HETATM    6  C   UNL     1     -41.812 -46.822  10.874  1.00  0.00     0.049 A 
HETATM    7  C   UNL     1     -41.961 -47.982  10.132  1.00  0.00     0.090 A 
HETATM    8  N   UNL     1     -42.807 -48.105   9.086  1.00  0.00    -0.372 N 
HETATM    9  C   UNL     1     -43.522 -47.007   8.755  1.00  0.00     0.126 A 
ATOM     10  HN  UNL     1     -42.902 -48.981   8.572  1.00  0.00     0.164 HD
HETATM   11  C   UNL     1     -43.419 -45.791   9.419  1.00  0.00     0.107 A 
BRANCH  11  12
HETATM   12  O   UNL     1     -44.166 -44.700   9.066  1.00  0.00    -0.357 OA
HETATM   13  H   UNL     1     -44.849 -44.981   8.434  1.00  0.00     0.217 HD
ENDBRANCH  11  12
ENDBRANCH   3   5
BRANCH   1  14
HETATM   14  C   UNL     1     -41.649 -42.378  12.100  1.00  0.00     0.213 C 
BRANCH  14  15
HETATM   15  O   UNL     1     -42.575 -42.653  13.159  1.00  0.00    -0.377 OA
BRANCH  15  16
HETATM   16  C   UNL     1     -43.487 -41.581  13.402  1.00  0.00     0.164 C 
HETATM   17  C   UNL     1     -44.039 -41.096  12.077  1.00  0.00     0.033 C 
ENDBRANCH  15  16
ENDBRANCH  14  15
BRANCH  14  18
HETATM   18  C   UNL     1     -40.282 -41.898  12.621  1.00  0.00     0.037 C 
HETATM   19  C   UNL     1     -40.133 -40.379  12.619  1.00  0.00     0.008 C 
ENDBRANCH  14  18
ENDBRANCH   1  14
TORSDOF 6
ENDMDL
MODEL 8
REMARK VINA RESULT:      -4.6      2.633      4.418
REMARK  6 active torsions:
REMARK  status: ('A' for Active; 'I' for Inactive)
REMARK    1  A    between atoms: C_2  and  O_3 
REMARK    2  A    between atoms: O_3  and  C_4 
REMARK    3  A    between atoms: C_4  and  C_5 
REMARK    4  A    between atoms: C_4  and  C_7 
REMARK       I    between atoms: C_7  and  N_9 
REMARK    5  A    between atoms: N_9  and  C_10 
REMARK    6  A    between atoms: C_16  and  O_17 
ROOT
HETATM    1  C   UNL     1     -42.996 -51.445  13.407  1.00  0.00     0.251 C 
HETATM    2  O   UNL     1     -42.697 -50.807  14.415  1.00  0.00    -0.270 OA
HETATM    3  N   UNL     1     -42.475 -51.221  12.141  1.00  0.00    -0.322 N 
HETATM    4  H   UNL     1     -42.555 -52.007  11.497  1.00  0.00     0.169 HD
ENDROOT
BRANCH   3   5
HETATM    5  C   UNL     1     -41.487 -50.261  11.846  1.00  0.00     0.070 A 
HETATM    6  C   UNL     1     -41.795 -48.930  11.578  1.00  0.00     0.049 A 
HETATM    7  C   UNL     1     -40.753 -48.050  11.336  1.00  0.00     0.090 A 
HETATM    8  N   UNL     1     -39.448 -48.403  11.356  1.00  0.00    -0.372 N 
HETATM    9  C   UNL     1     -39.177 -49.702  11.610  1.00  0.00     0.126 A 
ATOM     10  HN  UNL     1     -38.706 -47.723  11.188  1.00  0.00     0.164 HD
HETATM   11  C   UNL     1     -40.153 -50.664  11.834  1.00  0.00     0.107 A 
BRANCH  11  12
HETATM   12  O   UNL     1     -39.845 -51.970  12.099  1.00  0.00    -0.357 OA
HETATM   13  H   UNL     1     -39.978 -52.493  11.290  1.00  0.00     0.217 HD
ENDBRANCH  11  12
ENDBRANCH   3   5
BRANCH   1  14
HETATM   14  C   UNL     1     -44.027 -52.593  13.443  1.00  0.00     0.213 C 
BRANCH  14  15
HETATM   15  O   UNL     1     -45.175 -52.306  12.635  1.00  0.00    -0.377 OA
BRANCH  15  16
HETATM   16  C   UNL     1     -46.412 -52.523  13.317  1.00  0.00     0.164 C 
HETATM   17  C   UNL     1     -46.602 -51.427  14.347  1.00  0.00     0.033 C 
ENDBRANCH  15  16
ENDBRANCH  14  15
BRANCH  14  18
HETATM   18  C   UNL     1     -43.352 -53.923  13.058  1.00  0.00     0.037 C 
HETATM   19  C   UNL     1     -42.246 -54.340  14.023  1.00  0.00     0.008 C 
ENDBRANCH  14  18
ENDBRANCH   1  14
TORSDOF 6
ENDMDL
MODEL 9
REMARK VINA RESULT:      -4.6      6.333      8.316
REMARK  6 active torsions:
REMARK  status: ('A' for Active; 'I' for Inactive)
REMARK    1  A    between atoms: C_2  and  O_3 
REMARK    2  A    between atoms: O_3  and  C_4 
REMARK    3  A    between atoms: C_4  and  C_5 
REMARK    4  A    between atoms: C_4  and  C_7 
REMARK       I    between atoms: C_7  and  N_9 
REMARK    5  A    between atoms: N_9  and  C_10 
REMARK    6  A    between atoms: C_16  and  O_17 
ROOT
HETATM    1  C   UNL     1     -40.804 -46.902  11.521  1.00  0.00     0.251 C 
HETATM    2  O   UNL     1     -41.494 -47.030  12.532  1.00  0.00    -0.270 OA
HETATM    3  N   UNL     1     -39.681 -47.660  11.225  1.00  0.00    -0.322 N 
HETATM    4  H   UNL     1     -39.418 -47.673  10.240  1.00  0.00     0.169 HD
ENDROOT
BRANCH   3   5
HETATM    5  C   UNL     1     -39.204 -48.721  12.019  1.00  0.00     0.070 A 
HETATM    6  C   UNL     1     -38.440 -48.512  13.164  1.00  0.00     0.049 A 
HETATM    7  C   UNL     1     -38.049 -49.616  13.904  1.00  0.00     0.090 A 
HETATM    8  N   UNL     1     -38.375 -50.889  13.589  1.00  0.00    -0.372 N 
HETATM    9  C   UNL     1     -39.109 -51.065  12.468  1.00  0.00     0.126 A 
ATOM     10  HN  UNL     1     -38.081 -51.677  14.166  1.00  0.00     0.164 HD
HETATM   11  C   UNL     1     -39.522 -50.025  11.646  1.00  0.00     0.107 A 
BRANCH  11  12
HETATM   12  O   UNL     1     -40.275 -50.236  10.523  1.00  0.00    -0.357 OA
HETATM   13  H   UNL     1     -41.196 -50.395  10.790  1.00  0.00     0.217 HD
ENDBRANCH  11  12
ENDBRANCH   3   5
BRANCH   1  14
HETATM   14  C   UNL     1     -41.120 -45.841  10.446  1.00  0.00     0.213 C 
BRANCH  14  15
HETATM   15  O   UNL     1     -42.499 -45.451  10.467  1.00  0.00    -0.377 OA
BRANCH  15  16
HETATM   16  C   UNL     1     -43.255 -45.997   9.385  1.00  0.00     0.164 C 
HETATM   17  C   UNL     1     -44.027 -47.202   9.884  1.00  0.00     0.033 C 
ENDBRANCH  15  16
ENDBRANCH  14  15
BRANCH  14  18
HETATM   18  C   UNL     1     -40.165 -44.641  10.590  1.00  0.00     0.037 C 
HETATM   19  C   UNL     1     -39.095 -44.586   9.504  1.00  0.00     0.008 C 
ENDBRANCH  14  18
ENDBRANCH   1  14
TORSDOF 6
ENDMDL
