MODEL 1
REMARK VINA RESULT:      -6.2      0.000      0.000
REMARK  7 active torsions:
REMARK  status: ('A' for Active; 'I' for Inactive)
REMARK    1  A    between atoms: O_1  and  C_2 
REMARK    2  A    between atoms: C_2  and  C_3 
REMARK    3  A    between atoms: C_2  and  C_11 
REMARK    4  A    between atoms: C_3  and  O_4 
REMARK    5  A    between atoms: O_4  and  C_5 
REMARK    6  A    between atoms: C_5  and  C_6 
REMARK    7  A    between atoms: C_11  and  N_12 
ROOT
HETATM    1  N   UNL     1     -43.639 -52.883  13.296  1.00  0.00    -0.339 N 
HETATM    2  C   UNL     1     -44.360 -53.790  12.571  1.00  0.00     0.184 A 
HETATM    3  N   UNL     1     -45.594 -53.905  12.998  1.00  0.00    -0.350 N 
ATOM      4  HN  UNL     1     -46.306 -54.557  12.670  1.00  0.00     0.166 HD
HETATM    5  C   UNL     1     -45.719 -52.961  13.979  1.00  0.00     0.063 A 
HETATM    6  C   UNL     1     -46.855 -52.616  14.720  1.00  0.00     0.077 A 
HETATM    7  C   UNL     1     -46.747 -51.565  15.626  1.00  0.00     0.157 A 
HETATM    8  F   UNL     1     -47.834 -51.190  16.316  1.00  0.00    -0.203 F 
HETATM    9  C   UNL     1     -45.542 -50.890  15.812  1.00  0.00     0.157 A 
HETATM   10  F   UNL     1     -45.483 -49.870  16.679  1.00  0.00    -0.203 F 
HETATM   11  C   UNL     1     -44.388 -51.240  15.106  1.00  0.00     0.077 A 
HETATM   12  C   UNL     1     -44.514 -52.287  14.182  1.00  0.00     0.065 A 
ENDROOT
BRANCH   1  13
HETATM   13  C   UNL     1     -42.235 -52.546  13.146  1.00  0.00     0.164 C 
BRANCH  13  14
HETATM   14  C   UNL     1     -41.262 -53.698  12.839  1.00  0.00     0.160 C 
BRANCH  14  15
HETATM   15  O   UNL     1     -40.630 -53.423  11.579  1.00  0.00    -0.392 OA
HETATM   16  H   UNL     1     -40.015 -52.678  11.699  1.00  0.00     0.210 HD
ENDBRANCH  14  15
BRANCH  14  17
HETATM   17  C   UNL     1     -40.198 -53.932  13.930  1.00  0.00     0.201 C 
BRANCH  17  18
HETATM   18  O   UNL     1     -38.937 -53.390  13.545  1.00  0.00    -0.384 OA
BRANCH  18  19
HETATM   19  C   UNL     1     -38.689 -52.157  14.229  1.00  0.00     0.213 C 
BRANCH  19  20
HETATM   20  C   UNL     1     -38.458 -51.097  13.206  1.00  0.00     0.006 A 
HETATM   21  C   UNL     1     -37.394 -50.928  12.341  1.00  0.00     0.017 A 
HETATM   22  C   UNL     1     -37.529 -49.763  11.531  1.00  0.00     0.008 A 
HETATM   23  C   UNL     1     -38.690 -49.077  11.807  1.00  0.00     0.050 A 
HETATM   24  S   UNL     1     -39.608 -49.835  13.035  1.00  0.00    -0.104 SA
ENDBRANCH  19  20
ENDBRANCH  18  19
ENDBRANCH  17  18
ENDBRANCH  14  17
ENDBRANCH  13  14
ENDBRANCH   1  13
TORSDOF 7
ENDMDL
MODEL 2
REMARK VINA RESULT:      -6.2      4.797      6.685
REMARK  7 active torsions:
REMARK  status: ('A' for Active; 'I' for Inactive)
REMARK    1  A    between atoms: O_1  and  C_2 
REMARK    2  A    between atoms: C_2  and  C_3 
REMARK    3  A    between atoms: C_2  and  C_11 
REMARK    4  A    between atoms: C_3  and  O_4 
REMARK    5  A    between atoms: O_4  and  C_5 
REMARK    6  A    between atoms: C_5  and  C_6 
REMARK    7  A    between atoms: C_11  and  N_12 
ROOT
HETATM    1  N   UNL     1     -41.152 -47.753  11.460  1.00  0.00    -0.339 N 
HETATM    2  C   UNL     1     -40.276 -46.739  11.189  1.00  0.00     0.184 A 
HETATM    3  N   UNL     1     -40.753 -45.884  10.318  1.00  0.00    -0.350 N 
ATOM      4  HN  UNL     1     -40.272 -45.085   9.905  1.00  0.00     0.166 HD
HETATM    5  C   UNL     1     -42.035 -46.296  10.081  1.00  0.00     0.063 A 
HETATM    6  C   UNL     1     -43.012 -45.697   9.278  1.00  0.00     0.077 A 
HETATM    7  C   UNL     1     -44.276 -46.276   9.250  1.00  0.00     0.157 A 
HETATM    8  F   UNL     1     -45.239 -45.693   8.520  1.00  0.00    -0.203 F 
HETATM    9  C   UNL     1     -44.561 -47.430   9.977  1.00  0.00     0.157 A 
HETATM   10  F   UNL     1     -45.798 -47.946   9.940  1.00  0.00    -0.203 F 
HETATM   11  C   UNL     1     -43.592 -48.063  10.760  1.00  0.00     0.077 A 
HETATM   12  C   UNL     1     -42.327 -47.459  10.796  1.00  0.00     0.065 A 
ENDROOT
BRANCH   1  13
HETATM   13  C   UNL     1     -40.939 -48.901  12.323  1.00  0.00     0.164 C 
BRANCH  13  14
HETATM   14  C   UNL     1     -40.652 -50.251  11.642  1.00  0.00     0.160 C 
BRANCH  14  15
HETATM   15  O   UNL     1     -40.202 -49.986  10.303  1.00  0.00    -0.392 OA
HETATM   16  H   UNL     1     -39.307 -50.356  10.200  1.00  0.00     0.210 HD
ENDBRANCH  14  15
BRANCH  14  17
HETATM   17  C   UNL     1     -39.625 -51.126  12.386  1.00  0.00     0.201 C 
BRANCH  17  18
HETATM   18  O   UNL     1     -40.079 -52.473  12.497  1.00  0.00    -0.384 OA
BRANCH  18  19
HETATM   19  C   UNL     1     -41.415 -52.596  11.997  1.00  0.00     0.213 C 
BRANCH  19  20
HETATM   20  C   UNL     1     -42.203 -53.401  12.974  1.00  0.00     0.006 A 
HETATM   21  C   UNL     1     -41.764 -54.191  14.018  1.00  0.00     0.017 A 
HETATM   22  C   UNL     1     -42.835 -54.830  14.708  1.00  0.00     0.008 A 
HETATM   23  C   UNL     1     -44.059 -54.510  14.166  1.00  0.00     0.050 A 
HETATM   24  S   UNL     1     -43.913 -53.447  12.834  1.00  0.00    -0.104 SA
ENDBRANCH  19  20
ENDBRANCH  18  19
ENDBRANCH  17  18
ENDBRANCH  14  17
ENDBRANCH  13  14
ENDBRANCH   1  13
TORSDOF 7
ENDMDL
MODEL 3
REMARK VINA RESULT:      -6.2      3.780      4.964
REMARK  7 active torsions:
REMARK  status: ('A' for Active; 'I' for Inactive)
REMARK    1  A    between atoms: O_1  and  C_2 
REMARK    2  A    between atoms: C_2  and  C_3 
REMARK    3  A    between atoms: C_2  and  C_11 
REMARK    4  A    between atoms: C_3  and  O_4 
REMARK    5  A    between atoms: O_4  and  C_5 
REMARK    6  A    between atoms: C_5  and  C_6 
REMARK    7  A    between atoms: C_11  and  N_12 
ROOT
HETATM    1  N   UNL     1     -41.908 -51.205  12.449  1.00  0.00    -0.339 N 
HETATM    2  C   UNL     1     -41.203 -52.307  12.051  1.00  0.00     0.184 A 
HETATM    3  N   UNL     1     -41.850 -53.424  12.278  1.00  0.00    -0.350 N 
ATOM      4  HN  UNL     1     -41.514 -54.376  12.132  1.00  0.00     0.166 HD
HETATM    5  C   UNL     1     -43.073 -53.036  12.751  1.00  0.00     0.063 A 
HETATM    6  C   UNL     1     -44.173 -53.833  13.087  1.00  0.00     0.077 A 
HETATM    7  C   UNL     1     -45.342 -53.194  13.487  1.00  0.00     0.157 A 
HETATM    8  F   UNL     1     -46.422 -53.937  13.773  1.00  0.00    -0.203 F 
HETATM    9  C   UNL     1     -45.414 -51.805  13.576  1.00  0.00     0.157 A 
HETATM   10  F   UNL     1     -46.565 -51.225  13.947  1.00  0.00    -0.203 F 
HETATM   11  C   UNL     1     -44.318 -50.992  13.277  1.00  0.00     0.077 A 
HETATM   12  C   UNL     1     -43.152 -51.647  12.855  1.00  0.00     0.065 A 
ENDROOT
BRANCH   1  13
HETATM   13  C   UNL     1     -41.481 -49.819  12.408  1.00  0.00     0.164 C 
BRANCH  13  14
HETATM   14  C   UNL     1     -40.277 -49.479  11.511  1.00  0.00     0.160 C 
BRANCH  14  15
HETATM   15  O   UNL     1     -40.593 -49.884  10.170  1.00  0.00    -0.392 OA
HETATM   16  H   UNL     1     -39.779 -49.851   9.637  1.00  0.00     0.210 HD
ENDBRANCH  14  15
BRANCH  14  17
HETATM   17  C   UNL     1     -39.871 -47.992  11.537  1.00  0.00     0.201 C 
BRANCH  17  18
HETATM   18  O   UNL     1     -41.001 -47.153  11.764  1.00  0.00    -0.384 OA
BRANCH  18  19
HETATM   19  C   UNL     1     -41.315 -46.402  10.586  1.00  0.00     0.213 C 
BRANCH  19  20
HETATM   20  C   UNL     1     -42.701 -46.758  10.166  1.00  0.00     0.006 A 
HETATM   21  C   UNL     1     -43.637 -47.548  10.804  1.00  0.00     0.017 A 
HETATM   22  C   UNL     1     -44.845 -47.673  10.058  1.00  0.00     0.008 A 
HETATM   23  C   UNL     1     -44.791 -46.977   8.872  1.00  0.00     0.050 A 
HETATM   24  S   UNL     1     -43.293 -46.181   8.662  1.00  0.00    -0.104 SA
ENDBRANCH  19  20
ENDBRANCH  18  19
ENDBRANCH  17  18
ENDBRANCH  14  17
ENDBRANCH  13  14
ENDBRANCH   1  13
TORSDOF 7
ENDMDL
MODEL 4
REMARK VINA RESULT:      -6.1      4.911      6.851
REMARK  7 active torsions:
REMARK  status: ('A' for Active; 'I' for Inactive)
REMARK    1  A    between atoms: O_1  and  C_2 
REMARK    2  A    between atoms: C_2  and  C_3 
REMARK    3  A    between atoms: C_2  and  C_11 
REMARK    4  A    between atoms: C_3  and  O_4 
REMARK    5  A    between atoms: O_4  and  C_5 
REMARK    6  A    between atoms: C_5  and  C_6 
REMARK    7  A    between atoms: C_11  and  N_12 
ROOT
HETATM    1  N   UNL     1     -41.206 -47.510  11.240  1.00  0.00    -0.339 N 
HETATM    2  C   UNL     1     -40.423 -46.430  10.943  1.00  0.00     0.184 A 
HETATM    3  N   UNL     1     -41.001 -45.610  10.099  1.00  0.00    -0.350 N 
ATOM      4  HN  UNL     1     -40.600 -44.774   9.674  1.00  0.00     0.166 HD
HETATM    5  C   UNL     1     -42.255 -46.120   9.911  1.00  0.00     0.063 A 
HETATM    6  C   UNL     1     -43.308 -45.595   9.152  1.00  0.00     0.077 A 
HETATM    7  C   UNL     1     -44.524 -46.270   9.172  1.00  0.00     0.157 A 
HETATM    8  F   UNL     1     -45.558 -45.761   8.485  1.00  0.00    -0.203 F 
HETATM    9  C   UNL     1     -44.688 -47.447   9.900  1.00  0.00     0.157 A 
HETATM   10  F   UNL     1     -45.881 -48.058   9.908  1.00  0.00    -0.203 F 
HETATM   11  C   UNL     1     -43.641 -48.006  10.637  1.00  0.00     0.077 A 
HETATM   12  C   UNL     1     -42.427 -47.306  10.627  1.00  0.00     0.065 A 
ENDROOT
BRANCH   1  13
HETATM   13  C   UNL     1     -40.869 -48.642  12.084  1.00  0.00     0.164 C 
BRANCH  13  14
HETATM   14  C   UNL     1     -40.942 -50.042  11.448  1.00  0.00     0.160 C 
BRANCH  14  15
HETATM   15  O   UNL     1     -40.248 -49.995  10.191  1.00  0.00    -0.392 OA
HETATM   16  H   UNL     1     -40.066 -49.063   9.973  1.00  0.00     0.210 HD
ENDBRANCH  14  15
BRANCH  14  17
HETATM   17  C   UNL     1     -40.367 -51.167  12.332  1.00  0.00     0.201 C 
BRANCH  17  18
HETATM   18  O   UNL     1     -41.176 -52.338  12.266  1.00  0.00    -0.384 OA
BRANCH  18  19
HETATM   19  C   UNL     1     -41.878 -52.535  13.499  1.00  0.00     0.213 C 
BRANCH  19  20
HETATM   20  C   UNL     1     -43.330 -52.307  13.247  1.00  0.00     0.006 A 
HETATM   21  C   UNL     1     -44.085 -51.166  13.434  1.00  0.00     0.017 A 
HETATM   22  C   UNL     1     -45.458 -51.360  13.105  1.00  0.00     0.008 A 
HETATM   23  C   UNL     1     -45.709 -52.645  12.682  1.00  0.00     0.050 A 
HETATM   24  S   UNL     1     -44.296 -53.608  12.682  1.00  0.00    -0.104 SA
ENDBRANCH  19  20
ENDBRANCH  18  19
ENDBRANCH  17  18
ENDBRANCH  14  17
ENDBRANCH  13  14
ENDBRANCH   1  13
TORSDOF 7
ENDMDL
MODEL 5
REMARK VINA RESULT:      -6.0      1.994      2.771
REMARK  7 active torsions:
REMARK  status: ('A' for Active; 'I' for Inactive)
REMARK    1  A    between atoms: O_1  and  C_2 
REMARK    2  A    between atoms: C_2  and  C_3 
REMARK    3  A    between atoms: C_2  and  C_11 
REMARK    4  A    between atoms: C_3  and  O_4 
REMARK    5  A    between atoms: O_4  and  C_5 
REMARK    6  A    between atoms: C_5  and  C_6 
REMARK    7  A    between atoms: C_11  and  N_12 
ROOT
HETATM    1  N   UNL     1     -42.208 -52.088  12.620  1.00  0.00    -0.339 N 
HETATM    2  C   UNL     1     -42.373 -50.731  12.665  1.00  0.00     0.184 A 
HETATM    3  N   UNL     1     -43.613 -50.387  12.917  1.00  0.00    -0.350 N 
ATOM      4  HN  UNL     1     -44.003 -49.444  12.937  1.00  0.00     0.166 HD
HETATM    5  C   UNL     1     -44.269 -51.563  13.148  1.00  0.00     0.063 A 
HETATM    6  C   UNL     1     -45.602 -51.762  13.526  1.00  0.00     0.077 A 
HETATM    7  C   UNL     1     -46.022 -53.065  13.769  1.00  0.00     0.157 A 
HETATM    8  F   UNL     1     -47.284 -53.274  14.173  1.00  0.00    -0.203 F 
HETATM    9  C   UNL     1     -45.156 -54.146  13.617  1.00  0.00     0.157 A 
HETATM   10  F   UNL     1     -45.594 -55.386  13.879  1.00  0.00    -0.203 F 
HETATM   11  C   UNL     1     -43.831 -53.973  13.209  1.00  0.00     0.077 A 
HETATM   12  C   UNL     1     -43.413 -52.654  12.987  1.00  0.00     0.065 A 
ENDROOT
BRANCH   1  13
HETATM   13  C   UNL     1     -40.995 -52.821  12.308  1.00  0.00     0.164 C 
BRANCH  13  14
HETATM   14  C   UNL     1     -40.162 -53.342  13.494  1.00  0.00     0.160 C 
BRANCH  14  15
HETATM   15  O   UNL     1     -39.531 -54.567  13.089  1.00  0.00    -0.392 OA
HETATM   16  H   UNL     1     -38.568 -54.467  13.193  1.00  0.00     0.210 HD
ENDBRANCH  14  15
BRANCH  14  17
HETATM   17  C   UNL     1     -39.108 -52.343  14.010  1.00  0.00     0.201 C 
BRANCH  17  18
HETATM   18  O   UNL     1     -38.209 -51.961  12.972  1.00  0.00    -0.384 OA
BRANCH  18  19
HETATM   19  C   UNL     1     -37.484 -50.783  13.343  1.00  0.00     0.213 C 
BRANCH  19  20
HETATM   20  C   UNL     1     -38.312 -49.596  12.982  1.00  0.00     0.006 A 
HETATM   21  C   UNL     1     -38.935 -49.289  11.788  1.00  0.00     0.017 A 
HETATM   22  C   UNL     1     -39.611 -48.035  11.832  1.00  0.00     0.008 A 
HETATM   23  C   UNL     1     -39.479 -47.422  13.056  1.00  0.00     0.050 A 
HETATM   24  S   UNL     1     -38.545 -48.355  14.144  1.00  0.00    -0.104 SA
ENDBRANCH  19  20
ENDBRANCH  18  19
ENDBRANCH  17  18
ENDBRANCH  14  17
ENDBRANCH  13  14
ENDBRANCH   1  13
TORSDOF 7
ENDMDL
MODEL 6
REMARK VINA RESULT:      -5.9      2.757      3.698
REMARK  7 active torsions:
REMARK  status: ('A' for Active; 'I' for Inactive)
REMARK    1  A    between atoms: O_1  and  C_2 
REMARK    2  A    between atoms: C_2  and  C_3 
REMARK    3  A    between atoms: C_2  and  C_11 
REMARK    4  A    between atoms: C_3  and  O_4 
REMARK    5  A    between atoms: O_4  and  C_5 
REMARK    6  A    between atoms: C_5  and  C_6 
REMARK    7  A    between atoms: C_11  and  N_12 
ROOT
HETATM    1  N   UNL     1     -42.339 -51.733  12.529  1.00  0.00    -0.339 N 
HETATM    2  C   UNL     1     -41.766 -52.957  12.323  1.00  0.00     0.184 A 
HETATM    3  N   UNL     1     -42.520 -53.940  12.752  1.00  0.00    -0.350 N 
ATOM      4  HN  UNL     1     -42.291 -54.934  12.773  1.00  0.00     0.166 HD
HETATM    5  C   UNL     1     -43.679 -53.345  13.165  1.00  0.00     0.063 A 
HETATM    6  C   UNL     1     -44.846 -53.946  13.651  1.00  0.00     0.077 A 
HETATM    7  C   UNL     1     -45.928 -53.123  13.946  1.00  0.00     0.157 A 
HETATM    8  F   UNL     1     -47.070 -53.683  14.373  1.00  0.00    -0.203 F 
HETATM    9  C   UNL     1     -45.851 -51.741  13.789  1.00  0.00     0.157 A 
HETATM   10  F   UNL     1     -46.921 -50.983  14.066  1.00  0.00    -0.203 F 
HETATM   11  C   UNL     1     -44.685 -51.117  13.337  1.00  0.00     0.077 A 
HETATM   12  C   UNL     1     -43.608 -51.958  13.023  1.00  0.00     0.065 A 
ENDROOT
BRANCH   1  13
HETATM   13  C   UNL     1     -41.769 -50.430  12.237  1.00  0.00     0.164 C 
BRANCH  13  14
HETATM   14  C   UNL     1     -40.388 -50.400  11.560  1.00  0.00     0.160 C 
BRANCH  14  15
HETATM   15  O   UNL     1     -40.561 -49.919  10.217  1.00  0.00    -0.392 OA
HETATM   16  H   UNL     1     -41.416 -49.456  10.164  1.00  0.00     0.210 HD
ENDBRANCH  14  15
BRANCH  14  17
HETATM   17  C   UNL     1     -39.340 -49.547  12.301  1.00  0.00     0.201 C 
BRANCH  17  18
HETATM   18  O   UNL     1     -39.944 -48.772  13.334  1.00  0.00    -0.384 OA
BRANCH  18  19
HETATM   19  C   UNL     1     -39.522 -47.406  13.252  1.00  0.00     0.213 C 
BRANCH  19  20
HETATM   20  C   UNL     1     -40.368 -46.720  12.234  1.00  0.00     0.006 A 
HETATM   21  C   UNL     1     -39.998 -46.105  11.053  1.00  0.00     0.017 A 
HETATM   22  C   UNL     1     -41.107 -45.531  10.366  1.00  0.00     0.008 A 
HETATM   23  C   UNL     1     -42.288 -45.721  11.046  1.00  0.00     0.050 A 
HETATM   24  S   UNL     1     -42.058 -46.587  12.503  1.00  0.00    -0.104 SA
ENDBRANCH  19  20
ENDBRANCH  18  19
ENDBRANCH  17  18
ENDBRANCH  14  17
ENDBRANCH  13  14
ENDBRANCH   1  13
TORSDOF 7
ENDMDL
MODEL 7
REMARK VINA RESULT:      -5.8      3.109      3.958
REMARK  7 active torsions:
REMARK  status: ('A' for Active; 'I' for Inactive)
REMARK    1  A    between atoms: O_1  and  C_2 
REMARK    2  A    between atoms: C_2  and  C_3 
REMARK    3  A    between atoms: C_2  and  C_11 
REMARK    4  A    between atoms: C_3  and  O_4 
REMARK    5  A    between atoms: O_4  and  C_5 
REMARK    6  A    between atoms: C_5  and  C_6 
REMARK    7  A    between atoms: C_11  and  N_12 
ROOT
HETATM    1  N   UNL     1     -42.734 -51.332  13.380  1.00  0.00    -0.339 N 
HETATM    2  C   UNL     1     -43.702 -50.473  12.940  1.00  0.00     0.184 A 
HETATM    3  N   UNL     1     -44.855 -51.070  12.758  1.00  0.00    -0.350 N 
ATOM      4  HN  UNL     1     -45.709 -50.665  12.375  1.00  0.00     0.166 HD
HETATM    5  C   UNL     1     -44.664 -52.352  13.193  1.00  0.00     0.063 A 
HETATM    6  C   UNL     1     -45.595 -53.393  13.281  1.00  0.00     0.077 A 
HETATM    7  C   UNL     1     -45.170 -54.601  13.825  1.00  0.00     0.157 A 
HETATM    8  F   UNL     1     -46.057 -55.599  13.958  1.00  0.00    -0.203 F 
HETATM    9  C   UNL     1     -43.855 -54.783  14.248  1.00  0.00     0.157 A 
HETATM   10  F   UNL     1     -43.490 -55.956  14.785  1.00  0.00    -0.203 F 
HETATM   11  C   UNL     1     -42.901 -53.768  14.139  1.00  0.00     0.077 A 
HETATM   12  C   UNL     1     -43.346 -52.549  13.609  1.00  0.00     0.065 A 
ENDROOT
BRANCH   1  13
HETATM   13  C   UNL     1     -41.334 -51.036  13.627  1.00  0.00     0.164 C 
BRANCH  13  14
HETATM   14  C   UNL     1     -40.317 -51.512  12.575  1.00  0.00     0.160 C 
BRANCH  14  15
HETATM   15  O   UNL     1     -41.006 -51.656  11.323  1.00  0.00    -0.392 OA
HETATM   16  H   UNL     1     -41.295 -52.581  11.234  1.00  0.00     0.210 HD
ENDBRANCH  14  15
BRANCH  14  17
HETATM   17  C   UNL     1     -39.099 -50.582  12.409  1.00  0.00     0.201 C 
BRANCH  17  18
HETATM   18  O   UNL     1     -39.319 -49.623  11.378  1.00  0.00    -0.384 OA
BRANCH  18  19
HETATM   19  C   UNL     1     -39.556 -48.327  11.938  1.00  0.00     0.213 C 
BRANCH  19  20
HETATM   20  C   UNL     1     -40.688 -47.701  11.197  1.00  0.00     0.006 A 
HETATM   21  C   UNL     1     -41.806 -48.291  10.638  1.00  0.00     0.017 A 
HETATM   22  C   UNL     1     -42.648 -47.349   9.979  1.00  0.00     0.008 A 
HETATM   23  C   UNL     1     -42.144 -46.070  10.051  1.00  0.00     0.050 A 
HETATM   24  S   UNL     1     -40.666 -46.009  10.908  1.00  0.00    -0.104 SA
ENDBRANCH  19  20
ENDBRANCH  18  19
ENDBRANCH  17  18
ENDBRANCH  14  17
ENDBRANCH  13  14
ENDBRANCH   1  13
TORSDOF 7
ENDMDL
MODEL 8
REMARK VINA RESULT:      -5.8      3.605      6.838
REMARK  7 active torsions:
REMARK  status: ('A' for Active; 'I' for Inactive)
REMARK    1  A    between atoms: O_1  and  C_2 
REMARK    2  A    between atoms: C_2  and  C_3 
REMARK    3  A    between atoms: C_2  and  C_11 
REMARK    4  A    between atoms: C_3  and  O_4 
REMARK    5  A    between atoms: O_4  and  C_5 
REMARK    6  A    between atoms: C_5  and  C_6 
REMARK    7  A    between atoms: C_11  and  N_12 
ROOT
HETATM    1  N   UNL     1     -39.988 -50.356  12.429  1.00  0.00    -0.339 N 
HETATM    2  C   UNL     1     -38.743 -50.164  11.899  1.00  0.00     0.184 A 
HETATM    3  N   UNL     1     -38.596 -48.965  11.388  1.00  0.00    -0.350 N 
ATOM      4  HN  UNL     1     -37.791 -48.602  10.879  1.00  0.00     0.166 HD
HETATM    5  C   UNL     1     -39.758 -48.308  11.685  1.00  0.00     0.063 A 
HETATM    6  C   UNL     1     -40.100 -46.976  11.426  1.00  0.00     0.077 A 
HETATM    7  C   UNL     1     -41.329 -46.518  11.889  1.00  0.00     0.157 A 
HETATM    8  F   UNL     1     -41.658 -45.233  11.689  1.00  0.00    -0.203 F 
HETATM    9  C   UNL     1     -42.207 -47.360  12.568  1.00  0.00     0.157 A 
HETATM   10  F   UNL     1     -43.374 -46.875  13.017  1.00  0.00    -0.203 F 
HETATM   11  C   UNL     1     -41.900 -48.702  12.808  1.00  0.00     0.077 A 
HETATM   12  C   UNL     1     -40.650 -49.147  12.355  1.00  0.00     0.065 A 
ENDROOT
BRANCH   1  13
HETATM   13  C   UNL     1     -40.520 -51.571  13.020  1.00  0.00     0.164 C 
BRANCH  13  14
HETATM   14  C   UNL     1     -41.427 -52.445  12.136  1.00  0.00     0.160 C 
BRANCH  14  15
HETATM   15  O   UNL     1     -40.598 -53.405  11.462  1.00  0.00    -0.392 OA
HETATM   16  H   UNL     1     -40.189 -53.983  12.130  1.00  0.00     0.210 HD
ENDBRANCH  14  15
BRANCH  14  17
HETATM   17  C   UNL     1     -42.555 -53.161  12.905  1.00  0.00     0.201 C 
BRANCH  17  18
HETATM   18  O   UNL     1     -43.796 -53.059  12.212  1.00  0.00    -0.384 OA
BRANCH  18  19
HETATM   19  C   UNL     1     -44.776 -53.919  12.804  1.00  0.00     0.213 C 
BRANCH  19  20
HETATM   20  C   UNL     1     -45.584 -53.110  13.762  1.00  0.00     0.006 A 
HETATM   21  C   UNL     1     -46.195 -51.884  13.579  1.00  0.00     0.017 A 
HETATM   22  C   UNL     1     -46.853 -51.422  14.756  1.00  0.00     0.008 A 
HETATM   23  C   UNL     1     -46.721 -52.308  15.801  1.00  0.00     0.050 A 
HETATM   24  S   UNL     1     -45.808 -53.686  15.362  1.00  0.00    -0.104 SA
ENDBRANCH  19  20
ENDBRANCH  18  19
ENDBRANCH  17  18
ENDBRANCH  14  17
ENDBRANCH  13  14
ENDBRANCH   1  13
TORSDOF 7
ENDMDL
MODEL 9
REMARK VINA RESULT:      -5.7      2.029      2.696
REMARK  7 active torsions:
REMARK  status: ('A' for Active; 'I' for Inactive)
REMARK    1  A    between atoms: O_1  and  C_2 
REMARK    2  A    between atoms: C_2  and  C_3 
REMARK    3  A    between atoms: C_2  and  C_11 
REMARK    4  A    between atoms: C_3  and  O_4 
REMARK    5  A    between atoms: O_4  and  C_5 
REMARK    6  A    between atoms: C_5  and  C_6 
REMARK    7  A    between atoms: C_11  and  N_12 
ROOT
HETATM    1  N   UNL     1     -42.372 -53.211  14.134  1.00  0.00    -0.339 N 
HETATM    2  C   UNL     1     -42.126 -52.994  15.461  1.00  0.00     0.184 A 
HETATM    3  N   UNL     1     -43.075 -52.298  16.038  1.00  0.00    -0.350 N 
ATOM      4  HN  UNL     1     -43.094 -51.951  16.997  1.00  0.00     0.166 HD
HETATM    5  C   UNL     1     -44.033 -52.137  15.076  1.00  0.00     0.063 A 
HETATM    6  C   UNL     1     -45.286 -51.522  15.184  1.00  0.00     0.077 A 
HETATM    7  C   UNL     1     -46.118 -51.543  14.070  1.00  0.00     0.157 A 
HETATM    8  F   UNL     1     -47.340 -50.997  14.165  1.00  0.00    -0.203 F 
HETATM    9  C   UNL     1     -45.714 -52.132  12.874  1.00  0.00     0.157 A 
HETATM   10  F   UNL     1     -46.553 -52.149  11.828  1.00  0.00    -0.203 F 
HETATM   11  C   UNL     1     -44.455 -52.722  12.735  1.00  0.00     0.077 A 
HETATM   12  C   UNL     1     -43.633 -52.714  13.870  1.00  0.00     0.065 A 
ENDROOT
BRANCH   1  13
HETATM   13  C   UNL     1     -41.517 -53.886  13.174  1.00  0.00     0.164 C 
BRANCH  13  14
HETATM   14  C   UNL     1     -40.641 -53.003  12.268  1.00  0.00     0.160 C 
BRANCH  14  15
HETATM   15  O   UNL     1     -41.386 -52.714  11.075  1.00  0.00    -0.392 OA
HETATM   16  H   UNL     1     -41.963 -53.473  10.880  1.00  0.00     0.210 HD
ENDBRANCH  14  15
BRANCH  14  17
HETATM   17  C   UNL     1     -40.167 -51.695  12.932  1.00  0.00     0.201 C 
BRANCH  17  18
HETATM   18  O   UNL     1     -38.771 -51.490  12.729  1.00  0.00    -0.384 OA
BRANCH  18  19
HETATM   19  C   UNL     1     -38.546 -50.381  11.852  1.00  0.00     0.213 C 
BRANCH  19  20
HETATM   20  C   UNL     1     -38.545 -49.135  12.670  1.00  0.00     0.006 A 
HETATM   21  C   UNL     1     -37.761 -48.798  13.757  1.00  0.00     0.017 A 
HETATM   22  C   UNL     1     -38.088 -47.517  14.290  1.00  0.00     0.008 A 
HETATM   23  C   UNL     1     -39.114 -46.918  13.596  1.00  0.00     0.050 A 
HETATM   24  S   UNL     1     -39.678 -47.897  12.311  1.00  0.00    -0.104 SA
ENDBRANCH  19  20
ENDBRANCH  18  19
ENDBRANCH  17  18
ENDBRANCH  14  17
ENDBRANCH  13  14
ENDBRANCH   1  13
TORSDOF 7
ENDMDL
