MODEL 1
REMARK VINA RESULT:      -6.7      0.000      0.000
REMARK  2 active torsions:
REMARK  status: ('A' for Active; 'I' for Inactive)
REMARK    1  A    between atoms: C_2  and  N_9 
REMARK       I    between atoms: N_9  and  C_10 
REMARK       I    between atoms: C_10  and  N_12 
REMARK    2  A    between atoms: N_12  and  C_13 
ROOT
HETATM    1  N   UNL     1     -43.859 -51.252  12.673  1.00  0.00    -0.339 N 
HETATM    2  C   UNL     1     -42.497 -51.038  12.618  1.00  0.00     0.300 C 
HETATM    3  O   UNL     1     -41.682 -51.765  13.167  1.00  0.00    -0.254 OA
HETATM    4  N   UNL     1     -42.184 -49.954  11.823  1.00  0.00    -0.189 NA
HETATM    5  H   UNL     1     -44.417 -50.407  12.671  1.00  0.00     0.164 HD
HETATM    6  H   UNL     1     -42.698 -49.999  10.953  1.00  0.00     0.140 HD
ENDROOT
BRANCH   1   7
HETATM    7  C   UNL     1     -44.455 -52.465  13.259  1.00  0.00     0.030 C 
HETATM    8  C   UNL     1     -43.869 -53.691  12.514  1.00  0.00     0.038 C 
HETATM    9  C   UNL     1     -44.156 -52.642  14.775  1.00  0.00     0.031 C 
HETATM   10  C   UNL     1     -44.334 -51.404  15.649  1.00  0.00     0.002 C 
HETATM   11  C   UNL     1     -45.757 -50.949  15.963  1.00  0.00     0.000 C 
HETATM   12  C   UNL     1     -46.907 -51.590  15.201  1.00  0.00     0.000 C 
HETATM   13  C   UNL     1     -46.838 -51.441  13.686  1.00  0.00     0.002 C 
HETATM   14  C   UNL     1     -45.979 -52.493  12.987  1.00  0.00     0.031 C 
ENDBRANCH   1   7
BRANCH   4  15
HETATM   15  C   UNL     1     -40.838 -49.748  11.612  1.00  0.00     0.147 C 
HETATM   16  N   UNL     1     -40.136 -50.247  10.622  1.00  0.00    -0.284 N 
HETATM   17  N   UNL     1     -38.797 -49.921  10.746  1.00  0.00    -0.304 N 
ATOM     18  HN  UNL     1     -40.527 -50.802   9.862  1.00  0.00     0.188 HD
HETATM   19  C   UNL     1     -38.584 -49.110  11.761  1.00  0.00     0.159 C 
ATOM     20  HN  UNL     1     -38.064 -50.267  10.126  1.00  0.00     0.186 HD
HETATM   21  S   UNL     1     -39.992 -48.671  12.637  1.00  0.00    -0.052 SA
ENDBRANCH   4  15
TORSDOF 2
ENDMDL
MODEL 2
REMARK VINA RESULT:      -6.0      2.304      2.848
REMARK  2 active torsions:
REMARK  status: ('A' for Active; 'I' for Inactive)
REMARK    1  A    between atoms: C_2  and  N_9 
REMARK       I    between atoms: N_9  and  C_10 
REMARK       I    between atoms: C_10  and  N_12 
REMARK    2  A    between atoms: N_12  and  C_13 
ROOT
HETATM    1  N   UNL     1     -42.630 -50.800  12.093  1.00  0.00    -0.339 N 
HETATM    2  C   UNL     1     -42.086 -49.531  12.067  1.00  0.00     0.300 C 
HETATM    3  O   UNL     1     -41.557 -49.009  13.038  1.00  0.00    -0.254 OA
HETATM    4  N   UNL     1     -42.163 -48.971  10.808  1.00  0.00    -0.189 NA
HETATM    5  H   UNL     1     -43.439 -50.922  11.497  1.00  0.00     0.164 HD
HETATM    6  H   UNL     1     -41.859 -49.636  10.110  1.00  0.00     0.140 HD
ENDROOT
BRANCH   1   7
HETATM    7  C   UNL     1     -42.480 -51.710  13.241  1.00  0.00     0.030 C 
HETATM    8  C   UNL     1     -40.980 -51.741  13.632  1.00  0.00     0.038 C 
HETATM    9  C   UNL     1     -43.290 -51.278  14.496  1.00  0.00     0.031 C 
HETATM   10  C   UNL     1     -44.735 -50.850  14.254  1.00  0.00     0.002 C 
HETATM   11  C   UNL     1     -45.760 -51.937  13.943  1.00  0.00     0.000 C 
HETATM   12  C   UNL     1     -45.258 -53.343  13.648  1.00  0.00     0.000 C 
HETATM   13  C   UNL     1     -44.295 -53.449  12.472  1.00  0.00     0.002 C 
HETATM   14  C   UNL     1     -42.837 -53.158  12.822  1.00  0.00     0.031 C 
ENDBRANCH   1   7
BRANCH   4  15
HETATM   15  C   UNL     1     -41.529 -47.755  10.666  1.00  0.00     0.147 C 
HETATM   16  N   UNL     1     -40.231 -47.569  10.659  1.00  0.00    -0.284 N 
HETATM   17  N   UNL     1     -39.920 -46.222  10.584  1.00  0.00    -0.304 N 
ATOM     18  HN  UNL     1     -39.541 -48.318  10.704  1.00  0.00     0.188 HD
HETATM   19  C   UNL     1     -40.998 -45.481  10.433  1.00  0.00     0.159 C 
ATOM     20  HN  UNL     1     -38.972 -45.850  10.640  1.00  0.00     0.186 HD
HETATM   21  S   UNL     1     -42.469 -46.360  10.359  1.00  0.00    -0.052 SA
ENDBRANCH   4  15
TORSDOF 2
ENDMDL
MODEL 3
REMARK VINA RESULT:      -5.9      1.602      1.853
REMARK  2 active torsions:
REMARK  status: ('A' for Active; 'I' for Inactive)
REMARK    1  A    between atoms: C_2  and  N_9 
REMARK       I    between atoms: N_9  and  C_10 
REMARK       I    between atoms: C_10  and  N_12 
REMARK    2  A    between atoms: N_12  and  C_13 
ROOT
HETATM    1  N   UNL     1     -43.790 -52.874  14.427  1.00  0.00    -0.339 N 
HETATM    2  C   UNL     1     -43.246 -52.324  13.284  1.00  0.00     0.300 C 
HETATM    3  O   UNL     1     -43.722 -52.490  12.169  1.00  0.00    -0.254 OA
HETATM    4  N   UNL     1     -42.156 -51.528  13.571  1.00  0.00    -0.189 NA
HETATM    5  H   UNL     1     -43.112 -53.125  15.136  1.00  0.00     0.164 HD
HETATM    6  H   UNL     1     -42.366 -50.913  14.345  1.00  0.00     0.140 HD
ENDROOT
BRANCH   1   7
HETATM    7  C   UNL     1     -45.085 -53.575  14.439  1.00  0.00     0.030 C 
HETATM    8  C   UNL     1     -44.925 -54.885  13.625  1.00  0.00     0.038 C 
HETATM    9  C   UNL     1     -45.580 -53.957  15.863  1.00  0.00     0.031 C 
HETATM   10  C   UNL     1     -45.477 -52.871  16.930  1.00  0.00     0.002 C 
HETATM   11  C   UNL     1     -46.472 -51.716  16.872  1.00  0.00     0.000 C 
HETATM   12  C   UNL     1     -47.346 -51.573  15.635  1.00  0.00     0.000 C 
HETATM   13  C   UNL     1     -46.584 -51.419  14.324  1.00  0.00     0.002 C 
HETATM   14  C   UNL     1     -46.150 -52.738  13.688  1.00  0.00     0.031 C 
ENDBRANCH   1   7
BRANCH   4  15
HETATM   15  C   UNL     1     -41.631 -50.841  12.498  1.00  0.00     0.147 C 
HETATM   16  N   UNL     1     -41.004 -51.381  11.481  1.00  0.00    -0.284 N 
HETATM   17  N   UNL     1     -40.526 -50.411  10.616  1.00  0.00    -0.304 N 
ATOM     18  HN  UNL     1     -40.884 -52.384  11.344  1.00  0.00     0.188 HD
HETATM   19  C   UNL     1     -40.911 -49.204  10.978  1.00  0.00     0.159 C 
ATOM     20  HN  UNL     1     -39.947 -50.607   9.800  1.00  0.00     0.186 HD
HETATM   21  S   UNL     1     -41.890 -49.154  12.385  1.00  0.00    -0.052 SA
ENDBRANCH   4  15
TORSDOF 2
ENDMDL
MODEL 4
REMARK VINA RESULT:      -5.6      6.332      8.142
REMARK  2 active torsions:
REMARK  status: ('A' for Active; 'I' for Inactive)
REMARK    1  A    between atoms: C_2  and  N_9 
REMARK       I    between atoms: N_9  and  C_10 
REMARK       I    between atoms: C_10  and  N_12 
REMARK    2  A    between atoms: N_12  and  C_13 
ROOT
HETATM    1  N   UNL     1     -42.910 -44.297  11.720  1.00  0.00    -0.339 N 
HETATM    2  C   UNL     1     -42.831 -45.363  10.846  1.00  0.00     0.300 C 
HETATM    3  O   UNL     1     -42.163 -46.363  11.069  1.00  0.00    -0.254 OA
HETATM    4  N   UNL     1     -43.641 -45.179   9.744  1.00  0.00    -0.189 NA
HETATM    5  H   UNL     1     -43.013 -43.395  11.272  1.00  0.00     0.164 HD
HETATM    6  H   UNL     1     -44.556 -44.862  10.031  1.00  0.00     0.140 HD
ENDROOT
BRANCH   1   7
HETATM    7  C   UNL     1     -42.332 -44.328  13.074  1.00  0.00     0.030 C 
HETATM    8  C   UNL     1     -42.878 -45.587  13.796  1.00  0.00     0.038 C 
HETATM    9  C   UNL     1     -40.779 -44.405  13.092  1.00  0.00     0.031 C 
HETATM   10  C   UNL     1     -40.043 -43.459  12.148  1.00  0.00     0.002 C 
HETATM   11  C   UNL     1     -39.994 -41.979  12.515  1.00  0.00     0.000 C 
HETATM   12  C   UNL     1     -40.874 -41.484  13.653  1.00  0.00     0.000 C 
HETATM   13  C   UNL     1     -42.366 -41.729  13.464  1.00  0.00     0.002 C 
HETATM   14  C   UNL     1     -42.837 -43.116  13.895  1.00  0.00     0.031 C 
ENDBRANCH   1   7
BRANCH   4  15
HETATM   15  C   UNL     1     -43.716 -46.253   8.884  1.00  0.00     0.147 C 
HETATM   16  N   UNL     1     -42.836 -46.551   7.958  1.00  0.00    -0.284 N 
HETATM   17  N   UNL     1     -43.248 -47.640   7.210  1.00  0.00    -0.304 N 
ATOM     18  HN  UNL     1     -41.963 -46.046   7.809  1.00  0.00     0.188 HD
HETATM   19  C   UNL     1     -44.361 -48.163   7.682  1.00  0.00     0.159 C 
ATOM     20  HN  UNL     1     -42.750 -47.994   6.393  1.00  0.00     0.186 HD
HETATM   21  S   UNL     1     -44.987 -47.381   9.074  1.00  0.00    -0.052 SA
ENDBRANCH   4  15
TORSDOF 2
ENDMDL
MODEL 5
REMARK VINA RESULT:      -5.6      3.925      6.238
REMARK  2 active torsions:
REMARK  status: ('A' for Active; 'I' for Inactive)
REMARK    1  A    between atoms: C_2  and  N_9 
REMARK       I    between atoms: N_9  and  C_10 
REMARK       I    between atoms: C_10  and  N_12 
REMARK    2  A    between atoms: N_12  and  C_13 
ROOT
HETATM    1  N   UNL     1     -40.773 -48.162  11.103  1.00  0.00    -0.339 N 
HETATM    2  C   UNL     1     -41.074 -49.344  11.750  1.00  0.00     0.300 C 
HETATM    3  O   UNL     1     -42.011 -49.462  12.526  1.00  0.00    -0.254 OA
HETATM    4  N   UNL     1     -40.232 -50.366  11.360  1.00  0.00    -0.189 NA
HETATM    5  H   UNL     1     -39.784 -48.014  10.940  1.00  0.00     0.164 HD
HETATM    6  H   UNL     1     -40.142 -50.380  10.354  1.00  0.00     0.140 HD
ENDROOT
BRANCH   1   7
HETATM    7  C   UNL     1     -41.644 -46.977  11.157  1.00  0.00     0.030 C 
HETATM    8  C   UNL     1     -43.054 -47.398  10.667  1.00  0.00     0.038 C 
HETATM    9  C   UNL     1     -41.797 -46.373  12.582  1.00  0.00     0.031 C 
HETATM   10  C   UNL     1     -40.512 -46.210  13.389  1.00  0.00     0.002 C 
HETATM   11  C   UNL     1     -39.558 -45.087  12.995  1.00  0.00     0.000 C 
HETATM   12  C   UNL     1     -39.805 -44.352  11.685  1.00  0.00     0.000 C 
HETATM   13  C   UNL     1     -39.809 -45.234  10.443  1.00  0.00     0.002 C 
HETATM   14  C   UNL     1     -41.149 -45.907  10.152  1.00  0.00     0.031 C 
ENDBRANCH   1   7
BRANCH   4  15
HETATM   15  C   UNL     1     -40.545 -51.610  11.864  1.00  0.00     0.147 C 
HETATM   16  N   UNL     1     -41.299 -52.505  11.271  1.00  0.00    -0.284 N 
HETATM   17  N   UNL     1     -41.487 -53.613  12.078  1.00  0.00    -0.304 N 
ATOM     18  HN  UNL     1     -41.694 -52.397  10.337  1.00  0.00     0.188 HD
HETATM   19  C   UNL     1     -40.781 -53.534  13.187  1.00  0.00     0.159 C 
ATOM     20  HN  UNL     1     -42.099 -54.395  11.843  1.00  0.00     0.186 HD
HETATM   21  S   UNL     1     -39.825 -52.117  13.330  1.00  0.00    -0.052 SA
ENDBRANCH   4  15
TORSDOF 2
ENDMDL
MODEL 6
REMARK VINA RESULT:      -5.2      2.105      2.408
REMARK  2 active torsions:
REMARK  status: ('A' for Active; 'I' for Inactive)
REMARK    1  A    between atoms: C_2  and  N_9 
REMARK       I    between atoms: N_9  and  C_10 
REMARK       I    between atoms: C_10  and  N_12 
REMARK    2  A    between atoms: N_12  and  C_13 
ROOT
HETATM    1  N   UNL     1     -42.307 -52.164  13.779  1.00  0.00    -0.339 N 
HETATM    2  C   UNL     1     -41.828 -51.303  12.812  1.00  0.00     0.300 C 
HETATM    3  O   UNL     1     -41.370 -51.684  11.744  1.00  0.00    -0.254 OA
HETATM    4  N   UNL     1     -41.994 -49.983  13.178  1.00  0.00    -0.189 NA
HETATM    5  H   UNL     1     -42.164 -51.847  14.730  1.00  0.00     0.164 HD
HETATM    6  H   UNL     1     -42.929 -49.833  13.533  1.00  0.00     0.140 HD
ENDROOT
BRANCH   1   7
HETATM    7  C   UNL     1     -42.464 -53.611  13.554  1.00  0.00     0.030 C 
HETATM    8  C   UNL     1     -41.141 -54.145  12.947  1.00  0.00     0.038 C 
HETATM    9  C   UNL     1     -42.753 -54.420  14.850  1.00  0.00     0.031 C 
HETATM   10  C   UNL     1     -43.809 -53.841  15.788  1.00  0.00     0.002 C 
HETATM   11  C   UNL     1     -45.273 -53.949  15.371  1.00  0.00     0.000 C 
HETATM   12  C   UNL     1     -45.590 -54.397  13.951  1.00  0.00     0.000 C 
HETATM   13  C   UNL     1     -44.996 -53.523  12.853  1.00  0.00     0.002 C 
HETATM   14  C   UNL     1     -43.554 -53.868  12.485  1.00  0.00     0.031 C 
ENDBRANCH   1   7
BRANCH   4  15
HETATM   15  C   UNL     1     -41.658 -49.058  12.214  1.00  0.00     0.147 C 
HETATM   16  N   UNL     1     -42.062 -49.077  10.966  1.00  0.00    -0.284 N 
HETATM   17  N   UNL     1     -41.478 -48.057  10.236  1.00  0.00    -0.304 N 
ATOM     18  HN  UNL     1     -42.722 -49.755  10.585  1.00  0.00     0.188 HD
HETATM   19  C   UNL     1     -40.750 -47.267  10.998  1.00  0.00     0.159 C 
ATOM     20  HN  UNL     1     -41.596 -47.932   9.231  1.00  0.00     0.186 HD
HETATM   21  S   UNL     1     -40.728 -47.694  12.659  1.00  0.00    -0.052 SA
ENDBRANCH   4  15
TORSDOF 2
ENDMDL
MODEL 7
REMARK VINA RESULT:      -5.2      2.111      3.185
REMARK  2 active torsions:
REMARK  status: ('A' for Active; 'I' for Inactive)
REMARK    1  A    between atoms: C_2  and  N_9 
REMARK       I    between atoms: N_9  and  C_10 
REMARK       I    between atoms: C_10  and  N_12 
REMARK    2  A    between atoms: N_12  and  C_13 
ROOT
HETATM    1  N   UNL     1     -42.807 -51.396  12.440  1.00  0.00    -0.339 N 
HETATM    2  C   UNL     1     -42.526 -50.067  12.198  1.00  0.00     0.300 C 
HETATM    3  O   UNL     1     -43.087 -49.147  12.777  1.00  0.00    -0.254 OA
HETATM    4  N   UNL     1     -41.502 -49.921  11.283  1.00  0.00    -0.189 NA
HETATM    5  H   UNL     1     -42.719 -51.997  11.630  1.00  0.00     0.164 HD
HETATM    6  H   UNL     1     -40.736 -50.539  11.514  1.00  0.00     0.140 HD
ENDROOT
BRANCH   1   7
HETATM    7  C   UNL     1     -43.690 -51.841  13.532  1.00  0.00     0.030 C 
HETATM    8  C   UNL     1     -45.091 -51.220  13.294  1.00  0.00     0.038 C 
HETATM    9  C   UNL     1     -43.860 -53.384  13.613  1.00  0.00     0.031 C 
HETATM   10  C   UNL     1     -42.584 -54.213  13.498  1.00  0.00     0.002 C 
HETATM   11  C   UNL     1     -41.637 -54.236  14.694  1.00  0.00     0.000 C 
HETATM   12  C   UNL     1     -41.880 -53.252  15.830  1.00  0.00     0.000 C 
HETATM   13  C   UNL     1     -41.864 -51.784  15.423  1.00  0.00     0.002 C 
HETATM   14  C   UNL     1     -43.196 -51.266  14.882  1.00  0.00     0.031 C 
ENDBRANCH   1   7
BRANCH   4  15
HETATM   15  C   UNL     1     -41.074 -48.627  11.081  1.00  0.00     0.147 C 
HETATM   16  N   UNL     1     -41.586 -47.782  10.218  1.00  0.00    -0.284 N 
HETATM   17  N   UNL     1     -40.875 -46.594  10.201  1.00  0.00    -0.304 N 
ATOM     18  HN  UNL     1     -42.401 -47.975   9.636  1.00  0.00     0.188 HD
HETATM   19  C   UNL     1     -39.937 -46.575  11.124  1.00  0.00     0.159 C 
ATOM     20  HN  UNL     1     -41.057 -45.828   9.552  1.00  0.00     0.186 HD
HETATM   21  S   UNL     1     -39.851 -47.989  12.091  1.00  0.00    -0.052 SA
ENDBRANCH   4  15
TORSDOF 2
ENDMDL
MODEL 8
REMARK VINA RESULT:      -5.1      3.352      4.069
REMARK  2 active torsions:
REMARK  status: ('A' for Active; 'I' for Inactive)
REMARK    1  A    between atoms: C_2  and  N_9 
REMARK       I    between atoms: N_9  and  C_10 
REMARK       I    between atoms: C_10  and  N_12 
REMARK    2  A    between atoms: N_12  and  C_13 
ROOT
HETATM    1  N   UNL     1     -43.671 -52.576  13.718  1.00  0.00    -0.339 N 
HETATM    2  C   UNL     1     -42.326 -52.821  13.909  1.00  0.00     0.300 C 
HETATM    3  O   UNL     1     -41.492 -51.933  14.016  1.00  0.00    -0.254 OA
HETATM    4  N   UNL     1     -42.066 -54.172  14.026  1.00  0.00    -0.189 NA
HETATM    5  H   UNL     1     -44.147 -53.267  13.151  1.00  0.00     0.164 HD
HETATM    6  H   UNL     1     -42.726 -54.602  14.659  1.00  0.00     0.140 HD
ENDROOT
BRANCH   1   7
HETATM    7  C   UNL     1     -44.256 -51.227  13.789  1.00  0.00     0.030 C 
HETATM    8  C   UNL     1     -43.430 -50.300  12.859  1.00  0.00     0.038 C 
HETATM    9  C   UNL     1     -45.740 -51.160  13.330  1.00  0.00     0.031 C 
HETATM   10  C   UNL     1     -46.666 -52.244  13.875  1.00  0.00     0.002 C 
HETATM   11  C   UNL     1     -47.094 -52.150  15.337  1.00  0.00     0.000 C 
HETATM   12  C   UNL     1     -46.393 -51.140  16.233  1.00  0.00     0.000 C 
HETATM   13  C   UNL     1     -44.883 -51.314  16.340  1.00  0.00     0.002 C 
HETATM   14  C   UNL     1     -44.090 -50.650  15.216  1.00  0.00     0.031 C 
ENDBRANCH   1   7
BRANCH   4  15
HETATM   15  C   UNL     1     -40.765 -54.495  14.344  1.00  0.00     0.147 C 
HETATM   16  N   UNL     1     -39.748 -54.459  13.517  1.00  0.00    -0.284 N 
HETATM   17  N   UNL     1     -38.594 -54.924  14.125  1.00  0.00    -0.304 N 
ATOM     18  HN  UNL     1     -39.800 -54.132  12.553  1.00  0.00     0.188 HD
HETATM   19  C   UNL     1     -38.786 -55.183  15.402  1.00  0.00     0.159 C 
ATOM     20  HN  UNL     1     -37.704 -55.051  13.643  1.00  0.00     0.186 HD
HETATM   21  S   UNL     1     -40.376 -54.872  15.966  1.00  0.00    -0.052 SA
ENDBRANCH   4  15
TORSDOF 2
ENDMDL
MODEL 9
REMARK VINA RESULT:      -5.1      2.985      4.254
REMARK  2 active torsions:
REMARK  status: ('A' for Active; 'I' for Inactive)
REMARK    1  A    between atoms: C_2  and  N_9 
REMARK       I    between atoms: N_9  and  C_10 
REMARK       I    between atoms: C_10  and  N_12 
REMARK    2  A    between atoms: N_12  and  C_13 
ROOT
HETATM    1  N   UNL     1     -41.640 -51.991  14.178  1.00  0.00    -0.339 N 
HETATM    2  C   UNL     1     -41.744 -51.388  12.941  1.00  0.00     0.300 C 
HETATM    3  O   UNL     1     -42.078 -51.987  11.929  1.00  0.00    -0.254 OA
HETATM    4  N   UNL     1     -41.488 -50.033  13.013  1.00  0.00    -0.189 NA
HETATM    5  H   UNL     1     -40.912 -51.611  14.771  1.00  0.00     0.164 HD
HETATM    6  H   UNL     1     -41.989 -49.623  13.789  1.00  0.00     0.140 HD
ENDROOT
BRANCH   1   7
HETATM    7  C   UNL     1     -42.079 -53.374  14.432  1.00  0.00     0.030 C 
HETATM    8  C   UNL     1     -43.556 -53.496  13.977  1.00  0.00     0.038 C 
HETATM    9  C   UNL     1     -41.254 -54.445  13.665  1.00  0.00     0.031 C 
HETATM   10  C   UNL     1     -39.737 -54.282  13.697  1.00  0.00     0.002 C 
HETATM   11  C   UNL     1     -39.008 -54.622  14.994  1.00  0.00     0.000 C 
HETATM   12  C   UNL     1     -39.835 -54.864  16.248  1.00  0.00     0.000 C 
HETATM   13  C   UNL     1     -40.728 -53.701  16.664  1.00  0.00     0.002 C 
HETATM   14  C   UNL     1     -42.080 -53.659  15.955  1.00  0.00     0.031 C 
ENDBRANCH   1   7
BRANCH   4  15
HETATM   15  C   UNL     1     -41.693 -49.333  11.843  1.00  0.00     0.147 C 
HETATM   16  N   UNL     1     -41.028 -49.505  10.726  1.00  0.00    -0.284 N 
HETATM   17  N   UNL     1     -41.419 -48.587   9.766  1.00  0.00    -0.304 N 
ATOM     18  HN  UNL     1     -40.315 -50.220  10.584  1.00  0.00     0.188 HD
HETATM   19  C   UNL     1     -42.427 -47.849  10.181  1.00  0.00     0.159 C 
ATOM     20  HN  UNL     1     -40.979 -48.495   8.851  1.00  0.00     0.186 HD
HETATM   21  S   UNL     1     -42.986 -48.217  11.760  1.00  0.00    -0.052 SA
ENDBRANCH   4  15
TORSDOF 2
ENDMDL
