MODEL 1
REMARK VINA RESULT:      -6.2      0.000      0.000
REMARK  7 active torsions:
REMARK  status: ('A' for Active; 'I' for Inactive)
REMARK    1  A    between atoms: C_2  and  C_3 
REMARK    2  A    between atoms: C_3  and  C_4 
REMARK    3  A    between atoms: C_3  and  N_9 
REMARK    4  A    between atoms: C_4  and  C_5 
REMARK    5  A    between atoms: C_5  and  N_6 
REMARK       I    between atoms: N_9  and  C_10 
REMARK       I    between atoms: C_10  and  N_12 
REMARK    6  A    between atoms: N_12  and  C_13 
REMARK    7  A    between atoms: C_16  and  N_21 
ROOT
HETATM    1  N   UNL     1     -41.761 -48.218   9.851  1.00  0.00    -0.337 N 
HETATM    2  C   UNL     1     -41.563 -48.982  10.982  1.00  0.00     0.321 C 
HETATM    3  O   UNL     1     -42.155 -48.764  12.030  1.00  0.00    -0.247 OA
HETATM    4  N   UNL     1     -40.582 -49.931  10.780  1.00  0.00    -0.307 N 
HETATM    5  H   UNL     1     -41.671 -48.715   8.972  1.00  0.00     0.164 HD
HETATM    6  H   UNL     1     -39.882 -49.654  10.107  1.00  0.00     0.170 HD
ENDROOT
BRANCH   4   7
HETATM    7  C   UNL     1     -40.189 -50.862  11.773  1.00  0.00     0.058 A 
HETATM    8  C   UNL     1     -40.968 -51.970  12.071  1.00  0.00     0.035 A 
HETATM    9  C   UNL     1     -40.560 -52.864  13.066  1.00  0.00     0.051 A 
HETATM   10  C   UNL     1     -39.393 -52.640  13.790  1.00  0.00     0.103 A 
HETATM   11  N   UNL     1     -38.608 -51.589  13.465  1.00  0.00    -0.344 N 
HETATM   12  C   UNL     1     -38.995 -50.724  12.477  1.00  0.00     0.034 A 
ATOM     13  HN  UNL     1     -37.727 -51.439  13.956  1.00  0.00     0.167 HD
HETATM   14  C   UNL     1     -38.057 -49.576  12.243  1.00  0.00     0.070 C 
BRANCH  10  15
HETATM   15  N   UNL     1     -38.994 -53.464  14.818  1.00  0.00    -0.367 N 
HETATM   16  C   UNL     1     -39.051 -52.968  16.193  1.00  0.00     0.124 C 
HETATM   17  C   UNL     1     -39.124 -54.226  17.063  1.00  0.00     0.021 C 
HETATM   18  C   UNL     1     -39.631 -55.306  16.124  1.00  0.00     0.021 C 
HETATM   19  C   UNL     1     -39.040 -54.918  14.776  1.00  0.00     0.124 C 
ENDBRANCH  10  15
ENDBRANCH   4   7
BRANCH   1  20
HETATM   20  C   UNL     1     -42.602 -47.015   9.887  1.00  0.00     0.097 C 
BRANCH  20  21
HETATM   21  C   UNL     1     -41.749 -45.769  10.198  1.00  0.00     0.021 C 
HETATM   22  C   UNL     1     -42.263 -44.966  11.388  1.00  0.00     0.007 C 
ENDBRANCH  20  21
BRANCH  20  23
HETATM   23  C   UNL     1     -43.457 -46.829   8.611  1.00  0.00     0.129 C 
BRANCH  23  24
HETATM   24  C   UNL     1     -44.750 -47.623   8.700  1.00  0.00    -0.076 C 
BRANCH  24  25
HETATM   25  N   UNL     1     -45.823 -48.281   8.773  1.00  0.00    -0.370 N 
ATOM     26  HN2 UNL     1     -44.969 -47.725   8.741  1.00  0.00     0.165 HD
ATOM     27  HN1 UNL     1     -46.691 -48.814   8.831  1.00  0.00     0.165 HD
ENDBRANCH  24  25
ENDBRANCH  23  24
ENDBRANCH  20  23
ENDBRANCH   1  20
TORSDOF 7
ENDMDL
MODEL 2
REMARK VINA RESULT:      -6.1      2.926      7.689
REMARK  7 active torsions:
REMARK  status: ('A' for Active; 'I' for Inactive)
REMARK    1  A    between atoms: C_2  and  C_3 
REMARK    2  A    between atoms: C_3  and  C_4 
REMARK    3  A    between atoms: C_3  and  N_9 
REMARK    4  A    between atoms: C_4  and  C_5 
REMARK    5  A    between atoms: C_5  and  N_6 
REMARK       I    between atoms: N_9  and  C_10 
REMARK       I    between atoms: C_10  and  N_12 
REMARK    6  A    between atoms: N_12  and  C_13 
REMARK    7  A    between atoms: C_16  and  N_21 
ROOT
HETATM    1  N   UNL     1     -43.000 -51.787  12.375  1.00  0.00    -0.337 N 
HETATM    2  C   UNL     1     -42.584 -50.504  12.655  1.00  0.00     0.321 C 
HETATM    3  O   UNL     1     -42.791 -49.970  13.737  1.00  0.00    -0.247 OA
HETATM    4  N   UNL     1     -41.999 -49.915  11.552  1.00  0.00    -0.307 N 
HETATM    5  H   UNL     1     -42.401 -52.310  11.746  1.00  0.00     0.164 HD
HETATM    6  H   UNL     1     -42.358 -50.256  10.672  1.00  0.00     0.170 HD
ENDROOT
BRANCH   4   7
HETATM    7  C   UNL     1     -41.467 -48.602  11.567  1.00  0.00     0.058 A 
HETATM    8  C   UNL     1     -40.167 -48.355  11.985  1.00  0.00     0.035 A 
HETATM    9  C   UNL     1     -39.675 -47.046  12.000  1.00  0.00     0.051 A 
HETATM   10  C   UNL     1     -40.485 -45.977  11.631  1.00  0.00     0.103 A 
HETATM   11  N   UNL     1     -41.733 -46.221  11.175  1.00  0.00    -0.344 N 
HETATM   12  C   UNL     1     -42.210 -47.504  11.139  1.00  0.00     0.034 A 
ATOM     13  HN  UNL     1     -42.321 -45.450  10.857  1.00  0.00     0.167 HD
HETATM   14  C   UNL     1     -43.624 -47.636  10.653  1.00  0.00     0.070 C 
BRANCH  10  15
HETATM   15  N   UNL     1     -40.054 -44.670  11.695  1.00  0.00    -0.367 N 
HETATM   16  C   UNL     1     -40.902 -43.612  11.148  1.00  0.00     0.124 C 
HETATM   17  C   UNL     1     -40.458 -42.338  11.871  1.00  0.00     0.021 C 
HETATM   18  C   UNL     1     -39.774 -42.836  13.131  1.00  0.00     0.021 C 
HETATM   19  C   UNL     1     -39.138 -44.151  12.700  1.00  0.00     0.124 C 
ENDBRANCH  10  15
ENDBRANCH   4   7
BRANCH   1  20
HETATM   20  C   UNL     1     -43.833 -52.538  13.323  1.00  0.00     0.097 C 
BRANCH  20  21
HETATM   21  C   UNL     1     -45.233 -52.792  12.729  1.00  0.00     0.021 C 
HETATM   22  C   UNL     1     -46.232 -51.682  13.037  1.00  0.00     0.007 C 
ENDBRANCH  20  21
BRANCH  20  23
HETATM   23  C   UNL     1     -43.169 -53.844  13.821  1.00  0.00     0.129 C 
BRANCH  23  24
HETATM   24  C   UNL     1     -41.876 -54.119  13.072  1.00  0.00    -0.076 C 
BRANCH  24  25
HETATM   25  N   UNL     1     -40.803 -54.346  12.450  1.00  0.00    -0.370 N 
ATOM     26  HN2 UNL     1     -41.655 -54.130  12.967  1.00  0.00     0.165 HD
ATOM     27  HN1 UNL     1     -39.935 -54.531  11.946  1.00  0.00     0.165 HD
ENDBRANCH  24  25
ENDBRANCH  23  24
ENDBRANCH  20  23
ENDBRANCH   1  20
TORSDOF 7
ENDMDL
MODEL 3
REMARK VINA RESULT:      -5.9      3.665      7.689
REMARK  7 active torsions:
REMARK  status: ('A' for Active; 'I' for Inactive)
REMARK    1  A    between atoms: C_2  and  C_3 
REMARK    2  A    between atoms: C_3  and  C_4 
REMARK    3  A    between atoms: C_3  and  N_9 
REMARK    4  A    between atoms: C_4  and  C_5 
REMARK    5  A    between atoms: C_5  and  N_6 
REMARK       I    between atoms: N_9  and  C_10 
REMARK       I    between atoms: C_10  and  N_12 
REMARK    6  A    between atoms: N_12  and  C_13 
REMARK    7  A    between atoms: C_16  and  N_21 
ROOT
HETATM    1  N   UNL     1     -43.525 -51.556  12.494  1.00  0.00    -0.337 N 
HETATM    2  C   UNL     1     -43.122 -50.277  12.810  1.00  0.00     0.321 C 
HETATM    3  O   UNL     1     -43.352 -49.767  13.898  1.00  0.00    -0.247 OA
HETATM    4  N   UNL     1     -42.520 -49.661  11.731  1.00  0.00    -0.307 N 
HETATM    5  H   UNL     1     -42.911 -52.062  11.865  1.00  0.00     0.164 HD
HETATM    6  H   UNL     1     -42.860 -49.985  10.837  1.00  0.00     0.170 HD
ENDROOT
BRANCH   4   7
HETATM    7  C   UNL     1     -41.996 -48.346  11.784  1.00  0.00     0.058 A 
HETATM    8  C   UNL     1     -42.830 -47.237  11.777  1.00  0.00     0.035 A 
HETATM    9  C   UNL     1     -42.282 -45.950  11.816  1.00  0.00     0.051 A 
HETATM   10  C   UNL     1     -40.903 -45.764  11.828  1.00  0.00     0.103 A 
HETATM   11  N   UNL     1     -40.092 -46.843  11.887  1.00  0.00    -0.344 N 
HETATM   12  C   UNL     1     -40.627 -48.103  11.870  1.00  0.00     0.034 A 
ATOM     13  HN  UNL     1     -39.081 -46.720  11.944  1.00  0.00     0.167 HD
HETATM   14  C   UNL     1     -39.619 -49.215  11.896  1.00  0.00     0.070 C 
BRANCH  10  15
HETATM   15  N   UNL     1     -40.329 -44.512  11.803  1.00  0.00    -0.367 N 
HETATM   16  C   UNL     1     -41.081 -43.394  11.237  1.00  0.00     0.124 C 
HETATM   17  C   UNL     1     -40.464 -42.143  11.871  1.00  0.00     0.021 C 
HETATM   18  C   UNL     1     -39.780 -42.654  13.126  1.00  0.00     0.021 C 
HETATM   19  C   UNL     1     -39.315 -44.051  12.740  1.00  0.00     0.124 C 
ENDBRANCH  10  15
ENDBRANCH   4   7
BRANCH   1  20
HETATM   20  C   UNL     1     -44.372 -52.331  13.410  1.00  0.00     0.097 C 
BRANCH  20  21
HETATM   21  C   UNL     1     -45.863 -52.071  13.119  1.00  0.00     0.021 C 
HETATM   22  C   UNL     1     -46.592 -51.380  14.267  1.00  0.00     0.007 C 
ENDBRANCH  20  21
BRANCH  20  23
HETATM   23  C   UNL     1     -44.038 -53.843  13.420  1.00  0.00     0.129 C 
BRANCH  23  24
HETATM   24  C   UNL     1     -45.272 -54.672  13.731  1.00  0.00    -0.076 C 
BRANCH  24  25
HETATM   25  N   UNL     1     -46.296 -55.362  13.988  1.00  0.00    -0.370 N 
ATOM     26  HN2 UNL     1     -45.451 -54.818  13.811  1.00  0.00     0.165 HD
ATOM     27  HN1 UNL     1     -47.125 -55.919  14.196  1.00  0.00     0.165 HD
ENDBRANCH  24  25
ENDBRANCH  23  24
ENDBRANCH  20  23
ENDBRANCH   1  20
TORSDOF 7
ENDMDL
MODEL 4
REMARK VINA RESULT:      -5.8      2.763      7.709
REMARK  7 active torsions:
REMARK  status: ('A' for Active; 'I' for Inactive)
REMARK    1  A    between atoms: C_2  and  C_3 
REMARK    2  A    between atoms: C_3  and  C_4 
REMARK    3  A    between atoms: C_3  and  N_9 
REMARK    4  A    between atoms: C_4  and  C_5 
REMARK    5  A    between atoms: C_5  and  N_6 
REMARK       I    between atoms: N_9  and  C_10 
REMARK       I    between atoms: C_10  and  N_12 
REMARK    6  A    between atoms: N_12  and  C_13 
REMARK    7  A    between atoms: C_16  and  N_21 
ROOT
HETATM    1  N   UNL     1     -42.801 -52.325  12.427  1.00  0.00    -0.337 N 
HETATM    2  C   UNL     1     -42.438 -51.036  12.752  1.00  0.00     0.321 C 
HETATM    3  O   UNL     1     -42.566 -50.585  13.882  1.00  0.00    -0.247 OA
HETATM    4  N   UNL     1     -42.007 -50.342  11.639  1.00  0.00    -0.307 N 
HETATM    5  H   UNL     1     -42.238 -52.766  11.708  1.00  0.00     0.164 HD
HETATM    6  H   UNL     1     -42.433 -50.652  10.777  1.00  0.00     0.170 HD
ENDROOT
BRANCH   4   7
HETATM    7  C   UNL     1     -41.559 -48.999  11.690  1.00  0.00     0.058 A 
HETATM    8  C   UNL     1     -42.454 -47.942  11.762  1.00  0.00     0.035 A 
HETATM    9  C   UNL     1     -41.981 -46.626  11.797  1.00  0.00     0.051 A 
HETATM   10  C   UNL     1     -40.618 -46.358  11.728  1.00  0.00     0.103 A 
HETATM   11  N   UNL     1     -39.743 -47.388  11.710  1.00  0.00    -0.344 N 
HETATM   12  C   UNL     1     -40.204 -48.677  11.696  1.00  0.00     0.034 A 
ATOM     13  HN  UNL     1     -38.740 -47.205  11.706  1.00  0.00     0.167 HD
HETATM   14  C   UNL     1     -39.132 -49.727  11.632  1.00  0.00     0.070 C 
BRANCH  10  15
HETATM   15  N   UNL     1     -40.120 -45.074  11.697  1.00  0.00    -0.367 N 
HETATM   16  C   UNL     1     -40.921 -44.013  11.087  1.00  0.00     0.124 C 
HETATM   17  C   UNL     1     -40.402 -42.717  11.716  1.00  0.00     0.021 C 
HETATM   18  C   UNL     1     -39.727 -43.164  13.001  1.00  0.00     0.021 C 
HETATM   19  C   UNL     1     -39.166 -44.536  12.654  1.00  0.00     0.124 C 
ENDBRANCH  10  15
ENDBRANCH   4   7
BRANCH   1  20
HETATM   20  C   UNL     1     -43.484 -53.188  13.399  1.00  0.00     0.097 C 
BRANCH  20  21
HETATM   21  C   UNL     1     -44.572 -54.031  12.703  1.00  0.00     0.021 C 
HETATM   22  C   UNL     1     -45.291 -54.989  13.646  1.00  0.00     0.007 C 
ENDBRANCH  20  21
BRANCH  20  23
HETATM   23  C   UNL     1     -42.514 -54.063  14.229  1.00  0.00     0.129 C 
BRANCH  23  24
HETATM   24  C   UNL     1     -41.183 -54.230  13.516  1.00  0.00    -0.076 C 
BRANCH  24  25
HETATM   25  N   UNL     1     -40.078 -54.369  12.924  1.00  0.00    -0.370 N 
ATOM     26  HN2 UNL     1     -40.954 -54.239  13.432  1.00  0.00     0.165 HD
ATOM     27  HN1 UNL     1     -39.185 -54.483  12.445  1.00  0.00     0.165 HD
ENDBRANCH  24  25
ENDBRANCH  23  24
ENDBRANCH  20  23
ENDBRANCH   1  20
TORSDOF 7
ENDMDL
MODEL 5
REMARK VINA RESULT:      -5.7      3.274      9.077
REMARK  7 active torsions:
REMARK  status: ('A' for Active; 'I' for Inactive)
REMARK    1  A    between atoms: C_2  and  C_3 
REMARK    2  A    between atoms: C_3  and  C_4 
REMARK    3  A    between atoms: C_3  and  N_9 
REMARK    4  A    between atoms: C_4  and  C_5 
REMARK    5  A    between atoms: C_5  and  N_6 
REMARK       I    between atoms: N_9  and  C_10 
REMARK       I    between atoms: C_10  and  N_12 
REMARK    6  A    between atoms: N_12  and  C_13 
REMARK    7  A    between atoms: C_16  and  N_21 
ROOT
HETATM    1  N   UNL     1     -39.385 -49.343  11.530  1.00  0.00    -0.337 N 
HETATM    2  C   UNL     1     -39.544 -48.032  11.923  1.00  0.00     0.321 C 
HETATM    3  O   UNL     1     -39.110 -47.610  12.987  1.00  0.00    -0.247 OA
HETATM    4  N   UNL     1     -40.302 -47.324  11.012  1.00  0.00    -0.307 N 
HETATM    5  H   UNL     1     -39.291 -49.487  10.530  1.00  0.00     0.164 HD
HETATM    6  H   UNL     1     -40.972 -47.892  10.514  1.00  0.00     0.170 HD
ENDROOT
BRANCH   4   7
HETATM    7  C   UNL     1     -40.606 -45.949  11.161  1.00  0.00     0.058 A 
HETATM    8  C   UNL     1     -39.774 -44.966  10.647  1.00  0.00     0.035 A 
HETATM    9  C   UNL     1     -40.094 -43.615  10.822  1.00  0.00     0.051 A 
HETATM   10  C   UNL     1     -41.227 -43.240  11.537  1.00  0.00     0.103 A 
HETATM   11  N   UNL     1     -42.066 -44.196  11.993  1.00  0.00    -0.344 N 
HETATM   12  C   UNL     1     -41.764 -45.518  11.805  1.00  0.00     0.034 A 
ATOM     13  HN  UNL     1     -42.923 -43.933  12.479  1.00  0.00     0.167 HD
HETATM   14  C   UNL     1     -42.754 -46.479  12.397  1.00  0.00     0.070 C 
BRANCH  10  15
HETATM   15  N   UNL     1     -41.539 -41.921  11.782  1.00  0.00    -0.367 N 
HETATM   16  C   UNL     1     -40.489 -41.013  12.240  1.00  0.00     0.124 C 
HETATM   17  C   UNL     1     -40.982 -39.615  11.855  1.00  0.00     0.021 C 
HETATM   18  C   UNL     1     -42.001 -39.862  10.757  1.00  0.00     0.021 C 
HETATM   19  C   UNL     1     -42.625 -41.197  11.139  1.00  0.00     0.124 C 
ENDBRANCH  10  15
ENDBRANCH   4   7
BRANCH   1  20
HETATM   20  C   UNL     1     -38.796 -50.339  12.433  1.00  0.00     0.097 C 
BRANCH  20  21
HETATM   21  C   UNL     1     -39.727 -51.560  12.573  1.00  0.00     0.021 C 
HETATM   22  C   UNL     1     -41.092 -51.358  11.926  1.00  0.00     0.007 C 
ENDBRANCH  20  21
BRANCH  20  23
HETATM   23  C   UNL     1     -37.357 -50.749  12.037  1.00  0.00     0.129 C 
BRANCH  23  24
HETATM   24  C   UNL     1     -37.066 -50.392  10.589  1.00  0.00    -0.076 C 
BRANCH  24  25
HETATM   25  N   UNL     1     -36.825 -50.095   9.388  1.00  0.00    -0.370 N 
ATOM     26  HN2 UNL     1     -36.990 -50.359  10.359  1.00  0.00     0.165 HD
ATOM     27  HN1 UNL     1     -36.631 -49.854   8.416  1.00  0.00     0.165 HD
ENDBRANCH  24  25
ENDBRANCH  23  24
ENDBRANCH  20  23
ENDBRANCH   1  20
TORSDOF 7
ENDMDL
MODEL 6
REMARK VINA RESULT:      -5.5      2.477      7.675
REMARK  7 active torsions:
REMARK  status: ('A' for Active; 'I' for Inactive)
REMARK    1  A    between atoms: C_2  and  C_3 
REMARK    2  A    between atoms: C_3  and  C_4 
REMARK    3  A    between atoms: C_3  and  N_9 
REMARK    4  A    between atoms: C_4  and  C_5 
REMARK    5  A    between atoms: C_5  and  N_6 
REMARK       I    between atoms: N_9  and  C_10 
REMARK       I    between atoms: C_10  and  N_12 
REMARK    6  A    between atoms: N_12  and  C_13 
REMARK    7  A    between atoms: C_16  and  N_21 
ROOT
HETATM    1  N   UNL     1     -40.953 -52.927  11.864  1.00  0.00    -0.337 N 
HETATM    2  C   UNL     1     -41.074 -51.584  12.152  1.00  0.00     0.321 C 
HETATM    3  O   UNL     1     -41.491 -51.180  13.229  1.00  0.00    -0.247 OA
HETATM    4  N   UNL     1     -40.745 -50.806  11.060  1.00  0.00    -0.307 N 
HETATM    5  H   UNL     1     -40.186 -53.170  11.247  1.00  0.00     0.164 HD
HETATM    6  H   UNL     1     -40.927 -51.254  10.174  1.00  0.00     0.170 HD
ENDROOT
BRANCH   4   7
HETATM    7  C   UNL     1     -40.766 -49.390  11.084  1.00  0.00     0.058 A 
HETATM    8  C   UNL     1     -41.918 -48.681  10.777  1.00  0.00     0.035 A 
HETATM    9  C   UNL     1     -41.904 -47.282  10.796  1.00  0.00     0.051 A 
HETATM   10  C   UNL     1     -40.736 -46.586  11.088  1.00  0.00     0.103 A 
HETATM   11  N   UNL     1     -39.627 -47.276  11.437  1.00  0.00    -0.344 N 
HETATM   12  C   UNL     1     -39.644 -48.645  11.440  1.00  0.00     0.034 A 
ATOM     13  HN  UNL     1     -38.776 -46.777  11.699  1.00  0.00     0.167 HD
HETATM   14  C   UNL     1     -38.339 -49.289  11.804  1.00  0.00     0.070 C 
BRANCH  10  15
HETATM   15  N   UNL     1     -40.669 -45.211  11.054  1.00  0.00    -0.367 N 
HETATM   16  C   UNL     1     -41.899 -44.434  11.196  1.00  0.00     0.124 C 
HETATM   17  C   UNL     1     -41.442 -43.060  11.695  1.00  0.00     0.021 C 
HETATM   18  C   UNL     1     -40.072 -43.313  12.298  1.00  0.00     0.021 C 
HETATM   19  C   UNL     1     -39.501 -44.432  11.438  1.00  0.00     0.124 C 
ENDBRANCH  10  15
ENDBRANCH   4   7
BRANCH   1  20
HETATM   20  C   UNL     1     -41.445 -53.948  12.796  1.00  0.00     0.097 C 
BRANCH  20  21
HETATM   21  C   UNL     1     -40.624 -53.930  14.102  1.00  0.00     0.021 C 
HETATM   22  C   UNL     1     -39.258 -54.594  13.967  1.00  0.00     0.007 C 
ENDBRANCH  20  21
BRANCH  20  23
HETATM   23  C   UNL     1     -42.966 -53.849  13.066  1.00  0.00     0.129 C 
BRANCH  23  24
HETATM   24  C   UNL     1     -43.300 -54.296  14.479  1.00  0.00    -0.076 C 
BRANCH  24  25
HETATM   25  N   UNL     1     -43.578 -54.668  15.652  1.00  0.00    -0.370 N 
ATOM     26  HN2 UNL     1     -43.348 -54.404  14.693  1.00  0.00     0.165 HD
ATOM     27  HN1 UNL     1     -43.802 -54.967  16.601  1.00  0.00     0.165 HD
ENDBRANCH  24  25
ENDBRANCH  23  24
ENDBRANCH  20  23
ENDBRANCH   1  20
TORSDOF 7
ENDMDL
MODEL 7
REMARK VINA RESULT:      -5.3     14.513     16.720
REMARK  7 active torsions:
REMARK  status: ('A' for Active; 'I' for Inactive)
REMARK    1  A    between atoms: C_2  and  C_3 
REMARK    2  A    between atoms: C_3  and  C_4 
REMARK    3  A    between atoms: C_3  and  N_9 
REMARK    4  A    between atoms: C_4  and  C_5 
REMARK    5  A    between atoms: C_5  and  N_6 
REMARK       I    between atoms: N_9  and  C_10 
REMARK       I    between atoms: C_10  and  N_12 
REMARK    6  A    between atoms: N_12  and  C_13 
REMARK    7  A    between atoms: C_16  and  N_21 
ROOT
HETATM    1  N   UNL     1     -50.490 -51.225  -0.928  1.00  0.00    -0.337 N 
HETATM    2  C   UNL     1     -50.293 -50.282   0.057  1.00  0.00     0.321 C 
HETATM    3  O   UNL     1     -49.823 -50.565   1.151  1.00  0.00    -0.247 OA
HETATM    4  N   UNL     1     -50.764 -49.044  -0.334  1.00  0.00    -0.307 N 
HETATM    5  H   UNL     1     -50.381 -50.889  -1.878  1.00  0.00     0.164 HD
HETATM    6  H   UNL     1     -51.536 -49.090  -0.982  1.00  0.00     0.170 HD
ENDROOT
BRANCH   4   7
HETATM    7  C   UNL     1     -50.674 -47.889   0.481  1.00  0.00     0.058 A 
HETATM    8  C   UNL     1     -49.511 -47.136   0.540  1.00  0.00     0.035 A 
HETATM    9  C   UNL     1     -49.448 -46.008   1.365  1.00  0.00     0.051 A 
HETATM   10  C   UNL     1     -50.532 -45.646   2.158  1.00  0.00     0.103 A 
HETATM   11  N   UNL     1     -51.683 -46.348   2.063  1.00  0.00    -0.344 N 
HETATM   12  C   UNL     1     -51.753 -47.440   1.240  1.00  0.00     0.034 A 
ATOM     13  HN  UNL     1     -52.500 -46.065   2.604  1.00  0.00     0.167 HD
HETATM   14  C   UNL     1     -53.071 -48.157   1.258  1.00  0.00     0.070 C 
BRANCH  10  15
HETATM   15  N   UNL     1     -50.484 -44.579   3.028  1.00  0.00    -0.367 N 
HETATM   16  C   UNL     1     -49.184 -44.064   3.454  1.00  0.00     0.124 C 
HETATM   17  C   UNL     1     -49.455 -42.620   3.886  1.00  0.00     0.021 C 
HETATM   18  C   UNL     1     -50.753 -42.254   3.189  1.00  0.00     0.021 C 
HETATM   19  C   UNL     1     -51.523 -43.567   3.150  1.00  0.00     0.124 C 
ENDBRANCH  10  15
ENDBRANCH   4   7
BRANCH   1  20
HETATM   20  C   UNL     1     -50.262 -52.652  -0.667  1.00  0.00     0.097 C 
BRANCH  20  21
HETATM   21  C   UNL     1     -51.258 -53.514  -1.468  1.00  0.00     0.021 C 
HETATM   22  C   UNL     1     -52.505 -53.891  -0.676  1.00  0.00     0.007 C 
ENDBRANCH  20  21
BRANCH  20  23
HETATM   23  C   UNL     1     -48.796 -53.091  -0.900  1.00  0.00     0.129 C 
BRANCH  23  24
HETATM   24  C   UNL     1     -48.734 -54.390  -1.686  1.00  0.00    -0.076 C 
BRANCH  24  25
HETATM   25  N   UNL     1     -48.681 -55.468  -2.338  1.00  0.00    -0.370 N 
ATOM     26  HN2 UNL     1     -48.747 -54.613  -1.785  1.00  0.00     0.165 HD
ATOM     27  HN1 UNL     1     -48.638 -56.340  -2.866  1.00  0.00     0.165 HD
ENDBRANCH  24  25
ENDBRANCH  23  24
ENDBRANCH  20  23
ENDBRANCH   1  20
TORSDOF 7
ENDMDL
MODEL 8
REMARK VINA RESULT:      -5.3      2.927      8.875
REMARK  7 active torsions:
REMARK  status: ('A' for Active; 'I' for Inactive)
REMARK    1  A    between atoms: C_2  and  C_3 
REMARK    2  A    between atoms: C_3  and  C_4 
REMARK    3  A    between atoms: C_3  and  N_9 
REMARK    4  A    between atoms: C_4  and  C_5 
REMARK    5  A    between atoms: C_5  and  N_6 
REMARK       I    between atoms: N_9  and  C_10 
REMARK       I    between atoms: C_10  and  N_12 
REMARK    6  A    between atoms: N_12  and  C_13 
REMARK    7  A    between atoms: C_16  and  N_21 
ROOT
HETATM    1  N   UNL     1     -39.516 -48.993  11.044  1.00  0.00    -0.337 N 
HETATM    2  C   UNL     1     -40.147 -47.882  11.562  1.00  0.00     0.321 C 
HETATM    3  O   UNL     1     -40.620 -47.864  12.690  1.00  0.00    -0.247 OA
HETATM    4  N   UNL     1     -40.230 -46.872  10.624  1.00  0.00    -0.307 N 
HETATM    5  H   UNL     1     -38.758 -48.800  10.399  1.00  0.00     0.164 HD
HETATM    6  H   UNL     1     -40.275 -47.205   9.672  1.00  0.00     0.170 HD
ENDROOT
BRANCH   4   7
HETATM    7  C   UNL     1     -40.817 -45.612  10.895  1.00  0.00     0.058 A 
HETATM    8  C   UNL     1     -40.059 -44.550  11.367  1.00  0.00     0.035 A 
HETATM    9  C   UNL     1     -40.670 -43.321  11.639  1.00  0.00     0.051 A 
HETATM   10  C   UNL     1     -42.041 -43.155  11.472  1.00  0.00     0.103 A 
HETATM   11  N   UNL     1     -42.771 -44.173  10.963  1.00  0.00    -0.344 N 
HETATM   12  C   UNL     1     -42.171 -45.370  10.677  1.00  0.00     0.034 A 
ATOM     13  HN  UNL     1     -43.769 -44.049  10.792  1.00  0.00     0.167 HD
HETATM   14  C   UNL     1     -43.099 -46.430  10.160  1.00  0.00     0.070 C 
BRANCH  10  15
HETATM   15  N   UNL     1     -42.685 -41.980  11.788  1.00  0.00    -0.367 N 
HETATM   16  C   UNL     1     -44.005 -41.714  11.217  1.00  0.00     0.124 C 
HETATM   17  C   UNL     1     -44.652 -40.707  12.173  1.00  0.00     0.021 C 
HETATM   18  C   UNL     1     -43.886 -40.874  13.473  1.00  0.00     0.021 C 
HETATM   19  C   UNL     1     -42.478 -41.231  13.019  1.00  0.00     0.124 C 
ENDBRANCH  10  15
ENDBRANCH   4   7
BRANCH   1  20
HETATM   20  C   UNL     1     -39.494 -50.263  11.780  1.00  0.00     0.097 C 
BRANCH  20  21
HETATM   21  C   UNL     1     -38.637 -50.135  13.055  1.00  0.00     0.021 C 
HETATM   22  C   UNL     1     -37.303 -50.868  12.964  1.00  0.00     0.007 C 
ENDBRANCH  20  21
BRANCH  20  23
HETATM   23  C   UNL     1     -40.906 -50.819  12.084  1.00  0.00     0.129 C 
BRANCH  23  24
HETATM   24  C   UNL     1     -40.947 -52.329  11.916  1.00  0.00    -0.076 C 
BRANCH  24  25
HETATM   25  N   UNL     1     -40.980 -53.582  11.777  1.00  0.00    -0.370 N 
ATOM     26  HN2 UNL     1     -40.974 -52.565  11.857  1.00  0.00     0.165 HD
ATOM     27  HN1 UNL     1     -41.006 -54.595  11.666  1.00  0.00     0.165 HD
ENDBRANCH  24  25
ENDBRANCH  23  24
ENDBRANCH  20  23
ENDBRANCH   1  20
TORSDOF 7
ENDMDL
MODEL 9
REMARK VINA RESULT:      -5.2      5.377      6.818
REMARK  7 active torsions:
REMARK  status: ('A' for Active; 'I' for Inactive)
REMARK    1  A    between atoms: C_2  and  C_3 
REMARK    2  A    between atoms: C_3  and  C_4 
REMARK    3  A    between atoms: C_3  and  N_9 
REMARK    4  A    between atoms: C_4  and  C_5 
REMARK    5  A    between atoms: C_5  and  N_6 
REMARK       I    between atoms: N_9  and  C_10 
REMARK       I    between atoms: C_10  and  N_12 
REMARK    6  A    between atoms: N_12  and  C_13 
REMARK    7  A    between atoms: C_16  and  N_21 
ROOT
HETATM    1  N   UNL     1     -44.296 -52.775  15.104  1.00  0.00    -0.337 N 
HETATM    2  C   UNL     1     -43.540 -53.915  15.266  1.00  0.00     0.321 C 
HETATM    3  O   UNL     1     -43.776 -54.950  14.657  1.00  0.00    -0.247 OA
HETATM    4  N   UNL     1     -42.572 -53.741  16.235  1.00  0.00    -0.307 N 
HETATM    5  H   UNL     1     -43.791 -51.902  15.203  1.00  0.00     0.164 HD
HETATM    6  H   UNL     1     -42.832 -53.081  16.953  1.00  0.00     0.170 HD
ENDROOT
BRANCH   4   7
HETATM    7  C   UNL     1     -41.644 -54.750  16.592  1.00  0.00     0.058 A 
HETATM    8  C   UNL     1     -40.454 -54.913  15.898  1.00  0.00     0.035 A 
HETATM    9  C   UNL     1     -39.564 -55.927  16.266  1.00  0.00     0.051 A 
HETATM   10  C   UNL     1     -39.870 -56.801  17.304  1.00  0.00     0.103 A 
HETATM   11  N   UNL     1     -41.004 -56.611  18.014  1.00  0.00    -0.344 N 
HETATM   12  C   UNL     1     -41.867 -55.606  17.668  1.00  0.00     0.034 A 
ATOM     13  HN  UNL     1     -41.218 -57.216  18.807  1.00  0.00     0.167 HD
HETATM   14  C   UNL     1     -43.109 -55.528  18.507  1.00  0.00     0.070 C 
BRANCH  10  15
HETATM   15  N   UNL     1     -39.046 -57.849  17.652  1.00  0.00    -0.367 N 
HETATM   16  C   UNL     1     -37.913 -57.601  18.542  1.00  0.00     0.124 C 
HETATM   17  C   UNL     1     -37.600 -58.961  19.170  1.00  0.00     0.021 C 
HETATM   18  C   UNL     1     -38.882 -59.759  19.006  1.00  0.00     0.021 C 
HETATM   19  C   UNL     1     -39.459 -59.244  17.694  1.00  0.00     0.124 C 
ENDBRANCH  10  15
ENDBRANCH   4   7
BRANCH   1  20
HETATM   20  C   UNL     1     -45.513 -52.783  14.283  1.00  0.00     0.097 C 
BRANCH  20  21
HETATM   21  C   UNL     1     -46.758 -53.019  15.162  1.00  0.00     0.021 C 
HETATM   22  C   UNL     1     -47.260 -51.756  15.853  1.00  0.00     0.007 C 
ENDBRANCH  20  21
BRANCH  20  23
HETATM   23  C   UNL     1     -45.661 -51.524  13.395  1.00  0.00     0.129 C 
BRANCH  23  24
HETATM   24  C   UNL     1     -46.521 -51.813  12.176  1.00  0.00    -0.076 C 
BRANCH  24  25
HETATM   25  N   UNL     1     -47.236 -52.054  11.166  1.00  0.00    -0.370 N 
ATOM     26  HN2 UNL     1     -46.653 -51.823  11.971  1.00  0.00     0.165 HD
ATOM     27  HN1 UNL     1     -47.814 -52.249  10.348  1.00  0.00     0.165 HD
ENDBRANCH  24  25
ENDBRANCH  23  24
ENDBRANCH  20  23
ENDBRANCH   1  20
TORSDOF 7
ENDMDL
