MODEL 1
REMARK VINA RESULT:      -6.0      0.000      0.000
REMARK  5 active torsions:
REMARK  status: ('A' for Active; 'I' for Inactive)
REMARK    1  A    between atoms: C_2  and  N_4 
REMARK    2  A    between atoms: C_6  and  C_10 
REMARK       I    between atoms: C_10  and  N_12 
REMARK    3  A    between atoms: N_12  and  C_13 
REMARK    4  A    between atoms: C_13  and  C_14 
REMARK    5  A    between atoms: C_14  and  C_15 
ROOT
HETATM    1  C   UNL     1     -41.206 -52.778  12.832  1.00  0.00     0.223 C 
HETATM    2  O   UNL     1     -40.041 -53.138  12.980  1.00  0.00    -0.273 OA
HETATM    3  N   UNL     1     -41.544 -51.446  12.719  1.00  0.00    -0.360 N 
HETATM    4  H   UNL     1     -42.491 -51.186  12.475  1.00  0.00     0.162 HD
ENDROOT
BRANCH   1   5
HETATM    5  C   UNL     1     -42.380 -53.745  12.845  1.00  0.00     0.104 C 
HETATM    6  C   UNL     1     -43.668 -53.026  12.457  1.00  0.00     0.140 C 
HETATM    7  N   UNL     1     -44.641 -53.358  13.470  1.00  0.00    -0.347 N 
HETATM    8  C   UNL     1     -44.113 -54.160  14.471  1.00  0.00     0.221 C 
HETATM    9  C   UNL     1     -42.647 -54.355  14.218  1.00  0.00     0.118 C 
HETATM   10  O   UNL     1     -44.708 -54.583  15.450  1.00  0.00    -0.273 OA
BRANCH   7  11
HETATM   11  C   UNL     1     -45.825 -52.529  13.725  1.00  0.00     0.079 C 
HETATM   12  C   UNL     1     -45.432 -51.311  14.569  1.00  0.00     0.032 C 
HETATM   13  C   UNL     1     -46.543 -52.070  12.454  1.00  0.00     0.032 C 
ENDBRANCH   7  11
ENDBRANCH   1   5
BRANCH   3  14
HETATM   14  C   UNL     1     -40.489 -50.447  12.649  1.00  0.00     0.128 C 
BRANCH  14  15
HETATM   15  C   UNL     1     -40.324 -49.850  11.256  1.00  0.00     0.077 C 
BRANCH  15  16
HETATM   16  C   UNL     1     -41.282 -48.731  11.008  1.00  0.00     0.018 A 
HETATM   17  C   UNL     1     -41.660 -47.753  11.908  1.00  0.00     0.076 A 
HETATM   18  S   UNL     1     -42.772 -46.672  11.179  1.00  0.00    -0.087 SA
HETATM   19  C   UNL     1     -42.675 -47.579   9.723  1.00  0.00     0.046 A 
HETATM   20  C   UNL     1     -43.465 -47.178   8.526  1.00  0.00     0.076 C 
HETATM   21  N   UNL     1     -41.870 -48.621   9.758  1.00  0.00    -0.357 N 
ATOM     22  HN  UNL     1     -41.702 -49.256   8.977  1.00  0.00     0.166 HD
ENDBRANCH  15  16
ENDBRANCH  14  15
ENDBRANCH   3  14
TORSDOF 5
ENDMDL
MODEL 2
REMARK VINA RESULT:      -6.0      1.238      1.434
REMARK  5 active torsions:
REMARK  status: ('A' for Active; 'I' for Inactive)
REMARK    1  A    between atoms: C_2  and  N_4 
REMARK    2  A    between atoms: C_6  and  C_10 
REMARK       I    between atoms: C_10  and  N_12 
REMARK    3  A    between atoms: N_12  and  C_13 
REMARK    4  A    between atoms: C_13  and  C_14 
REMARK    5  A    between atoms: C_14  and  C_15 
ROOT
HETATM    1  C   UNL     1     -41.976 -53.291  13.765  1.00  0.00     0.223 C 
HETATM    2  O   UNL     1     -41.359 -53.592  14.784  1.00  0.00    -0.273 OA
HETATM    3  N   UNL     1     -41.655 -52.171  13.028  1.00  0.00    -0.360 N 
HETATM    4  H   UNL     1     -42.097 -52.015  12.131  1.00  0.00     0.162 HD
ENDROOT
BRANCH   1   5
HETATM    5  C   UNL     1     -43.190 -54.064  13.274  1.00  0.00     0.104 C 
HETATM    6  C   UNL     1     -44.210 -53.116  12.651  1.00  0.00     0.140 C 
HETATM    7  N   UNL     1     -45.480 -53.422  13.265  1.00  0.00    -0.347 N 
HETATM    8  C   UNL     1     -45.378 -54.414  14.229  1.00  0.00     0.221 C 
HETATM    9  C   UNL     1     -43.934 -54.795  14.387  1.00  0.00     0.118 C 
HETATM   10  O   UNL     1     -46.289 -54.863  14.907  1.00  0.00    -0.273 OA
BRANCH   7  11
HETATM   11  C   UNL     1     -46.590 -52.463  13.297  1.00  0.00     0.079 C 
HETATM   12  C   UNL     1     -46.342 -51.421  14.392  1.00  0.00     0.032 C 
HETATM   13  C   UNL     1     -46.838 -51.762  11.959  1.00  0.00     0.032 C 
ENDBRANCH   7  11
ENDBRANCH   1   5
BRANCH   3  14
HETATM   14  C   UNL     1     -40.481 -51.391  13.391  1.00  0.00     0.128 C 
BRANCH  14  15
HETATM   15  C   UNL     1     -39.709 -50.879  12.180  1.00  0.00     0.077 C 
BRANCH  15  16
HETATM   16  C   UNL     1     -40.185 -49.533  11.739  1.00  0.00     0.018 A 
HETATM   17  C   UNL     1     -39.639 -48.311  12.081  1.00  0.00     0.076 A 
HETATM   18  S   UNL     1     -40.510 -47.040  11.331  1.00  0.00    -0.087 SA
HETATM   19  C   UNL     1     -41.552 -48.201  10.610  1.00  0.00     0.046 A 
HETATM   20  C   UNL     1     -42.671 -47.769   9.727  1.00  0.00     0.076 C 
HETATM   21  N   UNL     1     -41.281 -49.458  10.895  1.00  0.00    -0.357 N 
ATOM     22  HN  UNL     1     -41.803 -50.261  10.544  1.00  0.00     0.166 HD
ENDBRANCH  15  16
ENDBRANCH  14  15
ENDBRANCH   3  14
TORSDOF 5
ENDMDL
MODEL 3
REMARK VINA RESULT:      -6.0      3.577      7.156
REMARK  5 active torsions:
REMARK  status: ('A' for Active; 'I' for Inactive)
REMARK    1  A    between atoms: C_2  and  N_4 
REMARK    2  A    between atoms: C_6  and  C_10 
REMARK       I    between atoms: C_10  and  N_12 
REMARK    3  A    between atoms: N_12  and  C_13 
REMARK    4  A    between atoms: C_13  and  C_14 
REMARK    5  A    between atoms: C_14  and  C_15 
ROOT
HETATM    1  C   UNL     1     -42.102 -49.014  11.458  1.00  0.00     0.223 C 
HETATM    2  O   UNL     1     -43.033 -48.874  12.246  1.00  0.00    -0.273 OA
HETATM    3  N   UNL     1     -41.204 -50.054  11.575  1.00  0.00    -0.360 N 
HETATM    4  H   UNL     1     -40.523 -50.215  10.844  1.00  0.00     0.162 HD
ENDROOT
BRANCH   1   5
HETATM    5  C   UNL     1     -41.803 -48.022  10.345  1.00  0.00     0.104 C 
HETATM    6  C   UNL     1     -41.109 -46.784  10.906  1.00  0.00     0.140 C 
HETATM    7  N   UNL     1     -41.836 -45.645  10.400  1.00  0.00    -0.347 N 
HETATM    8  C   UNL     1     -42.927 -46.012   9.627  1.00  0.00     0.221 C 
HETATM    9  C   UNL     1     -43.054 -47.507   9.640  1.00  0.00     0.118 C 
HETATM   10  O   UNL     1     -43.717 -45.256   9.082  1.00  0.00    -0.273 OA
BRANCH   7  11
HETATM   11  C   UNL     1     -41.792 -44.331  11.052  1.00  0.00     0.079 C 
HETATM   12  C   UNL     1     -42.336 -44.444  12.481  1.00  0.00     0.032 C 
HETATM   13  C   UNL     1     -40.398 -43.700  11.076  1.00  0.00     0.032 C 
ENDBRANCH   7  11
ENDBRANCH   1   5
BRANCH   3  14
HETATM   14  C   UNL     1     -41.431 -51.081  12.580  1.00  0.00     0.128 C 
BRANCH  14  15
HETATM   15  C   UNL     1     -41.969 -52.381  11.992  1.00  0.00     0.077 C 
BRANCH  15  16
HETATM   16  C   UNL     1     -43.297 -52.751  12.568  1.00  0.00     0.018 A 
HETATM   17  C   UNL     1     -43.707 -54.013  12.952  1.00  0.00     0.076 A 
HETATM   18  S   UNL     1     -45.306 -53.957  13.567  1.00  0.00    -0.087 SA
HETATM   19  C   UNL     1     -45.341 -52.263  13.277  1.00  0.00     0.046 A 
HETATM   20  C   UNL     1     -46.552 -51.463  13.606  1.00  0.00     0.076 C 
HETATM   21  N   UNL     1     -44.241 -51.755  12.759  1.00  0.00    -0.357 N 
ATOM     22  HN  UNL     1     -44.103 -50.770  12.532  1.00  0.00     0.166 HD
ENDBRANCH  15  16
ENDBRANCH  14  15
ENDBRANCH   3  14
TORSDOF 5
ENDMDL
MODEL 4
REMARK VINA RESULT:      -5.8      3.337      3.613
REMARK  5 active torsions:
REMARK  status: ('A' for Active; 'I' for Inactive)
REMARK    1  A    between atoms: C_2  and  N_4 
REMARK    2  A    between atoms: C_6  and  C_10 
REMARK       I    between atoms: C_10  and  N_12 
REMARK    3  A    between atoms: N_12  and  C_13 
REMARK    4  A    between atoms: C_13  and  C_14 
REMARK    5  A    between atoms: C_14  and  C_15 
ROOT
HETATM    1  C   UNL     1     -41.090 -53.636  13.220  1.00  0.00     0.223 C 
HETATM    2  O   UNL     1     -40.541 -53.089  12.267  1.00  0.00    -0.273 OA
HETATM    3  N   UNL     1     -40.400 -53.947  14.373  1.00  0.00    -0.360 N 
HETATM    4  H   UNL     1     -40.902 -54.283  15.185  1.00  0.00     0.162 HD
ENDROOT
BRANCH   1   5
HETATM    5  C   UNL     1     -42.539 -54.096  13.189  1.00  0.00     0.104 C 
HETATM    6  C   UNL     1     -43.475 -52.900  13.047  1.00  0.00     0.140 C 
HETATM    7  N   UNL     1     -44.472 -53.038  14.081  1.00  0.00    -0.347 N 
HETATM    8  C   UNL     1     -44.255 -54.147  14.885  1.00  0.00     0.221 C 
HETATM    9  C   UNL     1     -42.975 -54.811  14.465  1.00  0.00     0.118 C 
HETATM   10  O   UNL     1     -44.936 -54.500  15.835  1.00  0.00    -0.273 OA
BRANCH   7  11
HETATM   11  C   UNL     1     -45.253 -51.899  14.579  1.00  0.00     0.079 C 
HETATM   12  C   UNL     1     -44.344 -50.674  14.725  1.00  0.00     0.032 C 
HETATM   13  C   UNL     1     -46.460 -51.549  13.705  1.00  0.00     0.032 C 
ENDBRANCH   7  11
ENDBRANCH   1   5
BRANCH   3  14
HETATM   14  C   UNL     1     -39.020 -53.508  14.518  1.00  0.00     0.128 C 
BRANCH  14  15
HETATM   15  C   UNL     1     -38.885 -52.226  15.332  1.00  0.00     0.077 C 
BRANCH  15  16
HETATM   16  C   UNL     1     -38.526 -51.053  14.479  1.00  0.00     0.018 A 
HETATM   17  C   UNL     1     -38.557 -49.723  14.848  1.00  0.00     0.076 A 
HETATM   18  S   UNL     1     -38.051 -48.731  13.545  1.00  0.00    -0.087 SA
HETATM   19  C   UNL     1     -37.830 -50.137  12.582  1.00  0.00     0.046 A 
HETATM   20  C   UNL     1     -37.354 -50.025  11.176  1.00  0.00     0.076 C 
HETATM   21  N   UNL     1     -38.107 -51.280  13.178  1.00  0.00    -0.357 N 
ATOM     22  HN  UNL     1     -38.025 -52.199  12.743  1.00  0.00     0.166 HD
ENDBRANCH  15  16
ENDBRANCH  14  15
ENDBRANCH   3  14
TORSDOF 5
ENDMDL
MODEL 5
REMARK VINA RESULT:      -5.4      2.599      2.880
REMARK  5 active torsions:
REMARK  status: ('A' for Active; 'I' for Inactive)
REMARK    1  A    between atoms: C_2  and  N_4 
REMARK    2  A    between atoms: C_6  and  C_10 
REMARK       I    between atoms: C_10  and  N_12 
REMARK    3  A    between atoms: N_12  and  C_13 
REMARK    4  A    between atoms: C_13  and  C_14 
REMARK    5  A    between atoms: C_14  and  C_15 
ROOT
HETATM    1  C   UNL     1     -41.850 -52.806  13.986  1.00  0.00     0.223 C 
HETATM    2  O   UNL     1     -42.131 -51.764  14.573  1.00  0.00    -0.273 OA
HETATM    3  N   UNL     1     -40.549 -53.248  13.878  1.00  0.00    -0.360 N 
HETATM    4  H   UNL     1     -40.359 -54.166  13.498  1.00  0.00     0.162 HD
ENDROOT
BRANCH   1   5
HETATM    5  C   UNL     1     -42.884 -53.651  13.258  1.00  0.00     0.104 C 
HETATM    6  C   UNL     1     -43.974 -52.765  12.663  1.00  0.00     0.140 C 
HETATM    7  N   UNL     1     -45.233 -53.332  13.081  1.00  0.00    -0.347 N 
HETATM    8  C   UNL     1     -45.071 -54.438  13.902  1.00  0.00     0.221 C 
HETATM    9  C   UNL     1     -43.607 -54.639  14.167  1.00  0.00     0.118 C 
HETATM   10  O   UNL     1     -45.962 -55.106  14.403  1.00  0.00    -0.273 OA
BRANCH   7  11
HETATM   11  C   UNL     1     -46.474 -52.550  13.121  1.00  0.00     0.079 C 
HETATM   12  C   UNL     1     -46.394 -51.511  14.245  1.00  0.00     0.032 C 
HETATM   13  C   UNL     1     -46.810 -51.858  11.798  1.00  0.00     0.032 C 
ENDBRANCH   7  11
ENDBRANCH   1   5
BRANCH   3  14
HETATM   14  C   UNL     1     -39.493 -52.533  14.579  1.00  0.00     0.128 C 
BRANCH  14  15
HETATM   15  C   UNL     1     -38.552 -51.787  13.639  1.00  0.00     0.077 C 
BRANCH  15  16
HETATM   16  C   UNL     1     -39.129 -50.487  13.183  1.00  0.00     0.018 A 
HETATM   17  C   UNL     1     -39.025 -49.935  11.920  1.00  0.00     0.076 A 
HETATM   18  S   UNL     1     -39.853 -48.436  11.855  1.00  0.00    -0.087 SA
HETATM   19  C   UNL     1     -40.289 -48.624  13.507  1.00  0.00     0.046 A 
HETATM   20  C   UNL     1     -41.102 -47.587  14.199  1.00  0.00     0.076 C 
HETATM   21  N   UNL     1     -39.856 -49.727  14.085  1.00  0.00    -0.357 N 
ATOM     22  HN  UNL     1     -40.032 -49.985  15.056  1.00  0.00     0.166 HD
ENDBRANCH  15  16
ENDBRANCH  14  15
ENDBRANCH   3  14
TORSDOF 5
ENDMDL
MODEL 6
REMARK VINA RESULT:      -5.4      4.355      5.556
REMARK  5 active torsions:
REMARK  status: ('A' for Active; 'I' for Inactive)
REMARK    1  A    between atoms: C_2  and  N_4 
REMARK    2  A    between atoms: C_6  and  C_10 
REMARK       I    between atoms: C_10  and  N_12 
REMARK    3  A    between atoms: N_12  and  C_13 
REMARK    4  A    between atoms: C_13  and  C_14 
REMARK    5  A    between atoms: C_14  and  C_15 
ROOT
HETATM    1  C   UNL     1     -39.490 -47.776  11.871  1.00  0.00     0.223 C 
HETATM    2  O   UNL     1     -39.337 -47.161  12.923  1.00  0.00    -0.273 OA
HETATM    3  N   UNL     1     -39.802 -47.131  10.693  1.00  0.00    -0.360 N 
HETATM    4  H   UNL     1     -39.801 -47.645   9.822  1.00  0.00     0.162 HD
ENDROOT
BRANCH   1   5
HETATM    5  C   UNL     1     -39.436 -49.293  11.784  1.00  0.00     0.104 C 
HETATM    6  C   UNL     1     -39.783 -49.918  13.132  1.00  0.00     0.140 C 
HETATM    7  N   UNL     1     -38.738 -50.870  13.421  1.00  0.00    -0.347 N 
HETATM    8  C   UNL     1     -37.753 -50.891  12.444  1.00  0.00     0.221 C 
HETATM    9  C   UNL     1     -38.054 -49.830  11.425  1.00  0.00     0.118 C 
HETATM   10  O   UNL     1     -36.754 -51.593  12.436  1.00  0.00    -0.273 OA
BRANCH   7  11
HETATM   11  C   UNL     1     -38.445 -51.328  14.784  1.00  0.00     0.079 C 
HETATM   12  C   UNL     1     -38.267 -50.119  15.708  1.00  0.00     0.032 C 
HETATM   13  C   UNL     1     -39.506 -52.269  15.359  1.00  0.00     0.032 C 
ENDBRANCH   7  11
ENDBRANCH   1   5
BRANCH   3  14
HETATM   14  C   UNL     1     -39.832 -45.676  10.663  1.00  0.00     0.128 C 
BRANCH  14  15
HETATM   15  C   UNL     1     -41.237 -45.105  10.814  1.00  0.00     0.077 C 
BRANCH  15  16
HETATM   16  C   UNL     1     -42.287 -46.078  10.385  1.00  0.00     0.018 A 
HETATM   17  C   UNL     1     -43.250 -46.660  11.186  1.00  0.00     0.076 A 
HETATM   18  S   UNL     1     -44.245 -47.703  10.258  1.00  0.00    -0.087 SA
HETATM   19  C   UNL     1     -43.325 -47.310   8.861  1.00  0.00     0.046 A 
HETATM   20  C   UNL     1     -43.657 -47.915   7.541  1.00  0.00     0.076 C 
HETATM   21  N   UNL     1     -42.340 -46.457   9.053  1.00  0.00    -0.357 N 
ATOM     22  HN  UNL     1     -41.707 -46.123   8.326  1.00  0.00     0.166 HD
ENDBRANCH  15  16
ENDBRANCH  14  15
ENDBRANCH   3  14
TORSDOF 5
ENDMDL
MODEL 7
REMARK VINA RESULT:      -5.1      2.813      3.805
REMARK  5 active torsions:
REMARK  status: ('A' for Active; 'I' for Inactive)
REMARK    1  A    between atoms: C_2  and  N_4 
REMARK    2  A    between atoms: C_6  and  C_10 
REMARK       I    between atoms: C_10  and  N_12 
REMARK    3  A    between atoms: N_12  and  C_13 
REMARK    4  A    between atoms: C_13  and  C_14 
REMARK    5  A    between atoms: C_14  and  C_15 
ROOT
HETATM    1  C   UNL     1     -41.828 -53.233  13.499  1.00  0.00     0.223 C 
HETATM    2  O   UNL     1     -41.421 -53.107  14.651  1.00  0.00    -0.273 OA
HETATM    3  N   UNL     1     -41.224 -52.585  12.442  1.00  0.00    -0.360 N 
HETATM    4  H   UNL     1     -41.502 -52.801  11.494  1.00  0.00     0.162 HD
ENDROOT
BRANCH   1   5
HETATM    5  C   UNL     1     -43.071 -54.033  13.143  1.00  0.00     0.104 C 
HETATM    6  C   UNL     1     -44.149 -53.117  12.570  1.00  0.00     0.140 C 
HETATM    7  N   UNL     1     -45.360 -53.406  13.300  1.00  0.00    -0.347 N 
HETATM    8  C   UNL     1     -45.168 -54.357  14.292  1.00  0.00     0.221 C 
HETATM    9  C   UNL     1     -43.713 -54.722  14.344  1.00  0.00     0.118 C 
HETATM   10  O   UNL     1     -46.015 -54.783  15.061  1.00  0.00    -0.273 OA
BRANCH   7  11
HETATM   11  C   UNL     1     -46.473 -52.454  13.386  1.00  0.00     0.079 C 
HETATM   12  C   UNL     1     -46.155 -51.380  14.433  1.00  0.00     0.032 C 
HETATM   13  C   UNL     1     -46.823 -51.791  12.052  1.00  0.00     0.032 C 
ENDBRANCH   7  11
ENDBRANCH   1   5
BRANCH   3  14
HETATM   14  C   UNL     1     -40.001 -51.832  12.674  1.00  0.00     0.128 C 
BRANCH  14  15
HETATM   15  C   UNL     1     -40.235 -50.328  12.768  1.00  0.00     0.077 C 
BRANCH  15  16
HETATM   16  C   UNL     1     -39.506 -49.717  13.920  1.00  0.00     0.018 A 
HETATM   17  C   UNL     1     -39.967 -48.714  14.750  1.00  0.00     0.076 A 
HETATM   18  S   UNL     1     -38.791 -48.340  15.940  1.00  0.00    -0.087 SA
HETATM   19  C   UNL     1     -37.753 -49.533  15.267  1.00  0.00     0.046 A 
HETATM   20  C   UNL     1     -36.409 -49.786  15.855  1.00  0.00     0.076 C 
HETATM   21  N   UNL     1     -38.236 -50.180  14.226  1.00  0.00    -0.357 N 
ATOM     22  HN  UNL     1     -37.746 -50.916  13.717  1.00  0.00     0.166 HD
ENDBRANCH  15  16
ENDBRANCH  14  15
ENDBRANCH   3  14
TORSDOF 5
ENDMDL
MODEL 8
REMARK VINA RESULT:      -5.1      2.095      2.841
REMARK  5 active torsions:
REMARK  status: ('A' for Active; 'I' for Inactive)
REMARK    1  A    between atoms: C_2  and  N_4 
REMARK    2  A    between atoms: C_6  and  C_10 
REMARK       I    between atoms: C_10  and  N_12 
REMARK    3  A    between atoms: N_12  and  C_13 
REMARK    4  A    between atoms: C_13  and  C_14 
REMARK    5  A    between atoms: C_14  and  C_15 
ROOT
HETATM    1  C   UNL     1     -41.969 -50.499  13.664  1.00  0.00     0.223 C 
HETATM    2  O   UNL     1     -40.975 -50.980  13.127  1.00  0.00    -0.273 OA
HETATM    3  N   UNL     1     -42.406 -49.224  13.371  1.00  0.00    -0.360 N 
HETATM    4  H   UNL     1     -43.293 -48.899  13.734  1.00  0.00     0.162 HD
ENDROOT
BRANCH   1   5
HETATM    5  C   UNL     1     -42.753 -51.217  14.751  1.00  0.00     0.104 C 
HETATM    6  C   UNL     1     -43.377 -52.496  14.202  1.00  0.00     0.140 C 
HETATM    7  N   UNL     1     -44.770 -52.464  14.578  1.00  0.00    -0.347 N 
HETATM    8  C   UNL     1     -45.110 -51.303  15.256  1.00  0.00     0.221 C 
HETATM    9  C   UNL     1     -43.914 -50.397  15.304  1.00  0.00     0.118 C 
HETATM   10  O   UNL     1     -46.216 -51.010  15.683  1.00  0.00    -0.273 OA
BRANCH   7  11
HETATM   11  C   UNL     1     -45.795 -53.241  13.870  1.00  0.00     0.079 C 
HETATM   12  C   UNL     1     -46.083 -52.597  12.509  1.00  0.00     0.032 C 
HETATM   13  C   UNL     1     -45.430 -54.715  13.681  1.00  0.00     0.032 C 
ENDBRANCH   7  11
ENDBRANCH   1   5
BRANCH   3  14
HETATM   14  C   UNL     1     -41.750 -48.472  12.312  1.00  0.00     0.128 C 
BRANCH  14  15
HETATM   15  C   UNL     1     -42.499 -47.199  11.933  1.00  0.00     0.077 C 
BRANCH  15  16
HETATM   16  C   UNL     1     -43.224 -47.340  10.634  1.00  0.00     0.018 A 
HETATM   17  C   UNL     1     -42.668 -47.657   9.409  1.00  0.00     0.076 A 
HETATM   18  S   UNL     1     -43.883 -47.717   8.202  1.00  0.00    -0.087 SA
HETATM   19  C   UNL     1     -45.060 -47.316   9.389  1.00  0.00     0.046 A 
HETATM   20  C   UNL     1     -46.495 -47.181   9.018  1.00  0.00     0.076 C 
HETATM   21  N   UNL     1     -44.596 -47.147  10.611  1.00  0.00    -0.357 N 
ATOM     22  HN  UNL     1     -45.164 -46.910  11.424  1.00  0.00     0.166 HD
ENDBRANCH  15  16
ENDBRANCH  14  15
ENDBRANCH   3  14
TORSDOF 5
ENDMDL
MODEL 9
REMARK VINA RESULT:      -5.0      1.705      2.316
REMARK  5 active torsions:
REMARK  status: ('A' for Active; 'I' for Inactive)
REMARK    1  A    between atoms: C_2  and  N_4 
REMARK    2  A    between atoms: C_6  and  C_10 
REMARK       I    between atoms: C_10  and  N_12 
REMARK    3  A    between atoms: N_12  and  C_13 
REMARK    4  A    between atoms: C_13  and  C_14 
REMARK    5  A    between atoms: C_14  and  C_15 
ROOT
HETATM    1  C   UNL     1     -41.527 -52.269  12.510  1.00  0.00     0.223 C 
HETATM    2  O   UNL     1     -40.455 -52.834  12.308  1.00  0.00    -0.273 OA
HETATM    3  N   UNL     1     -41.593 -50.923  12.801  1.00  0.00    -0.360 N 
HETATM    4  H   UNL     1     -42.491 -50.459  12.841  1.00  0.00     0.162 HD
ENDROOT
BRANCH   1   5
HETATM    5  C   UNL     1     -42.857 -53.005  12.545  1.00  0.00     0.104 C 
HETATM    6  C   UNL     1     -43.971 -52.072  13.010  1.00  0.00     0.140 C 
HETATM    7  N   UNL     1     -44.670 -52.765  14.066  1.00  0.00    -0.347 N 
HETATM    8  C   UNL     1     -44.107 -53.999  14.353  1.00  0.00     0.221 C 
HETATM    9  C   UNL     1     -42.874 -54.181  13.517  1.00  0.00     0.118 C 
HETATM   10  O   UNL     1     -44.489 -54.791  15.201  1.00  0.00    -0.273 OA
BRANCH   7  11
HETATM   11  C   UNL     1     -45.477 -52.062  15.069  1.00  0.00     0.079 C 
HETATM   12  C   UNL     1     -44.620 -51.003  15.772  1.00  0.00     0.032 C 
HETATM   13  C   UNL     1     -46.741 -51.412  14.500  1.00  0.00     0.032 C 
ENDBRANCH   7  11
ENDBRANCH   1   5
BRANCH   3  14
HETATM   14  C   UNL     1     -40.379 -50.122  12.747  1.00  0.00     0.128 C 
BRANCH  14  15
HETATM   15  C   UNL     1     -40.212 -49.381  11.425  1.00  0.00     0.077 C 
BRANCH  15  16
HETATM   16  C   UNL     1     -40.295 -47.900  11.597  1.00  0.00     0.018 A 
HETATM   17  C   UNL     1     -41.027 -47.019  10.825  1.00  0.00     0.076 A 
HETATM   18  S   UNL     1     -40.828 -45.417  11.399  1.00  0.00    -0.087 SA
HETATM   19  C   UNL     1     -39.782 -46.005  12.629  1.00  0.00     0.046 A 
HETATM   20  C   UNL     1     -39.163 -45.070  13.608  1.00  0.00     0.076 C 
HETATM   21  N   UNL     1     -39.585 -47.308  12.629  1.00  0.00    -0.357 N 
ATOM     22  HN  UNL     1     -38.995 -47.809  13.293  1.00  0.00     0.166 HD
ENDBRANCH  15  16
ENDBRANCH  14  15
ENDBRANCH   3  14
TORSDOF 5
ENDMDL
