MODEL 1
REMARK VINA RESULT:      -5.8      0.000      0.000
REMARK  4 active torsions:
REMARK  status: ('A' for Active; 'I' for Inactive)
REMARK    1  A    between atoms: C_2  and  C_3 
REMARK    2  A    between atoms: C_2  and  C_13 
REMARK    3  A    between atoms: C_3  and  N_4 
REMARK       I    between atoms: N_4  and  C_5 
REMARK       I    between atoms: C_5  and  N_7 
REMARK    4  A    between atoms: N_7  and  C_8 
ROOT
HETATM    1  N   UNL     1     -42.016 -50.411  11.846  1.00  0.00    -0.342 N 
HETATM    2  C   UNL     1     -41.910 -51.762  12.049  1.00  0.00     0.316 C 
HETATM    3  O   UNL     1     -40.903 -52.412  11.797  1.00  0.00    -0.247 OA
HETATM    4  N   UNL     1     -43.033 -52.286  12.629  1.00  0.00    -0.338 N 
HETATM    5  H   UNL     1     -42.947 -50.040  11.702  1.00  0.00     0.164 HD
HETATM    6  H   UNL     1     -43.893 -51.767  12.530  1.00  0.00     0.164 HD
ENDROOT
BRANCH   1   7
HETATM    7  C   UNL     1     -40.933 -49.695  11.195  1.00  0.00     0.135 C 
BRANCH   7   8
HETATM    8  C   UNL     1     -41.166 -48.184  11.045  1.00  0.00     0.057 C 
HETATM    9  C   UNL     1     -41.339 -47.483  12.395  1.00  0.00     0.018 C 
BRANCH   8  10
HETATM   10  C   UNL     1     -42.357 -47.905  10.163  1.00  0.00     0.056 A 
HETATM   11  N   UNL     1     -42.353 -48.020   8.849  1.00  0.00    -0.362 N 
HETATM   12  C   UNL     1     -43.618 -47.756   8.358  1.00  0.00     0.102 A 
ATOM     13  HN  UNL     1     -41.542 -48.266   8.282  1.00  0.00     0.165 HD
HETATM   14  C   UNL     1     -44.570 -47.428   9.300  1.00  0.00    -0.004 A 
HETATM   15  C   UNL     1     -46.010 -47.114   9.121  1.00  0.00     0.058 C 
HETATM   16  S   UNL     1     -43.858 -47.428  10.856  1.00  0.00    -0.080 SA
ENDBRANCH   8  10
ENDBRANCH   7   8
ENDBRANCH   1   7
BRANCH   4  17
HETATM   17  C   UNL     1     -43.138 -53.716  12.917  1.00  0.00     0.093 C 
HETATM   18  C   UNL     1     -44.592 -54.209  12.793  1.00  0.00     0.052 C 
HETATM   19  C   UNL     1     -45.062 -54.240  14.217  1.00  0.00    -0.029 C 
HETATM   20  C   UNL     1     -44.045 -54.133  15.076  1.00  0.00    -0.029 C 
HETATM   21  C   UNL     1     -42.732 -54.016  14.371  1.00  0.00     0.052 C 
ENDBRANCH   4  17
TORSDOF 4
ENDMDL
MODEL 2
REMARK VINA RESULT:      -5.8      4.097      7.128
REMARK  4 active torsions:
REMARK  status: ('A' for Active; 'I' for Inactive)
REMARK    1  A    between atoms: C_2  and  C_3 
REMARK    2  A    between atoms: C_2  and  C_13 
REMARK    3  A    between atoms: C_3  and  N_4 
REMARK       I    between atoms: N_4  and  C_5 
REMARK       I    between atoms: C_5  and  N_7 
REMARK    4  A    between atoms: N_7  and  C_8 
ROOT
HETATM    1  N   UNL     1     -40.457 -49.782  10.651  1.00  0.00    -0.342 N 
HETATM    2  C   UNL     1     -41.189 -48.630  10.772  1.00  0.00     0.316 C 
HETATM    3  O   UNL     1     -41.123 -47.880  11.738  1.00  0.00    -0.247 OA
HETATM    4  N   UNL     1     -41.947 -48.381   9.660  1.00  0.00    -0.338 N 
HETATM    5  H   UNL     1     -40.840 -50.509  10.058  1.00  0.00     0.164 HD
HETATM    6  H   UNL     1     -42.169 -49.164   9.064  1.00  0.00     0.164 HD
ENDROOT
BRANCH   1   7
HETATM    7  C   UNL     1     -39.630 -50.228  11.759  1.00  0.00     0.135 C 
BRANCH   7   8
HETATM    8  C   UNL     1     -38.284 -49.498  11.884  1.00  0.00     0.057 C 
HETATM    9  C   UNL     1     -37.192 -50.135  11.020  1.00  0.00     0.018 C 
BRANCH   8  10
HETATM   10  C   UNL     1     -37.833 -49.435  13.321  1.00  0.00     0.056 A 
HETATM   11  N   UNL     1     -37.364 -50.464  14.000  1.00  0.00    -0.362 N 
HETATM   12  C   UNL     1     -36.981 -50.050  15.261  1.00  0.00     0.102 A 
ATOM     13  HN  UNL     1     -37.295 -51.418  13.647  1.00  0.00     0.165 HD
HETATM   14  C   UNL     1     -37.176 -48.713  15.539  1.00  0.00    -0.004 A 
HETATM   15  C   UNL     1     -36.859 -47.946  16.769  1.00  0.00     0.058 C 
HETATM   16  S   UNL     1     -37.882 -47.946  14.182  1.00  0.00    -0.080 SA
ENDBRANCH   8  10
ENDBRANCH   7   8
ENDBRANCH   1   7
BRANCH   4  17
HETATM   17  C   UNL     1     -42.818 -47.209   9.587  1.00  0.00     0.093 C 
HETATM   18  C   UNL     1     -43.984 -47.312  10.589  1.00  0.00     0.052 C 
HETATM   19  C   UNL     1     -45.124 -47.782   9.735  1.00  0.00    -0.029 C 
HETATM   20  C   UNL     1     -44.847 -47.668   8.433  1.00  0.00    -0.029 C 
HETATM   21  C   UNL     1     -43.483 -47.102   8.203  1.00  0.00     0.052 C 
ENDBRANCH   4  17
TORSDOF 4
ENDMDL
MODEL 3
REMARK VINA RESULT:      -5.6      2.132      2.728
REMARK  4 active torsions:
REMARK  status: ('A' for Active; 'I' for Inactive)
REMARK    1  A    between atoms: C_2  and  C_3 
REMARK    2  A    between atoms: C_2  and  C_13 
REMARK    3  A    between atoms: C_3  and  N_4 
REMARK       I    between atoms: N_4  and  C_5 
REMARK       I    between atoms: C_5  and  N_7 
REMARK    4  A    between atoms: N_7  and  C_8 
ROOT
HETATM    1  N   UNL     1     -40.463 -51.176  13.536  1.00  0.00    -0.342 N 
HETATM    2  C   UNL     1     -40.821 -52.467  13.246  1.00  0.00     0.316 C 
HETATM    3  O   UNL     1     -40.045 -53.307  12.810  1.00  0.00    -0.247 OA
HETATM    4  N   UNL     1     -42.126 -52.724  13.567  1.00  0.00    -0.338 N 
HETATM    5  H   UNL     1     -41.197 -50.478  13.506  1.00  0.00     0.164 HD
HETATM    6  H   UNL     1     -42.753 -51.936  13.634  1.00  0.00     0.164 HD
ENDROOT
BRANCH   1   7
HETATM    7  C   UNL     1     -39.125 -50.713  13.215  1.00  0.00     0.135 C 
BRANCH   7   8
HETATM    8  C   UNL     1     -38.941 -50.250  11.762  1.00  0.00     0.057 C 
HETATM    9  C   UNL     1     -37.524 -49.739  11.487  1.00  0.00     0.018 C 
BRANCH   8  10
HETATM   10  C   UNL     1     -39.950 -49.190  11.399  1.00  0.00     0.056 A 
HETATM   11  N   UNL     1     -40.905 -49.349  10.503  1.00  0.00    -0.362 N 
HETATM   12  C   UNL     1     -41.693 -48.214  10.462  1.00  0.00     0.102 A 
ATOM     13  HN  UNL     1     -41.041 -50.181   9.929  1.00  0.00     0.165 HD
HETATM   14  C   UNL     1     -41.323 -47.196  11.315  1.00  0.00    -0.004 A 
HETATM   15  C   UNL     1     -41.954 -45.871  11.537  1.00  0.00     0.058 C 
HETATM   16  S   UNL     1     -39.927 -47.662  12.188  1.00  0.00    -0.080 SA
ENDBRANCH   8  10
ENDBRANCH   7   8
ENDBRANCH   1   7
BRANCH   4  17
HETATM   17  C   UNL     1     -42.719 -54.039  13.324  1.00  0.00     0.093 C 
HETATM   18  C   UNL     1     -44.077 -53.918  12.607  1.00  0.00     0.052 C 
HETATM   19  C   UNL     1     -45.065 -54.064  13.725  1.00  0.00    -0.029 C 
HETATM   20  C   UNL     1     -44.487 -54.523  14.840  1.00  0.00    -0.029 C 
HETATM   21  C   UNL     1     -43.024 -54.760  14.648  1.00  0.00     0.052 C 
ENDBRANCH   4  17
TORSDOF 4
ENDMDL
MODEL 4
REMARK VINA RESULT:      -5.6      2.567      2.867
REMARK  4 active torsions:
REMARK  status: ('A' for Active; 'I' for Inactive)
REMARK    1  A    between atoms: C_2  and  C_3 
REMARK    2  A    between atoms: C_2  and  C_13 
REMARK    3  A    between atoms: C_3  and  N_4 
REMARK       I    between atoms: N_4  and  C_5 
REMARK       I    between atoms: C_5  and  N_7 
REMARK    4  A    between atoms: N_7  and  C_8 
ROOT
HETATM    1  N   UNL     1     -41.812 -50.008  11.652  1.00  0.00    -0.342 N 
HETATM    2  C   UNL     1     -42.262 -51.089  12.363  1.00  0.00     0.316 C 
HETATM    3  O   UNL     1     -41.536 -51.989  12.765  1.00  0.00    -0.247 OA
HETATM    4  N   UNL     1     -43.601 -51.010  12.631  1.00  0.00    -0.338 N 
HETATM    5  H   UNL     1     -42.480 -49.548  11.044  1.00  0.00     0.164 HD
HETATM    6  H   UNL     1     -44.161 -50.419  12.034  1.00  0.00     0.164 HD
ENDROOT
BRANCH   1   7
HETATM    7  C   UNL     1     -40.421 -49.948  11.237  1.00  0.00     0.135 C 
BRANCH   7   8
HETATM    8  C   UNL     1     -39.625 -48.781  11.840  1.00  0.00     0.057 C 
HETATM    9  C   UNL     1     -39.336 -48.980  13.330  1.00  0.00     0.018 C 
BRANCH   8  10
HETATM   10  C   UNL     1     -40.338 -47.470  11.623  1.00  0.00     0.056 A 
HETATM   11  N   UNL     1     -40.564 -46.932  10.440  1.00  0.00    -0.362 N 
HETATM   12  C   UNL     1     -41.295 -45.770  10.594  1.00  0.00     0.102 A 
ATOM     13  HN  UNL     1     -40.248 -47.316   9.550  1.00  0.00     0.165 HD
HETATM   14  C   UNL     1     -41.605 -45.423  11.891  1.00  0.00    -0.004 A 
HETATM   15  C   UNL     1     -42.385 -44.268  12.402  1.00  0.00     0.058 C 
HETATM   16  S   UNL     1     -40.944 -46.580  12.965  1.00  0.00    -0.080 SA
ENDBRANCH   8  10
ENDBRANCH   7   8
ENDBRANCH   1   7
BRANCH   4  17
HETATM   17  C   UNL     1     -44.289 -52.070  13.366  1.00  0.00     0.093 C 
HETATM   18  C   UNL     1     -45.679 -52.357  12.768  1.00  0.00     0.052 C 
HETATM   19  C   UNL     1     -46.602 -51.603  13.679  1.00  0.00    -0.029 C 
HETATM   20  C   UNL     1     -45.984 -51.216  14.799  1.00  0.00    -0.029 C 
HETATM   21  C   UNL     1     -44.554 -51.649  14.822  1.00  0.00     0.052 C 
ENDBRANCH   4  17
TORSDOF 4
ENDMDL
MODEL 5
REMARK VINA RESULT:      -5.5      2.847      6.610
REMARK  4 active torsions:
REMARK  status: ('A' for Active; 'I' for Inactive)
REMARK    1  A    between atoms: C_2  and  C_3 
REMARK    2  A    between atoms: C_2  and  C_13 
REMARK    3  A    between atoms: C_3  and  N_4 
REMARK       I    between atoms: N_4  and  C_5 
REMARK       I    between atoms: C_5  and  N_7 
REMARK    4  A    between atoms: N_7  and  C_8 
ROOT
HETATM    1  N   UNL     1     -40.890 -48.833  11.175  1.00  0.00    -0.342 N 
HETATM    2  C   UNL     1     -41.466 -47.796  10.490  1.00  0.00     0.316 C 
HETATM    3  O   UNL     1     -41.119 -46.628  10.605  1.00  0.00    -0.247 OA
HETATM    4  N   UNL     1     -42.424 -48.227   9.612  1.00  0.00    -0.338 N 
HETATM    5  H   UNL     1     -41.460 -49.658  11.326  1.00  0.00     0.164 HD
HETATM    6  H   UNL     1     -42.845 -49.127   9.788  1.00  0.00     0.164 HD
ENDROOT
BRANCH   1   7
HETATM    7  C   UNL     1     -39.884 -48.556  12.185  1.00  0.00     0.135 C 
BRANCH   7   8
HETATM    8  C   UNL     1     -38.969 -49.745  12.517  1.00  0.00     0.057 C 
HETATM    9  C   UNL     1     -37.887 -49.964  11.455  1.00  0.00     0.018 C 
BRANCH   8  10
HETATM   10  C   UNL     1     -39.769 -51.009  12.706  1.00  0.00     0.056 A 
HETATM   11  N   UNL     1     -40.280 -51.720  11.719  1.00  0.00    -0.362 N 
HETATM   12  C   UNL     1     -40.894 -52.847  12.233  1.00  0.00     0.102 A 
ATOM     13  HN  UNL     1     -40.230 -51.476  10.731  1.00  0.00     0.165 HD
HETATM   14  C   UNL     1     -40.859 -52.977  13.605  1.00  0.00    -0.004 A 
HETATM   15  C   UNL     1     -41.392 -54.061  14.467  1.00  0.00     0.058 C 
HETATM   16  S   UNL     1     -40.047 -51.633  14.285  1.00  0.00    -0.080 SA
ENDBRANCH   8  10
ENDBRANCH   7   8
ENDBRANCH   1   7
BRANCH   4  17
HETATM   17  C   UNL     1     -43.177 -47.280   8.791  1.00  0.00     0.093 C 
HETATM   18  C   UNL     1     -44.409 -46.741   9.543  1.00  0.00     0.052 C 
HETATM   19  C   UNL     1     -45.531 -47.573   8.996  1.00  0.00    -0.029 C 
HETATM   20  C   UNL     1     -45.161 -48.242   7.899  1.00  0.00    -0.029 C 
HETATM   21  C   UNL     1     -43.739 -47.965   7.534  1.00  0.00     0.052 C 
ENDBRANCH   4  17
TORSDOF 4
ENDMDL
MODEL 6
REMARK VINA RESULT:      -5.4      2.434      3.288
REMARK  4 active torsions:
REMARK  status: ('A' for Active; 'I' for Inactive)
REMARK    1  A    between atoms: C_2  and  C_3 
REMARK    2  A    between atoms: C_2  and  C_13 
REMARK    3  A    between atoms: C_3  and  N_4 
REMARK       I    between atoms: N_4  and  C_5 
REMARK       I    between atoms: C_5  and  N_7 
REMARK    4  A    between atoms: N_7  and  C_8 
ROOT
HETATM    1  N   UNL     1     -41.776 -50.032  11.353  1.00  0.00    -0.342 N 
HETATM    2  C   UNL     1     -42.290 -50.429  12.559  1.00  0.00     0.316 C 
HETATM    3  O   UNL     1     -42.304 -49.721  13.559  1.00  0.00    -0.247 OA
HETATM    4  N   UNL     1     -42.848 -51.676  12.498  1.00  0.00    -0.338 N 
HETATM    5  H   UNL     1     -41.451 -50.763  10.730  1.00  0.00     0.164 HD
HETATM    6  H   UNL     1     -42.541 -52.287  11.756  1.00  0.00     0.164 HD
ENDROOT
BRANCH   1   7
HETATM    7  C   UNL     1     -41.101 -48.750  11.245  1.00  0.00     0.135 C 
BRANCH   7   8
HETATM    8  C   UNL     1     -42.026 -47.568  10.918  1.00  0.00     0.057 C 
HETATM    9  C   UNL     1     -42.740 -47.738   9.574  1.00  0.00     0.018 C 
BRANCH   8  10
HETATM   10  C   UNL     1     -41.268 -46.265  10.938  1.00  0.00     0.056 A 
HETATM   11  N   UNL     1     -40.145 -46.047  10.280  1.00  0.00    -0.362 N 
HETATM   12  C   UNL     1     -39.752 -44.735  10.460  1.00  0.00     0.102 A 
ATOM     13  HN  UNL     1     -39.645 -46.741   9.725  1.00  0.00     0.165 HD
HETATM   14  C   UNL     1     -40.568 -43.969  11.265  1.00  0.00    -0.004 A 
HETATM   15  C   UNL     1     -40.452 -42.538  11.641  1.00  0.00     0.058 C 
HETATM   16  S   UNL     1     -41.866 -44.926  11.837  1.00  0.00    -0.080 SA
ENDBRANCH   8  10
ENDBRANCH   7   8
ENDBRANCH   1   7
BRANCH   4  17
HETATM   17  C   UNL     1     -43.440 -52.298  13.681  1.00  0.00     0.093 C 
HETATM   18  C   UNL     1     -43.266 -53.829  13.657  1.00  0.00     0.052 C 
HETATM   19  C   UNL     1     -44.597 -54.314  13.164  1.00  0.00    -0.029 C 
HETATM   20  C   UNL     1     -45.520 -53.347  13.200  1.00  0.00    -0.029 C 
HETATM   21  C   UNL     1     -44.960 -52.065  13.725  1.00  0.00     0.052 C 
ENDBRANCH   4  17
TORSDOF 4
ENDMDL
MODEL 7
REMARK VINA RESULT:      -5.4      3.342      4.716
REMARK  4 active torsions:
REMARK  status: ('A' for Active; 'I' for Inactive)
REMARK    1  A    between atoms: C_2  and  C_3 
REMARK    2  A    between atoms: C_2  and  C_13 
REMARK    3  A    between atoms: C_3  and  N_4 
REMARK       I    between atoms: N_4  and  C_5 
REMARK       I    between atoms: C_5  and  N_7 
REMARK    4  A    between atoms: N_7  and  C_8 
ROOT
HETATM    1  N   UNL     1     -42.444 -53.795  13.826  1.00  0.00    -0.342 N 
HETATM    2  C   UNL     1     -43.714 -53.714  13.317  1.00  0.00     0.316 C 
HETATM    3  O   UNL     1     -43.997 -53.962  12.151  1.00  0.00    -0.247 OA
HETATM    4  N   UNL     1     -44.635 -53.394  14.276  1.00  0.00    -0.338 N 
HETATM    5  H   UNL     1     -42.237 -53.221  14.634  1.00  0.00     0.164 HD
HETATM    6  H   UNL     1     -44.299 -52.929  15.107  1.00  0.00     0.164 HD
ENDROOT
BRANCH   1   7
HETATM    7  C   UNL     1     -41.330 -54.079  12.938  1.00  0.00     0.135 C 
BRANCH   7   8
HETATM    8  C   UNL     1     -40.052 -53.284  13.244  1.00  0.00     0.057 C 
HETATM    9  C   UNL     1     -39.773 -53.183  14.746  1.00  0.00     0.018 C 
BRANCH   8  10
HETATM   10  C   UNL     1     -40.113 -51.905  12.637  1.00  0.00     0.056 A 
HETATM   11  N   UNL     1     -40.813 -51.595  11.563  1.00  0.00    -0.362 N 
HETATM   12  C   UNL     1     -40.703 -50.240  11.315  1.00  0.00     0.102 A 
ATOM     13  HN  UNL     1     -41.352 -52.254  11.002  1.00  0.00     0.165 HD
HETATM   14  C   UNL     1     -39.909 -49.532  12.192  1.00  0.00    -0.004 A 
HETATM   15  C   UNL     1     -39.599 -48.081  12.229  1.00  0.00     0.058 C 
HETATM   16  S   UNL     1     -39.256 -50.600  13.360  1.00  0.00    -0.080 SA
ENDBRANCH   8  10
ENDBRANCH   7   8
ENDBRANCH   1   7
BRANCH   4  17
HETATM   17  C   UNL     1     -46.051 -53.240  13.943  1.00  0.00     0.093 C 
HETATM   18  C   UNL     1     -46.375 -51.793  13.527  1.00  0.00     0.052 C 
HETATM   19  C   UNL     1     -46.962 -51.204  14.775  1.00  0.00    -0.029 C 
HETATM   20  C   UNL     1     -47.267 -52.148  15.671  1.00  0.00    -0.029 C 
HETATM   21  C   UNL     1     -46.939 -53.517  15.169  1.00  0.00     0.052 C 
ENDBRANCH   4  17
TORSDOF 4
ENDMDL
MODEL 8
REMARK VINA RESULT:      -5.4      3.931      5.670
REMARK  4 active torsions:
REMARK  status: ('A' for Active; 'I' for Inactive)
REMARK    1  A    between atoms: C_2  and  C_3 
REMARK    2  A    between atoms: C_2  and  C_13 
REMARK    3  A    between atoms: C_3  and  N_4 
REMARK       I    between atoms: N_4  and  C_5 
REMARK       I    between atoms: C_5  and  N_7 
REMARK    4  A    between atoms: N_7  and  C_8 
ROOT
HETATM    1  N   UNL     1     -42.277 -54.040  15.613  1.00  0.00    -0.342 N 
HETATM    2  C   UNL     1     -43.546 -54.354  15.202  1.00  0.00     0.316 C 
HETATM    3  O   UNL     1     -43.878 -55.465  14.807  1.00  0.00    -0.247 OA
HETATM    4  N   UNL     1     -44.411 -53.304  15.349  1.00  0.00    -0.338 N 
HETATM    5  H   UNL     1     -41.998 -53.069  15.542  1.00  0.00     0.164 HD
HETATM    6  H   UNL     1     -44.014 -52.377  15.392  1.00  0.00     0.164 HD
ENDROOT
BRANCH   1   7
HETATM    7  C   UNL     1     -41.215 -55.023  15.484  1.00  0.00     0.135 C 
BRANCH   7   8
HETATM    8  C   UNL     1     -39.939 -54.498  14.809  1.00  0.00     0.057 C 
HETATM    9  C   UNL     1     -38.998 -53.805  15.798  1.00  0.00     0.018 C 
BRANCH   8  10
HETATM   10  C   UNL     1     -40.272 -53.564  13.673  1.00  0.00     0.056 A 
HETATM   11  N   UNL     1     -40.843 -53.938  12.544  1.00  0.00    -0.362 N 
HETATM   12  C   UNL     1     -41.067 -52.829  11.751  1.00  0.00     0.102 A 
ATOM     13  HN  UNL     1     -41.082 -54.897  12.297  1.00  0.00     0.165 HD
HETATM   14  C   UNL     1     -40.651 -51.623  12.273  1.00  0.00    -0.004 A 
HETATM   15  C   UNL     1     -40.758 -50.257  11.703  1.00  0.00     0.058 C 
HETATM   16  S   UNL     1     -39.934 -51.882  13.806  1.00  0.00    -0.080 SA
ENDBRANCH   8  10
ENDBRANCH   7   8
ENDBRANCH   1   7
BRANCH   4  17
HETATM   17  C   UNL     1     -45.813 -53.420  14.954  1.00  0.00     0.093 C 
HETATM   18  C   UNL     1     -46.028 -52.952  13.502  1.00  0.00     0.052 C 
HETATM   19  C   UNL     1     -46.550 -51.556  13.669  1.00  0.00    -0.029 C 
HETATM   20  C   UNL     1     -46.917 -51.313  14.931  1.00  0.00    -0.029 C 
HETATM   21  C   UNL     1     -46.705 -52.502  15.809  1.00  0.00     0.052 C 
ENDBRANCH   4  17
TORSDOF 4
ENDMDL
MODEL 9
REMARK VINA RESULT:      -5.3      2.997      6.503
REMARK  4 active torsions:
REMARK  status: ('A' for Active; 'I' for Inactive)
REMARK    1  A    between atoms: C_2  and  C_3 
REMARK    2  A    between atoms: C_2  and  C_13 
REMARK    3  A    between atoms: C_3  and  N_4 
REMARK       I    between atoms: N_4  and  C_5 
REMARK       I    between atoms: C_5  and  N_7 
REMARK    4  A    between atoms: N_7  and  C_8 
ROOT
HETATM    1  N   UNL     1     -41.309 -50.565  11.629  1.00  0.00    -0.342 N 
HETATM    2  C   UNL     1     -40.281 -49.661  11.590  1.00  0.00     0.316 C 
HETATM    3  O   UNL     1     -39.099 -49.976  11.522  1.00  0.00    -0.247 OA
HETATM    4  N   UNL     1     -40.730 -48.369  11.566  1.00  0.00    -0.338 N 
HETATM    5  H   UNL     1     -42.171 -50.262  12.068  1.00  0.00     0.164 HD
HETATM    6  H   UNL     1     -41.661 -48.193  11.916  1.00  0.00     0.164 HD
ENDROOT
BRANCH   1   7
HETATM    7  C   UNL     1     -41.015 -51.985  11.708  1.00  0.00     0.135 C 
BRANCH   7   8
HETATM    8  C   UNL     1     -41.619 -52.695  12.929  1.00  0.00     0.057 C 
HETATM    9  C   UNL     1     -41.251 -54.181  12.982  1.00  0.00     0.018 C 
BRANCH   8  10
HETATM   10  C   UNL     1     -43.118 -52.534  12.963  1.00  0.00     0.056 A 
HETATM   11  N   UNL     1     -43.951 -53.142  12.141  1.00  0.00    -0.362 N 
HETATM   12  C   UNL     1     -45.252 -52.829  12.486  1.00  0.00     0.102 A 
ATOM     13  HN  UNL     1     -43.676 -53.750  11.369  1.00  0.00     0.165 HD
HETATM   14  C   UNL     1     -45.399 -51.973  13.557  1.00  0.00    -0.004 A 
HETATM   15  C   UNL     1     -46.636 -51.459  14.195  1.00  0.00     0.058 C 
HETATM   16  S   UNL     1     -43.855 -51.525  14.146  1.00  0.00    -0.080 SA
ENDBRANCH   8  10
ENDBRANCH   7   8
ENDBRANCH   1   7
BRANCH   4  17
HETATM   17  C   UNL     1     -39.796 -47.244  11.540  1.00  0.00     0.093 C 
HETATM   18  C   UNL     1     -39.583 -46.659  12.950  1.00  0.00     0.052 C 
HETATM   19  C   UNL     1     -40.485 -45.460  12.959  1.00  0.00    -0.029 C 
HETATM   20  C   UNL     1     -40.906 -45.149  11.729  1.00  0.00    -0.029 C 
HETATM   21  C   UNL     1     -40.355 -46.082  10.701  1.00  0.00     0.052 C 
ENDBRANCH   4  17
TORSDOF 4
ENDMDL
