MODEL 1
REMARK VINA RESULT:      -6.2      0.000      0.000
REMARK  6 active torsions:
REMARK  status: ('A' for Active; 'I' for Inactive)
REMARK    1  A    between atoms: C_2  and  N_3 
REMARK    2  A    between atoms: N_6  and  C_7 
REMARK    3  A    between atoms: C_7  and  C_8 
REMARK    4  A    between atoms: C_8  and  O_9 
REMARK    5  A    between atoms: C_8  and  C_10 
REMARK    6  A    between atoms: C_10  and  N_11 
ROOT
HETATM    1  C   UNL     1     -42.416 -53.713  12.905  1.00  0.00     0.167 C 
ENDROOT
BRANCH   1   2
HETATM    2  N   UNL     1     -43.147 -53.210  14.051  1.00  0.00    -0.295 N 
HETATM    3  C   UNL     1     -42.733 -53.294  15.407  1.00  0.00     0.330 A 
HETATM    4  N   UNL     1     -43.792 -52.783  16.183  1.00  0.00    -0.298 N 
HETATM    5  O   UNL     1     -41.675 -53.722  15.843  1.00  0.00    -0.246 OA
HETATM    6  C   UNL     1     -44.805 -52.335  15.329  1.00  0.00     0.065 A 
HETATM    7  C   UNL     1     -44.401 -52.575  14.014  1.00  0.00     0.066 A 
HETATM    8  C   UNL     1     -46.017 -51.745  15.630  1.00  0.00     0.032 A 
HETATM    9  C   UNL     1     -45.190 -52.210  12.941  1.00  0.00     0.032 A 
HETATM   10  C   UNL     1     -46.415 -51.593  13.226  1.00  0.00     0.002 A 
HETATM   11  C   UNL     1     -46.826 -51.366  14.554  1.00  0.00     0.002 A 
BRANCH   4  12
HETATM   12  C   UNL     1     -43.881 -52.927  17.612  1.00  0.00     0.130 C 
HETATM   13  C   UNL     1     -44.510 -54.257  18.003  1.00  0.00     0.027 C 
ENDBRANCH   4  12
ENDBRANCH   1   2
BRANCH   1  14
HETATM   14  C   UNL     1     -41.182 -52.861  12.542  1.00  0.00     0.164 C 
BRANCH  14  15
HETATM   15  O   UNL     1     -40.510 -53.434  11.414  1.00  0.00    -0.392 OA
HETATM   16  H   UNL     1     -39.603 -53.068  11.447  1.00  0.00     0.210 HD
ENDBRANCH  14  15
BRANCH  14  17
HETATM   17  C   UNL     1     -41.554 -51.407  12.201  1.00  0.00     0.305 C 
BRANCH  17  18
HETATM   18  N   UNL     1     -40.928 -50.420  13.121  1.00  0.00     0.096 N 
HETATM   19  C   UNL     1     -41.339 -49.009  12.887  1.00  0.00     0.303 C 
HETATM   20  C   UNL     1     -40.766 -48.371  11.596  1.00  0.00     0.146 C 
HETATM   21  C   UNL     1     -41.111 -46.887  11.521  1.00  0.00     0.041 C 
HETATM   22  O   UNL     1     -39.332 -48.496  11.550  1.00  0.00    -0.378 OA
HETATM   23  C   UNL     1     -38.945 -49.875  11.658  1.00  0.00     0.146 C 
HETATM   24  C   UNL     1     -37.433 -49.981  11.541  1.00  0.00     0.041 C 
HETATM   25  C   UNL     1     -39.449 -50.465  12.996  1.00  0.00     0.303 C 
ENDBRANCH  17  18
ENDBRANCH  14  17
ENDBRANCH   1  14
TORSDOF 6
ENDMDL
MODEL 2
REMARK VINA RESULT:      -6.1      2.446      3.240
REMARK  6 active torsions:
REMARK  status: ('A' for Active; 'I' for Inactive)
REMARK    1  A    between atoms: C_2  and  N_3 
REMARK    2  A    between atoms: N_6  and  C_7 
REMARK    3  A    between atoms: C_7  and  C_8 
REMARK    4  A    between atoms: C_8  and  O_9 
REMARK    5  A    between atoms: C_8  and  C_10 
REMARK    6  A    between atoms: C_10  and  N_11 
ROOT
HETATM    1  C   UNL     1     -40.882 -52.239  11.786  1.00  0.00     0.167 C 
ENDROOT
BRANCH   1   2
HETATM    2  N   UNL     1     -41.225 -53.052  12.936  1.00  0.00    -0.295 N 
HETATM    3  C   UNL     1     -40.330 -53.480  13.953  1.00  0.00     0.330 A 
HETATM    4  N   UNL     1     -41.063 -54.334  14.800  1.00  0.00    -0.298 N 
HETATM    5  O   UNL     1     -39.153 -53.182  14.089  1.00  0.00    -0.246 OA
HETATM    6  C   UNL     1     -42.388 -54.383  14.359  1.00  0.00     0.065 A 
HETATM    7  C   UNL     1     -42.498 -53.577  13.224  1.00  0.00     0.066 A 
HETATM    8  C   UNL     1     -43.469 -55.068  14.880  1.00  0.00     0.032 A 
HETATM    9  C   UNL     1     -43.705 -53.404  12.577  1.00  0.00     0.032 A 
HETATM   10  C   UNL     1     -44.817 -54.076  13.103  1.00  0.00     0.002 A 
HETATM   11  C   UNL     1     -44.699 -54.901  14.239  1.00  0.00     0.002 A 
BRANCH   4  12
HETATM   12  C   UNL     1     -40.463 -55.178  15.799  1.00  0.00     0.130 C 
HETATM   13  C   UNL     1     -40.507 -54.532  17.178  1.00  0.00     0.027 C 
ENDBRANCH   4  12
ENDBRANCH   1   2
BRANCH   1  14
HETATM   14  C   UNL     1     -40.101 -50.959  12.151  1.00  0.00     0.164 C 
BRANCH  14  15
HETATM   15  O   UNL     1     -38.701 -51.163  11.928  1.00  0.00    -0.392 OA
HETATM   16  H   UNL     1     -38.331 -51.363  12.811  1.00  0.00     0.210 HD
ENDBRANCH  14  15
BRANCH  14  17
HETATM   17  C   UNL     1     -40.554 -49.741  11.326  1.00  0.00     0.305 C 
BRANCH  17  18
HETATM   18  N   UNL     1     -41.315 -48.749  12.132  1.00  0.00     0.096 N 
HETATM   19  C   UNL     1     -42.711 -48.518  11.670  1.00  0.00     0.303 C 
HETATM   20  C   UNL     1     -42.834 -47.733  10.339  1.00  0.00     0.146 C 
HETATM   21  C   UNL     1     -44.292 -47.410  10.029  1.00  0.00     0.041 C 
HETATM   22  O   UNL     1     -42.108 -46.491  10.403  1.00  0.00    -0.378 OA
HETATM   23  C   UNL     1     -40.731 -46.730  10.734  1.00  0.00     0.146 C 
HETATM   24  C   UNL     1     -39.978 -45.410  10.730  1.00  0.00     0.041 C 
HETATM   25  C   UNL     1     -40.629 -47.432  12.108  1.00  0.00     0.303 C 
ENDBRANCH  17  18
ENDBRANCH  14  17
ENDBRANCH   1  14
TORSDOF 6
ENDMDL
MODEL 3
REMARK VINA RESULT:      -6.0      2.390      3.738
REMARK  6 active torsions:
REMARK  status: ('A' for Active; 'I' for Inactive)
REMARK    1  A    between atoms: C_2  and  N_3 
REMARK    2  A    between atoms: N_6  and  C_7 
REMARK    3  A    between atoms: C_7  and  C_8 
REMARK    4  A    between atoms: C_8  and  O_9 
REMARK    5  A    between atoms: C_8  and  C_10 
REMARK    6  A    between atoms: C_10  and  N_11 
ROOT
HETATM    1  C   UNL     1     -41.768 -50.112  13.024  1.00  0.00     0.167 C 
ENDROOT
BRANCH   1   2
HETATM    2  N   UNL     1     -41.752 -51.401  13.686  1.00  0.00    -0.295 N 
HETATM    3  C   UNL     1     -40.694 -51.919  14.479  1.00  0.00     0.330 A 
HETATM    4  N   UNL     1     -41.058 -53.236  14.825  1.00  0.00    -0.298 N 
HETATM    5  O   UNL     1     -39.662 -51.356  14.812  1.00  0.00    -0.246 OA
HETATM    6  C   UNL     1     -42.332 -53.503  14.315  1.00  0.00     0.065 A 
HETATM    7  C   UNL     1     -42.772 -52.367  13.632  1.00  0.00     0.066 A 
HETATM    8  C   UNL     1     -43.102 -54.645  14.415  1.00  0.00     0.032 A 
HETATM    9  C   UNL     1     -44.019 -52.322  13.040  1.00  0.00     0.032 A 
HETATM   10  C   UNL     1     -44.823 -53.465  13.148  1.00  0.00     0.002 A 
HETATM   11  C   UNL     1     -44.368 -54.614  13.824  1.00  0.00     0.002 A 
BRANCH   4  12
HETATM   12  C   UNL     1     -40.151 -54.191  15.403  1.00  0.00     0.130 C 
HETATM   13  C   UNL     1     -39.203 -54.768  14.360  1.00  0.00     0.027 C 
ENDBRANCH   4  12
ENDBRANCH   1   2
BRANCH   1  14
HETATM   14  C   UNL     1     -40.803 -50.027  11.823  1.00  0.00     0.164 C 
BRANCH  14  15
HETATM   15  O   UNL     1     -40.921 -51.208  11.020  1.00  0.00    -0.392 OA
HETATM   16  H   UNL     1     -40.141 -51.750  11.252  1.00  0.00     0.210 HD
ENDBRANCH  14  15
BRANCH  14  17
HETATM   17  C   UNL     1     -41.080 -48.802  10.934  1.00  0.00     0.305 C 
BRANCH  17  18
HETATM   18  N   UNL     1     -41.973 -47.806  11.585  1.00  0.00     0.096 N 
HETATM   19  C   UNL     1     -43.189 -47.460  10.802  1.00  0.00     0.303 C 
HETATM   20  C   UNL     1     -42.927 -46.600   9.539  1.00  0.00     0.146 C 
HETATM   21  C   UNL     1     -44.239 -46.167   8.892  1.00  0.00     0.041 C 
HETATM   22  O   UNL     1     -42.181 -45.413   9.869  1.00  0.00    -0.378 OA
HETATM   23  C   UNL     1     -40.949 -45.758  10.521  1.00  0.00     0.146 C 
HETATM   24  C   UNL     1     -40.156 -44.491  10.797  1.00  0.00     0.041 C 
HETATM   25  C   UNL     1     -41.239 -46.537  11.825  1.00  0.00     0.303 C 
ENDBRANCH  17  18
ENDBRANCH  14  17
ENDBRANCH   1  14
TORSDOF 6
ENDMDL
MODEL 4
REMARK VINA RESULT:      -6.0      1.371      2.119
REMARK  6 active torsions:
REMARK  status: ('A' for Active; 'I' for Inactive)
REMARK    1  A    between atoms: C_2  and  N_3 
REMARK    2  A    between atoms: N_6  and  C_7 
REMARK    3  A    between atoms: C_7  and  C_8 
REMARK    4  A    between atoms: C_8  and  O_9 
REMARK    5  A    between atoms: C_8  and  C_10 
REMARK    6  A    between atoms: C_10  and  N_11 
ROOT
HETATM    1  C   UNL     1     -42.406 -53.683  12.966  1.00  0.00     0.167 C 
ENDROOT
BRANCH   1   2
HETATM    2  N   UNL     1     -43.122 -53.127  14.096  1.00  0.00    -0.295 N 
HETATM    3  C   UNL     1     -42.671 -53.111  15.443  1.00  0.00     0.330 A 
HETATM    4  N   UNL     1     -43.725 -52.580  16.213  1.00  0.00    -0.298 N 
HETATM    5  O   UNL     1     -41.591 -53.480  15.877  1.00  0.00    -0.246 OA
HETATM    6  C   UNL     1     -44.772 -52.216  15.361  1.00  0.00     0.065 A 
HETATM    7  C   UNL     1     -44.395 -52.531  14.053  1.00  0.00     0.066 A 
HETATM    8  C   UNL     1     -45.992 -51.642  15.655  1.00  0.00     0.032 A 
HETATM    9  C   UNL     1     -45.221 -52.259  12.980  1.00  0.00     0.032 A 
HETATM   10  C   UNL     1     -46.456 -51.658  13.259  1.00  0.00     0.002 A 
HETATM   11  C   UNL     1     -46.839 -51.357  14.580  1.00  0.00     0.002 A 
BRANCH   4  12
HETATM   12  C   UNL     1     -43.773 -52.633  17.650  1.00  0.00     0.130 C 
HETATM   13  C   UNL     1     -44.353 -53.952  18.143  1.00  0.00     0.027 C 
ENDBRANCH   4  12
ENDBRANCH   1   2
BRANCH   1  14
HETATM   14  C   UNL     1     -41.203 -52.827  12.519  1.00  0.00     0.164 C 
BRANCH  14  15
HETATM   15  O   UNL     1     -40.458 -53.522  11.511  1.00  0.00    -0.392 OA
HETATM   16  H   UNL     1     -40.231 -52.839  10.850  1.00  0.00     0.210 HD
ENDBRANCH  14  15
BRANCH  14  17
HETATM   17  C   UNL     1     -41.634 -51.462  11.954  1.00  0.00     0.305 C 
BRANCH  17  18
HETATM   18  N   UNL     1     -40.930 -50.321  12.598  1.00  0.00     0.096 N 
HETATM   19  C   UNL     1     -41.417 -49.985  13.963  1.00  0.00     0.303 C 
HETATM   20  C   UNL     1     -42.816 -49.322  14.009  1.00  0.00     0.146 C 
HETATM   21  C   UNL     1     -43.162 -48.873  15.426  1.00  0.00     0.041 C 
HETATM   22  O   UNL     1     -42.868 -48.165  13.153  1.00  0.00    -0.378 OA
HETATM   23  C   UNL     1     -42.510 -48.519  11.808  1.00  0.00     0.146 C 
HETATM   24  C   UNL     1     -42.637 -47.294  10.917  1.00  0.00     0.041 C 
HETATM   25  C   UNL     1     -41.075 -49.094  11.774  1.00  0.00     0.303 C 
ENDBRANCH  17  18
ENDBRANCH  14  17
ENDBRANCH   1  14
TORSDOF 6
ENDMDL
MODEL 5
REMARK VINA RESULT:      -5.8      2.384      3.840
REMARK  6 active torsions:
REMARK  status: ('A' for Active; 'I' for Inactive)
REMARK    1  A    between atoms: C_2  and  N_3 
REMARK    2  A    between atoms: N_6  and  C_7 
REMARK    3  A    between atoms: C_7  and  C_8 
REMARK    4  A    between atoms: C_8  and  O_9 
REMARK    5  A    between atoms: C_8  and  C_10 
REMARK    6  A    between atoms: C_10  and  N_11 
ROOT
HETATM    1  C   UNL     1     -41.690 -52.454  11.998  1.00  0.00     0.167 C 
ENDROOT
BRANCH   1   2
HETATM    2  N   UNL     1     -42.403 -53.357  12.879  1.00  0.00    -0.295 N 
HETATM    3  C   UNL     1     -43.782 -53.685  12.799  1.00  0.00     0.330 A 
HETATM    4  N   UNL     1     -44.067 -54.501  13.912  1.00  0.00    -0.298 N 
HETATM    5  O   UNL     1     -44.586 -53.341  11.945  1.00  0.00    -0.246 OA
HETATM    6  C   UNL     1     -42.885 -54.725  14.624  1.00  0.00     0.065 A 
HETATM    7  C   UNL     1     -41.853 -54.040  13.979  1.00  0.00     0.066 A 
HETATM    8  C   UNL     1     -42.669 -55.472  15.765  1.00  0.00     0.032 A 
HETATM    9  C   UNL     1     -40.553 -54.097  14.439  1.00  0.00     0.032 A 
HETATM   10  C   UNL     1     -40.311 -54.866  15.586  1.00  0.00     0.002 A 
HETATM   11  C   UNL     1     -41.358 -55.543  16.243  1.00  0.00     0.002 A 
BRANCH   4  12
HETATM   12  C   UNL     1     -45.399 -54.835  14.340  1.00  0.00     0.130 C 
HETATM   13  C   UNL     1     -45.984 -53.759  15.244  1.00  0.00     0.027 C 
ENDBRANCH   4  12
ENDBRANCH   1   2
BRANCH   1  14
HETATM   14  C   UNL     1     -41.879 -50.966  12.361  1.00  0.00     0.164 C 
BRANCH  14  15
HETATM   15  O   UNL     1     -43.275 -50.670  12.486  1.00  0.00    -0.392 OA
HETATM   16  H   UNL     1     -43.469 -50.053  11.752  1.00  0.00     0.210 HD
ENDBRANCH  14  15
BRANCH  14  17
HETATM   17  C   UNL     1     -41.180 -50.591  13.680  1.00  0.00     0.305 C 
BRANCH  17  18
HETATM   18  N   UNL     1     -40.353 -49.361  13.566  1.00  0.00     0.096 N 
HETATM   19  C   UNL     1     -39.491 -49.304  12.355  1.00  0.00     0.303 C 
HETATM   20  C   UNL     1     -38.284 -50.276  12.371  1.00  0.00     0.146 C 
HETATM   21  C   UNL     1     -37.376 -50.039  11.168  1.00  0.00     0.041 C 
HETATM   22  O   UNL     1     -37.496 -50.101  13.564  1.00  0.00    -0.378 OA
HETATM   23  C   UNL     1     -38.310 -50.274  14.734  1.00  0.00     0.146 C 
HETATM   24  C   UNL     1     -37.439 -50.149  15.973  1.00  0.00     0.041 C 
HETATM   25  C   UNL     1     -39.454 -49.234  14.742  1.00  0.00     0.303 C 
ENDBRANCH  17  18
ENDBRANCH  14  17
ENDBRANCH   1  14
TORSDOF 6
ENDMDL
MODEL 6
REMARK VINA RESULT:      -5.8      2.065      4.103
REMARK  6 active torsions:
REMARK  status: ('A' for Active; 'I' for Inactive)
REMARK    1  A    between atoms: C_2  and  N_3 
REMARK    2  A    between atoms: N_6  and  C_7 
REMARK    3  A    between atoms: C_7  and  C_8 
REMARK    4  A    between atoms: C_8  and  O_9 
REMARK    5  A    between atoms: C_8  and  C_10 
REMARK    6  A    between atoms: C_10  and  N_11 
ROOT
HETATM    1  C   UNL     1     -42.032 -50.150  12.927  1.00  0.00     0.167 C 
ENDROOT
BRANCH   1   2
HETATM    2  N   UNL     1     -42.856 -50.417  14.089  1.00  0.00    -0.295 N 
HETATM    3  C   UNL     1     -42.448 -50.306  15.445  1.00  0.00     0.330 A 
HETATM    4  N   UNL     1     -43.525 -50.766  16.229  1.00  0.00    -0.298 N 
HETATM    5  O   UNL     1     -41.380 -49.897  15.876  1.00  0.00    -0.246 OA
HETATM    6  C   UNL     1     -44.593 -51.091  15.386  1.00  0.00     0.065 A 
HETATM    7  C   UNL     1     -44.192 -50.856  14.069  1.00  0.00     0.066 A 
HETATM    8  C   UNL     1     -45.853 -51.561  15.698  1.00  0.00     0.032 A 
HETATM    9  C   UNL     1     -45.052 -51.061  13.008  1.00  0.00     0.032 A 
HETATM   10  C   UNL     1     -46.342 -51.520  13.307  1.00  0.00     0.002 A 
HETATM   11  C   UNL     1     -46.737 -51.771  14.635  1.00  0.00     0.002 A 
BRANCH   4  12
HETATM   12  C   UNL     1     -43.426 -51.059  17.633  1.00  0.00     0.130 C 
HETATM   13  C   UNL     1     -42.796 -52.423  17.879  1.00  0.00     0.027 C 
ENDBRANCH   4  12
ENDBRANCH   1   2
BRANCH   1  14
HETATM   14  C   UNL     1     -41.516 -51.429  12.235  1.00  0.00     0.164 C 
BRANCH  14  15
HETATM   15  O   UNL     1     -40.886 -51.089  10.994  1.00  0.00    -0.392 OA
HETATM   16  H   UNL     1     -39.926 -51.137  11.177  1.00  0.00     0.210 HD
ENDBRANCH  14  15
BRANCH  14  17
HETATM   17  C   UNL     1     -40.503 -52.197  13.103  1.00  0.00     0.305 C 
BRANCH  17  18
HETATM   18  N   UNL     1     -40.624 -53.672  12.962  1.00  0.00     0.096 N 
HETATM   19  C   UNL     1     -42.005 -54.199  13.133  1.00  0.00     0.303 C 
HETATM   20  C   UNL     1     -42.542 -54.158  14.586  1.00  0.00     0.146 C 
HETATM   21  C   UNL     1     -43.894 -54.857  14.689  1.00  0.00     0.041 C 
HETATM   22  O   UNL     1     -41.633 -54.815  15.491  1.00  0.00    -0.378 OA
HETATM   23  C   UNL     1     -40.327 -54.223  15.408  1.00  0.00     0.146 C 
HETATM   24  C   UNL     1     -39.409 -54.892  16.419  1.00  0.00     0.041 C 
HETATM   25  C   UNL     1     -39.774 -54.357  13.970  1.00  0.00     0.303 C 
ENDBRANCH  17  18
ENDBRANCH  14  17
ENDBRANCH   1  14
TORSDOF 6
ENDMDL
MODEL 7
REMARK VINA RESULT:      -5.8      2.657      4.099
REMARK  6 active torsions:
REMARK  status: ('A' for Active; 'I' for Inactive)
REMARK    1  A    between atoms: C_2  and  N_3 
REMARK    2  A    between atoms: N_6  and  C_7 
REMARK    3  A    between atoms: C_7  and  C_8 
REMARK    4  A    between atoms: C_8  and  O_9 
REMARK    5  A    between atoms: C_8  and  C_10 
REMARK    6  A    between atoms: C_10  and  N_11 
ROOT
HETATM    1  C   UNL     1     -42.174 -50.534  12.355  1.00  0.00     0.167 C 
ENDROOT
BRANCH   1   2
HETATM    2  N   UNL     1     -42.056 -51.667  13.251  1.00  0.00    -0.295 N 
HETATM    3  C   UNL     1     -40.948 -51.954  14.092  1.00  0.00     0.330 A 
HETATM    4  N   UNL     1     -41.213 -53.199  14.696  1.00  0.00    -0.298 N 
HETATM    5  O   UNL     1     -39.949 -51.274  14.275  1.00  0.00    -0.246 OA
HETATM    6  C   UNL     1     -42.477 -53.640  14.291  1.00  0.00     0.065 A 
HETATM    7  C   UNL     1     -43.009 -52.688  13.419  1.00  0.00     0.066 A 
HETATM    8  C   UNL     1     -43.165 -54.786  14.636  1.00  0.00     0.032 A 
HETATM    9  C   UNL     1     -44.268 -52.836  12.872  1.00  0.00     0.032 A 
HETATM   10  C   UNL     1     -44.989 -53.985  13.226  1.00  0.00     0.002 A 
HETATM   11  C   UNL     1     -44.443 -54.950  14.094  1.00  0.00     0.002 A 
BRANCH   4  12
HETATM   12  C   UNL     1     -40.231 -53.965  15.416  1.00  0.00     0.130 C 
HETATM   13  C   UNL     1     -39.283 -54.690  14.470  1.00  0.00     0.027 C 
ENDBRANCH   4  12
ENDBRANCH   1   2
BRANCH   1  14
HETATM   14  C   UNL     1     -43.055 -49.399  12.915  1.00  0.00     0.164 C 
BRANCH  14  15
HETATM   15  O   UNL     1     -42.916 -49.333  14.340  1.00  0.00    -0.392 OA
HETATM   16  H   UNL     1     -43.410 -48.532  14.605  1.00  0.00     0.210 HD
ENDBRANCH  14  15
BRANCH  14  17
HETATM   17  C   UNL     1     -42.686 -48.026  12.325  1.00  0.00     0.305 C 
BRANCH  17  18
HETATM   18  N   UNL     1     -42.012 -48.128  11.004  1.00  0.00     0.096 N 
HETATM   19  C   UNL     1     -40.781 -47.303  10.872  1.00  0.00     0.303 C 
HETATM   20  C   UNL     1     -41.029 -45.776  10.779  1.00  0.00     0.146 C 
HETATM   21  C   UNL     1     -39.730 -45.029  10.491  1.00  0.00     0.041 C 
HETATM   22  O   UNL     1     -41.961 -45.466   9.727  1.00  0.00    -0.378 OA
HETATM   23  C   UNL     1     -43.194 -46.176   9.923  1.00  0.00     0.146 C 
HETATM   24  C   UNL     1     -44.179 -45.780   8.835  1.00  0.00     0.041 C 
HETATM   25  C   UNL     1     -42.935 -47.701   9.921  1.00  0.00     0.303 C 
ENDBRANCH  17  18
ENDBRANCH  14  17
ENDBRANCH   1  14
TORSDOF 6
ENDMDL
MODEL 8
REMARK VINA RESULT:      -5.7      2.631      4.326
REMARK  6 active torsions:
REMARK  status: ('A' for Active; 'I' for Inactive)
REMARK    1  A    between atoms: C_2  and  N_3 
REMARK    2  A    between atoms: N_6  and  C_7 
REMARK    3  A    between atoms: C_7  and  C_8 
REMARK    4  A    between atoms: C_8  and  O_9 
REMARK    5  A    between atoms: C_8  and  C_10 
REMARK    6  A    between atoms: C_10  and  N_11 
ROOT
HETATM    1  C   UNL     1     -43.057 -50.102  13.840  1.00  0.00     0.167 C 
ENDROOT
BRANCH   1   2
HETATM    2  N   UNL     1     -43.336 -51.523  13.901  1.00  0.00    -0.295 N 
HETATM    3  C   UNL     1     -44.504 -52.166  13.413  1.00  0.00     0.330 A 
HETATM    4  N   UNL     1     -44.401 -53.522  13.783  1.00  0.00    -0.298 N 
HETATM    5  O   UNL     1     -45.432 -51.667  12.794  1.00  0.00    -0.246 OA
HETATM    6  C   UNL     1     -43.175 -53.725  14.423  1.00  0.00     0.065 A 
HETATM    7  C   UNL     1     -42.506 -52.501  14.478  1.00  0.00     0.066 A 
HETATM    8  C   UNL     1     -42.629 -54.884  14.940  1.00  0.00     0.032 A 
HETATM    9  C   UNL     1     -41.246 -52.392  15.034  1.00  0.00     0.032 A 
HETATM   10  C   UNL     1     -40.669 -53.562  15.546  1.00  0.00     0.002 A 
HETATM   11  C   UNL     1     -41.353 -54.793  15.503  1.00  0.00     0.002 A 
BRANCH   4  12
HETATM   12  C   UNL     1     -45.490 -54.458  13.706  1.00  0.00     0.130 C 
HETATM   13  C   UNL     1     -46.390 -54.373  14.932  1.00  0.00     0.027 C 
ENDBRANCH   4  12
ENDBRANCH   1   2
BRANCH   1  14
HETATM   14  C   UNL     1     -42.151 -49.705  12.656  1.00  0.00     0.164 C 
BRANCH  14  15
HETATM   15  O   UNL     1     -41.991 -50.821  11.771  1.00  0.00    -0.392 OA
HETATM   16  H   UNL     1     -42.436 -50.552  10.942  1.00  0.00     0.210 HD
ENDBRANCH  14  15
BRANCH  14  17
HETATM   17  C   UNL     1     -42.721 -48.523  11.852  1.00  0.00     0.305 C 
BRANCH  17  18
HETATM   18  N   UNL     1     -41.948 -48.239  10.614  1.00  0.00     0.096 N 
HETATM   19  C   UNL     1     -40.815 -47.291  10.795  1.00  0.00     0.303 C 
HETATM   20  C   UNL     1     -41.233 -45.818  11.033  1.00  0.00     0.146 C 
HETATM   21  C   UNL     1     -40.014 -44.901  11.052  1.00  0.00     0.041 C 
HETATM   22  O   UNL     1     -42.118 -45.358   9.994  1.00  0.00    -0.378 OA
HETATM   23  C   UNL     1     -43.270 -46.211   9.902  1.00  0.00     0.146 C 
HETATM   24  C   UNL     1     -44.215 -45.663   8.845  1.00  0.00     0.041 C 
HETATM   25  C   UNL     1     -42.835 -47.658   9.574  1.00  0.00     0.303 C 
ENDBRANCH  17  18
ENDBRANCH  14  17
ENDBRANCH   1  14
TORSDOF 6
ENDMDL
MODEL 9
REMARK VINA RESULT:      -5.7      2.298      3.906
REMARK  6 active torsions:
REMARK  status: ('A' for Active; 'I' for Inactive)
REMARK    1  A    between atoms: C_2  and  N_3 
REMARK    2  A    between atoms: N_6  and  C_7 
REMARK    3  A    between atoms: C_7  and  C_8 
REMARK    4  A    between atoms: C_8  and  O_9 
REMARK    5  A    between atoms: C_8  and  C_10 
REMARK    6  A    between atoms: C_10  and  N_11 
ROOT
HETATM    1  C   UNL     1     -40.788 -51.097  13.533  1.00  0.00     0.167 C 
ENDROOT
BRANCH   1   2
HETATM    2  N   UNL     1     -41.618 -52.205  13.960  1.00  0.00    -0.295 N 
HETATM    3  C   UNL     1     -43.015 -52.337  13.737  1.00  0.00     0.330 A 
HETATM    4  N   UNL     1     -43.423 -53.502  14.416  1.00  0.00    -0.298 N 
HETATM    5  O   UNL     1     -43.743 -51.600  13.089  1.00  0.00    -0.246 OA
HETATM    6  C   UNL     1     -42.301 -54.109  14.989  1.00  0.00     0.065 A 
HETATM    7  C   UNL     1     -41.184 -53.326  14.691  1.00  0.00     0.066 A 
HETATM    8  C   UNL     1     -42.206 -55.272  15.728  1.00  0.00     0.032 A 
HETATM    9  C   UNL     1     -39.918 -53.691  15.103  1.00  0.00     0.032 A 
HETATM   10  C   UNL     1     -39.800 -54.878  15.838  1.00  0.00     0.002 A 
HETATM   11  C   UNL     1     -40.931 -55.658  16.150  1.00  0.00     0.002 A 
BRANCH   4  12
HETATM   12  C   UNL     1     -44.798 -53.850  14.655  1.00  0.00     0.130 C 
HETATM   13  C   UNL     1     -45.282 -54.921  13.687  1.00  0.00     0.027 C 
ENDBRANCH   4  12
ENDBRANCH   1   2
BRANCH   1  14
HETATM   14  C   UNL     1     -40.394 -51.165  12.043  1.00  0.00     0.164 C 
BRANCH  14  15
HETATM   15  O   UNL     1     -41.225 -52.114  11.362  1.00  0.00    -0.392 OA
HETATM   16  H   UNL     1     -41.481 -51.672  10.528  1.00  0.00     0.210 HD
ENDBRANCH  14  15
BRANCH  14  17
HETATM   17  C   UNL     1     -40.528 -49.803  11.338  1.00  0.00     0.305 C 
BRANCH  17  18
HETATM   18  N   UNL     1     -41.296 -48.813  12.138  1.00  0.00     0.096 N 
HETATM   19  C   UNL     1     -42.679 -48.560  11.649  1.00  0.00     0.303 C 
HETATM   20  C   UNL     1     -42.764 -47.759  10.325  1.00  0.00     0.146 C 
HETATM   21  C   UNL     1     -44.211 -47.417   9.986  1.00  0.00     0.041 C 
HETATM   22  O   UNL     1     -42.026 -46.526  10.420  1.00  0.00    -0.378 OA
HETATM   23  C   UNL     1     -40.659 -46.784  10.778  1.00  0.00     0.146 C 
HETATM   24  C   UNL     1     -39.893 -45.472  10.806  1.00  0.00     0.041 C 
HETATM   25  C   UNL     1     -40.596 -47.503  12.145  1.00  0.00     0.303 C 
ENDBRANCH  17  18
ENDBRANCH  14  17
ENDBRANCH   1  14
TORSDOF 6
ENDMDL
