MODEL 1
REMARK VINA RESULT:      -6.1      0.000      0.000
REMARK  4 active torsions:
REMARK  status: ('A' for Active; 'I' for Inactive)
REMARK    1  A    between atoms: O_2  and  C_3 
REMARK    2  A    between atoms: C_3  and  C_4 
REMARK    3  A    between atoms: C_4  and  N_5 
REMARK    4  A    between atoms: C_6  and  N_18 
ROOT
HETATM    1  N   UNL     1     -41.853 -53.158  13.635  1.00  0.00    -0.172 N 
HETATM    2  C   UNL     1     -42.955 -53.496  14.420  1.00  0.00     0.684 C 
HETATM    3  N   UNL     1     -42.627 -54.422  15.304  1.00  0.00    -0.174 N 
ATOM      4  HN  UNL     1     -43.249 -54.916  15.944  1.00  0.00     0.186 HD
HETATM    5  C   UNL     1     -41.280 -54.575  15.175  1.00  0.00     0.160 C 
HETATM    6  N   UNL     1     -40.458 -55.413  15.904  1.00  0.00    -0.287 N 
HETATM    7  C   UNL     1     -40.939 -56.237  16.989  1.00  0.00     0.163 C 
HETATM    8  C   UNL     1     -39.101 -55.462  15.595  1.00  0.00     0.330 C 
HETATM    9  O   UNL     1     -38.287 -56.161  16.201  1.00  0.00    -0.246 OA
HETATM   10  N   UNL     1     -38.656 -54.653  14.576  1.00  0.00    -0.273 N 
HETATM   11  C   UNL     1     -39.369 -53.646  13.977  1.00  0.00     0.280 C 
HETATM   12  O   UNL     1     -38.802 -52.742  13.374  1.00  0.00    -0.265 OA
HETATM   13  C   UNL     1     -40.764 -53.744  14.216  1.00  0.00     0.164 C 
HETATM   14  H   UNL     1     -37.657 -54.632  14.444  1.00  0.00     0.173 HD
ENDROOT
BRANCH   2  15
HETATM   15  N   UNL     1     -44.178 -52.953  14.176  1.00  0.00    -0.217 N 
HETATM   16  C   UNL     1     -45.093 -53.624  13.249  1.00  0.00     0.141 C 
HETATM   17  C   UNL     1     -45.948 -52.539  12.572  1.00  0.00     0.020 C 
HETATM   18  C   UNL     1     -46.634 -51.614  13.585  1.00  0.00     0.003 C 
HETATM   19  C   UNL     1     -45.661 -51.109  14.653  1.00  0.00     0.020 C 
HETATM   20  C   UNL     1     -44.884 -52.271  15.266  1.00  0.00     0.141 C 
ENDBRANCH   2  15
BRANCH   1  21
HETATM   21  C   UNL     1     -41.929 -52.412  12.389  1.00  0.00     0.174 C 
BRANCH  21  22
HETATM   22  C   UNL     1     -41.682 -50.906  12.432  1.00  0.00     0.187 C 
BRANCH  22  23
HETATM   23  O   UNL     1     -40.758 -50.511  11.421  1.00  0.00    -0.394 OA
HETATM   24  C   UNL     1     -39.776 -49.620  11.937  1.00  0.00     0.201 C 
ENDBRANCH  22  23
ENDBRANCH  21  22
ENDBRANCH   1  21
TORSDOF 4
ENDMDL
MODEL 2
REMARK VINA RESULT:      -6.0      5.260      8.596
REMARK  4 active torsions:
REMARK  status: ('A' for Active; 'I' for Inactive)
REMARK    1  A    between atoms: O_2  and  C_3 
REMARK    2  A    between atoms: C_3  and  C_4 
REMARK    3  A    between atoms: C_4  and  N_5 
REMARK    4  A    between atoms: C_6  and  N_18 
ROOT
HETATM    1  N   UNL     1     -40.814 -47.381  12.149  1.00  0.00    -0.172 N 
HETATM    2  C   UNL     1     -40.650 -48.575  11.446  1.00  0.00     0.684 C 
HETATM    3  N   UNL     1     -41.443 -48.603  10.389  1.00  0.00    -0.174 N 
ATOM      4  HN  UNL     1     -41.595 -49.383   9.749  1.00  0.00     0.186 HD
HETATM    5  C   UNL     1     -42.013 -47.367  10.339  1.00  0.00     0.160 C 
HETATM    6  N   UNL     1     -42.902 -46.892   9.395  1.00  0.00    -0.287 N 
HETATM    7  C   UNL     1     -43.318 -47.666   8.247  1.00  0.00     0.163 C 
HETATM    8  C   UNL     1     -43.412 -45.604   9.537  1.00  0.00     0.330 C 
HETATM    9  O   UNL     1     -44.192 -45.085   8.736  1.00  0.00    -0.246 OA
HETATM   10  N   UNL     1     -42.985 -44.872  10.621  1.00  0.00    -0.273 N 
HETATM   11  C   UNL     1     -41.946 -45.199  11.455  1.00  0.00     0.280 C 
HETATM   12  O   UNL     1     -41.388 -44.344  12.133  1.00  0.00    -0.265 OA
HETATM   13  C   UNL     1     -41.576 -46.565  11.360  1.00  0.00     0.164 C 
HETATM   14  H   UNL     1     -43.290 -43.912  10.642  1.00  0.00     0.173 HD
ENDROOT
BRANCH   2  15
HETATM   15  N   UNL     1     -39.824 -49.549  11.912  1.00  0.00    -0.217 N 
HETATM   16  C   UNL     1     -40.380 -50.859  12.264  1.00  0.00     0.141 C 
HETATM   17  C   UNL     1     -39.526 -51.436  13.406  1.00  0.00     0.020 C 
HETATM   18  C   UNL     1     -38.029 -51.449  13.072  1.00  0.00     0.003 C 
HETATM   19  C   UNL     1     -37.553 -50.106  12.513  1.00  0.00     0.020 C 
HETATM   20  C   UNL     1     -38.462 -49.643  11.377  1.00  0.00     0.141 C 
ENDBRANCH   2  15
BRANCH   1  21
HETATM   21  C   UNL     1     -40.336 -47.150  13.501  1.00  0.00     0.174 C 
BRANCH  21  22
HETATM   22  C   UNL     1     -38.966 -46.499  13.682  1.00  0.00     0.187 C 
BRANCH  22  23
HETATM   23  O   UNL     1     -38.133 -47.289  14.528  1.00  0.00    -0.394 OA
HETATM   24  C   UNL     1     -38.904 -48.178  15.329  1.00  0.00     0.201 C 
ENDBRANCH  22  23
ENDBRANCH  21  22
ENDBRANCH   1  21
TORSDOF 4
ENDMDL
MODEL 3
REMARK VINA RESULT:      -5.8      4.009      7.417
REMARK  4 active torsions:
REMARK  status: ('A' for Active; 'I' for Inactive)
REMARK    1  A    between atoms: O_2  and  C_3 
REMARK    2  A    between atoms: C_3  and  C_4 
REMARK    3  A    between atoms: C_4  and  N_5 
REMARK    4  A    between atoms: C_6  and  N_18 
ROOT
HETATM    1  N   UNL     1     -40.915 -48.580  12.104  1.00  0.00    -0.172 N 
HETATM    2  C   UNL     1     -41.888 -49.579  12.136  1.00  0.00     0.684 C 
HETATM    3  N   UNL     1     -42.981 -49.180  11.508  1.00  0.00    -0.174 N 
ATOM      4  HN  UNL     1     -43.875 -49.668  11.451  1.00  0.00     0.186 HD
HETATM    5  C   UNL     1     -42.655 -47.979  10.955  1.00  0.00     0.160 C 
HETATM    6  N   UNL     1     -43.458 -47.172  10.172  1.00  0.00    -0.287 N 
HETATM    7  C   UNL     1     -44.796 -47.544   9.773  1.00  0.00     0.163 C 
HETATM    8  C   UNL     1     -42.958 -45.950   9.730  1.00  0.00     0.330 C 
HETATM    9  O   UNL     1     -43.589 -45.173   9.012  1.00  0.00    -0.246 OA
HETATM   10  N   UNL     1     -41.673 -45.623  10.098  1.00  0.00    -0.273 N 
HETATM   11  C   UNL     1     -40.760 -46.470  10.673  1.00  0.00     0.280 C 
HETATM   12  O   UNL     1     -39.559 -46.236  10.615  1.00  0.00    -0.265 OA
HETATM   13  C   UNL     1     -41.361 -47.627  11.232  1.00  0.00     0.164 C 
HETATM   14  H   UNL     1     -41.304 -44.784   9.680  1.00  0.00     0.173 HD
ENDROOT
BRANCH   2  15
HETATM   15  N   UNL     1     -41.676 -50.736  12.818  1.00  0.00    -0.217 N 
HETATM   16  C   UNL     1     -42.144 -50.854  14.201  1.00  0.00     0.141 C 
HETATM   17  C   UNL     1     -41.180 -51.798  14.940  1.00  0.00     0.020 C 
HETATM   18  C   UNL     1     -40.995 -53.136  14.214  1.00  0.00     0.003 C 
HETATM   19  C   UNL     1     -40.712 -52.947  12.722  1.00  0.00     0.020 C 
HETATM   20  C   UNL     1     -41.739 -52.010  12.093  1.00  0.00     0.141 C 
ENDBRANCH   2  15
BRANCH   1  21
HETATM   21  C   UNL     1     -39.728 -48.561  12.943  1.00  0.00     0.174 C 
BRANCH  21  22
HETATM   22  C   UNL     1     -38.402 -49.002  12.329  1.00  0.00     0.187 C 
BRANCH  22  23
HETATM   23  O   UNL     1     -38.395 -50.406  12.084  1.00  0.00    -0.394 OA
HETATM   24  C   UNL     1     -37.418 -51.066  12.882  1.00  0.00     0.201 C 
ENDBRANCH  22  23
ENDBRANCH  21  22
ENDBRANCH   1  21
TORSDOF 4
ENDMDL
MODEL 4
REMARK VINA RESULT:      -5.8      2.317      5.259
REMARK  4 active torsions:
REMARK  status: ('A' for Active; 'I' for Inactive)
REMARK    1  A    between atoms: O_2  and  C_3 
REMARK    2  A    between atoms: C_3  and  C_4 
REMARK    3  A    between atoms: C_4  and  N_5 
REMARK    4  A    between atoms: C_6  and  N_18 
ROOT
HETATM    1  N   UNL     1     -41.931 -51.634  13.220  1.00  0.00    -0.172 N 
HETATM    2  C   UNL     1     -43.301 -51.403  13.098  1.00  0.00     0.684 C 
HETATM    3  N   UNL     1     -43.525 -50.196  12.609  1.00  0.00    -0.174 N 
ATOM      4  HN  UNL     1     -44.426 -49.730  12.496  1.00  0.00     0.186 HD
HETATM    5  C   UNL     1     -42.295 -49.708  12.287  1.00  0.00     0.160 C 
HETATM    6  N   UNL     1     -42.001 -48.487  11.713  1.00  0.00    -0.287 N 
HETATM    7  C   UNL     1     -43.019 -47.544  11.308  1.00  0.00     0.163 C 
HETATM    8  C   UNL     1     -40.668 -48.146  11.496  1.00  0.00     0.330 C 
HETATM    9  O   UNL     1     -40.309 -47.091  10.972  1.00  0.00    -0.246 OA
HETATM   10  N   UNL     1     -39.714 -49.066  11.864  1.00  0.00    -0.273 N 
HETATM   11  C   UNL     1     -39.948 -50.370  12.222  1.00  0.00     0.280 C 
HETATM   12  O   UNL     1     -39.059 -51.211  12.159  1.00  0.00    -0.265 OA
HETATM   13  C   UNL     1     -41.302 -50.609  12.570  1.00  0.00     0.164 C 
HETATM   14  H   UNL     1     -38.769 -48.838  11.603  1.00  0.00     0.173 HD
ENDROOT
BRANCH   2  15
HETATM   15  N   UNL     1     -44.204 -52.323  13.531  1.00  0.00    -0.217 N 
HETATM   16  C   UNL     1     -45.244 -51.922  14.481  1.00  0.00     0.141 C 
HETATM   17  C   UNL     1     -45.573 -53.144  15.356  1.00  0.00     0.020 C 
HETATM   18  C   UNL     1     -45.916 -54.386  14.524  1.00  0.00     0.003 C 
HETATM   19  C   UNL     1     -44.894 -54.633  13.412  1.00  0.00     0.020 C 
HETATM   20  C   UNL     1     -44.663 -53.361  12.601  1.00  0.00     0.141 C 
ENDBRANCH   2  15
BRANCH   1  21
HETATM   21  C   UNL     1     -41.344 -52.716  13.994  1.00  0.00     0.174 C 
BRANCH  21  22
HETATM   22  C   UNL     1     -40.957 -53.999  13.263  1.00  0.00     0.187 C 
BRANCH  22  23
HETATM   23  O   UNL     1     -39.565 -54.271  13.413  1.00  0.00    -0.394 OA
HETATM   24  C   UNL     1     -39.066 -53.752  14.641  1.00  0.00     0.201 C 
ENDBRANCH  22  23
ENDBRANCH  21  22
ENDBRANCH   1  21
TORSDOF 4
ENDMDL
MODEL 5
REMARK VINA RESULT:      -5.7      2.135      4.722
REMARK  4 active torsions:
REMARK  status: ('A' for Active; 'I' for Inactive)
REMARK    1  A    between atoms: O_2  and  C_3 
REMARK    2  A    between atoms: C_3  and  C_4 
REMARK    3  A    between atoms: C_4  and  N_5 
REMARK    4  A    between atoms: C_6  and  N_18 
ROOT
HETATM    1  N   UNL     1     -42.026 -52.296  13.945  1.00  0.00    -0.172 N 
HETATM    2  C   UNL     1     -43.154 -51.715  13.365  1.00  0.00     0.684 C 
HETATM    3  N   UNL     1     -42.805 -50.714  12.576  1.00  0.00    -0.174 N 
ATOM      4  HN  UNL     1     -43.423 -50.060  12.096  1.00  0.00     0.186 HD
HETATM    5  C   UNL     1     -41.444 -50.743  12.544  1.00  0.00     0.160 C 
HETATM    6  N   UNL     1     -40.604 -49.910  11.831  1.00  0.00    -0.287 N 
HETATM    7  C   UNL     1     -41.089 -48.882  10.938  1.00  0.00     0.163 C 
HETATM    8  C   UNL     1     -39.227 -50.070  11.960  1.00  0.00     0.330 C 
HETATM    9  O   UNL     1     -38.399 -49.391  11.349  1.00  0.00    -0.246 OA
HETATM   10  N   UNL     1     -38.783 -51.070  12.794  1.00  0.00    -0.273 N 
HETATM   11  C   UNL     1     -39.554 -52.062  13.343  1.00  0.00     0.280 C 
HETATM   12  O   UNL     1     -39.050 -53.107  13.740  1.00  0.00    -0.265 OA
HETATM   13  C   UNL     1     -40.940 -51.763  13.307  1.00  0.00     0.164 C 
HETATM   14  H   UNL     1     -37.788 -51.229  12.788  1.00  0.00     0.173 HD
ENDROOT
BRANCH   2  15
HETATM   15  N   UNL     1     -44.403 -52.139  13.695  1.00  0.00    -0.217 N 
HETATM   16  C   UNL     1     -45.367 -51.182  14.245  1.00  0.00     0.141 C 
HETATM   17  C   UNL     1     -46.294 -51.953  15.201  1.00  0.00     0.020 C 
HETATM   18  C   UNL     1     -46.925 -53.185  14.541  1.00  0.00     0.003 C 
HETATM   19  C   UNL     1     -45.889 -54.038  13.806  1.00  0.00     0.020 C 
HETATM   20  C   UNL     1     -45.043 -53.173  12.875  1.00  0.00     0.141 C 
ENDBRANCH   2  15
BRANCH   1  21
HETATM   21  C   UNL     1     -42.059 -53.204  15.079  1.00  0.00     0.174 C 
BRANCH  21  22
HETATM   22  C   UNL     1     -42.199 -54.699  14.804  1.00  0.00     0.187 C 
BRANCH  22  23
HETATM   23  O   UNL     1     -43.197 -55.281  15.639  1.00  0.00    -0.394 OA
HETATM   24  C   UNL     1     -43.604 -54.379  16.663  1.00  0.00     0.201 C 
ENDBRANCH  22  23
ENDBRANCH  21  22
ENDBRANCH   1  21
TORSDOF 4
ENDMDL
MODEL 6
REMARK VINA RESULT:      -5.7      2.847      5.420
REMARK  4 active torsions:
REMARK  status: ('A' for Active; 'I' for Inactive)
REMARK    1  A    between atoms: O_2  and  C_3 
REMARK    2  A    between atoms: C_3  and  C_4 
REMARK    3  A    between atoms: C_4  and  N_5 
REMARK    4  A    between atoms: C_6  and  N_18 
ROOT
HETATM    1  N   UNL     1     -41.408 -50.985  12.401  1.00  0.00    -0.172 N 
HETATM    2  C   UNL     1     -42.158 -49.820  12.563  1.00  0.00     0.684 C 
HETATM    3  N   UNL     1     -43.441 -50.109  12.691  1.00  0.00    -0.174 N 
ATOM      4  HN  UNL     1     -44.223 -49.455  12.735  1.00  0.00     0.186 HD
HETATM    5  C   UNL     1     -43.495 -51.469  12.750  1.00  0.00     0.160 C 
HETATM    6  N   UNL     1     -44.618 -52.257  12.911  1.00  0.00    -0.287 N 
HETATM    7  C   UNL     1     -45.942 -51.710  13.103  1.00  0.00     0.163 C 
HETATM    8  C   UNL     1     -44.476 -53.643  12.905  1.00  0.00     0.330 C 
HETATM    9  O   UNL     1     -45.414 -54.427  13.063  1.00  0.00    -0.246 OA
HETATM   10  N   UNL     1     -43.206 -54.146  12.747  1.00  0.00    -0.273 N 
HETATM   11  C   UNL     1     -42.040 -53.426  12.811  1.00  0.00     0.280 C 
HETATM   12  O   UNL     1     -40.970 -53.975  13.046  1.00  0.00    -0.265 OA
HETATM   13  C   UNL     1     -42.249 -52.030  12.664  1.00  0.00     0.164 C 
HETATM   14  H   UNL     1     -43.120 -55.145  12.849  1.00  0.00     0.173 HD
ENDROOT
BRANCH   2  15
HETATM   15  N   UNL     1     -41.567 -48.597  12.499  1.00  0.00    -0.217 N 
HETATM   16  C   UNL     1     -41.889 -47.698  11.387  1.00  0.00     0.141 C 
HETATM   17  C   UNL     1     -40.642 -46.844  11.103  1.00  0.00     0.020 C 
HETATM   18  C   UNL     1     -40.114 -46.139  12.359  1.00  0.00     0.003 C 
HETATM   19  C   UNL     1     -39.995 -47.095  13.548  1.00  0.00     0.020 C 
HETATM   20  C   UNL     1     -41.294 -47.873  13.745  1.00  0.00     0.141 C 
ENDBRANCH   2  15
BRANCH   1  21
HETATM   21  C   UNL     1     -40.032 -51.019  11.936  1.00  0.00     0.174 C 
BRANCH  21  22
HETATM   22  C   UNL     1     -38.918 -51.084  12.978  1.00  0.00     0.187 C 
BRANCH  22  23
HETATM   23  O   UNL     1     -37.643 -51.222  12.354  1.00  0.00    -0.394 OA
HETATM   24  C   UNL     1     -37.416 -50.183  11.407  1.00  0.00     0.201 C 
ENDBRANCH  22  23
ENDBRANCH  21  22
ENDBRANCH   1  21
TORSDOF 4
ENDMDL
MODEL 7
REMARK VINA RESULT:      -5.5      2.560      3.861
REMARK  4 active torsions:
REMARK  status: ('A' for Active; 'I' for Inactive)
REMARK    1  A    between atoms: O_2  and  C_3 
REMARK    2  A    between atoms: C_3  and  C_4 
REMARK    3  A    between atoms: C_4  and  N_5 
REMARK    4  A    between atoms: C_6  and  N_18 
ROOT
HETATM    1  N   UNL     1     -42.520 -52.634  14.406  1.00  0.00    -0.172 N 
HETATM    2  C   UNL     1     -43.125 -51.720  15.269  1.00  0.00     0.684 C 
HETATM    3  N   UNL     1     -42.217 -50.935  15.822  1.00  0.00    -0.174 N 
ATOM      4  HN  UNL     1     -42.363 -50.239  16.554  1.00  0.00     0.186 HD
HETATM    5  C   UNL     1     -41.046 -51.257  15.206  1.00  0.00     0.160 C 
HETATM    6  N   UNL     1     -39.804 -50.690  15.419  1.00  0.00    -0.287 N 
HETATM    7  C   UNL     1     -39.588 -49.589  16.329  1.00  0.00     0.163 C 
HETATM    8  C   UNL     1     -38.707 -51.186  14.718  1.00  0.00     0.330 C 
HETATM    9  O   UNL     1     -37.567 -50.733  14.823  1.00  0.00    -0.246 OA
HETATM   10  N   UNL     1     -38.936 -52.217  13.836  1.00  0.00    -0.273 N 
HETATM   11  C   UNL     1     -40.164 -52.663  13.419  1.00  0.00     0.280 C 
HETATM   12  O   UNL     1     -40.286 -53.296  12.376  1.00  0.00    -0.265 OA
HETATM   13  C   UNL     1     -41.219 -52.238  14.266  1.00  0.00     0.164 C 
HETATM   14  H   UNL     1     -38.147 -52.486  13.270  1.00  0.00     0.173 HD
ENDROOT
BRANCH   2  15
HETATM   15  N   UNL     1     -44.463 -51.766  15.506  1.00  0.00    -0.217 N 
HETATM   16  C   UNL     1     -44.947 -52.058  16.858  1.00  0.00     0.141 C 
HETATM   17  C   UNL     1     -46.290 -52.795  16.723  1.00  0.00     0.020 C 
HETATM   18  C   UNL     1     -47.290 -52.038  15.839  1.00  0.00     0.003 C 
HETATM   19  C   UNL     1     -46.660 -51.579  14.522  1.00  0.00     0.020 C 
HETATM   20  C   UNL     1     -45.346 -50.846  14.780  1.00  0.00     0.141 C 
ENDBRANCH   2  15
BRANCH   1  21
HETATM   21  C   UNL     1     -43.171 -53.820  13.876  1.00  0.00     0.174 C 
BRANCH  21  22
HETATM   22  C   UNL     1     -43.930 -53.699  12.556  1.00  0.00     0.187 C 
BRANCH  22  23
HETATM   23  O   UNL     1     -45.249 -54.228  12.676  1.00  0.00    -0.394 OA
HETATM   24  C   UNL     1     -45.374 -55.051  13.830  1.00  0.00     0.201 C 
ENDBRANCH  22  23
ENDBRANCH  21  22
ENDBRANCH   1  21
TORSDOF 4
ENDMDL
MODEL 8
REMARK VINA RESULT:      -5.4      2.235      5.575
REMARK  4 active torsions:
REMARK  status: ('A' for Active; 'I' for Inactive)
REMARK    1  A    between atoms: O_2  and  C_3 
REMARK    2  A    between atoms: C_3  and  C_4 
REMARK    3  A    between atoms: C_4  and  N_5 
REMARK    4  A    between atoms: C_6  and  N_18 
ROOT
HETATM    1  N   UNL     1     -40.720 -54.365  15.060  1.00  0.00    -0.172 N 
HETATM    2  C   UNL     1     -41.374 -55.185  15.980  1.00  0.00     0.684 C 
HETATM    3  N   UNL     1     -42.668 -55.233  15.719  1.00  0.00    -0.174 N 
ATOM      4  HN  UNL     1     -43.396 -55.682  16.276  1.00  0.00     0.186 HD
HETATM    5  C   UNL     1     -42.821 -54.554  14.549  1.00  0.00     0.160 C 
HETATM    6  N   UNL     1     -43.992 -54.348  13.846  1.00  0.00    -0.287 N 
HETATM    7  C   UNL     1     -45.263 -54.903  14.255  1.00  0.00     0.163 C 
HETATM    8  C   UNL     1     -43.955 -53.585  12.681  1.00  0.00     0.330 C 
HETATM    9  O   UNL     1     -44.941 -53.365  11.976  1.00  0.00    -0.246 OA
HETATM   10  N   UNL     1     -42.733 -53.086  12.293  1.00  0.00    -0.273 N 
HETATM   11  C   UNL     1     -41.515 -53.440  12.815  1.00  0.00     0.280 C 
HETATM   12  O   UNL     1     -40.481 -53.260  12.184  1.00  0.00    -0.265 OA
HETATM   13  C   UNL     1     -41.625 -54.085  14.074  1.00  0.00     0.164 C 
HETATM   14  H   UNL     1     -42.718 -52.627  11.396  1.00  0.00     0.173 HD
ENDROOT
BRANCH   2  15
HETATM   15  N   UNL     1     -40.696 -55.747  17.017  1.00  0.00    -0.217 N 
HETATM   16  C   UNL     1     -40.868 -55.205  18.368  1.00  0.00     0.141 C 
HETATM   17  C   UNL     1     -39.546 -55.417  19.125  1.00  0.00     0.020 C 
HETATM   18  C   UNL     1     -39.069 -56.874  19.079  1.00  0.00     0.003 C 
HETATM   19  C   UNL     1     -39.109 -57.448  17.661  1.00  0.00     0.020 C 
HETATM   20  C   UNL     1     -40.470 -57.196  17.017  1.00  0.00     0.141 C 
ENDBRANCH   2  15
BRANCH   1  21
HETATM   21  C   UNL     1     -39.370 -53.853  15.228  1.00  0.00     0.174 C 
BRANCH  21  22
HETATM   22  C   UNL     1     -39.197 -52.435  15.768  1.00  0.00     0.187 C 
BRANCH  22  23
HETATM   23  O   UNL     1     -38.736 -51.553  14.747  1.00  0.00    -0.394 OA
HETATM   24  C   UNL     1     -39.712 -50.565  14.437  1.00  0.00     0.201 C 
ENDBRANCH  22  23
ENDBRANCH  21  22
ENDBRANCH   1  21
TORSDOF 4
ENDMDL
MODEL 9
REMARK VINA RESULT:      -5.3      2.510      5.764
REMARK  4 active torsions:
REMARK  status: ('A' for Active; 'I' for Inactive)
REMARK    1  A    between atoms: O_2  and  C_3 
REMARK    2  A    between atoms: C_3  and  C_4 
REMARK    3  A    between atoms: C_4  and  N_5 
REMARK    4  A    between atoms: C_6  and  N_18 
ROOT
HETATM    1  N   UNL     1     -41.952 -53.798  14.560  1.00  0.00    -0.172 N 
HETATM    2  C   UNL     1     -40.761 -53.910  15.278  1.00  0.00     0.684 C 
HETATM    3  N   UNL     1     -39.822 -53.155  14.737  1.00  0.00    -0.174 N 
ATOM      4  HN  UNL     1     -38.837 -53.108  14.998  1.00  0.00     0.186 HD
HETATM    5  C   UNL     1     -40.452 -52.453  13.754  1.00  0.00     0.160 C 
HETATM    6  N   UNL     1     -39.899 -51.504  12.917  1.00  0.00    -0.287 N 
HETATM    7  C   UNL     1     -38.524 -51.072  13.017  1.00  0.00     0.163 C 
HETATM    8  C   UNL     1     -40.700 -50.920  11.938  1.00  0.00     0.330 C 
HETATM    9  O   UNL     1     -40.304 -50.051  11.159  1.00  0.00    -0.246 OA
HETATM   10  N   UNL     1     -42.013 -51.324  11.873  1.00  0.00    -0.273 N 
HETATM   11  C   UNL     1     -42.670 -52.082  12.809  1.00  0.00     0.280 C 
HETATM   12  O   UNL     1     -43.893 -52.075  12.883  1.00  0.00    -0.265 OA
HETATM   13  C   UNL     1     -41.784 -52.764  13.683  1.00  0.00     0.164 C 
HETATM   14  H   UNL     1     -42.593 -50.813  11.227  1.00  0.00     0.173 HD
ENDROOT
BRANCH   2  15
HETATM   15  N   UNL     1     -40.658 -54.771  16.326  1.00  0.00    -0.217 N 
HETATM   16  C   UNL     1     -39.643 -55.827  16.296  1.00  0.00     0.141 C 
HETATM   17  C   UNL     1     -40.196 -57.027  17.082  1.00  0.00     0.020 C 
HETATM   18  C   UNL     1     -40.670 -56.641  18.489  1.00  0.00     0.003 C 
HETATM   19  C   UNL     1     -41.566 -55.401  18.473  1.00  0.00     0.020 C 
HETATM   20  C   UNL     1     -40.908 -54.272  17.682  1.00  0.00     0.141 C 
ENDBRANCH   2  15
BRANCH   1  21
HETATM   21  C   UNL     1     -43.080 -54.706  14.690  1.00  0.00     0.174 C 
BRANCH  21  22
HETATM   22  C   UNL     1     -44.184 -54.350  15.683  1.00  0.00     0.187 C 
BRANCH  22  23
HETATM   23  O   UNL     1     -45.467 -54.688  15.162  1.00  0.00    -0.394 OA
HETATM   24  C   UNL     1     -45.378 -55.122  13.809  1.00  0.00     0.201 C 
ENDBRANCH  22  23
ENDBRANCH  21  22
ENDBRANCH   1  21
TORSDOF 4
ENDMDL
