MODEL 1
REMARK VINA RESULT:      -6.7      0.000      0.000
REMARK  5 active torsions:
REMARK  status: ('A' for Active; 'I' for Inactive)
REMARK    1  A    between atoms: C_2  and  C_5 
REMARK    2  A    between atoms: C_5  and  N_6 
REMARK    3  A    between atoms: C_9  and  N_12 
REMARK    4  A    between atoms: C_14  and  C_19 
REMARK       I    between atoms: C_19  and  N_21 
REMARK    5  A    between atoms: N_21  and  C_22 
ROOT
HETATM    1  C   UNL     1     -43.312 -47.428  10.391  1.00  0.00     0.216 C 
HETATM    2  C   UNL     1     -43.382 -47.596   8.883  1.00  0.00    -0.098 C 
HETATM    3  C   UNL     1     -43.442 -47.739   7.588  1.00  0.00     0.014 C 
ENDROOT
BRANCH   1   4
HETATM    4  N   UNL     1     -42.543 -48.500  10.979  1.00  0.00    -0.346 N 
HETATM    5  C   UNL     1     -41.209 -48.336  11.256  1.00  0.00     0.253 C 
HETATM    6  O   UNL     1     -40.594 -47.311  10.965  1.00  0.00    -0.268 OA
HETATM    7  H   UNL     1     -42.991 -49.398  11.084  1.00  0.00     0.163 HD
BRANCH   5   8
HETATM    8  C   UNL     1     -40.522 -49.493  11.931  1.00  0.00     0.047 A 
HETATM    9  C   UNL     1     -41.303 -50.475  12.425  1.00  0.00     0.112 A 
HETATM   10  N   UNL     1     -40.774 -51.628  13.007  1.00  0.00    -0.310 N 
HETATM   11  C   UNL     1     -39.391 -51.808  13.133  1.00  0.00     0.248 A 
HETATM   12  C   UNL     1     -38.540 -50.718  12.591  1.00  0.00     0.075 A 
HETATM   13  O   UNL     1     -38.850 -52.793  13.625  1.00  0.00    -0.268 OA
HETATM   14  C   UNL     1     -39.084 -49.639  12.016  1.00  0.00     0.024 A 
BRANCH  10  15
HETATM   15  C   UNL     1     -41.623 -52.645  13.655  1.00  0.00     0.186 C 
HETATM   16  C   UNL     1     -42.410 -53.597  12.751  1.00  0.00     0.055 C 
HETATM   17  C   UNL     1     -43.798 -52.988  12.633  1.00  0.00     0.129 C 
HETATM   18  N   UNL     1     -43.941 -52.158  13.805  1.00  0.00    -0.342 N 
HETATM   19  C   UNL     1     -42.718 -51.919  14.434  1.00  0.00     0.243 C 
HETATM   20  O   UNL     1     -42.552 -51.136  15.358  1.00  0.00    -0.271 OA
BRANCH  18  21
HETATM   21  C   UNL     1     -45.005 -51.151  13.913  1.00  0.00     0.243 C 
BRANCH  21  22
HETATM   22  C   UNL     1     -46.456 -51.625  13.845  1.00  0.00     0.403 C 
HETATM   23  F   UNL     1     -47.265 -50.969  14.703  1.00  0.00    -0.169 F 
HETATM   24  F   UNL     1     -46.536 -52.944  14.144  1.00  0.00    -0.169 F 
HETATM   25  F   UNL     1     -46.963 -51.462  12.601  1.00  0.00    -0.169 F 
ENDBRANCH  21  22
ENDBRANCH  18  21
ENDBRANCH  10  15
ENDBRANCH   5   8
ENDBRANCH   1   4
TORSDOF 5
ENDMDL
MODEL 2
REMARK VINA RESULT:      -6.5      3.084      5.379
REMARK  5 active torsions:
REMARK  status: ('A' for Active; 'I' for Inactive)
REMARK    1  A    between atoms: C_2  and  C_5 
REMARK    2  A    between atoms: C_5  and  N_6 
REMARK    3  A    between atoms: C_9  and  N_12 
REMARK    4  A    between atoms: C_14  and  C_19 
REMARK       I    between atoms: C_19  and  N_21 
REMARK    5  A    between atoms: N_21  and  C_22 
ROOT
HETATM    1  C   UNL     1     -46.441 -52.366  13.473  1.00  0.00     0.216 C 
HETATM    2  C   UNL     1     -46.922 -51.812  12.143  1.00  0.00    -0.098 C 
HETATM    3  C   UNL     1     -47.334 -51.337  11.001  1.00  0.00     0.014 C 
ENDROOT
BRANCH   1   4
HETATM    4  N   UNL     1     -45.000 -52.311  13.548  1.00  0.00    -0.346 N 
HETATM    5  C   UNL     1     -44.235 -53.350  13.083  1.00  0.00     0.253 C 
HETATM    6  O   UNL     1     -44.725 -54.389  12.644  1.00  0.00    -0.268 OA
HETATM    7  H   UNL     1     -44.583 -51.536  14.042  1.00  0.00     0.163 HD
BRANCH   5   8
HETATM    8  C   UNL     1     -42.743 -53.158  13.146  1.00  0.00     0.047 A 
HETATM    9  C   UNL     1     -42.283 -51.893  13.221  1.00  0.00     0.112 A 
HETATM   10  N   UNL     1     -40.926 -51.598  13.357  1.00  0.00    -0.310 N 
HETATM   11  C   UNL     1     -39.963 -52.615  13.392  1.00  0.00     0.248 A 
HETATM   12  C   UNL     1     -40.479 -54.005  13.303  1.00  0.00     0.075 A 
HETATM   13  O   UNL     1     -38.755 -52.438  13.515  1.00  0.00    -0.268 OA
HETATM   14  C   UNL     1     -41.791 -54.248  13.200  1.00  0.00     0.024 A 
BRANCH  10  15
HETATM   15  C   UNL     1     -40.411 -50.218  13.317  1.00  0.00     0.186 C 
HETATM   16  C   UNL     1     -40.883 -49.249  14.405  1.00  0.00     0.055 C 
HETATM   17  C   UNL     1     -42.044 -48.485  13.790  1.00  0.00     0.129 C 
HETATM   18  N   UNL     1     -41.837 -48.576  12.364  1.00  0.00    -0.342 N 
HETATM   19  C   UNL     1     -40.909 -49.564  12.029  1.00  0.00     0.243 C 
HETATM   20  O   UNL     1     -40.665 -49.933  10.889  1.00  0.00    -0.271 OA
BRANCH  18  21
HETATM   21  C   UNL     1     -42.900 -48.244  11.406  1.00  0.00     0.243 C 
BRANCH  21  22
HETATM   22  C   UNL     1     -42.547 -47.346  10.222  1.00  0.00     0.403 C 
HETATM   23  F   UNL     1     -41.415 -46.638  10.416  1.00  0.00    -0.169 F 
HETATM   24  F   UNL     1     -43.544 -46.457   9.990  1.00  0.00    -0.169 F 
HETATM   25  F   UNL     1     -42.385 -48.073   9.092  1.00  0.00    -0.169 F 
ENDBRANCH  21  22
ENDBRANCH  18  21
ENDBRANCH  10  15
ENDBRANCH   5   8
ENDBRANCH   1   4
TORSDOF 5
ENDMDL
MODEL 3
REMARK VINA RESULT:      -6.3      3.364      5.474
REMARK  5 active torsions:
REMARK  status: ('A' for Active; 'I' for Inactive)
REMARK    1  A    between atoms: C_2  and  C_5 
REMARK    2  A    between atoms: C_5  and  N_6 
REMARK    3  A    between atoms: C_9  and  N_12 
REMARK    4  A    between atoms: C_14  and  C_19 
REMARK       I    between atoms: C_19  and  N_21 
REMARK    5  A    between atoms: N_21  and  C_22 
ROOT
HETATM    1  C   UNL     1     -46.193 -51.671  13.670  1.00  0.00     0.216 C 
HETATM    2  C   UNL     1     -46.858 -51.662  12.304  1.00  0.00    -0.098 C 
HETATM    3  C   UNL     1     -47.428 -51.653  11.131  1.00  0.00     0.014 C 
ENDROOT
BRANCH   1   4
HETATM    4  N   UNL     1     -44.903 -52.314  13.595  1.00  0.00    -0.346 N 
HETATM    5  C   UNL     1     -43.757 -51.571  13.455  1.00  0.00     0.253 C 
HETATM    6  O   UNL     1     -43.773 -50.348  13.325  1.00  0.00    -0.268 OA
HETATM    7  H   UNL     1     -44.880 -53.321  13.546  1.00  0.00     0.163 HD
BRANCH   5   8
HETATM    8  C   UNL     1     -42.462 -52.338  13.458  1.00  0.00     0.047 A 
HETATM    9  C   UNL     1     -41.366 -51.705  13.920  1.00  0.00     0.112 A 
HETATM   10  N   UNL     1     -40.129 -52.339  14.037  1.00  0.00    -0.310 N 
HETATM   11  C   UNL     1     -39.959 -53.673  13.646  1.00  0.00     0.248 A 
HETATM   12  C   UNL     1     -41.171 -54.361  13.132  1.00  0.00     0.075 A 
HETATM   13  O   UNL     1     -38.908 -54.303  13.722  1.00  0.00    -0.268 OA
HETATM   14  C   UNL     1     -42.347 -53.726  13.061  1.00  0.00     0.024 A 
BRANCH  10  15
HETATM   15  C   UNL     1     -38.905 -51.616  14.426  1.00  0.00     0.186 C 
HETATM   16  C   UNL     1     -39.021 -50.560  15.528  1.00  0.00     0.055 C 
HETATM   17  C   UNL     1     -39.180 -49.234  14.801  1.00  0.00     0.129 C 
HETATM   18  N   UNL     1     -38.604 -49.453  13.495  1.00  0.00    -0.342 N 
HETATM   19  C   UNL     1     -38.427 -50.810  13.219  1.00  0.00     0.243 C 
HETATM   20  O   UNL     1     -38.092 -51.261  12.134  1.00  0.00    -0.271 OA
BRANCH  18  21
HETATM   21  C   UNL     1     -38.840 -48.525  12.382  1.00  0.00     0.243 C 
BRANCH  21  22
HETATM   22  C   UNL     1     -40.206 -48.548  11.701  1.00  0.00     0.403 C 
HETATM   23  F   UNL     1     -40.369 -49.609  10.882  1.00  0.00    -0.169 F 
HETATM   24  F   UNL     1     -40.382 -47.432  10.953  1.00  0.00    -0.169 F 
HETATM   25  F   UNL     1     -41.204 -48.582  12.614  1.00  0.00    -0.169 F 
ENDBRANCH  21  22
ENDBRANCH  18  21
ENDBRANCH  10  15
ENDBRANCH   5   8
ENDBRANCH   1   4
TORSDOF 5
ENDMDL
MODEL 4
REMARK VINA RESULT:      -6.1      1.855      2.429
REMARK  5 active torsions:
REMARK  status: ('A' for Active; 'I' for Inactive)
REMARK    1  A    between atoms: C_2  and  C_5 
REMARK    2  A    between atoms: C_5  and  N_6 
REMARK    3  A    between atoms: C_9  and  N_12 
REMARK    4  A    between atoms: C_14  and  C_19 
REMARK       I    between atoms: C_19  and  N_21 
REMARK    5  A    between atoms: N_21  and  C_22 
ROOT
HETATM    1  C   UNL     1     -42.060 -47.785  10.288  1.00  0.00     0.216 C 
HETATM    2  C   UNL     1     -41.133 -46.627  10.618  1.00  0.00    -0.098 C 
HETATM    3  C   UNL     1     -40.338 -45.633  10.903  1.00  0.00     0.014 C 
ENDROOT
BRANCH   1   4
HETATM    4  N   UNL     1     -41.597 -48.995  10.925  1.00  0.00    -0.346 N 
HETATM    5  C   UNL     1     -42.170 -49.434  12.093  1.00  0.00     0.253 C 
HETATM    6  O   UNL     1     -43.046 -48.800  12.680  1.00  0.00    -0.268 OA
HETATM    7  H   UNL     1     -40.781 -49.447  10.543  1.00  0.00     0.163 HD
BRANCH   5   8
HETATM    8  C   UNL     1     -41.659 -50.743  12.634  1.00  0.00     0.047 A 
HETATM    9  C   UNL     1     -42.546 -51.750  12.762  1.00  0.00     0.112 A 
HETATM   10  N   UNL     1     -42.171 -53.027  13.184  1.00  0.00    -0.310 N 
HETATM   11  C   UNL     1     -40.845 -53.316  13.525  1.00  0.00     0.248 A 
HETATM   12  C   UNL     1     -39.876 -52.199  13.386  1.00  0.00     0.075 A 
HETATM   13  O   UNL     1     -40.435 -54.412  13.897  1.00  0.00    -0.268 OA
HETATM   14  C   UNL     1     -40.269 -50.995  12.952  1.00  0.00     0.024 A 
BRANCH  10  15
HETATM   15  C   UNL     1     -43.156 -54.093  13.441  1.00  0.00     0.186 C 
HETATM   16  C   UNL     1     -44.388 -54.159  12.535  1.00  0.00     0.055 C 
HETATM   17  C   UNL     1     -45.482 -53.418  13.286  1.00  0.00     0.129 C 
HETATM   18  N   UNL     1     -45.090 -53.481  14.674  1.00  0.00    -0.342 N 
HETATM   19  C   UNL     1     -43.755 -53.859  14.827  1.00  0.00     0.243 C 
HETATM   20  O   UNL     1     -43.145 -53.848  15.887  1.00  0.00    -0.271 OA
BRANCH  18  21
HETATM   21  C   UNL     1     -45.706 -52.619  15.691  1.00  0.00     0.243 C 
BRANCH  21  22
HETATM   22  C   UNL     1     -46.037 -51.178  15.309  1.00  0.00     0.403 C 
HETATM   23  F   UNL     1     -47.085 -51.083  14.463  1.00  0.00    -0.169 F 
HETATM   24  F   UNL     1     -44.976 -50.594  14.701  1.00  0.00    -0.169 F 
HETATM   25  F   UNL     1     -46.330 -50.439  16.404  1.00  0.00    -0.169 F 
ENDBRANCH  21  22
ENDBRANCH  18  21
ENDBRANCH  10  15
ENDBRANCH   5   8
ENDBRANCH   1   4
TORSDOF 5
ENDMDL
MODEL 5
REMARK VINA RESULT:      -6.0      3.190      5.693
REMARK  5 active torsions:
REMARK  status: ('A' for Active; 'I' for Inactive)
REMARK    1  A    between atoms: C_2  and  C_5 
REMARK    2  A    between atoms: C_5  and  N_6 
REMARK    3  A    between atoms: C_9  and  N_12 
REMARK    4  A    between atoms: C_14  and  C_19 
REMARK       I    between atoms: C_19  and  N_21 
REMARK    5  A    between atoms: N_21  and  C_22 
ROOT
HETATM    1  C   UNL     1     -45.868 -54.274  14.024  1.00  0.00     0.216 C 
HETATM    2  C   UNL     1     -46.263 -52.808  14.069  1.00  0.00    -0.098 C 
HETATM    3  C   UNL     1     -46.602 -51.549  14.108  1.00  0.00     0.014 C 
ENDROOT
BRANCH   1   4
HETATM    4  N   UNL     1     -44.447 -54.417  14.235  1.00  0.00    -0.346 N 
HETATM    5  C   UNL     1     -43.936 -54.540  15.504  1.00  0.00     0.253 C 
HETATM    6  O   UNL     1     -44.640 -54.473  16.510  1.00  0.00    -0.268 OA
HETATM    7  H   UNL     1     -43.839 -54.321  13.436  1.00  0.00     0.163 HD
BRANCH   5   8
HETATM    8  C   UNL     1     -42.449 -54.753  15.604  1.00  0.00     0.047 A 
HETATM    9  C   UNL     1     -41.650 -53.827  15.038  1.00  0.00     0.112 A 
HETATM   10  N   UNL     1     -40.258 -53.882  15.131  1.00  0.00    -0.310 N 
HETATM   11  C   UNL     1     -39.619 -54.933  15.800  1.00  0.00     0.248 A 
HETATM   12  C   UNL     1     -40.508 -55.952  16.415  1.00  0.00     0.075 A 
HETATM   13  O   UNL     1     -38.404 -55.051  15.930  1.00  0.00    -0.268 OA
HETATM   14  C   UNL     1     -41.839 -55.849  16.327  1.00  0.00     0.024 A 
BRANCH  10  15
HETATM   15  C   UNL     1     -39.382 -52.941  14.412  1.00  0.00     0.186 C 
HETATM   16  C   UNL     1     -39.038 -51.618  15.102  1.00  0.00     0.055 C 
HETATM   17  C   UNL     1     -40.029 -50.605  14.551  1.00  0.00     0.129 C 
HETATM   18  N   UNL     1     -40.447 -51.147  13.279  1.00  0.00    -0.342 N 
HETATM   19  C   UNL     1     -40.107 -52.494  13.143  1.00  0.00     0.243 C 
HETATM   20  O   UNL     1     -40.471 -53.214  12.226  1.00  0.00    -0.271 OA
BRANCH  18  21
HETATM   21  C   UNL     1     -41.630 -50.637  12.574  1.00  0.00     0.243 C 
BRANCH  21  22
HETATM   22  C   UNL     1     -43.008 -51.013  13.114  1.00  0.00     0.403 C 
HETATM   23  F   UNL     1     -43.021 -51.186  14.453  1.00  0.00    -0.169 F 
HETATM   24  F   UNL     1     -43.436 -52.171  12.554  1.00  0.00    -0.169 F 
HETATM   25  F   UNL     1     -43.923 -50.061  12.817  1.00  0.00    -0.169 F 
ENDBRANCH  21  22
ENDBRANCH  18  21
ENDBRANCH  10  15
ENDBRANCH   5   8
ENDBRANCH   1   4
TORSDOF 5
ENDMDL
MODEL 6
REMARK VINA RESULT:      -5.8      4.644      7.199
REMARK  5 active torsions:
REMARK  status: ('A' for Active; 'I' for Inactive)
REMARK    1  A    between atoms: C_2  and  C_5 
REMARK    2  A    between atoms: C_5  and  N_6 
REMARK    3  A    between atoms: C_9  and  N_12 
REMARK    4  A    between atoms: C_14  and  C_19 
REMARK       I    between atoms: C_19  and  N_21 
REMARK    5  A    between atoms: N_21  and  C_22 
ROOT
HETATM    1  C   UNL     1     -47.552 -50.483  18.817  1.00  0.00     0.216 C 
HETATM    2  C   UNL     1     -48.094 -49.064  18.850  1.00  0.00    -0.098 C 
HETATM    3  C   UNL     1     -48.560 -47.846  18.879  1.00  0.00     0.014 C 
ENDROOT
BRANCH   1   4
HETATM    4  N   UNL     1     -47.292 -50.889  17.456  1.00  0.00    -0.346 N 
HETATM    5  C   UNL     1     -46.022 -51.225  17.056  1.00  0.00     0.253 C 
HETATM    6  O   UNL     1     -45.048 -51.139  17.802  1.00  0.00    -0.268 OA
HETATM    7  H   UNL     1     -48.047 -50.819  16.791  1.00  0.00     0.163 HD
BRANCH   5   8
HETATM    8  C   UNL     1     -45.877 -51.699  15.634  1.00  0.00     0.047 A 
HETATM    9  C   UNL     1     -44.915 -52.608  15.379  1.00  0.00     0.112 A 
HETATM   10  N   UNL     1     -44.736 -53.173  14.115  1.00  0.00    -0.310 N 
HETATM   11  C   UNL     1     -45.539 -52.794  13.033  1.00  0.00     0.248 A 
HETATM   12  C   UNL     1     -46.594 -51.788  13.323  1.00  0.00     0.075 A 
HETATM   13  O   UNL     1     -45.450 -53.246  11.895  1.00  0.00    -0.268 OA
HETATM   14  C   UNL     1     -46.751 -51.290  14.555  1.00  0.00     0.024 A 
BRANCH  10  15
HETATM   15  C   UNL     1     -43.610 -54.072  13.805  1.00  0.00     0.186 C 
HETATM   16  C   UNL     1     -43.131 -55.020  14.908  1.00  0.00     0.055 C 
HETATM   17  C   UNL     1     -41.957 -54.313  15.565  1.00  0.00     0.129 C 
HETATM   18  N   UNL     1     -41.465 -53.395  14.565  1.00  0.00    -0.342 N 
HETATM   19  C   UNL     1     -42.379 -53.211  13.526  1.00  0.00     0.243 C 
HETATM   20  O   UNL     1     -42.263 -52.382  12.635  1.00  0.00    -0.271 OA
BRANCH  18  21
HETATM   21  C   UNL     1     -40.544 -52.303  14.904  1.00  0.00     0.243 C 
BRANCH  21  22
HETATM   22  C   UNL     1     -39.133 -52.344  14.322  1.00  0.00     0.403 C 
HETATM   23  F   UNL     1     -38.236 -51.659  15.063  1.00  0.00    -0.169 F 
HETATM   24  F   UNL     1     -39.119 -51.808  13.077  1.00  0.00    -0.169 F 
HETATM   25  F   UNL     1     -38.687 -53.617  14.217  1.00  0.00    -0.169 F 
ENDBRANCH  21  22
ENDBRANCH  18  21
ENDBRANCH  10  15
ENDBRANCH   5   8
ENDBRANCH   1   4
TORSDOF 5
ENDMDL
MODEL 7
REMARK VINA RESULT:      -5.8      3.210      6.044
REMARK  5 active torsions:
REMARK  status: ('A' for Active; 'I' for Inactive)
REMARK    1  A    between atoms: C_2  and  C_5 
REMARK    2  A    between atoms: C_5  and  N_6 
REMARK    3  A    between atoms: C_9  and  N_12 
REMARK    4  A    between atoms: C_14  and  C_19 
REMARK       I    between atoms: C_19  and  N_21 
REMARK    5  A    between atoms: N_21  and  C_22 
ROOT
HETATM    1  C   UNL     1     -43.398 -53.085  12.535  1.00  0.00     0.216 C 
HETATM    2  C   UNL     1     -42.567 -53.831  13.565  1.00  0.00    -0.098 C 
HETATM    3  C   UNL     1     -41.853 -54.472  14.449  1.00  0.00     0.014 C 
ENDROOT
BRANCH   1   4
HETATM    4  N   UNL     1     -42.720 -51.879  12.123  1.00  0.00    -0.346 N 
HETATM    5  C   UNL     1     -43.014 -50.674  12.711  1.00  0.00     0.253 C 
HETATM    6  O   UNL     1     -43.897 -50.549  13.558  1.00  0.00    -0.268 OA
HETATM    7  H   UNL     1     -42.103 -51.933  11.327  1.00  0.00     0.163 HD
BRANCH   5   8
HETATM    8  C   UNL     1     -42.199 -49.494  12.254  1.00  0.00     0.047 A 
HETATM    9  C   UNL     1     -40.859 -49.590  12.354  1.00  0.00     0.112 A 
HETATM   10  N   UNL     1     -40.001 -48.589  11.896  1.00  0.00    -0.310 N 
HETATM   11  C   UNL     1     -40.501 -47.410  11.330  1.00  0.00     0.248 A 
HETATM   12  C   UNL     1     -41.980 -47.311  11.229  1.00  0.00     0.075 A 
HETATM   13  O   UNL     1     -39.815 -46.488  10.898  1.00  0.00    -0.268 OA
HETATM   14  C   UNL     1     -42.768 -48.304  11.656  1.00  0.00     0.024 A 
BRANCH  10  15
HETATM   15  C   UNL     1     -38.544 -48.637  12.114  1.00  0.00     0.186 C 
HETATM   16  C   UNL     1     -37.760 -49.768  11.442  1.00  0.00     0.055 C 
HETATM   17  C   UNL     1     -37.624 -50.850  12.501  1.00  0.00     0.129 C 
HETATM   18  N   UNL     1     -37.763 -50.158  13.761  1.00  0.00    -0.342 N 
HETATM   19  C   UNL     1     -38.296 -48.878  13.602  1.00  0.00     0.243 C 
HETATM   20  O   UNL     1     -38.642 -48.149  14.521  1.00  0.00    -0.271 OA
BRANCH  18  21
HETATM   21  C   UNL     1     -38.010 -50.881  15.016  1.00  0.00     0.243 C 
BRANCH  21  22
HETATM   22  C   UNL     1     -39.061 -51.990  15.014  1.00  0.00     0.403 C 
HETATM   23  F   UNL     1     -38.672 -53.084  14.326  1.00  0.00    -0.169 F 
HETATM   24  F   UNL     1     -40.213 -51.549  14.452  1.00  0.00    -0.169 F 
HETATM   25  F   UNL     1     -39.354 -52.384  16.275  1.00  0.00    -0.169 F 
ENDBRANCH  21  22
ENDBRANCH  18  21
ENDBRANCH  10  15
ENDBRANCH   5   8
ENDBRANCH   1   4
TORSDOF 5
ENDMDL
MODEL 8
REMARK VINA RESULT:      -5.8      3.731      5.727
REMARK  5 active torsions:
REMARK  status: ('A' for Active; 'I' for Inactive)
REMARK    1  A    between atoms: C_2  and  C_5 
REMARK    2  A    between atoms: C_5  and  N_6 
REMARK    3  A    between atoms: C_9  and  N_12 
REMARK    4  A    between atoms: C_14  and  C_19 
REMARK       I    between atoms: C_19  and  N_21 
REMARK    5  A    between atoms: N_21  and  C_22 
ROOT
HETATM    1  C   UNL     1     -42.434 -48.246  15.564  1.00  0.00     0.216 C 
HETATM    2  C   UNL     1     -41.356 -48.067  14.509  1.00  0.00    -0.098 C 
HETATM    3  C   UNL     1     -40.430 -47.913  13.603  1.00  0.00     0.014 C 
ENDROOT
BRANCH   1   4
HETATM    4  N   UNL     1     -43.198 -49.443  15.301  1.00  0.00    -0.346 N 
HETATM    5  C   UNL     1     -44.212 -49.826  16.143  1.00  0.00     0.253 C 
HETATM    6  O   UNL     1     -44.477 -49.219  17.180  1.00  0.00    -0.268 OA
HETATM    7  H   UNL     1     -42.899 -50.036  14.542  1.00  0.00     0.163 HD
BRANCH   5   8
HETATM    8  C   UNL     1     -44.988 -51.050  15.737  1.00  0.00     0.047 A 
HETATM    9  C   UNL     1     -44.285 -52.113  15.298  1.00  0.00     0.112 A 
HETATM   10  N   UNL     1     -44.892 -53.324  14.963  1.00  0.00    -0.310 N 
HETATM   11  C   UNL     1     -46.281 -53.484  15.040  1.00  0.00     0.248 A 
HETATM   12  C   UNL     1     -47.048 -52.305  15.519  1.00  0.00     0.075 A 
HETATM   13  O   UNL     1     -46.889 -54.516  14.770  1.00  0.00    -0.268 OA
HETATM   14  C   UNL     1     -46.426 -51.169  15.857  1.00  0.00     0.024 A 
BRANCH  10  15
HETATM   15  C   UNL     1     -44.142 -54.445  14.368  1.00  0.00     0.186 C 
HETATM   16  C   UNL     1     -42.870 -54.909  15.083  1.00  0.00     0.055 C 
HETATM   17  C   UNL     1     -41.727 -54.199  14.376  1.00  0.00     0.129 C 
HETATM   18  N   UNL     1     -42.239 -53.881  13.065  1.00  0.00    -0.342 N 
HETATM   19  C   UNL     1     -43.629 -53.998  13.000  1.00  0.00     0.243 C 
HETATM   20  O   UNL     1     -44.313 -53.650  12.049  1.00  0.00    -0.271 OA
BRANCH  18  21
HETATM   21  C   UNL     1     -41.565 -52.917  12.185  1.00  0.00     0.243 C 
BRANCH  21  22
HETATM   22  C   UNL     1     -41.582 -51.443  12.583  1.00  0.00     0.403 C 
HETATM   23  F   UNL     1     -42.822 -50.909  12.578  1.00  0.00    -0.169 F 
HETATM   24  F   UNL     1     -40.826 -50.713  11.727  1.00  0.00    -0.169 F 
HETATM   25  F   UNL     1     -41.068 -51.268  13.822  1.00  0.00    -0.169 F 
ENDBRANCH  21  22
ENDBRANCH  18  21
ENDBRANCH  10  15
ENDBRANCH   5   8
ENDBRANCH   1   4
TORSDOF 5
ENDMDL
MODEL 9
REMARK VINA RESULT:      -5.8      3.448      6.105
REMARK  5 active torsions:
REMARK  status: ('A' for Active; 'I' for Inactive)
REMARK    1  A    between atoms: C_2  and  C_5 
REMARK    2  A    between atoms: C_5  and  N_6 
REMARK    3  A    between atoms: C_9  and  N_12 
REMARK    4  A    between atoms: C_14  and  C_19 
REMARK       I    between atoms: C_19  and  N_21 
REMARK    5  A    between atoms: N_21  and  C_22 
ROOT
HETATM    1  C   UNL     1     -46.320 -53.283  15.296  1.00  0.00     0.216 C 
HETATM    2  C   UNL     1     -46.396 -52.374  14.080  1.00  0.00    -0.098 C 
HETATM    3  C   UNL     1     -46.461 -51.594  13.038  1.00  0.00     0.014 C 
ENDROOT
BRANCH   1   4
HETATM    4  N   UNL     1     -44.944 -53.597  15.601  1.00  0.00    -0.346 N 
HETATM    5  C   UNL     1     -44.299 -54.621  14.952  1.00  0.00     0.253 C 
HETATM    6  O   UNL     1     -44.864 -55.350  14.139  1.00  0.00    -0.268 OA
HETATM    7  H   UNL     1     -44.509 -53.112  16.371  1.00  0.00     0.163 HD
BRANCH   5   8
HETATM    8  C   UNL     1     -42.847 -54.816  15.297  1.00  0.00     0.047 A 
HETATM    9  C   UNL     1     -41.971 -53.898  14.841  1.00  0.00     0.112 A 
HETATM   10  N   UNL     1     -40.613 -53.937  15.159  1.00  0.00    -0.310 N 
HETATM   11  C   UNL     1     -40.084 -54.963  15.953  1.00  0.00     0.248 A 
HETATM   12  C   UNL     1     -41.056 -55.973  16.446  1.00  0.00     0.075 A 
HETATM   13  O   UNL     1     -38.906 -55.065  16.282  1.00  0.00    -0.268 OA
HETATM   14  C   UNL     1     -42.356 -55.885  16.141  1.00  0.00     0.024 A 
BRANCH  10  15
HETATM   15  C   UNL     1     -39.636 -53.008  14.565  1.00  0.00     0.186 C 
HETATM   16  C   UNL     1     -39.355 -51.699  15.307  1.00  0.00     0.055 C 
HETATM   17  C   UNL     1     -40.250 -50.661  14.650  1.00  0.00     0.129 C 
HETATM   18  N   UNL     1     -40.519 -51.181  13.331  1.00  0.00    -0.342 N 
HETATM   19  C   UNL     1     -40.191 -52.534  13.222  1.00  0.00     0.243 C 
HETATM   20  O   UNL     1     -40.454 -53.238  12.258  1.00  0.00    -0.271 OA
BRANCH  18  21
HETATM   21  C   UNL     1     -41.597 -50.640  12.492  1.00  0.00     0.243 C 
BRANCH  21  22
HETATM   22  C   UNL     1     -41.283 -49.441  11.600  1.00  0.00     0.403 C 
HETATM   23  F   UNL     1     -42.378 -48.930  10.999  1.00  0.00    -0.169 F 
HETATM   24  F   UNL     1     -40.414 -49.794  10.622  1.00  0.00    -0.169 F 
HETATM   25  F   UNL     1     -40.705 -48.445  12.310  1.00  0.00    -0.169 F 
ENDBRANCH  21  22
ENDBRANCH  18  21
ENDBRANCH  10  15
ENDBRANCH   5   8
ENDBRANCH   1   4
TORSDOF 5
ENDMDL
