MODEL 1
REMARK VINA RESULT:      -5.9      0.000      0.000
REMARK  8 active torsions:
REMARK  status: ('A' for Active; 'I' for Inactive)
REMARK    1  A    between atoms: O_2  and  C_3 
REMARK    2  A    between atoms: C_3  and  C_4 
REMARK    3  A    between atoms: C_4  and  N_5 
REMARK       I    between atoms: N_5  and  C_6 
REMARK    4  A    between atoms: C_6  and  C_8 
REMARK    5  A    between atoms: C_8  and  N_9 
REMARK    6  A    between atoms: C_12  and  C_13 
REMARK    7  A    between atoms: C_13  and  N_14 
REMARK    8  A    between atoms: N_18  and  C_19 
ROOT
HETATM    1  N   UNL     1     -44.883 -54.044  14.458  1.00  0.00    -0.256 N 
HETATM    2  C   UNL     1     -45.270 -53.499  13.242  1.00  0.00     0.273 A 
HETATM    3  O   UNL     1     -44.805 -53.859  12.162  1.00  0.00    -0.266 OA
HETATM    4  C   UNL     1     -46.295 -52.437  13.301  1.00  0.00     0.110 A 
HETATM    5  C   UNL     1     -46.740 -52.032  14.494  1.00  0.00     0.123 A 
HETATM    6  N   UNL     1     -46.294 -52.589  15.672  1.00  0.00    -0.303 N 
HETATM    7  C   UNL     1     -45.386 -53.658  15.702  1.00  0.00     0.332 A 
HETATM    8  O   UNL     1     -45.078 -54.230  16.747  1.00  0.00    -0.246 OA
ENDROOT
BRANCH   1   9
HETATM    9  C   UNL     1     -43.865 -55.088  14.442  1.00  0.00     0.239 C 
BRANCH   9  10
HETATM   10  C   UNL     1     -42.484 -54.434  14.407  1.00  0.00     0.236 C 
HETATM   11  N   UNL     1     -41.951 -54.289  13.146  1.00  0.00    -0.358 N 
HETATM   12  H   UNL     1     -42.411 -54.730  12.353  1.00  0.00     0.162 HD
HETATM   13  O   UNL     1     -41.928 -53.999  15.413  1.00  0.00    -0.272 OA
BRANCH  11  14
HETATM   14  C   UNL     1     -40.629 -53.726  12.928  1.00  0.00     0.148 C 
BRANCH  14  15
HETATM   15  C   UNL     1     -40.671 -52.239  12.568  1.00  0.00     0.186 C 
BRANCH  15  16
HETATM   16  O   UNL     1     -39.331 -51.746  12.445  1.00  0.00    -0.394 OA
HETATM   17  C   UNL     1     -38.682 -51.684  13.709  1.00  0.00     0.201 C 
ENDBRANCH  15  16
ENDBRANCH  14  15
ENDBRANCH  11  14
ENDBRANCH   9  10
ENDBRANCH   1   9
BRANCH   4  18
HETATM   18  C   UNL     1     -46.791 -51.778  12.025  1.00  0.00    -0.030 C 
BRANCH  18  19
HETATM   19  N   UNL     1     -47.203 -51.231  10.965  1.00  0.00    -0.365 N 
ATOM     20  HN2 UNL     1     -46.881 -51.675  11.825  1.00  0.00     0.165 HD
ATOM     21  HN1 UNL     1     -47.536 -50.788  10.109  1.00  0.00     0.165 HD
ENDBRANCH  18  19
ENDBRANCH   4  18
BRANCH   6  22
HETATM   22  C   UNL     1     -46.884 -52.111  16.904  1.00  0.00     0.094 A 
HETATM   23  C   UNL     1     -48.045 -51.145  16.923  1.00  0.00     0.028 A 
HETATM   24  C   UNL     1     -46.693 -50.691  17.377  1.00  0.00     0.028 A 
ENDBRANCH   6  22
TORSDOF 8
ENDMDL
MODEL 2
REMARK VINA RESULT:      -5.7      1.813      2.267
REMARK  8 active torsions:
REMARK  status: ('A' for Active; 'I' for Inactive)
REMARK    1  A    between atoms: O_2  and  C_3 
REMARK    2  A    between atoms: C_3  and  C_4 
REMARK    3  A    between atoms: C_4  and  N_5 
REMARK       I    between atoms: N_5  and  C_6 
REMARK    4  A    between atoms: C_6  and  C_8 
REMARK    5  A    between atoms: C_8  and  N_9 
REMARK    6  A    between atoms: C_12  and  C_13 
REMARK    7  A    between atoms: C_13  and  N_14 
REMARK    8  A    between atoms: N_18  and  C_19 
ROOT
HETATM    1  N   UNL     1     -45.084 -54.210  14.572  1.00  0.00    -0.256 N 
HETATM    2  C   UNL     1     -45.400 -53.624  13.354  1.00  0.00     0.273 A 
HETATM    3  O   UNL     1     -44.967 -54.030  12.277  1.00  0.00    -0.266 OA
HETATM    4  C   UNL     1     -46.306 -52.459  13.407  1.00  0.00     0.110 A 
HETATM    5  C   UNL     1     -46.714 -52.010  14.597  1.00  0.00     0.123 A 
HETATM    6  N   UNL     1     -46.341 -52.614  15.777  1.00  0.00    -0.303 N 
HETATM    7  C   UNL     1     -45.553 -53.774  15.812  1.00  0.00     0.332 A 
HETATM    8  O   UNL     1     -45.317 -54.378  16.859  1.00  0.00    -0.246 OA
ENDROOT
BRANCH   1   9
HETATM    9  C   UNL     1     -44.184 -55.357  14.561  1.00  0.00     0.239 C 
BRANCH   9  10
HETATM   10  C   UNL     1     -42.766 -54.879  14.872  1.00  0.00     0.236 C 
HETATM   11  N   UNL     1     -42.274 -55.301  16.088  1.00  0.00    -0.358 N 
HETATM   12  H   UNL     1     -42.895 -55.763  16.747  1.00  0.00     0.162 HD
HETATM   13  O   UNL     1     -42.088 -54.238  14.072  1.00  0.00    -0.272 OA
BRANCH  11  14
HETATM   14  C   UNL     1     -40.960 -54.905  16.566  1.00  0.00     0.148 C 
BRANCH  14  15
HETATM   15  C   UNL     1     -40.081 -56.102  16.935  1.00  0.00     0.186 C 
BRANCH  15  16
HETATM   16  O   UNL     1     -39.008 -56.208  15.990  1.00  0.00    -0.394 OA
HETATM   17  C   UNL     1     -38.805 -54.983  15.296  1.00  0.00     0.201 C 
ENDBRANCH  15  16
ENDBRANCH  14  15
ENDBRANCH  11  14
ENDBRANCH   9  10
ENDBRANCH   1   9
BRANCH   4  18
HETATM   18  C   UNL     1     -46.718 -51.748  12.129  1.00  0.00    -0.030 C 
BRANCH  18  19
HETATM   19  N   UNL     1     -47.059 -51.158  11.067  1.00  0.00    -0.365 N 
ATOM     20  HN2 UNL     1     -46.784 -51.645  11.920  1.00  0.00     0.165 HD
ATOM     21  HN1 UNL     1     -47.335 -50.681  10.208  1.00  0.00     0.165 HD
ENDBRANCH  18  19
ENDBRANCH   4  18
BRANCH   6  22
HETATM   22  C   UNL     1     -46.886 -52.078  17.006  1.00  0.00     0.094 A 
HETATM   23  C   UNL     1     -48.042 -51.106  17.021  1.00  0.00     0.028 A 
HETATM   24  C   UNL     1     -46.675 -50.639  17.407  1.00  0.00     0.028 A 
ENDBRANCH   6  22
TORSDOF 8
ENDMDL
MODEL 3
REMARK VINA RESULT:      -5.7      3.062      5.093
REMARK  8 active torsions:
REMARK  status: ('A' for Active; 'I' for Inactive)
REMARK    1  A    between atoms: O_2  and  C_3 
REMARK    2  A    between atoms: C_3  and  C_4 
REMARK    3  A    between atoms: C_4  and  N_5 
REMARK       I    between atoms: N_5  and  C_6 
REMARK    4  A    between atoms: C_6  and  C_8 
REMARK    5  A    between atoms: C_8  and  N_9 
REMARK    6  A    between atoms: C_12  and  C_13 
REMARK    7  A    between atoms: C_13  and  N_14 
REMARK    8  A    between atoms: N_18  and  C_19 
ROOT
HETATM    1  N   UNL     1     -41.638 -53.747  13.360  1.00  0.00    -0.256 N 
HETATM    2  C   UNL     1     -43.010 -53.891  13.208  1.00  0.00     0.273 A 
HETATM    3  O   UNL     1     -43.631 -53.454  12.241  1.00  0.00    -0.266 OA
HETATM    4  C   UNL     1     -43.712 -54.613  14.288  1.00  0.00     0.110 A 
HETATM    5  C   UNL     1     -43.015 -55.027  15.350  1.00  0.00     0.123 A 
HETATM    6  N   UNL     1     -41.657 -54.827  15.461  1.00  0.00    -0.303 N 
HETATM    7  C   UNL     1     -40.900 -54.226  14.444  1.00  0.00     0.332 A 
HETATM    8  O   UNL     1     -39.673 -54.152  14.494  1.00  0.00    -0.246 OA
ENDROOT
BRANCH   1   9
HETATM    9  C   UNL     1     -40.910 -53.030  12.319  1.00  0.00     0.239 C 
BRANCH   9  10
HETATM   10  C   UNL     1     -40.993 -51.530  12.598  1.00  0.00     0.236 C 
HETATM   11  N   UNL     1     -41.871 -50.845  11.788  1.00  0.00    -0.358 N 
HETATM   12  H   UNL     1     -42.291 -51.317  10.991  1.00  0.00     0.162 HD
HETATM   13  O   UNL     1     -40.390 -50.990  13.522  1.00  0.00    -0.272 OA
BRANCH  11  14
HETATM   14  C   UNL     1     -42.046 -49.405  11.885  1.00  0.00     0.148 C 
BRANCH  14  15
HETATM   15  C   UNL     1     -41.268 -48.642  10.811  1.00  0.00     0.186 C 
BRANCH  15  16
HETATM   16  O   UNL     1     -42.194 -47.985   9.935  1.00  0.00    -0.394 OA
HETATM   17  C   UNL     1     -43.375 -47.596  10.625  1.00  0.00     0.201 C 
ENDBRANCH  15  16
ENDBRANCH  14  15
ENDBRANCH  11  14
ENDBRANCH   9  10
ENDBRANCH   1   9
BRANCH   4  18
HETATM   18  C   UNL     1     -45.215 -54.828  14.216  1.00  0.00    -0.030 C 
BRANCH  18  19
HETATM   19  N   UNL     1     -46.462 -55.007  14.156  1.00  0.00    -0.365 N 
ATOM     20  HN2 UNL     1     -45.453 -54.868  14.194  1.00  0.00     0.165 HD
ATOM     21  HN1 UNL     1     -47.471 -55.151  14.107  1.00  0.00     0.165 HD
ENDBRANCH  18  19
ENDBRANCH   4  18
BRANCH   6  22
HETATM   22  C   UNL     1     -40.994 -55.365  16.629  1.00  0.00     0.094 A 
HETATM   23  C   UNL     1     -40.550 -56.806  16.714  1.00  0.00     0.028 A 
HETATM   24  C   UNL     1     -41.685 -56.327  17.562  1.00  0.00     0.028 A 
ENDBRANCH   6  22
TORSDOF 8
ENDMDL
MODEL 4
REMARK VINA RESULT:      -5.5      2.840      4.951
REMARK  8 active torsions:
REMARK  status: ('A' for Active; 'I' for Inactive)
REMARK    1  A    between atoms: O_2  and  C_3 
REMARK    2  A    between atoms: C_3  and  C_4 
REMARK    3  A    between atoms: C_4  and  N_5 
REMARK       I    between atoms: N_5  and  C_6 
REMARK    4  A    between atoms: C_6  and  C_8 
REMARK    5  A    between atoms: C_8  and  N_9 
REMARK    6  A    between atoms: C_12  and  C_13 
REMARK    7  A    between atoms: C_13  and  N_14 
REMARK    8  A    between atoms: N_18  and  C_19 
ROOT
HETATM    1  N   UNL     1     -41.640 -53.837  13.397  1.00  0.00    -0.256 N 
HETATM    2  C   UNL     1     -43.016 -53.938  13.248  1.00  0.00     0.273 A 
HETATM    3  O   UNL     1     -43.624 -53.499  12.273  1.00  0.00    -0.266 OA
HETATM    4  C   UNL     1     -43.741 -54.615  14.342  1.00  0.00     0.110 A 
HETATM    5  C   UNL     1     -43.058 -55.031  15.412  1.00  0.00     0.123 A 
HETATM    6  N   UNL     1     -41.694 -54.875  15.518  1.00  0.00    -0.303 N 
HETATM    7  C   UNL     1     -40.918 -54.319  14.490  1.00  0.00     0.332 A 
HETATM    8  O   UNL     1     -39.689 -54.285  14.539  1.00  0.00    -0.246 OA
ENDROOT
BRANCH   1   9
HETATM    9  C   UNL     1     -40.890 -53.165  12.342  1.00  0.00     0.239 C 
BRANCH   9  10
HETATM   10  C   UNL     1     -40.921 -51.658  12.593  1.00  0.00     0.236 C 
HETATM   11  N   UNL     1     -41.849 -50.972  11.841  1.00  0.00    -0.358 N 
HETATM   12  H   UNL     1     -42.340 -51.451  11.091  1.00  0.00     0.162 HD
HETATM   13  O   UNL     1     -40.235 -51.112  13.453  1.00  0.00    -0.272 OA
BRANCH  11  14
HETATM   14  C   UNL     1     -41.988 -49.527  11.919  1.00  0.00     0.148 C 
BRANCH  14  15
HETATM   15  C   UNL     1     -43.081 -49.091  12.896  1.00  0.00     0.186 C 
BRANCH  15  16
HETATM   16  O   UNL     1     -43.974 -50.188  13.124  1.00  0.00    -0.394 OA
HETATM   17  C   UNL     1     -44.068 -50.503  14.508  1.00  0.00     0.201 C 
ENDBRANCH  15  16
ENDBRANCH  14  15
ENDBRANCH  11  14
ENDBRANCH   9  10
ENDBRANCH   1   9
BRANCH   4  18
HETATM   18  C   UNL     1     -45.250 -54.782  14.274  1.00  0.00    -0.030 C 
BRANCH  18  19
HETATM   19  N   UNL     1     -46.503 -54.920  14.217  1.00  0.00    -0.365 N 
ATOM     20  HN2 UNL     1     -45.490 -54.813  14.252  1.00  0.00     0.165 HD
ATOM     21  HN1 UNL     1     -47.516 -55.032  14.171  1.00  0.00     0.165 HD
ENDBRANCH  18  19
ENDBRANCH   4  18
BRANCH   6  22
HETATM   22  C   UNL     1     -41.048 -55.412  16.697  1.00  0.00     0.094 A 
HETATM   23  C   UNL     1     -40.701 -56.876  16.831  1.00  0.00     0.028 A 
HETATM   24  C   UNL     1     -41.787 -56.289  17.677  1.00  0.00     0.028 A 
ENDBRANCH   6  22
TORSDOF 8
ENDMDL
MODEL 5
REMARK VINA RESULT:      -5.5      3.656      6.154
REMARK  8 active torsions:
REMARK  status: ('A' for Active; 'I' for Inactive)
REMARK    1  A    between atoms: O_2  and  C_3 
REMARK    2  A    between atoms: C_3  and  C_4 
REMARK    3  A    between atoms: C_4  and  N_5 
REMARK       I    between atoms: N_5  and  C_6 
REMARK    4  A    between atoms: C_6  and  C_8 
REMARK    5  A    between atoms: C_8  and  N_9 
REMARK    6  A    between atoms: C_12  and  C_13 
REMARK    7  A    between atoms: C_13  and  N_14 
REMARK    8  A    between atoms: N_18  and  C_19 
ROOT
HETATM    1  N   UNL     1     -41.870 -50.973  13.331  1.00  0.00    -0.256 N 
HETATM    2  C   UNL     1     -40.760 -51.798  13.454  1.00  0.00     0.273 A 
HETATM    3  O   UNL     1     -39.610 -51.374  13.542  1.00  0.00    -0.266 OA
HETATM    4  C   UNL     1     -41.029 -53.251  13.477  1.00  0.00     0.110 A 
HETATM    5  C   UNL     1     -42.284 -53.680  13.324  1.00  0.00     0.123 A 
HETATM    6  N   UNL     1     -43.343 -52.813  13.173  1.00  0.00    -0.303 N 
HETATM    7  C   UNL     1     -43.188 -51.420  13.225  1.00  0.00     0.332 A 
HETATM    8  O   UNL     1     -44.148 -50.649  13.205  1.00  0.00    -0.246 OA
ENDROOT
BRANCH   1   9
HETATM    9  C   UNL     1     -41.644 -49.533  13.294  1.00  0.00     0.239 C 
BRANCH   9  10
HETATM   10  C   UNL     1     -41.644 -49.067  11.839  1.00  0.00     0.236 C 
HETATM   11  N   UNL     1     -42.618 -48.143  11.533  1.00  0.00    -0.358 N 
HETATM   12  H   UNL     1     -43.342 -47.933  12.215  1.00  0.00     0.162 HD
HETATM   13  O   UNL     1     -40.795 -49.425  11.025  1.00  0.00    -0.272 OA
BRANCH  11  14
HETATM   14  C   UNL     1     -42.792 -47.622  10.187  1.00  0.00     0.148 C 
BRANCH  14  15
HETATM   15  C   UNL     1     -44.262 -47.524   9.777  1.00  0.00     0.186 C 
BRANCH  15  16
HETATM   16  O   UNL     1     -44.343 -47.132   8.401  1.00  0.00    -0.394 OA
HETATM   17  C   UNL     1     -43.512 -47.943   7.580  1.00  0.00     0.201 C 
ENDBRANCH  15  16
ENDBRANCH  14  15
ENDBRANCH  11  14
ENDBRANCH   9  10
ENDBRANCH   1   9
BRANCH   4  18
HETATM   18  C   UNL     1     -39.883 -54.240  13.613  1.00  0.00    -0.030 C 
BRANCH  18  19
HETATM   19  N   UNL     1     -38.932 -55.061  13.726  1.00  0.00    -0.365 N 
ATOM     20  HN2 UNL     1     -39.706 -54.405  13.629  1.00  0.00     0.165 HD
ATOM     21  HN1 UNL     1     -38.162 -55.725  13.818  1.00  0.00     0.165 HD
ENDBRANCH  18  19
ENDBRANCH   4  18
BRANCH   6  22
HETATM   22  C   UNL     1     -44.669 -53.385  13.070  1.00  0.00     0.094 A 
HETATM   23  C   UNL     1     -45.546 -53.613  14.278  1.00  0.00     0.028 A 
HETATM   24  C   UNL     1     -44.969 -54.784  13.548  1.00  0.00     0.028 A 
ENDBRANCH   6  22
TORSDOF 8
ENDMDL
MODEL 6
REMARK VINA RESULT:      -5.4      2.785      5.133
REMARK  8 active torsions:
REMARK  status: ('A' for Active; 'I' for Inactive)
REMARK    1  A    between atoms: O_2  and  C_3 
REMARK    2  A    between atoms: C_3  and  C_4 
REMARK    3  A    between atoms: C_4  and  N_5 
REMARK       I    between atoms: N_5  and  C_6 
REMARK    4  A    between atoms: C_6  and  C_8 
REMARK    5  A    between atoms: C_8  and  N_9 
REMARK    6  A    between atoms: C_12  and  C_13 
REMARK    7  A    between atoms: C_13  and  N_14 
REMARK    8  A    between atoms: N_18  and  C_19 
ROOT
HETATM    1  N   UNL     1     -41.923 -53.634  13.187  1.00  0.00    -0.256 N 
HETATM    2  C   UNL     1     -41.321 -54.268  14.265  1.00  0.00     0.273 A 
HETATM    3  O   UNL     1     -40.106 -54.277  14.451  1.00  0.00    -0.266 OA
HETATM    4  C   UNL     1     -42.230 -54.951  15.208  1.00  0.00     0.110 A 
HETATM    5  C   UNL     1     -43.540 -54.969  14.948  1.00  0.00     0.123 A 
HETATM    6  N   UNL     1     -44.077 -54.348  13.842  1.00  0.00    -0.303 N 
HETATM    7  C   UNL     1     -43.297 -53.606  12.942  1.00  0.00     0.332 A 
HETATM    8  O   UNL     1     -43.793 -52.958  12.021  1.00  0.00    -0.246 OA
ENDROOT
BRANCH   1   9
HETATM    9  C   UNL     1     -41.057 -52.956  12.228  1.00  0.00     0.239 C 
BRANCH   9  10
HETATM   10  C   UNL     1     -41.030 -51.463  12.552  1.00  0.00     0.236 C 
HETATM   11  N   UNL     1     -41.862 -50.692  11.772  1.00  0.00    -0.358 N 
HETATM   12  H   UNL     1     -42.322 -51.109  10.965  1.00  0.00     0.162 HD
HETATM   13  O   UNL     1     -40.381 -50.997  13.485  1.00  0.00    -0.272 OA
BRANCH  11  14
HETATM   14  C   UNL     1     -41.932 -49.247  11.913  1.00  0.00     0.148 C 
BRANCH  14  15
HETATM   15  C   UNL     1     -41.240 -48.508  10.766  1.00  0.00     0.186 C 
BRANCH  15  16
HETATM   16  O   UNL     1     -42.004 -47.343  10.427  1.00  0.00    -0.394 OA
HETATM   17  C   UNL     1     -42.989 -47.636   9.444  1.00  0.00     0.201 C 
ENDBRANCH  15  16
ENDBRANCH  14  15
ENDBRANCH  11  14
ENDBRANCH   9  10
ENDBRANCH   1   9
BRANCH   4  18
HETATM   18  C   UNL     1     -41.672 -55.672  16.424  1.00  0.00    -0.030 C 
BRANCH  18  19
HETATM   19  N   UNL     1     -41.209 -56.270  17.434  1.00  0.00    -0.365 N 
ATOM     20  HN2 UNL     1     -41.579 -55.795  16.611  1.00  0.00     0.165 HD
ATOM     21  HN1 UNL     1     -40.834 -56.754  18.250  1.00  0.00     0.165 HD
ENDBRANCH  18  19
ENDBRANCH   4  18
BRANCH   6  22
HETATM   22  C   UNL     1     -45.516 -54.384  13.686  1.00  0.00     0.094 A 
HETATM   23  C   UNL     1     -46.410 -53.276  14.191  1.00  0.00     0.028 A 
HETATM   24  C   UNL     1     -46.436 -54.614  14.859  1.00  0.00     0.028 A 
ENDBRANCH   6  22
TORSDOF 8
ENDMDL
MODEL 7
REMARK VINA RESULT:      -5.4      3.659      7.355
REMARK  8 active torsions:
REMARK  status: ('A' for Active; 'I' for Inactive)
REMARK    1  A    between atoms: O_2  and  C_3 
REMARK    2  A    between atoms: C_3  and  C_4 
REMARK    3  A    between atoms: C_4  and  N_5 
REMARK       I    between atoms: N_5  and  C_6 
REMARK    4  A    between atoms: C_6  and  C_8 
REMARK    5  A    between atoms: C_8  and  N_9 
REMARK    6  A    between atoms: C_12  and  C_13 
REMARK    7  A    between atoms: C_13  and  N_14 
REMARK    8  A    between atoms: N_18  and  C_19 
ROOT
HETATM    1  N   UNL     1     -38.587 -50.824  13.488  1.00  0.00    -0.256 N 
HETATM    2  C   UNL     1     -37.750 -50.970  12.391  1.00  0.00     0.273 A 
HETATM    3  O   UNL     1     -36.938 -51.886  12.278  1.00  0.00    -0.266 OA
HETATM    4  C   UNL     1     -37.881 -49.948  11.332  1.00  0.00     0.110 A 
HETATM    5  C   UNL     1     -38.733 -48.935  11.511  1.00  0.00     0.123 A 
HETATM    6  N   UNL     1     -39.517 -48.826  12.639  1.00  0.00    -0.303 N 
HETATM    7  C   UNL     1     -39.517 -49.796  13.652  1.00  0.00     0.332 A 
HETATM    8  O   UNL     1     -40.299 -49.756  14.601  1.00  0.00    -0.246 OA
ENDROOT
BRANCH   1   9
HETATM    9  C   UNL     1     -38.481 -51.809  14.560  1.00  0.00     0.239 C 
BRANCH   9  10
HETATM   10  C   UNL     1     -39.283 -53.051  14.174  1.00  0.00     0.236 C 
HETATM   11  N   UNL     1     -40.647 -52.917  14.313  1.00  0.00    -0.358 N 
HETATM   12  H   UNL     1     -41.025 -52.095  14.776  1.00  0.00     0.162 HD
HETATM   13  O   UNL     1     -38.764 -54.059  13.702  1.00  0.00    -0.272 OA
BRANCH  11  14
HETATM   14  C   UNL     1     -41.561 -54.011  14.032  1.00  0.00     0.148 C 
BRANCH  14  15
HETATM   15  C   UNL     1     -43.028 -53.620  14.226  1.00  0.00     0.186 C 
BRANCH  15  16
HETATM   16  O   UNL     1     -43.804 -54.155  13.146  1.00  0.00    -0.394 OA
HETATM   17  C   UNL     1     -45.184 -54.227  13.484  1.00  0.00     0.201 C 
ENDBRANCH  15  16
ENDBRANCH  14  15
ENDBRANCH  11  14
ENDBRANCH   9  10
ENDBRANCH   1   9
BRANCH   4  18
HETATM   18  C   UNL     1     -37.013 -50.019  10.087  1.00  0.00    -0.030 C 
BRANCH  18  19
HETATM   19  N   UNL     1     -36.293 -50.079   9.052  1.00  0.00    -0.365 N 
ATOM     20  HN2 UNL     1     -36.876 -50.042   9.888  1.00  0.00     0.165 HD
ATOM     21  HN1 UNL     1     -35.711 -50.126   8.216  1.00  0.00     0.165 HD
ENDBRANCH  18  19
ENDBRANCH   4  18
BRANCH   6  22
HETATM   22  C   UNL     1     -40.446 -47.718  12.704  1.00  0.00     0.094 A 
HETATM   23  C   UNL     1     -41.791 -47.750  12.018  1.00  0.00     0.028 A 
HETATM   24  C   UNL     1     -40.719 -46.839  11.509  1.00  0.00     0.028 A 
ENDBRANCH   6  22
TORSDOF 8
ENDMDL
MODEL 8
REMARK VINA RESULT:      -5.3      3.604      7.477
REMARK  8 active torsions:
REMARK  status: ('A' for Active; 'I' for Inactive)
REMARK    1  A    between atoms: O_2  and  C_3 
REMARK    2  A    between atoms: C_3  and  C_4 
REMARK    3  A    between atoms: C_4  and  N_5 
REMARK       I    between atoms: N_5  and  C_6 
REMARK    4  A    between atoms: C_6  and  C_8 
REMARK    5  A    between atoms: C_8  and  N_9 
REMARK    6  A    between atoms: C_12  and  C_13 
REMARK    7  A    between atoms: C_13  and  N_14 
REMARK    8  A    between atoms: N_18  and  C_19 
ROOT
HETATM    1  N   UNL     1     -40.545 -49.484  13.420  1.00  0.00    -0.256 N 
HETATM    2  C   UNL     1     -39.880 -49.720  12.225  1.00  0.00     0.273 A 
HETATM    3  O   UNL     1     -40.458 -49.939  11.162  1.00  0.00    -0.266 OA
HETATM    4  C   UNL     1     -38.404 -49.695  12.286  1.00  0.00     0.110 A 
HETATM    5  C   UNL     1     -37.808 -49.509  13.466  1.00  0.00     0.123 A 
HETATM    6  N   UNL     1     -38.522 -49.312  14.627  1.00  0.00    -0.303 N 
HETATM    7  C   UNL     1     -39.922 -49.237  14.645  1.00  0.00     0.332 A 
HETATM    8  O   UNL     1     -40.553 -48.947  15.661  1.00  0.00    -0.246 OA
ENDROOT
BRANCH   1   9
HETATM    9  C   UNL     1     -42.003 -49.511  13.402  1.00  0.00     0.239 C 
BRANCH   9  10
HETATM   10  C   UNL     1     -42.476 -50.952  13.593  1.00  0.00     0.236 C 
HETATM   11  N   UNL     1     -42.790 -51.611  12.425  1.00  0.00    -0.358 N 
HETATM   12  H   UNL     1     -42.829 -51.092  11.552  1.00  0.00     0.162 HD
HETATM   13  O   UNL     1     -42.497 -51.506  14.690  1.00  0.00    -0.272 OA
BRANCH  11  14
HETATM   14  C   UNL     1     -43.296 -52.973  12.421  1.00  0.00     0.148 C 
BRANCH  14  15
HETATM   15  C   UNL     1     -44.814 -53.039  12.601  1.00  0.00     0.186 C 
BRANCH  15  16
HETATM   16  O   UNL     1     -45.222 -54.412  12.664  1.00  0.00    -0.394 OA
HETATM   17  C   UNL     1     -45.115 -54.926  13.986  1.00  0.00     0.201 C 
ENDBRANCH  15  16
ENDBRANCH  14  15
ENDBRANCH  11  14
ENDBRANCH   9  10
ENDBRANCH   1   9
BRANCH   4  18
HETATM   18  C   UNL     1     -37.581 -49.937  11.031  1.00  0.00    -0.030 C 
BRANCH  18  19
HETATM   19  N   UNL     1     -36.898 -50.137   9.989  1.00  0.00    -0.365 N 
ATOM     20  HN2 UNL     1     -37.451 -49.964  10.829  1.00  0.00     0.165 HD
ATOM     21  HN1 UNL     1     -36.345 -50.299   9.147  1.00  0.00     0.165 HD
ENDBRANCH  18  19
ENDBRANCH   4  18
BRANCH   6  22
HETATM   22  C   UNL     1     -37.773 -49.067  15.841  1.00  0.00     0.094 A 
HETATM   23  C   UNL     1     -36.910 -47.840  16.023  1.00  0.00     0.028 A 
HETATM   24  C   UNL     1     -36.270 -49.185  15.884  1.00  0.00     0.028 A 
ENDBRANCH   6  22
TORSDOF 8
ENDMDL
MODEL 9
REMARK VINA RESULT:      -5.1      7.102      8.737
REMARK  8 active torsions:
REMARK  status: ('A' for Active; 'I' for Inactive)
REMARK    1  A    between atoms: O_2  and  C_3 
REMARK    2  A    between atoms: C_3  and  C_4 
REMARK    3  A    between atoms: C_4  and  N_5 
REMARK       I    between atoms: N_5  and  C_6 
REMARK    4  A    between atoms: C_6  and  C_8 
REMARK    5  A    between atoms: C_8  and  N_9 
REMARK    6  A    between atoms: C_12  and  C_13 
REMARK    7  A    between atoms: C_13  and  N_14 
REMARK    8  A    between atoms: N_18  and  C_19 
ROOT
HETATM    1  N   UNL     1     -41.554 -46.358  10.594  1.00  0.00    -0.256 N 
HETATM    2  C   UNL     1     -42.676 -46.329   9.778  1.00  0.00     0.273 A 
HETATM    3  O   UNL     1     -42.780 -45.594   8.798  1.00  0.00    -0.266 OA
HETATM    4  C   UNL     1     -43.774 -47.247  10.147  1.00  0.00     0.110 A 
HETATM    5  C   UNL     1     -43.652 -47.992  11.248  1.00  0.00     0.123 A 
HETATM    6  N   UNL     1     -42.525 -47.955  12.039  1.00  0.00    -0.303 N 
HETATM    7  C   UNL     1     -41.404 -47.176  11.715  1.00  0.00     0.332 A 
HETATM    8  O   UNL     1     -40.356 -47.231  12.359  1.00  0.00    -0.246 OA
ENDROOT
BRANCH   1   9
HETATM    9  C   UNL     1     -40.454 -45.458  10.268  1.00  0.00     0.239 C 
BRANCH   9  10
HETATM   10  C   UNL     1     -40.611 -44.169  11.073  1.00  0.00     0.236 C 
HETATM   11  N   UNL     1     -39.783 -44.075  12.171  1.00  0.00    -0.358 N 
HETATM   12  H   UNL     1     -39.241 -44.885  12.460  1.00  0.00     0.162 HD
HETATM   13  O   UNL     1     -41.355 -43.254  10.728  1.00  0.00    -0.272 OA
BRANCH  11  14
HETATM   14  C   UNL     1     -39.828 -42.938  13.075  1.00  0.00     0.148 C 
BRANCH  14  15
HETATM   15  C   UNL     1     -40.741 -43.176  14.278  1.00  0.00     0.186 C 
BRANCH  15  16
HETATM   16  O   UNL     1     -40.121 -42.639  15.454  1.00  0.00    -0.394 OA
HETATM   17  C   UNL     1     -40.850 -41.531  15.966  1.00  0.00     0.201 C 
ENDBRANCH  15  16
ENDBRANCH  14  15
ENDBRANCH  11  14
ENDBRANCH   9  10
ENDBRANCH   1   9
BRANCH   4  18
HETATM   18  C   UNL     1     -45.045 -47.295   9.315  1.00  0.00    -0.030 C 
BRANCH  18  19
HETATM   19  N   UNL     1     -46.100 -47.335   8.624  1.00  0.00    -0.365 N 
ATOM     20  HN2 UNL     1     -45.253 -47.301   9.192  1.00  0.00     0.165 HD
ATOM     21  HN1 UNL     1     -46.953 -47.368   8.066  1.00  0.00     0.165 HD
ENDBRANCH  18  19
ENDBRANCH   4  18
BRANCH   6  22
HETATM   22  C   UNL     1     -42.477 -48.845  13.179  1.00  0.00     0.094 A 
HETATM   23  C   UNL     1     -42.101 -50.302  13.051  1.00  0.00     0.028 A 
HETATM   24  C   UNL     1     -43.509 -49.925  13.388  1.00  0.00     0.028 A 
ENDBRANCH   6  22
TORSDOF 8
ENDMDL
