MODEL 1
REMARK VINA RESULT:      -4.7      0.000      0.000
REMARK  3 active torsions:
REMARK  status: ('A' for Active; 'I' for Inactive)
REMARK    1  A    between atoms: N_6  and  C_7 
REMARK    2  A    between atoms: C_7  and  C_9 
REMARK    3  A    between atoms: C_7  and  C_12 
REMARK       I    between atoms: C_9  and  N_11 
ROOT
HETATM    1  C   UNL     3     -42.101 -47.836  10.589  1.00  0.00     0.259 C 
HETATM    2  C   UNL     3     -43.420 -47.992  11.393  1.00  0.00     0.065 C 
ENDROOT
BRANCH   1   3
HETATM    3  N   UNL     3     -42.360 -47.989   9.126  1.00  0.00     0.102 N 
HETATM    4  C   UNL     3     -43.663 -47.570   8.595  1.00  0.00     0.308 C 
HETATM    5  H   UNL     3     -41.619 -47.473   8.598  1.00  0.00     0.317 HD
ENDBRANCH   1   3
BRANCH   1   6
HETATM    6  C   UNL     3     -41.100 -48.887  11.114  1.00  0.00     0.259 C 
HETATM    7  O   UNL     3     -40.848 -48.946  12.311  1.00  0.00    -0.270 OA
HETATM    8  N   UNL     3     -40.506 -49.794  10.296  1.00  0.00    -0.368 N 
HETATM    9  H   UNL     3     -40.700 -49.834   9.288  1.00  0.00     0.159 HD
HETATM   10  H   UNL     3     -39.852 -50.491  10.682  1.00  0.00     0.159 HD
ENDBRANCH   1   6
BRANCH   1  11
HETATM   11  C   UNL     3     -41.510 -46.415  10.778  1.00  0.00    -0.008 A 
HETATM   12  C   UNL     3     -40.146 -46.101  10.563  1.00  0.00     0.027 A 
HETATM   13  C   UNL     3     -39.682 -44.798  10.754  1.00  0.00     0.088 A 
HETATM   14  N   UNL     3     -40.532 -43.817  11.147  1.00  0.00    -0.375 N 
HETATM   15  C   UNL     3     -41.847 -44.070  11.370  1.00  0.00     0.088 A 
ATOM     16  HN  UNL     3     -40.177 -42.870  11.277  1.00  0.00     0.164 HD
HETATM   17  C   UNL     3     -42.355 -45.361  11.196  1.00  0.00     0.027 A 
ENDBRANCH   1  11
TORSDOF 3
ENDMDL
MODEL 2
REMARK VINA RESULT:      -4.7      1.995      4.160
REMARK  3 active torsions:
REMARK  status: ('A' for Active; 'I' for Inactive)
REMARK    1  A    between atoms: N_6  and  C_7 
REMARK    2  A    between atoms: C_7  and  C_9 
REMARK    3  A    between atoms: C_7  and  C_12 
REMARK       I    between atoms: C_9  and  N_11 
ROOT
HETATM    1  C   UNL     3     -42.669 -46.736  10.849  1.00  0.00     0.259 C 
HETATM    2  C   UNL     3     -42.379 -45.228  10.619  1.00  0.00     0.065 C 
ENDROOT
BRANCH   1   3
HETATM    3  N   UNL     3     -43.425 -46.933  12.122  1.00  0.00     0.102 N 
HETATM    4  C   UNL     3     -42.991 -46.201  13.319  1.00  0.00     0.308 C 
HETATM    5  H   UNL     3     -44.432 -46.702  11.955  1.00  0.00     0.317 HD
ENDBRANCH   1   3
BRANCH   1   6
HETATM    6  C   UNL     3     -41.318 -47.482  10.856  1.00  0.00     0.259 C 
HETATM    7  O   UNL     3     -41.286 -48.684  11.089  1.00  0.00    -0.270 OA
HETATM    8  N   UNL     3     -40.146 -46.860  10.569  1.00  0.00    -0.368 N 
HETATM    9  H   UNL     3     -40.098 -45.863  10.323  1.00  0.00     0.159 HD
HETATM   10  H   UNL     3     -39.262 -47.392  10.570  1.00  0.00     0.159 HD
ENDBRANCH   1   6
BRANCH   1  11
HETATM   11  C   UNL     3     -43.570 -47.299   9.719  1.00  0.00    -0.008 A 
HETATM   12  C   UNL     3     -43.081 -47.674   8.445  1.00  0.00     0.027 A 
HETATM   13  C   UNL     3     -43.950 -48.174   7.473  1.00  0.00     0.088 A 
HETATM   14  N   UNL     3     -45.274 -48.305   7.739  1.00  0.00    -0.375 N 
HETATM   15  C   UNL     3     -45.790 -47.953   8.943  1.00  0.00     0.088 A 
ATOM     16  HN  UNL     3     -45.893 -48.676   7.018  1.00  0.00     0.164 HD
HETATM   17  C   UNL     3     -44.958 -47.444   9.945  1.00  0.00     0.027 A 
ENDBRANCH   1  11
TORSDOF 3
ENDMDL
MODEL 3
REMARK VINA RESULT:      -4.6      2.035      3.272
REMARK  3 active torsions:
REMARK  status: ('A' for Active; 'I' for Inactive)
REMARK    1  A    between atoms: N_6  and  C_7 
REMARK    2  A    between atoms: C_7  and  C_9 
REMARK    3  A    between atoms: C_7  and  C_12 
REMARK       I    between atoms: C_9  and  N_11 
ROOT
HETATM    1  C   UNL     3     -40.013 -49.599  11.906  1.00  0.00     0.259 C 
HETATM    2  C   UNL     3     -40.354 -49.643  13.420  1.00  0.00     0.065 C 
ENDROOT
BRANCH   1   3
HETATM    3  N   UNL     3     -40.656 -50.742  11.192  1.00  0.00     0.102 N 
HETATM    4  C   UNL     3     -41.111 -51.896  11.978  1.00  0.00     0.308 C 
HETATM    5  H   UNL     3     -41.476 -50.382  10.650  1.00  0.00     0.317 HD
ENDBRANCH   1   3
BRANCH   1   6
HETATM    6  C   UNL     3     -38.476 -49.621  11.767  1.00  0.00     0.259 C 
HETATM    7  O   UNL     3     -37.772 -49.361  12.736  1.00  0.00    -0.270 OA
HETATM    8  N   UNL     3     -37.857 -49.960  10.607  1.00  0.00    -0.368 N 
HETATM    9  H   UNL     3     -38.380 -50.231   9.765  1.00  0.00     0.159 HD
HETATM   10  H   UNL     3     -36.828 -49.976  10.553  1.00  0.00     0.159 HD
ENDBRANCH   1   6
BRANCH   1  11
HETATM   11  C   UNL     3     -40.576 -48.309  11.255  1.00  0.00    -0.008 A 
HETATM   12  C   UNL     3     -39.937 -47.049  11.339  1.00  0.00     0.027 A 
HETATM   13  C   UNL     3     -40.502 -45.928  10.728  1.00  0.00     0.088 A 
HETATM   14  N   UNL     3     -41.671 -46.033  10.048  1.00  0.00    -0.375 N 
HETATM   15  C   UNL     3     -42.323 -47.218   9.944  1.00  0.00     0.088 A 
ATOM     16  HN  UNL     3     -42.067 -45.204   9.605  1.00  0.00     0.164 HD
HETATM   17  C   UNL     3     -41.796 -48.366  10.544  1.00  0.00     0.027 A 
ENDBRANCH   1  11
TORSDOF 3
ENDMDL
MODEL 4
REMARK VINA RESULT:      -4.5      5.971      8.072
REMARK  3 active torsions:
REMARK  status: ('A' for Active; 'I' for Inactive)
REMARK    1  A    between atoms: N_6  and  C_7 
REMARK    2  A    between atoms: C_7  and  C_9 
REMARK    3  A    between atoms: C_7  and  C_12 
REMARK       I    between atoms: C_9  and  N_11 
ROOT
HETATM    1  C   UNL     3     -41.872 -52.986  13.483  1.00  0.00     0.259 C 
HETATM    2  C   UNL     3     -41.526 -52.140  14.737  1.00  0.00     0.065 C 
ENDROOT
BRANCH   1   3
HETATM    3  N   UNL     3     -41.124 -54.278  13.502  1.00  0.00     0.102 N 
HETATM    4  C   UNL     3     -39.734 -54.280  13.974  1.00  0.00     0.308 C 
HETATM    5  H   UNL     3     -41.659 -54.968  14.080  1.00  0.00     0.317 HD
ENDBRANCH   1   3
BRANCH   1   6
HETATM    6  C   UNL     3     -41.538 -52.141  12.235  1.00  0.00     0.259 C 
HETATM    7  O   UNL     3     -41.472 -50.921  12.324  1.00  0.00    -0.270 OA
HETATM    8  N   UNL     3     -41.270 -52.704  11.029  1.00  0.00    -0.368 N 
HETATM    9  H   UNL     3     -41.265 -53.722  10.887  1.00  0.00     0.159 HD
HETATM   10  H   UNL     3     -41.038 -52.110  10.219  1.00  0.00     0.159 HD
ENDBRANCH   1   6
BRANCH   1  11
HETATM   11  C   UNL     3     -43.378 -53.357  13.472  1.00  0.00    -0.008 A 
HETATM   12  C   UNL     3     -44.384 -52.523  12.928  1.00  0.00     0.027 A 
HETATM   13  C   UNL     3     -45.723 -52.921  12.953  1.00  0.00     0.088 A 
HETATM   14  N   UNL     3     -46.074 -54.111  13.499  1.00  0.00    -0.375 N 
HETATM   15  C   UNL     3     -45.147 -54.942  14.038  1.00  0.00     0.088 A 
ATOM     16  HN  UNL     3     -47.056 -54.388  13.506  1.00  0.00     0.164 HD
HETATM   17  C   UNL     3     -43.795 -54.583  14.039  1.00  0.00     0.027 A 
ENDBRANCH   1  11
TORSDOF 3
ENDMDL
MODEL 5
REMARK VINA RESULT:      -4.5      6.344      7.906
REMARK  3 active torsions:
REMARK  status: ('A' for Active; 'I' for Inactive)
REMARK    1  A    between atoms: N_6  and  C_7 
REMARK    2  A    between atoms: C_7  and  C_9 
REMARK    3  A    between atoms: C_7  and  C_12 
REMARK       I    between atoms: C_9  and  N_11 
ROOT
HETATM    1  C   UNL     3     -44.310 -53.105  14.247  1.00  0.00     0.259 C 
HETATM    2  C   UNL     3     -44.130 -53.853  15.595  1.00  0.00     0.065 C 
ENDROOT
BRANCH   1   3
HETATM    3  N   UNL     3     -44.622 -51.665  14.487  1.00  0.00     0.102 N 
HETATM    4  C   UNL     3     -45.840 -51.323  15.233  1.00  0.00     0.308 C 
HETATM    5  H   UNL     3     -43.812 -51.222  14.980  1.00  0.00     0.317 HD
ENDBRANCH   1   3
BRANCH   1   6
HETATM    6  C   UNL     3     -45.429 -53.817  13.458  1.00  0.00     0.259 C 
HETATM    7  O   UNL     3     -45.761 -53.398  12.356  1.00  0.00    -0.270 OA
HETATM    8  N   UNL     3     -46.046 -54.934  13.923  1.00  0.00    -0.368 N 
HETATM    9  H   UNL     3     -45.793 -55.368  14.819  1.00  0.00     0.159 HD
HETATM   10  H   UNL     3     -46.782 -55.391  13.364  1.00  0.00     0.159 HD
ENDBRANCH   1   6
BRANCH   1  11
HETATM   11  C   UNL     3     -42.995 -53.133  13.426  1.00  0.00    -0.008 A 
HETATM   12  C   UNL     3     -42.610 -52.103  12.534  1.00  0.00     0.027 A 
HETATM   13  C   UNL     3     -41.410 -52.194  11.825  1.00  0.00     0.088 A 
HETATM   14  N   UNL     3     -40.600 -53.271  11.982  1.00  0.00    -0.375 N 
HETATM   15  C   UNL     3     -40.930 -54.285  12.821  1.00  0.00     0.088 A 
ATOM     16  HN  UNL     3     -39.726 -53.319  11.459  1.00  0.00     0.164 HD
HETATM   17  C   UNL     3     -42.123 -54.238  13.548  1.00  0.00     0.027 A 
ENDBRANCH   1  11
TORSDOF 3
ENDMDL
MODEL 6
REMARK VINA RESULT:      -4.4      6.798      7.875
REMARK  3 active torsions:
REMARK  status: ('A' for Active; 'I' for Inactive)
REMARK    1  A    between atoms: N_6  and  C_7 
REMARK    2  A    between atoms: C_7  and  C_9 
REMARK    3  A    between atoms: C_7  and  C_12 
REMARK       I    between atoms: C_9  and  N_11 
ROOT
HETATM    1  C   UNL     3     -44.836 -52.924  13.513  1.00  0.00     0.259 C 
HETATM    2  C   UNL     3     -45.105 -51.788  14.536  1.00  0.00     0.065 C 
ENDROOT
BRANCH   1   3
HETATM    3  N   UNL     3     -45.343 -52.541  12.161  1.00  0.00     0.102 N 
HETATM    4  C   UNL     3     -46.671 -51.922  12.058  1.00  0.00     0.308 C 
HETATM    5  H   UNL     3     -44.653 -51.893  11.715  1.00  0.00     0.317 HD
ENDBRANCH   1   3
BRANCH   1   6
HETATM    6  C   UNL     3     -45.510 -54.207  14.043  1.00  0.00     0.259 C 
HETATM    7  O   UNL     3     -45.539 -55.214  13.346  1.00  0.00    -0.270 OA
HETATM    8  N   UNL     3     -46.049 -54.282  15.287  1.00  0.00    -0.368 N 
HETATM    9  H   UNL     3     -46.025 -53.492  15.944  1.00  0.00     0.159 HD
HETATM   10  H   UNL     3     -46.481 -55.159  15.614  1.00  0.00     0.159 HD
ENDBRANCH   1   6
BRANCH   1  11
HETATM   11  C   UNL     3     -43.312 -53.166  13.351  1.00  0.00    -0.008 A 
HETATM   12  C   UNL     3     -42.566 -54.031  14.186  1.00  0.00     0.027 A 
HETATM   13  C   UNL     3     -41.195 -54.201  13.984  1.00  0.00     0.088 A 
HETATM   14  N   UNL     3     -40.562 -53.538  12.984  1.00  0.00    -0.375 N 
HETATM   15  C   UNL     3     -41.233 -52.693  12.161  1.00  0.00     0.088 A 
ATOM     16  HN  UNL     3     -39.561 -53.677  12.848  1.00  0.00     0.164 HD
HETATM   17  C   UNL     3     -42.606 -52.490  12.330  1.00  0.00     0.027 A 
ENDBRANCH   1  11
TORSDOF 3
ENDMDL
MODEL 7
REMARK VINA RESULT:      -4.3      2.611      3.714
REMARK  3 active torsions:
REMARK  status: ('A' for Active; 'I' for Inactive)
REMARK    1  A    between atoms: N_6  and  C_7 
REMARK    2  A    between atoms: C_7  and  C_9 
REMARK    3  A    between atoms: C_7  and  C_12 
REMARK       I    between atoms: C_9  and  N_11 
ROOT
HETATM    1  C   UNL     3     -41.623 -50.615  12.748  1.00  0.00     0.259 C 
HETATM    2  C   UNL     3     -41.307 -50.506  14.263  1.00  0.00     0.065 C 
ENDROOT
BRANCH   1   3
HETATM    3  N   UNL     3     -43.091 -50.781  12.531  1.00  0.00     0.102 N 
HETATM    4  C   UNL     3     -43.984 -50.737  13.697  1.00  0.00     0.308 C 
HETATM    5  H   UNL     3     -43.416 -50.054  11.853  1.00  0.00     0.317 HD
ENDBRANCH   1   3
BRANCH   1   6
HETATM    6  C   UNL     3     -40.816 -51.803  12.181  1.00  0.00     0.259 C 
HETATM    7  O   UNL     3     -39.745 -52.111  12.690  1.00  0.00    -0.270 OA
HETATM    8  N   UNL     3     -41.268 -52.560  11.149  1.00  0.00    -0.368 N 
HETATM    9  H   UNL     3     -42.176 -52.389  10.699  1.00  0.00     0.159 HD
HETATM   10  H   UNL     3     -40.708 -53.354  10.804  1.00  0.00     0.159 HD
ENDBRANCH   1   6
BRANCH   1  11
HETATM   11  C   UNL     3     -41.221 -49.312  12.009  1.00  0.00    -0.008 A 
HETATM   12  C   UNL     3     -39.982 -48.656  12.203  1.00  0.00     0.027 A 
HETATM   13  C   UNL     3     -39.686 -47.484  11.503  1.00  0.00     0.088 A 
HETATM   14  N   UNL     3     -40.583 -46.961  10.630  1.00  0.00    -0.375 N 
HETATM   15  C   UNL     3     -41.786 -47.552  10.415  1.00  0.00     0.088 A 
ATOM     16  HN  UNL     3     -40.348 -46.107  10.125  1.00  0.00     0.164 HD
HETATM   17  C   UNL     3     -42.126 -48.724  11.096  1.00  0.00     0.027 A 
ENDBRANCH   1  11
TORSDOF 3
ENDMDL
MODEL 8
REMARK VINA RESULT:      -4.3      5.208      7.440
REMARK  3 active torsions:
REMARK  status: ('A' for Active; 'I' for Inactive)
REMARK    1  A    between atoms: N_6  and  C_7 
REMARK    2  A    between atoms: C_7  and  C_9 
REMARK    3  A    between atoms: C_7  and  C_12 
REMARK       I    between atoms: C_9  and  N_11 
ROOT
HETATM    1  C   UNL     3     -42.061 -51.908  13.287  1.00  0.00     0.259 C 
HETATM    2  C   UNL     3     -42.164 -50.467  12.721  1.00  0.00     0.065 C 
ENDROOT
BRANCH   1   3
HETATM    3  N   UNL     3     -41.577 -51.881  14.700  1.00  0.00     0.102 N 
HETATM    4  C   UNL     3     -40.962 -50.649  15.209  1.00  0.00     0.308 C 
HETATM    5  H   UNL     3     -42.374 -52.125  15.333  1.00  0.00     0.317 HD
ENDBRANCH   1   3
BRANCH   1   6
HETATM    6  C   UNL     3     -41.117 -52.711  12.367  1.00  0.00     0.259 C 
HETATM    7  O   UNL     3     -40.238 -53.411  12.855  1.00  0.00    -0.270 OA
HETATM    8  N   UNL     3     -41.245 -52.705  11.015  1.00  0.00    -0.368 N 
HETATM    9  H   UNL     3     -41.984 -52.176  10.535  1.00  0.00     0.159 HD
HETATM   10  H   UNL     3     -40.605 -53.263  10.430  1.00  0.00     0.159 HD
ENDBRANCH   1   6
BRANCH   1  11
HETATM   11  C   UNL     3     -43.456 -52.585  13.319  1.00  0.00    -0.008 A 
HETATM   12  C   UNL     3     -43.642 -53.987  13.378  1.00  0.00     0.027 A 
HETATM   13  C   UNL     3     -44.929 -54.529  13.404  1.00  0.00     0.088 A 
HETATM   14  N   UNL     3     -46.015 -53.717  13.372  1.00  0.00    -0.375 N 
HETATM   15  C   UNL     3     -45.887 -52.368  13.310  1.00  0.00     0.088 A 
ATOM     16  HN  UNL     3     -46.948 -54.130  13.396  1.00  0.00     0.164 HD
HETATM   17  C   UNL     3     -44.618 -51.782  13.278  1.00  0.00     0.027 A 
ENDBRANCH   1  11
TORSDOF 3
ENDMDL
MODEL 9
REMARK VINA RESULT:      -4.2      6.284      7.978
REMARK  3 active torsions:
REMARK  status: ('A' for Active; 'I' for Inactive)
REMARK    1  A    between atoms: N_6  and  C_7 
REMARK    2  A    between atoms: C_7  and  C_9 
REMARK    3  A    between atoms: C_7  and  C_12 
REMARK       I    between atoms: C_9  and  N_11 
ROOT
HETATM    1  C   UNL     3     -45.394 -51.990  13.437  1.00  0.00     0.259 C 
HETATM    2  C   UNL     3     -46.533 -51.812  12.397  1.00  0.00     0.065 C 
ENDROOT
BRANCH   1   3
HETATM    3  N   UNL     3     -44.208 -51.166  13.059  1.00  0.00     0.102 N 
HETATM    4  C   UNL     3     -42.942 -51.848  12.761  1.00  0.00     0.308 C 
HETATM    5  H   UNL     3     -44.457 -50.579  12.229  1.00  0.00     0.317 HD
ENDBRANCH   1   3
BRANCH   1   6
HETATM    6  C   UNL     3     -45.054 -53.494  13.512  1.00  0.00     0.259 C 
HETATM    7  O   UNL     3     -45.178 -54.199  12.518  1.00  0.00    -0.270 OA
HETATM    8  N   UNL     3     -44.577 -54.074  14.644  1.00  0.00    -0.368 N 
HETATM    9  H   UNL     3     -44.407 -53.539  15.505  1.00  0.00     0.159 HD
HETATM   10  H   UNL     3     -44.349 -55.079  14.655  1.00  0.00     0.159 HD
ENDBRANCH   1   6
BRANCH   1  11
HETATM   11  C   UNL     3     -45.844 -51.488  14.833  1.00  0.00    -0.008 A 
HETATM   12  C   UNL     3     -47.135 -51.715  15.366  1.00  0.00     0.027 A 
HETATM   13  C   UNL     3     -47.473 -51.232  16.632  1.00  0.00     0.088 A 
HETATM   14  N   UNL     3     -46.566 -50.539  17.366  1.00  0.00    -0.375 N 
HETATM   15  C   UNL     3     -45.318 -50.292  16.896  1.00  0.00     0.088 A 
ATOM     16  HN  UNL     3     -46.829 -50.197  18.291  1.00  0.00     0.164 HD
HETATM   17  C   UNL     3     -44.938 -50.753  15.632  1.00  0.00     0.027 A 
ENDBRANCH   1  11
TORSDOF 3
ENDMDL
