MODEL 1
REMARK VINA RESULT:      -6.5      0.000      0.000
REMARK  5 active torsions:
REMARK  status: ('A' for Active; 'I' for Inactive)
REMARK       I    between atoms: C_2  and  N_3 
REMARK       I    between atoms: C_2  and  N_12 
REMARK    1  A    between atoms: N_3  and  C_4 
REMARK    2  A    between atoms: C_4  and  C_5 
REMARK    3  A    between atoms: C_5  and  N_6 
REMARK    4  A    between atoms: N_12  and  C_13 
REMARK    5  A    between atoms: C_19  and  N_20 
ROOT
HETATM    1  O   UNL     1     -41.213 -50.716  13.584  1.00  0.00    -0.247 OA
HETATM    2  C   UNL     1     -41.522 -51.204  12.506  1.00  0.00     0.320 C 
HETATM    3  N   UNL     1     -41.393 -50.528  11.307  1.00  0.00    -0.341 N 
HETATM    4  N   UNL     1     -42.024 -52.471  12.313  1.00  0.00    -0.306 N 
HETATM    5  H   UNL     1     -41.968 -50.841  10.542  1.00  0.00     0.164 HD
HETATM    6  H   UNL     1     -42.633 -52.545  11.525  1.00  0.00     0.171 HD
ENDROOT
BRANCH   4   7
HETATM    7  C   UNL     1     -42.352 -53.292  13.417  1.00  0.00     0.080 A 
HETATM    8  C   UNL     1     -41.335 -54.103  13.943  1.00  0.00     0.035 A 
HETATM    9  C   UNL     1     -41.606 -54.964  14.993  1.00  0.00     0.019 A 
HETATM   10  C   UNL     1     -42.888 -54.958  15.495  1.00  0.00     0.090 A 
HETATM   11  N   UNL     1     -43.877 -54.163  15.035  1.00  0.00    -0.351 N 
HETATM   12  C   UNL     1     -43.642 -53.319  13.993  1.00  0.00     0.130 A 
ATOM     13  HN  UNL     1     -44.800 -54.194  15.468  1.00  0.00     0.166 HD
BRANCH  12  14
HETATM   14  N   UNL     1     -44.676 -52.480  13.639  1.00  0.00    -0.365 N 
HETATM   15  C   UNL     1     -45.596 -52.626  12.529  1.00  0.00     0.124 C 
HETATM   16  C   UNL     1     -46.776 -51.709  12.844  1.00  0.00     0.021 C 
HETATM   17  C   UNL     1     -46.625 -51.355  14.311  1.00  0.00     0.021 C 
HETATM   18  C   UNL     1     -45.128 -51.452  14.570  1.00  0.00     0.124 C 
ENDBRANCH  12  14
ENDBRANCH   4   7
BRANCH   3  19
HETATM   19  C   UNL     1     -41.023 -49.122  11.298  1.00  0.00     0.154 C 
BRANCH  19  20
HETATM   20  C   UNL     1     -41.810 -48.281  10.270  1.00  0.00     0.292 C 
BRANCH  20  21
HETATM   21  N   UNL     1     -43.043 -47.663  10.799  1.00  0.00     0.094 N 
HETATM   22  C   UNL     1     -43.985 -47.369   9.688  1.00  0.00     0.298 C 
HETATM   23  C   UNL     1     -43.600 -46.156   8.815  1.00  0.00     0.198 C 
HETATM   24  O   UNL     1     -43.346 -44.982   9.601  1.00  0.00    -0.388 OA
HETATM   25  C   UNL     1     -42.344 -45.245  10.591  1.00  0.00     0.198 C 
HETATM   26  C   UNL     1     -42.797 -46.387  11.511  1.00  0.00     0.298 C 
ENDBRANCH  20  21
ENDBRANCH  19  20
ENDBRANCH   3  19
TORSDOF 5
ENDMDL
MODEL 2
REMARK VINA RESULT:      -6.5      1.946      7.169
REMARK  5 active torsions:
REMARK  status: ('A' for Active; 'I' for Inactive)
REMARK       I    between atoms: C_2  and  N_3 
REMARK       I    between atoms: C_2  and  N_12 
REMARK    1  A    between atoms: N_3  and  C_4 
REMARK    2  A    between atoms: C_4  and  C_5 
REMARK    3  A    between atoms: C_5  and  N_6 
REMARK    4  A    between atoms: N_12  and  C_13 
REMARK    5  A    between atoms: C_19  and  N_20 
ROOT
HETATM    1  O   UNL     1     -41.650 -49.144  12.694  1.00  0.00    -0.247 OA
HETATM    2  C   UNL     1     -41.204 -49.424  11.589  1.00  0.00     0.320 C 
HETATM    3  N   UNL     1     -40.956 -50.721  11.183  1.00  0.00    -0.341 N 
HETATM    4  N   UNL     1     -40.897 -48.521  10.596  1.00  0.00    -0.306 N 
HETATM    5  H   UNL     1     -40.293 -50.847  10.436  1.00  0.00     0.164 HD
HETATM    6  H   UNL     1     -40.156 -48.821   9.998  1.00  0.00     0.171 HD
ENDROOT
BRANCH   4   7
HETATM    7  C   UNL     1     -40.958 -47.130  10.842  1.00  0.00     0.080 A 
HETATM    8  C   UNL     1     -39.812 -46.517  11.369  1.00  0.00     0.035 A 
HETATM    9  C   UNL     1     -39.825 -45.166  11.675  1.00  0.00     0.019 A 
HETATM   10  C   UNL     1     -40.986 -44.474  11.414  1.00  0.00     0.090 A 
HETATM   11  N   UNL     1     -42.092 -45.029  10.873  1.00  0.00    -0.351 N 
HETATM   12  C   UNL     1     -42.111 -46.358  10.578  1.00  0.00     0.130 A 
ATOM     13  HN  UNL     1     -42.912 -44.452  10.685  1.00  0.00     0.166 HD
BRANCH  12  14
HETATM   14  N   UNL     1     -43.244 -46.829   9.949  1.00  0.00    -0.365 N 
HETATM   15  C   UNL     1     -44.251 -47.719  10.489  1.00  0.00     0.124 C 
HETATM   16  C   UNL     1     -45.470 -47.566   9.581  1.00  0.00     0.021 C 
HETATM   17  C   UNL     1     -45.207 -46.311   8.770  1.00  0.00     0.021 C 
HETATM   18  C   UNL     1     -43.690 -46.216   8.702  1.00  0.00     0.124 C 
ENDBRANCH  12  14
ENDBRANCH   4   7
BRANCH   3  19
HETATM   19  C   UNL     1     -41.070 -51.818  12.130  1.00  0.00     0.154 C 
BRANCH  19  20
HETATM   20  C   UNL     1     -42.460 -52.488  12.136  1.00  0.00     0.292 C 
BRANCH  20  21
HETATM   21  N   UNL     1     -43.199 -52.360  13.409  1.00  0.00     0.094 N 
HETATM   22  C   UNL     1     -43.452 -53.702  13.993  1.00  0.00     0.298 C 
HETATM   23  C   UNL     1     -44.557 -54.519  13.287  1.00  0.00     0.198 C 
HETATM   24  O   UNL     1     -45.777 -53.776  13.155  1.00  0.00    -0.388 OA
HETATM   25  C   UNL     1     -45.541 -52.534  12.478  1.00  0.00     0.198 C 
HETATM   26  C   UNL     1     -44.515 -51.696  13.255  1.00  0.00     0.298 C 
ENDBRANCH  20  21
ENDBRANCH  19  20
ENDBRANCH   3  19
TORSDOF 5
ENDMDL
MODEL 3
REMARK VINA RESULT:      -6.5      2.559      7.642
REMARK  5 active torsions:
REMARK  status: ('A' for Active; 'I' for Inactive)
REMARK       I    between atoms: C_2  and  N_3 
REMARK       I    between atoms: C_2  and  N_12 
REMARK    1  A    between atoms: N_3  and  C_4 
REMARK    2  A    between atoms: C_4  and  C_5 
REMARK    3  A    between atoms: C_5  and  N_6 
REMARK    4  A    between atoms: N_12  and  C_13 
REMARK    5  A    between atoms: C_19  and  N_20 
ROOT
HETATM    1  O   UNL     1     -41.941 -50.692  13.137  1.00  0.00    -0.247 OA
HETATM    2  C   UNL     1     -41.472 -51.236  12.147  1.00  0.00     0.320 C 
HETATM    3  N   UNL     1     -41.410 -52.609  11.998  1.00  0.00    -0.341 N 
HETATM    4  N   UNL     1     -40.955 -50.590  11.046  1.00  0.00    -0.306 N 
HETATM    5  H   UNL     1     -40.726 -52.968  11.352  1.00  0.00     0.164 HD
HETATM    6  H   UNL     1     -40.232 -51.102  10.585  1.00  0.00     0.171 HD
ENDROOT
BRANCH   4   7
HETATM    7  C   UNL     1     -40.807 -49.184  11.039  1.00  0.00     0.080 A 
HETATM    8  C   UNL     1     -41.856 -48.427  10.496  1.00  0.00     0.035 A 
HETATM    9  C   UNL     1     -41.750 -47.049  10.418  1.00  0.00     0.019 A 
HETATM   10  C   UNL     1     -40.600 -46.478  10.914  1.00  0.00     0.090 A 
HETATM   11  N   UNL     1     -39.590 -47.176  11.475  1.00  0.00    -0.351 N 
HETATM   12  C   UNL     1     -39.662 -48.534  11.550  1.00  0.00     0.130 A 
ATOM     13  HN  UNL     1     -38.775 -46.687  11.843  1.00  0.00     0.166 HD
BRANCH  12  14
HETATM   14  N   UNL     1     -38.632 -49.165  12.214  1.00  0.00    -0.365 N 
HETATM   15  C   UNL     1     -38.548 -49.482  13.625  1.00  0.00     0.124 C 
HETATM   16  C   UNL     1     -37.453 -50.538  13.750  1.00  0.00     0.021 C 
HETATM   17  C   UNL     1     -37.213 -51.032  12.336  1.00  0.00     0.021 C 
HETATM   18  C   UNL     1     -37.592 -49.852  11.454  1.00  0.00     0.124 C 
ENDBRANCH  12  14
ENDBRANCH   4   7
BRANCH   3  19
HETATM   19  C   UNL     1     -41.765 -53.480  13.106  1.00  0.00     0.154 C 
BRANCH  19  20
HETATM   20  C   UNL     1     -43.211 -54.014  13.035  1.00  0.00     0.292 C 
BRANCH  20  21
HETATM   21  N   UNL     1     -44.231 -53.102  13.594  1.00  0.00     0.094 N 
HETATM   22  C   UNL     1     -44.009 -52.917  15.052  1.00  0.00     0.298 C 
HETATM   23  C   UNL     1     -44.421 -54.120  15.928  1.00  0.00     0.198 C 
HETATM   24  O   UNL     1     -45.764 -54.549  15.660  1.00  0.00    -0.388 OA
HETATM   25  C   UNL     1     -45.932 -54.843  14.267  1.00  0.00     0.198 C 
HETATM   26  C   UNL     1     -45.616 -53.600  13.423  1.00  0.00     0.298 C 
ENDBRANCH  20  21
ENDBRANCH  19  20
ENDBRANCH   3  19
TORSDOF 5
ENDMDL
MODEL 4
REMARK VINA RESULT:      -6.3      1.576      3.398
REMARK  5 active torsions:
REMARK  status: ('A' for Active; 'I' for Inactive)
REMARK       I    between atoms: C_2  and  N_3 
REMARK       I    between atoms: C_2  and  N_12 
REMARK    1  A    between atoms: N_3  and  C_4 
REMARK    2  A    between atoms: C_4  and  C_5 
REMARK    3  A    between atoms: C_5  and  N_6 
REMARK    4  A    between atoms: N_12  and  C_13 
REMARK    5  A    between atoms: C_19  and  N_20 
ROOT
HETATM    1  O   UNL     1     -42.127 -50.543  13.242  1.00  0.00    -0.247 OA
HETATM    2  C   UNL     1     -41.783 -51.095  12.206  1.00  0.00     0.320 C 
HETATM    3  N   UNL     1     -41.119 -50.439  11.186  1.00  0.00    -0.341 N 
HETATM    4  N   UNL     1     -41.983 -52.422  11.898  1.00  0.00    -0.306 N 
HETATM    5  H   UNL     1     -41.180 -50.844  10.266  1.00  0.00     0.164 HD
HETATM    6  H   UNL     1     -42.085 -52.595  10.920  1.00  0.00     0.171 HD
ENDROOT
BRANCH   4   7
HETATM    7  C   UNL     1     -42.752 -53.250  12.748  1.00  0.00     0.080 A 
HETATM    8  C   UNL     1     -44.070 -53.532  12.356  1.00  0.00     0.035 A 
HETATM    9  C   UNL     1     -44.888 -54.298  13.168  1.00  0.00     0.019 A 
HETATM   10  C   UNL     1     -44.341 -54.777  14.338  1.00  0.00     0.090 A 
HETATM   11  N   UNL     1     -43.067 -54.555  14.723  1.00  0.00    -0.351 N 
HETATM   12  C   UNL     1     -42.246 -53.791  13.951  1.00  0.00     0.130 A 
ATOM     13  HN  UNL     1     -42.719 -54.959  15.593  1.00  0.00     0.166 HD
BRANCH  12  14
HETATM   14  N   UNL     1     -40.937 -53.682  14.370  1.00  0.00    -0.365 N 
HETATM   15  C   UNL     1     -40.432 -52.961  15.520  1.00  0.00     0.124 C 
HETATM   16  C   UNL     1     -39.032 -53.516  15.776  1.00  0.00     0.021 C 
HETATM   17  C   UNL     1     -38.955 -54.793  14.962  1.00  0.00     0.021 C 
HETATM   18  C   UNL     1     -39.919 -54.563  13.807  1.00  0.00     0.124 C 
ENDBRANCH  12  14
ENDBRANCH   4   7
BRANCH   3  19
HETATM   19  C   UNL     1     -40.939 -48.997  11.241  1.00  0.00     0.154 C 
BRANCH  19  20
HETATM   20  C   UNL     1     -41.821 -48.225  10.237  1.00  0.00     0.292 C 
BRANCH  20  21
HETATM   21  N   UNL     1     -43.024 -47.602  10.828  1.00  0.00     0.094 N 
HETATM   22  C   UNL     1     -44.013 -47.287   9.765  1.00  0.00     0.298 C 
HETATM   23  C   UNL     1     -43.657 -46.067   8.888  1.00  0.00     0.198 C 
HETATM   24  O   UNL     1     -43.357 -44.906   9.675  1.00  0.00    -0.388 OA
HETATM   25  C   UNL     1     -42.313 -45.188  10.615  1.00  0.00     0.198 C 
HETATM   26  C   UNL     1     -42.734 -46.337  11.543  1.00  0.00     0.298 C 
ENDBRANCH  20  21
ENDBRANCH  19  20
ENDBRANCH   3  19
TORSDOF 5
ENDMDL
MODEL 5
REMARK VINA RESULT:      -6.3      1.163      3.240
REMARK  5 active torsions:
REMARK  status: ('A' for Active; 'I' for Inactive)
REMARK       I    between atoms: C_2  and  N_3 
REMARK       I    between atoms: C_2  and  N_12 
REMARK    1  A    between atoms: N_3  and  C_4 
REMARK    2  A    between atoms: C_4  and  C_5 
REMARK    3  A    between atoms: C_5  and  N_6 
REMARK    4  A    between atoms: N_12  and  C_13 
REMARK    5  A    between atoms: C_19  and  N_20 
ROOT
HETATM    1  O   UNL     1     -42.675 -49.926  13.830  1.00  0.00    -0.247 OA
HETATM    2  C   UNL     1     -42.784 -50.668  12.863  1.00  0.00     0.320 C 
HETATM    3  N   UNL     1     -42.010 -50.541  11.724  1.00  0.00    -0.341 N 
HETATM    4  N   UNL     1     -43.660 -51.725  12.757  1.00  0.00    -0.306 N 
HETATM    5  H   UNL     1     -42.378 -50.939  10.876  1.00  0.00     0.164 HD
HETATM    6  H   UNL     1     -43.952 -51.909  11.820  1.00  0.00     0.171 HD
ENDROOT
BRANCH   4   7
HETATM    7  C   UNL     1     -44.631 -51.959  13.758  1.00  0.00     0.080 A 
HETATM    8  C   UNL     1     -45.871 -51.320  13.616  1.00  0.00     0.035 A 
HETATM    9  C   UNL     1     -46.847 -51.472  14.587  1.00  0.00     0.019 A 
HETATM   10  C   UNL     1     -46.547 -52.287  15.656  1.00  0.00     0.090 A 
HETATM   11  N   UNL     1     -45.377 -52.945  15.800  1.00  0.00    -0.351 N 
HETATM   12  C   UNL     1     -44.395 -52.799  14.869  1.00  0.00     0.130 A 
ATOM     13  HN  UNL     1     -45.230 -53.550  16.608  1.00  0.00     0.166 HD
BRANCH  12  14
HETATM   14  N   UNL     1     -43.266 -53.570  15.044  1.00  0.00    -0.365 N 
HETATM   15  C   UNL     1     -42.007 -53.175  15.641  1.00  0.00     0.124 C 
HETATM   16  C   UNL     1     -41.284 -54.475  15.987  1.00  0.00     0.021 C 
HETATM   17  C   UNL     1     -42.343 -55.556  15.890  1.00  0.00     0.021 C 
HETATM   18  C   UNL     1     -43.342 -55.018  14.876  1.00  0.00     0.124 C 
ENDBRANCH  12  14
ENDBRANCH   4   7
BRANCH   3  19
HETATM   19  C   UNL     1     -41.125 -49.399  11.566  1.00  0.00     0.154 C 
BRANCH  19  20
HETATM   20  C   UNL     1     -41.657 -48.336  10.581  1.00  0.00     0.292 C 
BRANCH  20  21
HETATM   21  N   UNL     1     -42.903 -47.669  11.011  1.00  0.00     0.094 N 
HETATM   22  C   UNL     1     -43.791 -47.439   9.842  1.00  0.00     0.298 C 
HETATM   23  C   UNL     1     -43.349 -46.292   8.908  1.00  0.00     0.198 C 
HETATM   24  O   UNL     1     -43.113 -45.072   9.625  1.00  0.00    -0.388 OA
HETATM   25  C   UNL     1     -42.160 -45.279  10.674  1.00  0.00     0.198 C 
HETATM   26  C   UNL     1     -42.670 -46.352  11.648  1.00  0.00     0.298 C 
ENDBRANCH  20  21
ENDBRANCH  19  20
ENDBRANCH   3  19
TORSDOF 5
ENDMDL
MODEL 6
REMARK VINA RESULT:      -6.2      2.378      7.752
REMARK  5 active torsions:
REMARK  status: ('A' for Active; 'I' for Inactive)
REMARK       I    between atoms: C_2  and  N_3 
REMARK       I    between atoms: C_2  and  N_12 
REMARK    1  A    between atoms: N_3  and  C_4 
REMARK    2  A    between atoms: C_4  and  C_5 
REMARK    3  A    between atoms: C_5  and  N_6 
REMARK    4  A    between atoms: N_12  and  C_13 
REMARK    5  A    between atoms: C_19  and  N_20 
ROOT
HETATM    1  O   UNL     1     -42.304 -48.988  11.854  1.00  0.00    -0.247 OA
HETATM    2  C   UNL     1     -41.553 -49.072  10.892  1.00  0.00     0.320 C 
HETATM    3  N   UNL     1     -40.472 -49.934  10.851  1.00  0.00    -0.341 N 
HETATM    4  N   UNL     1     -41.664 -48.354   9.723  1.00  0.00    -0.306 N 
HETATM    5  H   UNL     1     -39.732 -49.706  10.208  1.00  0.00     0.164 HD
HETATM    6  H   UNL     1     -40.788 -48.182   9.274  1.00  0.00     0.171 HD
ENDROOT
BRANCH   4   7
HETATM    7  C   UNL     1     -42.627 -47.325   9.597  1.00  0.00     0.080 A 
HETATM    8  C   UNL     1     -43.812 -47.631   8.912  1.00  0.00     0.035 A 
HETATM    9  C   UNL     1     -44.773 -46.654   8.716  1.00  0.00     0.019 A 
HETATM   10  C   UNL     1     -44.516 -45.406   9.240  1.00  0.00     0.090 A 
HETATM   11  N   UNL     1     -43.403 -45.093   9.934  1.00  0.00    -0.351 N 
HETATM   12  C   UNL     1     -42.435 -46.031  10.128  1.00  0.00     0.130 A 
ATOM     13  HN  UNL     1     -43.286 -44.153  10.314  1.00  0.00     0.166 HD
BRANCH  12  14
HETATM   14  N   UNL     1     -41.370 -45.657  10.920  1.00  0.00    -0.365 N 
HETATM   15  C   UNL     1     -40.076 -45.168  10.492  1.00  0.00     0.124 C 
HETATM   16  C   UNL     1     -39.457 -44.501  11.718  1.00  0.00     0.021 C 
HETATM   17  C   UNL     1     -40.602 -44.329  12.698  1.00  0.00     0.021 C 
HETATM   18  C   UNL     1     -41.566 -45.455  12.352  1.00  0.00     0.124 C 
ENDBRANCH  12  14
ENDBRANCH   4   7
BRANCH   3  19
HETATM   19  C   UNL     1     -40.086 -50.677  12.039  1.00  0.00     0.154 C 
BRANCH  19  20
HETATM   20  C   UNL     1     -40.706 -52.088  12.114  1.00  0.00     0.292 C 
BRANCH  20  21
HETATM   21  N   UNL     1     -40.766 -52.660  13.475  1.00  0.00     0.094 N 
HETATM   22  C   UNL     1     -41.451 -53.978  13.448  1.00  0.00     0.298 C 
HETATM   23  C   UNL     1     -42.984 -53.908  13.271  1.00  0.00     0.198 C 
HETATM   24  O   UNL     1     -43.598 -53.027  14.223  1.00  0.00    -0.388 OA
HETATM   25  C   UNL     1     -43.011 -51.722  14.154  1.00  0.00     0.198 C 
HETATM   26  C   UNL     1     -41.503 -51.805  14.435  1.00  0.00     0.298 C 
ENDBRANCH  20  21
ENDBRANCH  19  20
ENDBRANCH   3  19
TORSDOF 5
ENDMDL
MODEL 7
REMARK VINA RESULT:      -6.2      3.150      8.056
REMARK  5 active torsions:
REMARK  status: ('A' for Active; 'I' for Inactive)
REMARK       I    between atoms: C_2  and  N_3 
REMARK       I    between atoms: C_2  and  N_12 
REMARK    1  A    between atoms: N_3  and  C_4 
REMARK    2  A    between atoms: C_4  and  C_5 
REMARK    3  A    between atoms: C_5  and  N_6 
REMARK    4  A    between atoms: N_12  and  C_13 
REMARK    5  A    between atoms: C_19  and  N_20 
ROOT
HETATM    1  O   UNL     1     -41.842 -50.859  12.888  1.00  0.00    -0.247 OA
HETATM    2  C   UNL     1     -41.313 -51.245  11.854  1.00  0.00     0.320 C 
HETATM    3  N   UNL     1     -41.176 -52.583  11.531  1.00  0.00    -0.341 N 
HETATM    4  N   UNL     1     -40.794 -50.437  10.868  1.00  0.00    -0.306 N 
HETATM    5  H   UNL     1     -40.454 -52.821  10.871  1.00  0.00     0.164 HD
HETATM    6  H   UNL     1     -40.032 -50.850  10.372  1.00  0.00     0.171 HD
ENDROOT
BRANCH   4   7
HETATM    7  C   UNL     1     -40.718 -49.037  11.049  1.00  0.00     0.080 A 
HETATM    8  C   UNL     1     -41.747 -48.258  10.498  1.00  0.00     0.035 A 
HETATM    9  C   UNL     1     -41.705 -46.878  10.602  1.00  0.00     0.019 A 
HETATM   10  C   UNL     1     -40.639 -46.331  11.281  1.00  0.00     0.090 A 
HETATM   11  N   UNL     1     -39.655 -47.056  11.853  1.00  0.00    -0.351 N 
HETATM   12  C   UNL     1     -39.663 -48.414  11.752  1.00  0.00     0.130 A 
ATOM     13  HN  UNL     1     -38.905 -46.587  12.361  1.00  0.00     0.166 HD
BRANCH  12  14
HETATM   14  N   UNL     1     -38.672 -49.085  12.436  1.00  0.00    -0.365 N 
HETATM   15  C   UNL     1     -38.662 -49.468  13.833  1.00  0.00     0.124 C 
HETATM   16  C   UNL     1     -37.581 -50.538  13.962  1.00  0.00     0.021 C 
HETATM   17  C   UNL     1     -37.274 -50.968  12.540  1.00  0.00     0.021 C 
HETATM   18  C   UNL     1     -37.600 -49.744  11.698  1.00  0.00     0.124 C 
ENDBRANCH  12  14
ENDBRANCH   4   7
BRANCH   3  19
HETATM   19  C   UNL     1     -41.522 -53.607  12.501  1.00  0.00     0.154 C 
BRANCH  19  20
HETATM   20  C   UNL     1     -40.323 -54.093  13.342  1.00  0.00     0.292 C 
BRANCH  20  21
HETATM   21  N   UNL     1     -40.194 -53.442  14.662  1.00  0.00     0.094 N 
HETATM   22  C   UNL     1     -39.048 -54.020  15.410  1.00  0.00     0.298 C 
HETATM   23  C   UNL     1     -39.295 -55.430  15.989  1.00  0.00     0.198 C 
HETATM   24  O   UNL     1     -40.501 -55.492  16.764  1.00  0.00    -0.388 OA
HETATM   25  C   UNL     1     -41.622 -55.047  15.990  1.00  0.00     0.198 C 
HETATM   26  C   UNL     1     -41.397 -53.605  15.513  1.00  0.00     0.298 C 
ENDBRANCH  20  21
ENDBRANCH  19  20
ENDBRANCH   3  19
TORSDOF 5
ENDMDL
MODEL 8
REMARK VINA RESULT:      -6.1      1.674      2.179
REMARK  5 active torsions:
REMARK  status: ('A' for Active; 'I' for Inactive)
REMARK       I    between atoms: C_2  and  N_3 
REMARK       I    between atoms: C_2  and  N_12 
REMARK    1  A    between atoms: N_3  and  C_4 
REMARK    2  A    between atoms: C_4  and  C_5 
REMARK    3  A    between atoms: C_5  and  N_6 
REMARK    4  A    between atoms: N_12  and  C_13 
REMARK    5  A    between atoms: C_19  and  N_20 
ROOT
HETATM    1  O   UNL     1     -41.726 -49.696  13.330  1.00  0.00    -0.247 OA
HETATM    2  C   UNL     1     -41.917 -50.091  12.187  1.00  0.00     0.320 C 
HETATM    3  N   UNL     1     -42.065 -49.238  11.109  1.00  0.00    -0.341 N 
HETATM    4  N   UNL     1     -42.001 -51.409  11.798  1.00  0.00    -0.306 N 
HETATM    5  H   UNL     1     -42.548 -49.601  10.303  1.00  0.00     0.164 HD
HETATM    6  H   UNL     1     -42.592 -51.555  11.006  1.00  0.00     0.171 HD
ENDROOT
BRANCH   4   7
HETATM    7  C   UNL     1     -42.000 -52.446  12.759  1.00  0.00     0.080 A 
HETATM    8  C   UNL     1     -40.777 -53.083  13.019  1.00  0.00     0.035 A 
HETATM    9  C   UNL     1     -40.720 -54.137  13.915  1.00  0.00     0.019 A 
HETATM   10  C   UNL     1     -41.894 -54.497  14.538  1.00  0.00     0.090 A 
HETATM   11  N   UNL     1     -43.077 -53.879  14.336  1.00  0.00    -0.351 N 
HETATM   12  C   UNL     1     -43.164 -52.850  13.448  1.00  0.00     0.130 A 
ATOM     13  HN  UNL     1     -43.905 -54.183  14.847  1.00  0.00     0.166 HD
BRANCH  12  14
HETATM   14  N   UNL     1     -44.386 -52.218  13.362  1.00  0.00    -0.365 N 
HETATM   15  C   UNL     1     -45.517 -52.583  12.534  1.00  0.00     0.124 C 
HETATM   16  C   UNL     1     -46.720 -51.856  13.130  1.00  0.00     0.021 C 
HETATM   17  C   UNL     1     -46.266 -51.392  14.501  1.00  0.00     0.021 C 
HETATM   18  C   UNL     1     -44.760 -51.223  14.362  1.00  0.00     0.124 C 
ENDBRANCH  12  14
ENDBRANCH   4   7
BRANCH   3  19
HETATM   19  C   UNL     1     -42.158 -47.803  11.321  1.00  0.00     0.154 C 
BRANCH  19  20
HETATM   20  C   UNL     1     -40.839 -47.051  11.049  1.00  0.00     0.292 C 
BRANCH  20  21
HETATM   21  N   UNL     1     -41.004 -45.744  10.378  1.00  0.00     0.094 N 
HETATM   22  C   UNL     1     -39.761 -44.940  10.509  1.00  0.00     0.298 C 
HETATM   23  C   UNL     1     -39.525 -44.335  11.910  1.00  0.00     0.198 C 
HETATM   24  O   UNL     1     -40.665 -43.603  12.382  1.00  0.00    -0.388 OA
HETATM   25  C   UNL     1     -41.836 -44.429  12.368  1.00  0.00     0.198 C 
HETATM   26  C   UNL     1     -42.109 -44.935  10.944  1.00  0.00     0.298 C 
ENDBRANCH  20  21
ENDBRANCH  19  20
ENDBRANCH   3  19
TORSDOF 5
ENDMDL
MODEL 9
REMARK VINA RESULT:      -6.1      1.464      2.036
REMARK  5 active torsions:
REMARK  status: ('A' for Active; 'I' for Inactive)
REMARK       I    between atoms: C_2  and  N_3 
REMARK       I    between atoms: C_2  and  N_12 
REMARK    1  A    between atoms: N_3  and  C_4 
REMARK    2  A    between atoms: C_4  and  C_5 
REMARK    3  A    between atoms: C_5  and  N_6 
REMARK    4  A    between atoms: N_12  and  C_13 
REMARK    5  A    between atoms: C_19  and  N_20 
ROOT
HETATM    1  O   UNL     1     -41.150 -49.431  12.903  1.00  0.00    -0.247 OA
HETATM    2  C   UNL     1     -41.547 -49.942  11.864  1.00  0.00     0.320 C 
HETATM    3  N   UNL     1     -41.805 -49.215  10.717  1.00  0.00    -0.341 N 
HETATM    4  N   UNL     1     -41.784 -51.284  11.669  1.00  0.00    -0.306 N 
HETATM    5  H   UNL     1     -42.434 -49.627  10.047  1.00  0.00     0.164 HD
HETATM    6  H   UNL     1     -42.502 -51.470  11.001  1.00  0.00     0.171 HD
ENDROOT
BRANCH   4   7
HETATM    7  C   UNL     1     -41.702 -52.194  12.748  1.00  0.00     0.080 A 
HETATM    8  C   UNL     1     -40.428 -52.661  13.104  1.00  0.00     0.035 A 
HETATM    9  C   UNL     1     -40.287 -53.590  14.121  1.00  0.00     0.019 A 
HETATM   10  C   UNL     1     -41.435 -53.997  14.763  1.00  0.00     0.090 A 
HETATM   11  N   UNL     1     -42.669 -53.539  14.468  1.00  0.00    -0.351 N 
HETATM   12  C   UNL     1     -42.838 -52.637  13.461  1.00  0.00     0.130 A 
ATOM     13  HN  UNL     1     -43.476 -53.867  14.999  1.00  0.00     0.166 HD
BRANCH  12  14
HETATM   14  N   UNL     1     -44.116 -52.154  13.280  1.00  0.00    -0.365 N 
HETATM   15  C   UNL     1     -45.201 -52.771  12.544  1.00  0.00     0.124 C 
HETATM   16  C   UNL     1     -46.473 -52.072  13.017  1.00  0.00     0.021 C 
HETATM   17  C   UNL     1     -46.075 -51.328  14.277  1.00  0.00     0.021 C 
HETATM   18  C   UNL     1     -44.593 -51.038  14.091  1.00  0.00     0.124 C 
ENDBRANCH  12  14
ENDBRANCH   4   7
BRANCH   3  19
HETATM   19  C   UNL     1     -41.763 -47.762  10.748  1.00  0.00     0.154 C 
BRANCH  19  20
HETATM   20  C   UNL     1     -43.116 -47.097  10.418  1.00  0.00     0.292 C 
BRANCH  20  21
HETATM   21  N   UNL     1     -43.274 -46.696   9.004  1.00  0.00     0.094 N 
HETATM   22  C   UNL     1     -44.213 -45.549   8.898  1.00  0.00     0.298 C 
HETATM   23  C   UNL     1     -45.702 -45.910   9.095  1.00  0.00     0.198 C 
HETATM   24  O   UNL     1     -46.112 -46.993   8.248  1.00  0.00    -0.388 OA
HETATM   25  C   UNL     1     -45.273 -48.137   8.449  1.00  0.00     0.198 C 
HETATM   26  C   UNL     1     -43.810 -47.780   8.147  1.00  0.00     0.298 C 
ENDBRANCH  20  21
ENDBRANCH  19  20
ENDBRANCH   3  19
TORSDOF 5
ENDMDL
