MODEL 1
REMARK VINA RESULT:      -6.7      0.000      0.000
REMARK  6 active torsions:
REMARK  status: ('A' for Active; 'I' for Inactive)
REMARK    1  A    between atoms: C_4  and  N_5 
REMARK       I    between atoms: N_5  and  C_6 
REMARK       I    between atoms: C_6  and  N_8 
REMARK    2  A    between atoms: N_8  and  C_9 
REMARK    3  A    between atoms: C_9  and  C_10 
REMARK    4  A    between atoms: C_10  and  O_11 
REMARK    5  A    between atoms: C_10  and  C_12 
REMARK    6  A    between atoms: C_12  and  N_13 
ROOT
HETATM    1  N   UNL     1     -41.267 -48.798  10.165  1.00  0.00    -0.293 N 
HETATM    2  C   UNL     1     -41.346 -49.528  11.328  1.00  0.00     0.321 C 
HETATM    3  O   UNL     1     -42.061 -49.314  12.298  1.00  0.00    -0.247 OA
HETATM    4  N   UNL     1     -40.498 -50.616  11.287  1.00  0.00    -0.340 N 
HETATM    5  H   UNL     1     -40.759 -49.192   9.391  1.00  0.00     0.172 HD
HETATM    6  H   UNL     1     -39.615 -50.471  10.806  1.00  0.00     0.164 HD
ENDROOT
BRANCH   4   7
HETATM    7  C   UNL     1     -40.407 -51.495  12.449  1.00  0.00     0.157 C 
BRANCH   7   8
HETATM    8  C   UNL     1     -41.270 -52.743  12.222  1.00  0.00     0.164 C 
BRANCH   8   9
HETATM    9  O   UNL     1     -40.508 -53.581  11.330  1.00  0.00    -0.392 OA
HETATM   10  H   UNL     1     -40.794 -53.370  10.424  1.00  0.00     0.210 HD
ENDBRANCH   8   9
BRANCH   8  11
HETATM   11  C   UNL     1     -41.621 -53.454  13.558  1.00  0.00     0.305 C 
BRANCH  11  12
HETATM   12  N   UNL     1     -42.800 -52.919  14.281  1.00  0.00     0.090 N 
HETATM   13  C   UNL     1     -43.276 -53.841  15.328  1.00  0.00     0.272 C 
HETATM   14  C   UNL     1     -43.955 -55.106  14.783  1.00  0.00     0.030 C 
HETATM   15  C   UNL     1     -45.034 -54.788  13.747  1.00  0.00     0.003 C 
HETATM   16  C   UNL     1     -44.566 -53.754  12.728  1.00  0.00     0.030 C 
HETATM   17  C   UNL     1     -43.935 -52.549  13.425  1.00  0.00     0.272 C 
ENDBRANCH  11  12
ENDBRANCH   8  11
ENDBRANCH   7   8
ENDBRANCH   4   7
BRANCH   1  18
HETATM   18  C   UNL     1     -41.969 -47.630   9.943  1.00  0.00     0.132 A 
HETATM   19  C   UNL     1     -43.310 -47.581   9.488  1.00  0.00     0.084 A 
HETATM   20  C   UNL     1     -43.596 -46.240   9.385  1.00  0.00     0.076 A 
HETATM   21  C   UNL     1     -44.765 -45.447   8.966  1.00  0.00     0.079 C 
HETATM   22  O   UNL     1     -42.508 -45.527   9.768  1.00  0.00    -0.241 OA
HETATM   23  N   UNL     1     -41.494 -46.392  10.107  1.00  0.00    -0.245 N 
ATOM     24  HN  UNL     1     -40.558 -46.137  10.423  1.00  0.00     0.196 HD
ENDBRANCH   1  18
TORSDOF 6
ENDMDL
MODEL 2
REMARK VINA RESULT:      -6.4      1.235      1.655
REMARK  6 active torsions:
REMARK  status: ('A' for Active; 'I' for Inactive)
REMARK    1  A    between atoms: C_4  and  N_5 
REMARK       I    between atoms: N_5  and  C_6 
REMARK       I    between atoms: C_6  and  N_8 
REMARK    2  A    between atoms: N_8  and  C_9 
REMARK    3  A    between atoms: C_9  and  C_10 
REMARK    4  A    between atoms: C_10  and  O_11 
REMARK    5  A    between atoms: C_10  and  C_12 
REMARK    6  A    between atoms: C_12  and  N_13 
ROOT
HETATM    1  N   UNL     1     -41.363 -48.970  10.164  1.00  0.00    -0.293 N 
HETATM    2  C   UNL     1     -41.085 -49.508  11.399  1.00  0.00     0.321 C 
HETATM    3  O   UNL     1     -41.342 -49.032  12.497  1.00  0.00    -0.247 OA
HETATM    4  N   UNL     1     -40.466 -50.735  11.275  1.00  0.00    -0.340 N 
HETATM    5  H   UNL     1     -41.246 -49.555   9.354  1.00  0.00     0.172 HD
HETATM    6  H   UNL     1     -39.823 -50.829  10.494  1.00  0.00     0.164 HD
ENDROOT
BRANCH   4   7
HETATM    7  C   UNL     1     -40.051 -51.451  12.478  1.00  0.00     0.157 C 
BRANCH   7   8
HETATM    8  C   UNL     1     -40.841 -52.760  12.598  1.00  0.00     0.164 C 
BRANCH   8   9
HETATM    9  O   UNL     1     -40.591 -53.474  11.371  1.00  0.00    -0.392 OA
HETATM   10  H   UNL     1     -41.295 -53.226  10.746  1.00  0.00     0.210 HD
ENDBRANCH   8   9
BRANCH   8  11
HETATM   11  C   UNL     1     -40.428 -53.571  13.857  1.00  0.00     0.305 C 
BRANCH  11  12
HETATM   12  N   UNL     1     -41.157 -53.237  15.105  1.00  0.00     0.090 N 
HETATM   13  C   UNL     1     -40.591 -53.925  16.281  1.00  0.00     0.272 C 
HETATM   14  C   UNL     1     -40.863 -55.435  16.309  1.00  0.00     0.030 C 
HETATM   15  C   UNL     1     -42.339 -55.767  16.091  1.00  0.00     0.003 C 
HETATM   16  C   UNL     1     -42.942 -54.973  14.937  1.00  0.00     0.030 C 
HETATM   17  C   UNL     1     -42.604 -53.487  15.062  1.00  0.00     0.272 C 
ENDBRANCH  11  12
ENDBRANCH   8  11
ENDBRANCH   7   8
ENDBRANCH   4   7
BRANCH   1  18
HETATM   18  C   UNL     1     -41.941 -47.729   9.980  1.00  0.00     0.132 A 
HETATM   19  C   UNL     1     -43.253 -47.526   9.485  1.00  0.00     0.084 A 
HETATM   20  C   UNL     1     -43.403 -46.160   9.443  1.00  0.00     0.076 A 
HETATM   21  C   UNL     1     -44.473 -45.236   9.028  1.00  0.00     0.079 C 
HETATM   22  O   UNL     1     -42.266 -45.578   9.896  1.00  0.00    -0.241 OA
HETATM   23  N   UNL     1     -41.354 -46.554  10.223  1.00  0.00    -0.245 N 
ATOM     24  HN  UNL     1     -40.410 -46.408  10.581  1.00  0.00     0.196 HD
ENDBRANCH   1  18
TORSDOF 6
ENDMDL
MODEL 3
REMARK VINA RESULT:      -6.4      1.328      1.388
REMARK  6 active torsions:
REMARK  status: ('A' for Active; 'I' for Inactive)
REMARK    1  A    between atoms: C_4  and  N_5 
REMARK       I    between atoms: N_5  and  C_6 
REMARK       I    between atoms: C_6  and  N_8 
REMARK    2  A    between atoms: N_8  and  C_9 
REMARK    3  A    between atoms: C_9  and  C_10 
REMARK    4  A    between atoms: C_10  and  O_11 
REMARK    5  A    between atoms: C_10  and  C_12 
REMARK    6  A    between atoms: C_12  and  N_13 
ROOT
HETATM    1  N   UNL     1     -41.067 -48.160  10.420  1.00  0.00    -0.293 N 
HETATM    2  C   UNL     1     -40.727 -48.962  11.484  1.00  0.00     0.321 C 
HETATM    3  O   UNL     1     -40.540 -48.624  12.646  1.00  0.00    -0.247 OA
HETATM    4  N   UNL     1     -40.632 -50.284  11.097  1.00  0.00    -0.340 N 
HETATM    5  H   UNL     1     -41.353 -48.604   9.564  1.00  0.00     0.172 HD
HETATM    6  H   UNL     1     -40.260 -50.446  10.165  1.00  0.00     0.164 HD
ENDROOT
BRANCH   4   7
HETATM    7  C   UNL     1     -40.238 -51.290  12.079  1.00  0.00     0.157 C 
BRANCH   7   8
HETATM    8  C   UNL     1     -41.231 -52.459  12.046  1.00  0.00     0.164 C 
BRANCH   8   9
HETATM    9  O   UNL     1     -40.605 -53.472  11.233  1.00  0.00    -0.392 OA
HETATM   10  H   UNL     1     -40.394 -54.220  11.819  1.00  0.00     0.210 HD
ENDBRANCH   8   9
BRANCH   8  11
HETATM   11  C   UNL     1     -41.574 -52.965  13.474  1.00  0.00     0.305 C 
BRANCH  11  12
HETATM   12  N   UNL     1     -42.859 -52.484  14.036  1.00  0.00     0.090 N 
HETATM   13  C   UNL     1     -43.271 -53.254  15.224  1.00  0.00     0.272 C 
HETATM   14  C   UNL     1     -43.734 -54.684  14.910  1.00  0.00     0.030 C 
HETATM   15  C   UNL     1     -44.777 -54.727  13.793  1.00  0.00     0.003 C 
HETATM   16  C   UNL     1     -44.391 -53.844  12.610  1.00  0.00     0.030 C 
HETATM   17  C   UNL     1     -43.977 -52.450  13.084  1.00  0.00     0.272 C 
ENDBRANCH  11  12
ENDBRANCH   8  11
ENDBRANCH   7   8
ENDBRANCH   4   7
BRANCH   1  18
HETATM   18  C   UNL     1     -41.188 -46.787  10.502  1.00  0.00     0.132 A 
HETATM   19  C   UNL     1     -42.324 -46.118  11.023  1.00  0.00     0.084 A 
HETATM   20  C   UNL     1     -42.031 -44.781  10.893  1.00  0.00     0.076 A 
HETATM   21  C   UNL     1     -42.731 -43.520  11.197  1.00  0.00     0.079 C 
HETATM   22  O   UNL     1     -40.797 -44.651  10.346  1.00  0.00    -0.241 OA
HETATM   23  N   UNL     1     -40.277 -45.899  10.096  1.00  0.00    -0.245 N 
ATOM     24  HN  UNL     1     -39.369 -46.107   9.680  1.00  0.00     0.196 HD
ENDBRANCH   1  18
TORSDOF 6
ENDMDL
MODEL 4
REMARK VINA RESULT:      -6.3      2.801      6.296
REMARK  6 active torsions:
REMARK  status: ('A' for Active; 'I' for Inactive)
REMARK    1  A    between atoms: C_4  and  N_5 
REMARK       I    between atoms: N_5  and  C_6 
REMARK       I    between atoms: C_6  and  N_8 
REMARK    2  A    between atoms: N_8  and  C_9 
REMARK    3  A    between atoms: C_9  and  C_10 
REMARK    4  A    between atoms: C_10  and  O_11 
REMARK    5  A    between atoms: C_10  and  C_12 
REMARK    6  A    between atoms: C_12  and  N_13 
ROOT
HETATM    1  N   UNL     1     -44.431 -52.245  12.531  1.00  0.00    -0.293 N 
HETATM    2  C   UNL     1     -43.126 -52.554  12.838  1.00  0.00     0.321 C 
HETATM    3  O   UNL     1     -42.689 -52.990  13.895  1.00  0.00    -0.247 OA
HETATM    4  N   UNL     1     -42.298 -52.331  11.756  1.00  0.00    -0.340 N 
HETATM    5  H   UNL     1     -44.661 -52.058  11.570  1.00  0.00     0.172 HD
HETATM    6  H   UNL     1     -42.536 -51.534  11.173  1.00  0.00     0.164 HD
ENDROOT
BRANCH   4   7
HETATM    7  C   UNL     1     -40.863 -52.562  11.895  1.00  0.00     0.157 C 
BRANCH   7   8
HETATM    8  C   UNL     1     -40.162 -51.246  12.257  1.00  0.00     0.164 C 
BRANCH   8   9
HETATM    9  O   UNL     1     -38.751 -51.527  12.174  1.00  0.00    -0.392 OA
HETATM   10  H   UNL     1     -38.659 -52.450  11.881  1.00  0.00     0.210 HD
ENDBRANCH   8   9
BRANCH   8  11
HETATM   11  C   UNL     1     -40.598 -50.084  11.322  1.00  0.00     0.305 C 
BRANCH  11  12
HETATM   12  N   UNL     1     -40.736 -48.756  11.968  1.00  0.00     0.090 N 
HETATM   13  C   UNL     1     -41.805 -48.739  12.983  1.00  0.00     0.272 C 
HETATM   14  C   UNL     1     -43.223 -48.805  12.396  1.00  0.00     0.030 C 
HETATM   15  C   UNL     1     -43.446 -47.771  11.293  1.00  0.00     0.003 C 
HETATM   16  C   UNL     1     -42.285 -47.724  10.305  1.00  0.00     0.030 C 
HETATM   17  C   UNL     1     -40.947 -47.636  11.040  1.00  0.00     0.272 C 
ENDBRANCH  11  12
ENDBRANCH   8  11
ENDBRANCH   7   8
ENDBRANCH   4   7
BRANCH   1  18
HETATM   18  C   UNL     1     -45.471 -52.326  13.435  1.00  0.00     0.132 A 
HETATM   19  C   UNL     1     -45.746 -51.349  14.424  1.00  0.00     0.084 A 
HETATM   20  C   UNL     1     -46.836 -51.838  15.105  1.00  0.00     0.076 A 
HETATM   21  C   UNL     1     -47.647 -51.384  16.248  1.00  0.00     0.079 C 
HETATM   22  O   UNL     1     -47.204 -53.022  14.556  1.00  0.00    -0.241 OA
HETATM   23  N   UNL     1     -46.350 -53.329  13.523  1.00  0.00    -0.245 N 
ATOM     24  HN  UNL     1     -46.382 -54.162  12.936  1.00  0.00     0.196 HD
ENDBRANCH   1  18
TORSDOF 6
ENDMDL
MODEL 5
REMARK VINA RESULT:      -6.2      3.366      7.891
REMARK  6 active torsions:
REMARK  status: ('A' for Active; 'I' for Inactive)
REMARK    1  A    between atoms: C_4  and  N_5 
REMARK       I    between atoms: N_5  and  C_6 
REMARK       I    between atoms: C_6  and  N_8 
REMARK    2  A    between atoms: N_8  and  C_9 
REMARK    3  A    between atoms: C_9  and  C_10 
REMARK    4  A    between atoms: C_10  and  O_11 
REMARK    5  A    between atoms: C_10  and  C_12 
REMARK    6  A    between atoms: C_12  and  N_13 
ROOT
HETATM    1  N   UNL     1     -40.900 -49.342  10.436  1.00  0.00    -0.293 N 
HETATM    2  C   UNL     1     -41.977 -48.528  10.699  1.00  0.00     0.321 C 
HETATM    3  O   UNL     1     -42.613 -48.442  11.741  1.00  0.00    -0.247 OA
HETATM    4  N   UNL     1     -42.281 -47.743   9.605  1.00  0.00    -0.340 N 
HETATM    5  H   UNL     1     -40.377 -49.179   9.593  1.00  0.00     0.172 HD
HETATM    6  H   UNL     1     -42.150 -48.179   8.697  1.00  0.00     0.164 HD
ENDROOT
BRANCH   4   7
HETATM    7  C   UNL     1     -43.424 -46.837   9.672  1.00  0.00     0.157 C 
BRANCH   7   8
HETATM    8  C   UNL     1     -42.938 -45.385   9.579  1.00  0.00     0.164 C 
BRANCH   8   9
HETATM    9  O   UNL     1     -44.122 -44.596   9.345  1.00  0.00    -0.392 OA
HETATM   10  H   UNL     1     -43.854 -43.661   9.370  1.00  0.00     0.210 HD
ENDBRANCH   8   9
BRANCH   8  11
HETATM   11  C   UNL     1     -42.172 -44.949  10.858  1.00  0.00     0.305 C 
BRANCH  11  12
HETATM   12  N   UNL     1     -40.751 -44.573  10.662  1.00  0.00     0.090 N 
HETATM   13  C   UNL     1     -39.827 -45.623  11.127  1.00  0.00     0.272 C 
HETATM   14  C   UNL     1     -39.768 -45.768  12.655  1.00  0.00     0.030 C 
HETATM   15  C   UNL     1     -39.537 -44.431  13.359  1.00  0.00     0.003 C 
HETATM   16  C   UNL     1     -40.425 -43.324  12.798  1.00  0.00     0.030 C 
HETATM   17  C   UNL     1     -40.359 -43.295  11.271  1.00  0.00     0.272 C 
ENDBRANCH  11  12
ENDBRANCH   8  11
ENDBRANCH   7   8
ENDBRANCH   4   7
BRANCH   1  18
HETATM   18  C   UNL     1     -40.402 -50.267  11.332  1.00  0.00     0.132 A 
HETATM   19  C   UNL     1     -39.445 -49.970  12.334  1.00  0.00     0.084 A 
HETATM   20  C   UNL     1     -39.221 -51.169  12.970  1.00  0.00     0.076 A 
HETATM   21  C   UNL     1     -38.359 -51.624  14.074  1.00  0.00     0.079 C 
HETATM   22  O   UNL     1     -40.000 -52.121  12.401  1.00  0.00    -0.241 OA
HETATM   23  N   UNL     1     -40.728 -51.562  11.377  1.00  0.00    -0.245 N 
ATOM     24  HN  UNL     1     -41.390 -52.043  10.769  1.00  0.00     0.196 HD
ENDBRANCH   1  18
TORSDOF 6
ENDMDL
MODEL 6
REMARK VINA RESULT:      -6.2      2.382      6.680
REMARK  6 active torsions:
REMARK  status: ('A' for Active; 'I' for Inactive)
REMARK    1  A    between atoms: C_4  and  N_5 
REMARK       I    between atoms: N_5  and  C_6 
REMARK       I    between atoms: C_6  and  N_8 
REMARK    2  A    between atoms: N_8  and  C_9 
REMARK    3  A    between atoms: C_9  and  C_10 
REMARK    4  A    between atoms: C_10  and  O_11 
REMARK    5  A    between atoms: C_10  and  C_12 
REMARK    6  A    between atoms: C_12  and  N_13 
ROOT
HETATM    1  N   UNL     1     -42.082 -51.861  13.459  1.00  0.00    -0.293 N 
HETATM    2  C   UNL     1     -40.842 -51.897  12.866  1.00  0.00     0.321 C 
HETATM    3  O   UNL     1     -40.447 -52.671  12.004  1.00  0.00    -0.247 OA
HETATM    4  N   UNL     1     -40.033 -50.890  13.352  1.00  0.00    -0.340 N 
HETATM    5  H   UNL     1     -42.315 -51.064  14.025  1.00  0.00     0.172 HD
HETATM    6  H   UNL     1     -40.149 -50.666  14.336  1.00  0.00     0.164 HD
ENDROOT
BRANCH   4   7
HETATM    7  C   UNL     1     -38.657 -50.785  12.874  1.00  0.00     0.157 C 
BRANCH   7   8
HETATM    8  C   UNL     1     -38.502 -49.519  12.021  1.00  0.00     0.164 C 
BRANCH   8   9
HETATM    9  O   UNL     1     -38.549 -49.969  10.653  1.00  0.00    -0.392 OA
HETATM   10  H   UNL     1     -37.820 -49.530  10.181  1.00  0.00     0.210 HD
ENDBRANCH   8   9
BRANCH   8  11
HETATM   11  C   UNL     1     -39.599 -48.468  12.344  1.00  0.00     0.305 C 
BRANCH  11  12
HETATM   12  N   UNL     1     -40.458 -48.064  11.205  1.00  0.00     0.090 N 
HETATM   13  C   UNL     1     -40.653 -46.603  11.145  1.00  0.00     0.272 C 
HETATM   14  C   UNL     1     -41.554 -46.049  12.257  1.00  0.00     0.030 C 
HETATM   15  C   UNL     1     -42.873 -46.811  12.374  1.00  0.00     0.003 C 
HETATM   16  C   UNL     1     -42.670 -48.323  12.331  1.00  0.00     0.030 C 
HETATM   17  C   UNL     1     -41.773 -48.718  11.158  1.00  0.00     0.272 C 
ENDBRANCH  11  12
ENDBRANCH   8  11
ENDBRANCH   7   8
ENDBRANCH   4   7
BRANCH   1  18
HETATM   18  C   UNL     1     -43.083 -52.777  13.199  1.00  0.00     0.132 A 
HETATM   19  C   UNL     1     -43.723 -53.560  14.192  1.00  0.00     0.084 A 
HETATM   20  C   UNL     1     -44.621 -54.337  13.499  1.00  0.00     0.076 A 
HETATM   21  C   UNL     1     -45.599 -55.380  13.855  1.00  0.00     0.079 C 
HETATM   22  O   UNL     1     -44.540 -54.033  12.179  1.00  0.00    -0.241 OA
HETATM   23  N   UNL     1     -43.578 -53.069  11.993  1.00  0.00    -0.245 N 
ATOM     24  HN  UNL     1     -43.295 -52.656  11.104  1.00  0.00     0.196 HD
ENDBRANCH   1  18
TORSDOF 6
ENDMDL
MODEL 7
REMARK VINA RESULT:      -6.2      3.424      6.889
REMARK  6 active torsions:
REMARK  status: ('A' for Active; 'I' for Inactive)
REMARK    1  A    between atoms: C_4  and  N_5 
REMARK       I    between atoms: N_5  and  C_6 
REMARK       I    between atoms: C_6  and  N_8 
REMARK    2  A    between atoms: N_8  and  C_9 
REMARK    3  A    between atoms: C_9  and  C_10 
REMARK    4  A    between atoms: C_10  and  O_11 
REMARK    5  A    between atoms: C_10  and  C_12 
REMARK    6  A    between atoms: C_12  and  N_13 
ROOT
HETATM    1  N   UNL     1     -42.368 -52.418  11.728  1.00  0.00    -0.293 N 
HETATM    2  C   UNL     1     -41.717 -51.261  12.087  1.00  0.00     0.321 C 
HETATM    3  O   UNL     1     -41.996 -50.500  13.005  1.00  0.00    -0.247 OA
HETATM    4  N   UNL     1     -40.628 -51.032  11.272  1.00  0.00    -0.340 N 
HETATM    5  H   UNL     1     -41.922 -53.025  11.061  1.00  0.00     0.172 HD
HETATM    6  H   UNL     1     -40.739 -51.303  10.299  1.00  0.00     0.164 HD
ENDROOT
BRANCH   4   7
HETATM    7  C   UNL     1     -39.829 -49.826  11.468  1.00  0.00     0.157 C 
BRANCH   7   8
HETATM    8  C   UNL     1     -38.355 -50.208  11.656  1.00  0.00     0.164 C 
BRANCH   8   9
HETATM    9  O   UNL     1     -37.749 -50.052  10.357  1.00  0.00    -0.392 OA
HETATM   10  H   UNL     1     -37.612 -50.945   9.995  1.00  0.00     0.210 HD
ENDBRANCH   8   9
BRANCH   8  11
HETATM   11  C   UNL     1     -37.668 -49.341  12.746  1.00  0.00     0.305 C 
BRANCH  11  12
HETATM   12  N   UNL     1     -38.479 -49.067  13.956  1.00  0.00     0.090 N 
HETATM   13  C   UNL     1     -38.157 -47.760  14.559  1.00  0.00     0.272 C 
HETATM   14  C   UNL     1     -36.784 -47.711  15.244  1.00  0.00     0.030 C 
HETATM   15  C   UNL     1     -36.576 -48.871  16.217  1.00  0.00     0.003 C 
HETATM   16  C   UNL     1     -37.010 -50.207  15.621  1.00  0.00     0.030 C 
HETATM   17  C   UNL     1     -38.402 -50.099  14.999  1.00  0.00     0.272 C 
ENDBRANCH  11  12
ENDBRANCH   8  11
ENDBRANCH   7   8
ENDBRANCH   4   7
BRANCH   1  18
HETATM   18  C   UNL     1     -43.519 -52.873  12.340  1.00  0.00     0.132 A 
HETATM   19  C   UNL     1     -43.659 -54.159  12.919  1.00  0.00     0.084 A 
HETATM   20  C   UNL     1     -44.952 -54.194  13.384  1.00  0.00     0.076 A 
HETATM   21  C   UNL     1     -45.793 -55.191  14.068  1.00  0.00     0.079 C 
HETATM   22  O   UNL     1     -45.548 -53.005  13.119  1.00  0.00    -0.241 OA
HETATM   23  N   UNL     1     -44.659 -52.187  12.463  1.00  0.00    -0.245 N 
ATOM     24  HN  UNL     1     -44.836 -51.238  12.133  1.00  0.00     0.196 HD
ENDBRANCH   1  18
TORSDOF 6
ENDMDL
MODEL 8
REMARK VINA RESULT:      -6.1      1.938      2.584
REMARK  6 active torsions:
REMARK  status: ('A' for Active; 'I' for Inactive)
REMARK    1  A    between atoms: C_4  and  N_5 
REMARK       I    between atoms: N_5  and  C_6 
REMARK       I    between atoms: C_6  and  N_8 
REMARK    2  A    between atoms: N_8  and  C_9 
REMARK    3  A    between atoms: C_9  and  C_10 
REMARK    4  A    between atoms: C_10  and  O_11 
REMARK    5  A    between atoms: C_10  and  C_12 
REMARK    6  A    between atoms: C_12  and  N_13 
ROOT
HETATM    1  N   UNL     1     -41.107 -49.087  10.659  1.00  0.00    -0.293 N 
HETATM    2  C   UNL     1     -39.974 -49.184  11.432  1.00  0.00     0.321 C 
HETATM    3  O   UNL     1     -39.331 -48.272  11.935  1.00  0.00    -0.247 OA
HETATM    4  N   UNL     1     -39.617 -50.504  11.622  1.00  0.00    -0.340 N 
HETATM    5  H   UNL     1     -41.619 -49.929  10.461  1.00  0.00     0.172 HD
HETATM    6  H   UNL     1     -39.781 -51.124  10.835  1.00  0.00     0.164 HD
ENDROOT
BRANCH   4   7
HETATM    7  C   UNL     1     -38.411 -50.815  12.386  1.00  0.00     0.157 C 
BRANCH   7   8
HETATM    8  C   UNL     1     -38.793 -51.184  13.825  1.00  0.00     0.164 C 
BRANCH   8   9
HETATM    9  O   UNL     1     -38.882 -49.931  14.533  1.00  0.00    -0.392 OA
HETATM   10  H   UNL     1     -39.818 -49.799  14.767  1.00  0.00     0.210 HD
ENDBRANCH   8   9
BRANCH   8  11
HETATM   11  C   UNL     1     -40.115 -51.998  13.881  1.00  0.00     0.305 C 
BRANCH  11  12
HETATM   12  N   UNL     1     -39.982 -53.458  13.661  1.00  0.00     0.090 N 
HETATM   13  C   UNL     1     -41.014 -53.980  12.747  1.00  0.00     0.272 C 
HETATM   14  C   UNL     1     -42.424 -54.016  13.355  1.00  0.00     0.030 C 
HETATM   15  C   UNL     1     -42.452 -54.699  14.722  1.00  0.00     0.003 C 
HETATM   16  C   UNL     1     -41.316 -54.227  15.625  1.00  0.00     0.030 C 
HETATM   17  C   UNL     1     -39.979 -54.271  14.885  1.00  0.00     0.272 C 
ENDBRANCH  11  12
ENDBRANCH   8  11
ENDBRANCH   7   8
ENDBRANCH   4   7
BRANCH   1  18
HETATM   18  C   UNL     1     -41.669 -47.888  10.268  1.00  0.00     0.132 A 
HETATM   19  C   UNL     1     -43.005 -47.742   9.821  1.00  0.00     0.084 A 
HETATM   20  C   UNL     1     -43.129 -46.407   9.519  1.00  0.00     0.076 A 
HETATM   21  C   UNL     1     -44.204 -45.546   8.993  1.00  0.00     0.079 C 
HETATM   22  O   UNL     1     -41.953 -45.785   9.781  1.00  0.00    -0.241 OA
HETATM   23  N   UNL     1     -41.043 -46.708  10.239  1.00  0.00    -0.245 N 
ATOM     24  HN  UNL     1     -40.075 -46.526  10.505  1.00  0.00     0.196 HD
ENDBRANCH   1  18
TORSDOF 6
ENDMDL
MODEL 9
REMARK VINA RESULT:      -6.0      1.954      2.473
REMARK  6 active torsions:
REMARK  status: ('A' for Active; 'I' for Inactive)
REMARK    1  A    between atoms: C_4  and  N_5 
REMARK       I    between atoms: N_5  and  C_6 
REMARK       I    between atoms: C_6  and  N_8 
REMARK    2  A    between atoms: N_8  and  C_9 
REMARK    3  A    between atoms: C_9  and  C_10 
REMARK    4  A    between atoms: C_10  and  O_11 
REMARK    5  A    between atoms: C_10  and  C_12 
REMARK    6  A    between atoms: C_12  and  N_13 
ROOT
HETATM    1  N   UNL     1     -42.088 -49.103  11.096  1.00  0.00    -0.293 N 
HETATM    2  C   UNL     1     -41.287 -49.981  11.789  1.00  0.00     0.321 C 
HETATM    3  O   UNL     1     -40.282 -49.724  12.439  1.00  0.00    -0.247 OA
HETATM    4  N   UNL     1     -41.771 -51.271  11.694  1.00  0.00    -0.340 N 
HETATM    5  H   UNL     1     -42.972 -49.438  10.753  1.00  0.00     0.172 HD
HETATM    6  H   UNL     1     -42.194 -51.521  10.805  1.00  0.00     0.164 HD
ENDROOT
BRANCH   4   7
HETATM    7  C   UNL     1     -41.033 -52.358  12.330  1.00  0.00     0.157 C 
BRANCH   7   8
HETATM    8  C   UNL     1     -41.930 -53.057  13.360  1.00  0.00     0.164 C 
BRANCH   8   9
HETATM    9  O   UNL     1     -41.155 -53.108  14.574  1.00  0.00    -0.392 OA
HETATM   10  H   UNL     1     -40.221 -53.202  14.315  1.00  0.00     0.210 HD
ENDBRANCH   8   9
BRANCH   8  11
HETATM   11  C   UNL     1     -43.283 -52.317  13.544  1.00  0.00     0.305 C 
BRANCH  11  12
HETATM   12  N   UNL     1     -44.467 -53.183  13.757  1.00  0.00     0.090 N 
HETATM   13  C   UNL     1     -45.519 -52.946  12.751  1.00  0.00     0.272 C 
HETATM   14  C   UNL     1     -46.245 -51.602  12.914  1.00  0.00     0.030 C 
HETATM   15  C   UNL     1     -46.739 -51.375  14.342  1.00  0.00     0.003 C 
HETATM   16  C   UNL     1     -45.676 -51.723  15.381  1.00  0.00     0.030 C 
HETATM   17  C   UNL     1     -45.065 -53.096  15.096  1.00  0.00     0.272 C 
ENDBRANCH  11  12
ENDBRANCH   8  11
ENDBRANCH   7   8
ENDBRANCH   4   7
BRANCH   1  18
HETATM   18  C   UNL     1     -41.823 -47.753  10.979  1.00  0.00     0.132 A 
HETATM   19  C   UNL     1     -42.726 -46.728  11.358  1.00  0.00     0.084 A 
HETATM   20  C   UNL     1     -42.074 -45.557  11.050  1.00  0.00     0.076 A 
HETATM   21  C   UNL     1     -42.394 -44.123  11.147  1.00  0.00     0.079 C 
HETATM   22  O   UNL     1     -40.855 -45.854  10.535  1.00  0.00    -0.241 OA
HETATM   23  N   UNL     1     -40.703 -47.220  10.483  1.00  0.00    -0.245 N 
ATOM     24  HN  UNL     1     -39.891 -47.728  10.134  1.00  0.00     0.196 HD
ENDBRANCH   1  18
TORSDOF 6
ENDMDL
