MODEL 1
REMARK VINA RESULT:      -6.2      0.000      0.000
REMARK  4 active torsions:
REMARK  status: ('A' for Active; 'I' for Inactive)
REMARK    1  A    between atoms: C_2  and  N_3 
REMARK    2  A    between atoms: C_6  and  N_10 
REMARK       I    between atoms: N_10  and  C_11 
REMARK       I    between atoms: C_11  and  N_13 
REMARK    3  A    between atoms: N_13  and  C_14 
REMARK    4  A    between atoms: C_18  and  C_22 
ROOT
HETATM    1  N   UNL     1     -40.386 -51.914  13.976  1.00  0.00    -0.338 N 
HETATM    2  C   UNL     1     -41.162 -51.374  12.976  1.00  0.00     0.321 C 
HETATM    3  O   UNL     1     -41.754 -52.053  12.146  1.00  0.00    -0.247 OA
HETATM    4  N   UNL     1     -41.113 -49.996  12.983  1.00  0.00    -0.306 N 
HETATM    5  H   UNL     1     -40.440 -51.430  14.860  1.00  0.00     0.164 HD
HETATM    6  H   UNL     1     -40.242 -49.619  13.334  1.00  0.00     0.171 HD
ENDROOT
BRANCH   4   7
HETATM    7  C   UNL     1     -41.797 -49.243  12.003  1.00  0.00     0.067 A 
HETATM    8  C   UNL     1     -43.106 -48.827  12.134  1.00  0.00     0.120 A 
HETATM    9  N   UNL     1     -43.781 -48.156  11.178  1.00  0.00    -0.353 N 
HETATM   10  C   UNL     1     -43.125 -47.904  10.031  1.00  0.00     0.088 A 
ATOM     11  HN  UNL     1     -44.746 -47.854  11.318  1.00  0.00     0.166 HD
HETATM   12  N   UNL     1     -41.835 -48.241   9.813  1.00  0.00    -0.353 N 
HETATM   13  C   UNL     1     -41.199 -48.892  10.813  1.00  0.00     0.120 A 
ATOM     14  HN  UNL     1     -41.363 -48.015   8.937  1.00  0.00     0.166 HD
BRANCH  10  15
HETATM   15  C   UNL     1     -43.885 -47.220   8.897  1.00  0.00     0.007 C 
HETATM   16  C   UNL     1     -43.637 -45.696   8.882  1.00  0.00     0.022 C 
HETATM   17  C   UNL     1     -43.417 -47.802   7.553  1.00  0.00     0.022 C 
HETATM   18  C   UNL     1     -45.394 -47.461   9.069  1.00  0.00     0.022 C 
ENDBRANCH  10  15
ENDBRANCH   4   7
BRANCH   1  19
HETATM   19  C   UNL     1     -40.158 -53.364  14.007  1.00  0.00     0.089 C 
HETATM   20  C   UNL     1     -41.415 -54.153  14.383  1.00  0.00     0.055 C 
HETATM   21  C   UNL     1     -41.681 -54.137  15.890  1.00  0.00     0.275 C 
HETATM   22  N   UNL     1     -40.526 -54.539  16.717  1.00  0.00     0.092 N 
HETATM   23  C   UNL     1     -39.367 -53.672  16.404  1.00  0.00     0.221 C 
HETATM   24  C   UNL     1     -38.980 -53.707  14.917  1.00  0.00     0.060 C 
HETATM   25  C   UNL     1     -38.135 -53.933  17.277  1.00  0.00     0.043 C 
BRANCH  22  26
HETATM   26  C   UNL     1     -40.240 -55.983  16.657  1.00  0.00     0.268 C 
HETATM   27  C   UNL     1     -41.462 -56.854  16.943  1.00  0.00     0.037 C 
ENDBRANCH  22  26
ENDBRANCH   1  19
TORSDOF 4
ENDMDL
MODEL 2
REMARK VINA RESULT:      -6.0      3.370      4.462
REMARK  4 active torsions:
REMARK  status: ('A' for Active; 'I' for Inactive)
REMARK    1  A    between atoms: C_2  and  N_3 
REMARK    2  A    between atoms: C_6  and  N_10 
REMARK       I    between atoms: N_10  and  C_11 
REMARK       I    between atoms: C_11  and  N_13 
REMARK    3  A    between atoms: N_13  and  C_14 
REMARK    4  A    between atoms: C_18  and  C_22 
ROOT
HETATM    1  N   UNL     1     -38.207 -48.497  14.366  1.00  0.00    -0.338 N 
HETATM    2  C   UNL     1     -39.364 -48.037  13.777  1.00  0.00     0.321 C 
HETATM    3  O   UNL     1     -40.247 -47.457  14.398  1.00  0.00    -0.247 OA
HETATM    4  N   UNL     1     -39.430 -48.386  12.446  1.00  0.00    -0.306 N 
HETATM    5  H   UNL     1     -37.379 -48.404  13.797  1.00  0.00     0.164 HD
HETATM    6  H   UNL     1     -38.947 -49.247  12.224  1.00  0.00     0.171 HD
ENDROOT
BRANCH   4   7
HETATM    7  C   UNL     1     -40.562 -48.058  11.667  1.00  0.00     0.067 A 
HETATM    8  C   UNL     1     -41.656 -48.887  11.521  1.00  0.00     0.120 A 
HETATM    9  N   UNL     1     -42.714 -48.603  10.733  1.00  0.00    -0.353 N 
HETATM   10  C   UNL     1     -42.670 -47.447  10.045  1.00  0.00     0.088 A 
ATOM     11  HN  UNL     1     -43.511 -49.236  10.662  1.00  0.00     0.166 HD
HETATM   12  N   UNL     1     -41.661 -46.554  10.141  1.00  0.00    -0.353 N 
HETATM   13  C   UNL     1     -40.636 -46.878  10.961  1.00  0.00     0.120 A 
ATOM     14  HN  UNL     1     -41.671 -45.677   9.619  1.00  0.00     0.166 HD
BRANCH  10  15
HETATM   15  C   UNL     1     -43.813 -47.134   9.082  1.00  0.00     0.007 C 
HETATM   16  C   UNL     1     -45.169 -47.635   9.623  1.00  0.00     0.022 C 
HETATM   17  C   UNL     1     -43.900 -45.612   8.881  1.00  0.00     0.022 C 
HETATM   18  C   UNL     1     -43.550 -47.821   7.731  1.00  0.00     0.022 C 
ENDBRANCH  10  15
ENDBRANCH   4   7
BRANCH   1  19
HETATM   19  C   UNL     1     -38.049 -48.392  15.821  1.00  0.00     0.089 C 
HETATM   20  C   UNL     1     -36.598 -48.146  16.243  1.00  0.00     0.055 C 
HETATM   21  C   UNL     1     -35.762 -49.427  16.219  1.00  0.00     0.275 C 
HETATM   22  N   UNL     1     -36.354 -50.555  16.963  1.00  0.00     0.092 N 
HETATM   23  C   UNL     1     -37.713 -50.834  16.442  1.00  0.00     0.221 C 
HETATM   24  C   UNL     1     -38.643 -49.614  16.519  1.00  0.00     0.060 C 
HETATM   25  C   UNL     1     -38.388 -52.055  17.075  1.00  0.00     0.043 C 
BRANCH  22  26
HETATM   26  C   UNL     1     -36.286 -50.390  18.425  1.00  0.00     0.268 C 
HETATM   27  C   UNL     1     -34.861 -50.445  18.973  1.00  0.00     0.037 C 
ENDBRANCH  22  26
ENDBRANCH   1  19
TORSDOF 4
ENDMDL
MODEL 3
REMARK VINA RESULT:      -5.8      3.293      4.305
REMARK  4 active torsions:
REMARK  status: ('A' for Active; 'I' for Inactive)
REMARK    1  A    between atoms: C_2  and  N_3 
REMARK    2  A    between atoms: C_6  and  N_10 
REMARK       I    between atoms: N_10  and  C_11 
REMARK       I    between atoms: C_11  and  N_13 
REMARK    3  A    between atoms: N_13  and  C_14 
REMARK    4  A    between atoms: C_18  and  C_22 
ROOT
HETATM    1  N   UNL     1     -39.034 -48.992  14.665  1.00  0.00    -0.338 N 
HETATM    2  C   UNL     1     -39.721 -49.024  13.472  1.00  0.00     0.321 C 
HETATM    3  O   UNL     1     -39.411 -49.756  12.540  1.00  0.00    -0.247 OA
HETATM    4  N   UNL     1     -40.727 -48.082  13.441  1.00  0.00    -0.306 N 
HETATM    5  H   UNL     1     -39.612 -48.870  15.482  1.00  0.00     0.164 HD
HETATM    6  H   UNL     1     -40.537 -47.261  13.999  1.00  0.00     0.171 HD
ENDROOT
BRANCH   4   7
HETATM    7  C   UNL     1     -41.522 -47.911  12.285  1.00  0.00     0.067 A 
HETATM    8  C   UNL     1     -41.143 -47.142  11.203  1.00  0.00     0.120 A 
HETATM    9  N   UNL     1     -41.922 -46.930  10.122  1.00  0.00    -0.353 N 
HETATM   10  C   UNL     1     -43.142 -47.496  10.128  1.00  0.00     0.088 A 
ATOM     11  HN  UNL     1     -41.600 -46.365   9.336  1.00  0.00     0.166 HD
HETATM   12  N   UNL     1     -43.596 -48.290  11.123  1.00  0.00    -0.353 N 
HETATM   13  C   UNL     1     -42.767 -48.488  12.172  1.00  0.00     0.120 A 
ATOM     14  HN  UNL     1     -44.521 -48.721  11.084  1.00  0.00     0.166 HD
BRANCH  10  15
HETATM   15  C   UNL     1     -44.080 -47.209   8.958  1.00  0.00     0.007 C 
HETATM   16  C   UNL     1     -45.493 -47.782   9.206  1.00  0.00     0.022 C 
HETATM   17  C   UNL     1     -44.197 -45.688   8.768  1.00  0.00     0.022 C 
HETATM   18  C   UNL     1     -43.518 -47.851   7.678  1.00  0.00     0.022 C 
ENDBRANCH  10  15
ENDBRANCH   4   7
BRANCH   1  19
HETATM   19  C   UNL     1     -37.808 -49.785  14.810  1.00  0.00     0.089 C 
HETATM   20  C   UNL     1     -37.996 -51.007  15.712  1.00  0.00     0.055 C 
HETATM   21  C   UNL     1     -37.967 -50.642  17.198  1.00  0.00     0.275 C 
HETATM   22  N   UNL     1     -36.793 -49.849  17.608  1.00  0.00     0.092 N 
HETATM   23  C   UNL     1     -36.716 -48.617  16.788  1.00  0.00     0.221 C 
HETATM   24  C   UNL     1     -36.649 -48.908  15.281  1.00  0.00     0.060 C 
HETATM   25  C   UNL     1     -35.588 -47.663  17.194  1.00  0.00     0.043 C 
BRANCH  22  26
HETATM   26  C   UNL     1     -35.545 -50.631  17.648  1.00  0.00     0.268 C 
HETATM   27  C   UNL     1     -35.023 -50.864  19.064  1.00  0.00     0.037 C 
ENDBRANCH  22  26
ENDBRANCH   1  19
TORSDOF 4
ENDMDL
MODEL 4
REMARK VINA RESULT:      -5.7      3.448      4.573
REMARK  4 active torsions:
REMARK  status: ('A' for Active; 'I' for Inactive)
REMARK    1  A    between atoms: C_2  and  N_3 
REMARK    2  A    between atoms: C_6  and  N_10 
REMARK       I    between atoms: N_10  and  C_11 
REMARK       I    between atoms: C_11  and  N_13 
REMARK    3  A    between atoms: N_13  and  C_14 
REMARK    4  A    between atoms: C_18  and  C_22 
ROOT
HETATM    1  N   UNL     1     -43.738 -51.196  12.830  1.00  0.00    -0.338 N 
HETATM    2  C   UNL     1     -43.172 -49.942  12.772  1.00  0.00     0.321 C 
HETATM    3  O   UNL     1     -43.514 -49.018  13.501  1.00  0.00    -0.247 OA
HETATM    4  N   UNL     1     -42.251 -49.848  11.751  1.00  0.00    -0.306 N 
HETATM    5  H   UNL     1     -43.093 -51.957  12.685  1.00  0.00     0.164 HD
HETATM    6  H   UNL     1     -42.449 -50.451  10.964  1.00  0.00     0.171 HD
ENDROOT
BRANCH   4   7
HETATM    7  C   UNL     1     -41.591 -48.628  11.483  1.00  0.00     0.067 A 
HETATM    8  C   UNL     1     -40.487 -48.185  12.184  1.00  0.00     0.120 A 
HETATM    9  N   UNL     1     -39.888 -46.995  11.969  1.00  0.00    -0.353 N 
HETATM   10  C   UNL     1     -40.426 -46.203  11.024  1.00  0.00     0.088 A 
ATOM     11  HN  UNL     1     -39.065 -46.709  12.500  1.00  0.00     0.166 HD
HETATM   12  N   UNL     1     -41.485 -46.555  10.262  1.00  0.00    -0.353 N 
HETATM   13  C   UNL     1     -42.033 -47.766  10.504  1.00  0.00     0.120 A 
ATOM     14  HN  UNL     1     -41.853 -45.936   9.539  1.00  0.00     0.166 HD
BRANCH  10  15
HETATM   15  C   UNL     1     -39.823 -44.816  10.812  1.00  0.00     0.007 C 
HETATM   16  C   UNL     1     -38.940 -44.389  12.005  1.00  0.00     0.022 C 
HETATM   17  C   UNL     1     -38.954 -44.832   9.544  1.00  0.00     0.022 C 
HETATM   18  C   UNL     1     -40.951 -43.783  10.654  1.00  0.00     0.022 C 
ENDBRANCH  10  15
ENDBRANCH   4   7
BRANCH   1  19
HETATM   19  C   UNL     1     -44.878 -51.430  13.724  1.00  0.00     0.089 C 
HETATM   20  C   UNL     1     -44.509 -51.286  15.203  1.00  0.00     0.055 C 
HETATM   21  C   UNL     1     -43.795 -52.526  15.747  1.00  0.00     0.275 C 
HETATM   22  N   UNL     1     -44.499 -53.796  15.490  1.00  0.00     0.092 N 
HETATM   23  C   UNL     1     -44.730 -53.950  14.035  1.00  0.00     0.221 C 
HETATM   24  C   UNL     1     -45.526 -52.782  13.432  1.00  0.00     0.060 C 
HETATM   25  C   UNL     1     -45.368 -55.285  13.639  1.00  0.00     0.043 C 
BRANCH  22  26
HETATM   26  C   UNL     1     -45.703 -53.974  16.319  1.00  0.00     0.268 C 
HETATM   27  C   UNL     1     -45.403 -54.034  17.816  1.00  0.00     0.037 C 
ENDBRANCH  22  26
ENDBRANCH   1  19
TORSDOF 4
ENDMDL
MODEL 5
REMARK VINA RESULT:      -5.7      3.408      4.705
REMARK  4 active torsions:
REMARK  status: ('A' for Active; 'I' for Inactive)
REMARK    1  A    between atoms: C_2  and  N_3 
REMARK    2  A    between atoms: C_6  and  N_10 
REMARK       I    between atoms: N_10  and  C_11 
REMARK       I    between atoms: C_11  and  N_13 
REMARK    3  A    between atoms: N_13  and  C_14 
REMARK    4  A    between atoms: C_18  and  C_22 
ROOT
HETATM    1  N   UNL     1     -42.314 -51.210  12.190  1.00  0.00    -0.338 N 
HETATM    2  C   UNL     1     -42.148 -49.865  12.429  1.00  0.00     0.321 C 
HETATM    3  O   UNL     1     -42.072 -49.388  13.555  1.00  0.00    -0.247 OA
HETATM    4  N   UNL     1     -42.166 -49.136  11.259  1.00  0.00    -0.306 N 
HETATM    5  H   UNL     1     -41.810 -51.562  11.391  1.00  0.00     0.164 HD
HETATM    6  H   UNL     1     -42.730 -49.548  10.527  1.00  0.00     0.171 HD
ENDROOT
BRANCH   4   7
HETATM    7  C   UNL     1     -42.065 -47.727  11.282  1.00  0.00     0.067 A 
HETATM    8  C   UNL     1     -40.868 -47.044  11.203  1.00  0.00     0.120 A 
HETATM    9  N   UNL     1     -40.761 -45.701  11.282  1.00  0.00    -0.353 N 
HETATM   10  C   UNL     1     -41.900 -45.009  11.467  1.00  0.00     0.088 A 
ATOM     11  HN  UNL     1     -39.858 -45.232  11.206  1.00  0.00     0.166 HD
HETATM   12  N   UNL     1     -43.124 -45.578  11.527  1.00  0.00    -0.353 N 
HETATM   13  C   UNL     1     -43.176 -46.925  11.420  1.00  0.00     0.120 A 
ATOM     14  HN  UNL     1     -43.969 -45.018  11.647  1.00  0.00     0.166 HD
BRANCH  10  15
HETATM   15  C   UNL     1     -41.807 -43.495  11.643  1.00  0.00     0.007 C 
HETATM   16  C   UNL     1     -42.966 -42.765  10.930  1.00  0.00     0.022 C 
HETATM   17  C   UNL     1     -41.866 -43.157  13.141  1.00  0.00     0.022 C 
HETATM   18  C   UNL     1     -40.482 -42.988  11.049  1.00  0.00     0.022 C 
ENDBRANCH  10  15
ENDBRANCH   4   7
BRANCH   1  19
HETATM   19  C   UNL     1     -42.517 -52.122  13.322  1.00  0.00     0.089 C 
HETATM   20  C   UNL     1     -42.729 -53.573  12.883  1.00  0.00     0.055 C 
HETATM   21  C   UNL     1     -44.155 -53.828  12.389  1.00  0.00     0.275 C 
HETATM   22  N   UNL     1     -45.210 -53.390  13.323  1.00  0.00     0.092 N 
HETATM   23  C   UNL     1     -45.036 -51.950  13.628  1.00  0.00     0.221 C 
HETATM   24  C   UNL     1     -43.653 -51.629  14.217  1.00  0.00     0.060 C 
HETATM   25  C   UNL     1     -46.138 -51.359  14.512  1.00  0.00     0.043 C 
BRANCH  22  26
HETATM   26  C   UNL     1     -45.334 -54.252  14.510  1.00  0.00     0.268 C 
HETATM   27  C   UNL     1     -46.712 -54.898  14.647  1.00  0.00     0.037 C 
ENDBRANCH  22  26
ENDBRANCH   1  19
TORSDOF 4
ENDMDL
MODEL 6
REMARK VINA RESULT:      -5.4      2.655      3.313
REMARK  4 active torsions:
REMARK  status: ('A' for Active; 'I' for Inactive)
REMARK    1  A    between atoms: C_2  and  N_3 
REMARK    2  A    between atoms: C_6  and  N_10 
REMARK       I    between atoms: N_10  and  C_11 
REMARK       I    between atoms: C_11  and  N_13 
REMARK    3  A    between atoms: N_13  and  C_14 
REMARK    4  A    between atoms: C_18  and  C_22 
ROOT
HETATM    1  N   UNL     1     -42.929 -51.752  12.544  1.00  0.00    -0.338 N 
HETATM    2  C   UNL     1     -42.141 -50.666  12.234  1.00  0.00     0.321 C 
HETATM    3  O   UNL     1     -40.923 -50.731  12.125  1.00  0.00    -0.247 OA
HETATM    4  N   UNL     1     -42.884 -49.508  12.151  1.00  0.00    -0.306 N 
HETATM    5  H   UNL     1     -43.818 -51.777  12.068  1.00  0.00     0.164 HD
HETATM    6  H   UNL     1     -43.703 -49.503  12.745  1.00  0.00     0.171 HD
ENDROOT
BRANCH   4   7
HETATM    7  C   UNL     1     -42.261 -48.266  11.895  1.00  0.00     0.067 A 
HETATM    8  C   UNL     1     -41.882 -47.845  10.637  1.00  0.00     0.120 A 
HETATM    9  N   UNL     1     -41.236 -46.685  10.395  1.00  0.00    -0.353 N 
HETATM   10  C   UNL     1     -40.940 -45.918  11.459  1.00  0.00     0.088 A 
ATOM     11  HN  UNL     1     -40.983 -46.403   9.447  1.00  0.00     0.166 HD
HETATM   12  N   UNL     1     -41.293 -46.224  12.727  1.00  0.00    -0.353 N 
HETATM   13  C   UNL     1     -41.958 -47.386  12.911  1.00  0.00     0.120 A 
ATOM     14  HN  UNL     1     -41.069 -45.607  13.509  1.00  0.00     0.166 HD
BRANCH  10  15
HETATM   15  C   UNL     1     -40.137 -44.639  11.230  1.00  0.00     0.007 C 
HETATM   16  C   UNL     1     -39.122 -44.391  12.367  1.00  0.00     0.022 C 
HETATM   17  C   UNL     1     -39.367 -44.758   9.905  1.00  0.00     0.022 C 
HETATM   18  C   UNL     1     -41.094 -43.436  11.168  1.00  0.00     0.022 C 
ENDBRANCH  10  15
ENDBRANCH   4   7
BRANCH   1  19
HETATM   19  C   UNL     1     -42.292 -53.034  12.866  1.00  0.00     0.089 C 
HETATM   20  C   UNL     1     -43.306 -54.149  13.131  1.00  0.00     0.055 C 
HETATM   21  C   UNL     1     -43.906 -54.066  14.536  1.00  0.00     0.275 C 
HETATM   22  N   UNL     1     -42.909 -53.978  15.620  1.00  0.00     0.092 N 
HETATM   23  C   UNL     1     -42.022 -52.815  15.385  1.00  0.00     0.221 C 
HETATM   24  C   UNL     1     -41.309 -52.875  14.025  1.00  0.00     0.060 C 
HETATM   25  C   UNL     1     -41.007 -52.564  16.504  1.00  0.00     0.043 C 
BRANCH  22  26
HETATM   26  C   UNL     1     -42.199 -55.245  15.864  1.00  0.00     0.268 C 
HETATM   27  C   UNL     1     -42.432 -55.809  17.265  1.00  0.00     0.037 C 
ENDBRANCH  22  26
ENDBRANCH   1  19
TORSDOF 4
ENDMDL
MODEL 7
REMARK VINA RESULT:      -5.3      3.401      8.680
REMARK  4 active torsions:
REMARK  status: ('A' for Active; 'I' for Inactive)
REMARK    1  A    between atoms: C_2  and  N_3 
REMARK    2  A    between atoms: C_6  and  N_10 
REMARK       I    between atoms: N_10  and  C_11 
REMARK       I    between atoms: C_11  and  N_13 
REMARK    3  A    between atoms: N_13  and  C_14 
REMARK    4  A    between atoms: C_18  and  C_22 
ROOT
HETATM    1  N   UNL     1     -40.669 -47.471  11.344  1.00  0.00    -0.338 N 
HETATM    2  C   UNL     1     -41.581 -48.461  11.635  1.00  0.00     0.321 C 
HETATM    3  O   UNL     1     -42.750 -48.423  11.270  1.00  0.00    -0.247 OA
HETATM    4  N   UNL     1     -41.034 -49.433  12.445  1.00  0.00    -0.306 N 
HETATM    5  H   UNL     1     -39.737 -47.802  11.146  1.00  0.00     0.164 HD
HETATM    6  H   UNL     1     -40.305 -49.092  13.059  1.00  0.00     0.171 HD
ENDROOT
BRANCH   4   7
HETATM    7  C   UNL     1     -41.818 -50.514  12.907  1.00  0.00     0.067 A 
HETATM    8  C   UNL     1     -42.560 -50.479  14.070  1.00  0.00     0.120 A 
HETATM    9  N   UNL     1     -43.264 -51.528  14.544  1.00  0.00    -0.353 N 
HETATM   10  C   UNL     1     -43.210 -52.670  13.835  1.00  0.00     0.088 A 
ATOM     11  HN  UNL     1     -43.812 -51.458  15.402  1.00  0.00     0.166 HD
HETATM   12  N   UNL     1     -42.539 -52.800  12.670  1.00  0.00    -0.353 N 
HETATM   13  C   UNL     1     -41.868 -51.711  12.229  1.00  0.00     0.120 A 
ATOM     14  HN  UNL     1     -42.537 -53.676  12.148  1.00  0.00     0.166 HD
BRANCH  10  15
HETATM   15  C   UNL     1     -43.928 -53.899  14.386  1.00  0.00     0.007 C 
HETATM   16  C   UNL     1     -42.932 -55.003  14.802  1.00  0.00     0.022 C 
HETATM   17  C   UNL     1     -44.749 -53.493  15.621  1.00  0.00     0.022 C 
HETATM   18  C   UNL     1     -44.863 -54.476  13.309  1.00  0.00     0.022 C 
ENDBRANCH  10  15
ENDBRANCH   4   7
BRANCH   1  19
HETATM   19  C   UNL     1     -41.120 -46.256  10.657  1.00  0.00     0.089 C 
HETATM   20  C   UNL     1     -39.965 -45.322  10.285  1.00  0.00     0.055 C 
HETATM   21  C   UNL     1     -39.479 -44.497  11.479  1.00  0.00     0.275 C 
HETATM   22  N   UNL     1     -40.546 -43.772  12.194  1.00  0.00     0.092 N 
HETATM   23  C   UNL     1     -41.585 -44.731  12.638  1.00  0.00     0.221 C 
HETATM   24  C   UNL     1     -42.189 -45.536  11.477  1.00  0.00     0.060 C 
HETATM   25  C   UNL     1     -42.698 -44.103  13.482  1.00  0.00     0.043 C 
BRANCH  22  26
HETATM   26  C   UNL     1     -41.068 -42.615  11.447  1.00  0.00     0.268 C 
HETATM   27  C   UNL     1     -40.630 -41.272  12.030  1.00  0.00     0.037 C 
ENDBRANCH  22  26
ENDBRANCH   1  19
TORSDOF 4
ENDMDL
MODEL 8
REMARK VINA RESULT:      -5.2     15.498     17.627
REMARK  4 active torsions:
REMARK  status: ('A' for Active; 'I' for Inactive)
REMARK    1  A    between atoms: C_2  and  N_3 
REMARK    2  A    between atoms: C_6  and  N_10 
REMARK       I    between atoms: N_10  and  C_11 
REMARK       I    between atoms: C_11  and  N_13 
REMARK    3  A    between atoms: N_13  and  C_14 
REMARK    4  A    between atoms: C_18  and  C_22 
ROOT
HETATM    1  N   UNL     1     -46.442 -48.777  -1.760  1.00  0.00    -0.338 N 
HETATM    2  C   UNL     1     -47.670 -49.359  -1.976  1.00  0.00     0.321 C 
HETATM    3  O   UNL     1     -48.436 -48.999  -2.861  1.00  0.00    -0.247 OA
HETATM    4  N   UNL     1     -47.948 -50.322  -1.029  1.00  0.00    -0.306 N 
HETATM    5  H   UNL     1     -45.712 -49.419  -1.490  1.00  0.00     0.164 HD
HETATM    6  H   UNL     1     -47.518 -50.149  -0.130  1.00  0.00     0.171 HD
ENDROOT
BRANCH   4   7
HETATM    7  C   UNL     1     -49.184 -51.007  -1.036  1.00  0.00     0.067 A 
HETATM    8  C   UNL     1     -49.445 -52.107  -1.827  1.00  0.00     0.120 A 
HETATM    9  N   UNL     1     -50.641 -52.729  -1.879  1.00  0.00    -0.353 N 
HETATM   10  C   UNL     1     -51.628 -52.220  -1.119  1.00  0.00     0.088 A 
ATOM     11  HN  UNL     1     -50.791 -53.549  -2.468  1.00  0.00     0.166 HD
HETATM   12  N   UNL     1     -51.468 -51.166  -0.288  1.00  0.00    -0.353 N 
HETATM   13  C   UNL     1     -50.244 -50.594  -0.259  1.00  0.00     0.120 A 
ATOM     14  HN  UNL     1     -52.234 -50.819   0.290  1.00  0.00     0.166 HD
BRANCH  10  15
HETATM   15  C   UNL     1     -53.015 -52.849  -1.216  1.00  0.00     0.007 C 
HETATM   16  C   UNL     1     -54.083 -51.987  -0.508  1.00  0.00     0.022 C 
HETATM   17  C   UNL     1     -53.404 -52.988  -2.697  1.00  0.00     0.022 C 
HETATM   18  C   UNL     1     -52.999 -54.236  -0.552  1.00  0.00     0.022 C 
ENDBRANCH  10  15
ENDBRANCH   4   7
BRANCH   1  19
HETATM   19  C   UNL     1     -46.055 -47.599  -2.546  1.00  0.00     0.089 C 
HETATM   20  C   UNL     1     -45.423 -47.966  -3.891  1.00  0.00     0.055 C 
HETATM   21  C   UNL     1     -43.958 -48.383  -3.749  1.00  0.00     0.275 C 
HETATM   22  N   UNL     1     -43.120 -47.423  -3.006  1.00  0.00     0.092 N 
HETATM   23  C   UNL     1     -43.706 -47.187  -1.666  1.00  0.00     0.221 C 
HETATM   24  C   UNL     1     -45.153 -46.676  -1.729  1.00  0.00     0.060 C 
HETATM   25  C   UNL     1     -42.863 -46.280  -0.764  1.00  0.00     0.043 C 
BRANCH  22  26
HETATM   26  C   UNL     1     -42.826 -46.195  -3.766  1.00  0.00     0.268 C 
HETATM   27  C   UNL     1     -41.352 -46.053  -4.139  1.00  0.00     0.037 C 
ENDBRANCH  22  26
ENDBRANCH   1  19
TORSDOF 4
ENDMDL
MODEL 9
REMARK VINA RESULT:      -5.2     14.983     16.562
REMARK  4 active torsions:
REMARK  status: ('A' for Active; 'I' for Inactive)
REMARK    1  A    between atoms: C_2  and  N_3 
REMARK    2  A    between atoms: C_6  and  N_10 
REMARK       I    between atoms: N_10  and  C_11 
REMARK       I    between atoms: C_11  and  N_13 
REMARK    3  A    between atoms: N_13  and  C_14 
REMARK    4  A    between atoms: C_18  and  C_22 
ROOT
HETATM    1  N   UNL     1     -50.808 -51.278  -0.760  1.00  0.00    -0.338 N 
HETATM    2  C   UNL     1     -50.435 -50.226   0.047  1.00  0.00     0.321 C 
HETATM    3  O   UNL     1     -49.688 -50.352   1.010  1.00  0.00    -0.247 OA
HETATM    4  N   UNL     1     -51.070 -49.058  -0.316  1.00  0.00    -0.306 N 
HETATM    5  H   UNL     1     -50.885 -51.051  -1.740  1.00  0.00     0.164 HD
HETATM    6  H   UNL     1     -51.981 -49.199  -0.732  1.00  0.00     0.171 HD
ENDROOT
BRANCH   4   7
HETATM    7  C   UNL     1     -50.870 -47.867   0.417  1.00  0.00     0.067 A 
HETATM    8  C   UNL     1     -51.689 -47.458   1.450  1.00  0.00     0.120 A 
HETATM    9  N   UNL     1     -51.535 -46.294   2.115  1.00  0.00    -0.353 N 
HETATM   10  C   UNL     1     -50.528 -45.494   1.722  1.00  0.00     0.088 A 
ATOM     11  HN  UNL     1     -52.155 -46.033   2.882  1.00  0.00     0.166 HD
HETATM   12  N   UNL     1     -49.652 -45.816   0.744  1.00  0.00    -0.353 N 
HETATM   13  C   UNL     1     -49.839 -47.003   0.125  1.00  0.00     0.120 A 
ATOM     14  HN  UNL     1     -48.886 -45.193   0.486  1.00  0.00     0.166 HD
BRANCH  10  15
HETATM   15  C   UNL     1     -50.375 -44.134   2.398  1.00  0.00     0.007 C 
HETATM   16  C   UNL     1     -49.222 -44.134   3.425  1.00  0.00     0.022 C 
HETATM   17  C   UNL     1     -50.078 -43.070   1.330  1.00  0.00     0.022 C 
HETATM   18  C   UNL     1     -51.677 -43.778   3.137  1.00  0.00     0.022 C 
ENDBRANCH  10  15
ENDBRANCH   4   7
BRANCH   1  19
HETATM   19  C   UNL     1     -50.388 -52.639  -0.408  1.00  0.00     0.089 C 
HETATM   20  C   UNL     1     -48.965 -52.959  -0.874  1.00  0.00     0.055 C 
HETATM   21  C   UNL     1     -48.906 -53.299  -2.365  1.00  0.00     0.275 C 
HETATM   22  N   UNL     1     -49.858 -54.343  -2.790  1.00  0.00     0.092 N 
HETATM   23  C   UNL     1     -51.235 -53.937  -2.424  1.00  0.00     0.221 C 
HETATM   24  C   UNL     1     -51.396 -53.666  -0.920  1.00  0.00     0.060 C 
HETATM   25  C   UNL     1     -52.323 -54.901  -2.908  1.00  0.00     0.043 C 
BRANCH  22  26
HETATM   26  C   UNL     1     -49.482 -55.694  -2.340  1.00  0.00     0.268 C 
HETATM   27  C   UNL     1     -48.884 -56.556  -3.450  1.00  0.00     0.037 C 
ENDBRANCH  22  26
ENDBRANCH   1  19
TORSDOF 4
ENDMDL
