MODEL 1
REMARK VINA RESULT:      -6.5      0.000      0.000
REMARK  4 active torsions:
REMARK  status: ('A' for Active; 'I' for Inactive)
REMARK       I    between atoms: N_2  and  C_3 
REMARK    1  A    between atoms: C_3  and  C_5 
REMARK    2  A    between atoms: C_5  and  N_6 
REMARK    3  A    between atoms: C_9  and  N_12 
REMARK       I    between atoms: N_12  and  C_13 
REMARK       I    between atoms: C_13  and  N_15 
REMARK    4  A    between atoms: N_15  and  C_16 
ROOT
HETATM    1  N   UNL     1     -43.585 -49.504  12.442  1.00  0.00    -0.338 N 
HETATM    2  C   UNL     1     -44.018 -50.523  13.262  1.00  0.00     0.321 C 
HETATM    3  O   UNL     1     -43.672 -50.636  14.433  1.00  0.00    -0.247 OA
HETATM    4  N   UNL     1     -44.796 -51.421  12.567  1.00  0.00    -0.308 N 
HETATM    5  H   UNL     1     -44.281 -49.186  11.782  1.00  0.00     0.164 HD
HETATM    6  H   UNL     1     -44.549 -51.490  11.589  1.00  0.00     0.170 HD
ENDROOT
BRANCH   1   7
HETATM    7  C   UNL     1     -42.617 -48.526  12.931  1.00  0.00     0.089 C 
HETATM    8  C   UNL     1     -43.004 -47.092  12.563  1.00  0.00     0.055 C 
HETATM    9  C   UNL     1     -42.725 -46.793  11.092  1.00  0.00     0.275 C 
HETATM   10  N   UNL     1     -41.339 -47.059  10.665  1.00  0.00     0.097 N 
HETATM   11  C   UNL     1     -40.975 -48.454  10.979  1.00  0.00     0.275 C 
HETATM   12  C   UNL     1     -41.206 -48.860  12.439  1.00  0.00     0.055 C 
BRANCH  10  13
HETATM   13  C   UNL     1     -40.347 -46.124  11.267  1.00  0.00     0.374 C 
BRANCH  13  14
HETATM   14  C   UNL     1     -39.909 -45.001  10.318  1.00  0.00     0.245 C 
HETATM   15  N   UNL     1     -38.939 -45.348   9.406  1.00  0.00    -0.364 N 
HETATM   16  C   UNL     1     -38.419 -44.400   8.457  1.00  0.00     0.149 C 
HETATM   17  H   UNL     1     -38.654 -46.322   9.385  1.00  0.00     0.161 HD
HETATM   18  O   UNL     1     -40.356 -43.861  10.420  1.00  0.00    -0.272 OA
ENDBRANCH  13  14
ENDBRANCH  10  13
ENDBRANCH   1   7
BRANCH   4  19
HETATM   19  C   UNL     1     -45.315 -52.584  13.172  1.00  0.00     0.051 A 
HETATM   20  C   UNL     1     -44.599 -53.775  13.067  1.00  0.00     0.032 A 
HETATM   21  C   UNL     1     -45.067 -54.914  13.720  1.00  0.00     0.019 A 
HETATM   22  C   UNL     1     -46.267 -54.835  14.408  1.00  0.00     0.088 A 
HETATM   23  N   UNL     1     -47.012 -53.712  14.491  1.00  0.00    -0.373 N 
HETATM   24  C   UNL     1     -46.510 -52.607  13.887  1.00  0.00     0.117 A 
ATOM     25  HN  UNL     1     -47.905 -53.697  14.981  1.00  0.00     0.164 HD
ENDBRANCH   4  19
TORSDOF 4
ENDMDL
MODEL 2
REMARK VINA RESULT:      -6.3      0.944      1.489
REMARK  4 active torsions:
REMARK  status: ('A' for Active; 'I' for Inactive)
REMARK       I    between atoms: N_2  and  C_3 
REMARK    1  A    between atoms: C_3  and  C_5 
REMARK    2  A    between atoms: C_5  and  N_6 
REMARK    3  A    between atoms: C_9  and  N_12 
REMARK       I    between atoms: N_12  and  C_13 
REMARK       I    between atoms: C_13  and  N_15 
REMARK    4  A    between atoms: N_15  and  C_16 
ROOT
HETATM    1  N   UNL     1     -43.225 -49.397  12.125  1.00  0.00    -0.338 N 
HETATM    2  C   UNL     1     -43.637 -50.390  12.988  1.00  0.00     0.321 C 
HETATM    3  O   UNL     1     -42.900 -50.904  13.823  1.00  0.00    -0.247 OA
HETATM    4  N   UNL     1     -44.932 -50.774  12.718  1.00  0.00    -0.308 N 
HETATM    5  H   UNL     1     -43.938 -48.712  11.920  1.00  0.00     0.164 HD
HETATM    6  H   UNL     1     -45.184 -50.670  11.745  1.00  0.00     0.170 HD
ENDROOT
BRANCH   1   7
HETATM    7  C   UNL     1     -41.835 -48.951  12.126  1.00  0.00     0.089 C 
HETATM    8  C   UNL     1     -41.567 -47.889  13.194  1.00  0.00     0.055 C 
HETATM    9  C   UNL     1     -42.117 -46.525  12.782  1.00  0.00     0.275 C 
HETATM   10  N   UNL     1     -41.642 -46.044  11.472  1.00  0.00     0.097 N 
HETATM   11  C   UNL     1     -41.937 -47.047  10.431  1.00  0.00     0.275 C 
HETATM   12  C   UNL     1     -41.418 -48.457  10.738  1.00  0.00     0.055 C 
BRANCH  10  13
HETATM   13  C   UNL     1     -40.192 -45.704  11.459  1.00  0.00     0.374 C 
BRANCH  13  14
HETATM   14  C   UNL     1     -39.799 -44.742  10.331  1.00  0.00     0.245 C 
HETATM   15  N   UNL     1     -38.876 -45.232   9.435  1.00  0.00    -0.364 N 
HETATM   16  C   UNL     1     -38.401 -44.443   8.330  1.00  0.00     0.149 C 
HETATM   17  H   UNL     1     -38.596 -46.202   9.548  1.00  0.00     0.161 HD
HETATM   18  O   UNL     1     -40.236 -43.595  10.281  1.00  0.00    -0.272 OA
ENDBRANCH  13  14
ENDBRANCH  10  13
ENDBRANCH   1   7
BRANCH   4  19
HETATM   19  C   UNL     1     -45.564 -51.814  13.429  1.00  0.00     0.051 A 
HETATM   20  C   UNL     1     -46.342 -51.496  14.542  1.00  0.00     0.032 A 
HETATM   21  C   UNL     1     -47.028 -52.509  15.209  1.00  0.00     0.019 A 
HETATM   22  C   UNL     1     -46.865 -53.815  14.774  1.00  0.00     0.088 A 
HETATM   23  N   UNL     1     -46.082 -54.166  13.732  1.00  0.00    -0.373 N 
HETATM   24  C   UNL     1     -45.464 -53.157  13.071  1.00  0.00     0.117 A 
ATOM     25  HN  UNL     1     -45.962 -55.141  13.457  1.00  0.00     0.164 HD
ENDBRANCH   4  19
TORSDOF 4
ENDMDL
MODEL 3
REMARK VINA RESULT:      -5.6      5.500      7.007
REMARK  4 active torsions:
REMARK  status: ('A' for Active; 'I' for Inactive)
REMARK       I    between atoms: N_2  and  C_3 
REMARK    1  A    between atoms: C_3  and  C_5 
REMARK    2  A    between atoms: C_5  and  N_6 
REMARK    3  A    between atoms: C_9  and  N_12 
REMARK       I    between atoms: N_12  and  C_13 
REMARK       I    between atoms: C_13  and  N_15 
REMARK    4  A    between atoms: N_15  and  C_16 
ROOT
HETATM    1  N   UNL     1     -42.518 -44.714  11.004  1.00  0.00    -0.338 N 
HETATM    2  C   UNL     1     -43.326 -45.209  10.004  1.00  0.00     0.321 C 
HETATM    3  O   UNL     1     -43.861 -44.500   9.159  1.00  0.00    -0.247 OA
HETATM    4  N   UNL     1     -43.513 -46.566  10.145  1.00  0.00    -0.308 N 
HETATM    5  H   UNL     1     -41.749 -45.321  11.248  1.00  0.00     0.164 HD
HETATM    6  H   UNL     1     -43.476 -46.875  11.107  1.00  0.00     0.170 HD
ENDROOT
BRANCH   1   7
HETATM    7  C   UNL     1     -42.316 -43.274  11.142  1.00  0.00     0.089 C 
HETATM    8  C   UNL     1     -40.834 -42.899  11.197  1.00  0.00     0.055 C 
HETATM    9  C   UNL     1     -40.221 -43.224  12.557  1.00  0.00     0.275 C 
HETATM   10  N   UNL     1     -40.927 -42.628  13.705  1.00  0.00     0.097 N 
HETATM   11  C   UNL     1     -42.348 -43.021  13.681  1.00  0.00     0.275 C 
HETATM   12  C   UNL     1     -43.069 -42.729  12.359  1.00  0.00     0.055 C 
BRANCH  10  13
HETATM   13  C   UNL     1     -40.809 -41.144  13.765  1.00  0.00     0.374 C 
BRANCH  13  14
HETATM   14  C   UNL     1     -40.150 -40.633  15.053  1.00  0.00     0.245 C 
HETATM   15  N   UNL     1     -40.846 -40.893  16.211  1.00  0.00    -0.364 N 
HETATM   16  C   UNL     1     -40.361 -40.467  17.497  1.00  0.00     0.149 C 
HETATM   17  H   UNL     1     -41.684 -41.460  16.127  1.00  0.00     0.161 HD
HETATM   18  O   UNL     1     -39.108 -39.983  15.029  1.00  0.00    -0.272 OA
ENDBRANCH  13  14
ENDBRANCH  10  13
ENDBRANCH   1   7
BRANCH   4  19
HETATM   19  C   UNL     1     -44.347 -47.298   9.276  1.00  0.00     0.051 A 
HETATM   20  C   UNL     1     -45.666 -47.543   9.654  1.00  0.00     0.032 A 
HETATM   21  C   UNL     1     -46.518 -48.205   8.772  1.00  0.00     0.019 A 
HETATM   22  C   UNL     1     -46.003 -48.651   7.565  1.00  0.00     0.088 A 
HETATM   23  N   UNL     1     -44.720 -48.476   7.187  1.00  0.00    -0.373 N 
HETATM   24  C   UNL     1     -43.924 -47.787   8.042  1.00  0.00     0.117 A 
ATOM     25  HN  UNL     1     -44.367 -48.843   6.303  1.00  0.00     0.164 HD
ENDBRANCH   4  19
TORSDOF 4
ENDMDL
MODEL 4
REMARK VINA RESULT:      -5.5      5.050      6.750
REMARK  4 active torsions:
REMARK  status: ('A' for Active; 'I' for Inactive)
REMARK       I    between atoms: N_2  and  C_3 
REMARK    1  A    between atoms: C_3  and  C_5 
REMARK    2  A    between atoms: C_5  and  N_6 
REMARK    3  A    between atoms: C_9  and  N_12 
REMARK       I    between atoms: N_12  and  C_13 
REMARK       I    between atoms: C_13  and  N_15 
REMARK    4  A    between atoms: N_15  and  C_16 
ROOT
HETATM    1  N   UNL     1     -39.912 -47.029  12.495  1.00  0.00    -0.338 N 
HETATM    2  C   UNL     1     -39.004 -47.935  12.998  1.00  0.00     0.321 C 
HETATM    3  O   UNL     1     -38.391 -48.733  12.296  1.00  0.00    -0.247 OA
HETATM    4  N   UNL     1     -38.956 -47.877  14.372  1.00  0.00    -0.308 N 
HETATM    5  H   UNL     1     -39.916 -46.141  12.978  1.00  0.00     0.164 HD
HETATM    6  H   UNL     1     -39.834 -47.600  14.790  1.00  0.00     0.170 HD
ENDROOT
BRANCH   1   7
HETATM    7  C   UNL     1     -40.242 -47.028  11.072  1.00  0.00     0.089 C 
HETATM    8  C   UNL     1     -40.528 -45.622  10.544  1.00  0.00     0.055 C 
HETATM    9  C   UNL     1     -41.907 -45.129  10.972  1.00  0.00     0.275 C 
HETATM   10  N   UNL     1     -43.018 -46.029  10.615  1.00  0.00     0.097 N 
HETATM   11  C   UNL     1     -42.768 -47.377  11.159  1.00  0.00     0.275 C 
HETATM   12  C   UNL     1     -41.408 -47.976  10.780  1.00  0.00     0.055 C 
BRANCH  10  13
HETATM   13  C   UNL     1     -43.264 -46.109   9.148  1.00  0.00     0.374 C 
BRANCH  13  14
HETATM   14  C   UNL     1     -44.485 -46.960   8.777  1.00  0.00     0.245 C 
HETATM   15  N   UNL     1     -45.681 -46.538   9.312  1.00  0.00    -0.364 N 
HETATM   16  C   UNL     1     -46.911 -47.239   9.063  1.00  0.00     0.149 C 
HETATM   17  H   UNL     1     -45.669 -45.667   9.835  1.00  0.00     0.161 HD
HETATM   18  O   UNL     1     -44.378 -47.981   8.102  1.00  0.00    -0.272 OA
ENDBRANCH  13  14
ENDBRANCH  10  13
ENDBRANCH   1   7
BRANCH   4  19
HETATM   19  C   UNL     1     -38.142 -48.745  15.128  1.00  0.00     0.051 A 
HETATM   20  C   UNL     1     -36.834 -48.359  15.421  1.00  0.00     0.032 A 
HETATM   21  C   UNL     1     -36.044 -49.177  16.225  1.00  0.00     0.019 A 
HETATM   22  C   UNL     1     -36.571 -50.382  16.662  1.00  0.00     0.088 A 
HETATM   23  N   UNL     1     -37.814 -50.811  16.358  1.00  0.00    -0.373 N 
HETATM   24  C   UNL     1     -38.579 -49.975  15.614  1.00  0.00     0.117 A 
ATOM     25  HN  UNL     1     -38.159 -51.718  16.672  1.00  0.00     0.164 HD
ENDBRANCH   4  19
TORSDOF 4
ENDMDL
MODEL 5
REMARK VINA RESULT:      -5.4      4.835      5.564
REMARK  4 active torsions:
REMARK  status: ('A' for Active; 'I' for Inactive)
REMARK       I    between atoms: N_2  and  C_3 
REMARK    1  A    between atoms: C_3  and  C_5 
REMARK    2  A    between atoms: C_5  and  N_6 
REMARK    3  A    between atoms: C_9  and  N_12 
REMARK       I    between atoms: N_12  and  C_13 
REMARK       I    between atoms: C_13  and  N_15 
REMARK    4  A    between atoms: N_15  and  C_16 
ROOT
HETATM    1  N   UNL     1     -39.767 -51.848  14.074  1.00  0.00    -0.338 N 
HETATM    2  C   UNL     1     -39.427 -53.144  14.393  1.00  0.00     0.321 C 
HETATM    3  O   UNL     1     -39.000 -53.949  13.573  1.00  0.00    -0.247 OA
HETATM    4  N   UNL     1     -39.717 -53.422  15.710  1.00  0.00    -0.308 N 
HETATM    5  H   UNL     1     -39.562 -51.179  14.803  1.00  0.00     0.164 HD
HETATM    6  H   UNL     1     -40.502 -52.894  16.065  1.00  0.00     0.170 HD
ENDROOT
BRANCH   1   7
HETATM    7  C   UNL     1     -39.694 -51.387  12.690  1.00  0.00     0.089 C 
HETATM    8  C   UNL     1     -39.082 -49.989  12.576  1.00  0.00     0.055 C 
HETATM    9  C   UNL     1     -40.071 -48.906  12.997  1.00  0.00     0.275 C 
HETATM   10  N   UNL     1     -41.360 -48.943  12.285  1.00  0.00     0.097 N 
HETATM   11  C   UNL     1     -41.976 -50.276  12.428  1.00  0.00     0.275 C 
HETATM   12  C   UNL     1     -41.070 -51.444  12.020  1.00  0.00     0.055 C 
BRANCH  10  13
HETATM   13  C   UNL     1     -41.249 -48.584  10.843  1.00  0.00     0.374 C 
BRANCH  13  14
HETATM   14  C   UNL     1     -42.523 -47.952  10.269  1.00  0.00     0.245 C 
HETATM   15  N   UNL     1     -42.694 -48.103   8.912  1.00  0.00    -0.364 N 
HETATM   16  C   UNL     1     -43.835 -47.556   8.227  1.00  0.00     0.149 C 
HETATM   17  H   UNL     1     -42.014 -48.678   8.424  1.00  0.00     0.161 HD
HETATM   18  O   UNL     1     -43.295 -47.304  10.973  1.00  0.00    -0.272 OA
ENDBRANCH  13  14
ENDBRANCH  10  13
ENDBRANCH   1   7
BRANCH   4  19
HETATM   19  C   UNL     1     -39.512 -54.701  16.266  1.00  0.00     0.051 A 
HETATM   20  C   UNL     1     -38.244 -55.035  16.740  1.00  0.00     0.032 A 
HETATM   21  C   UNL     1     -38.048 -56.270  17.354  1.00  0.00     0.019 A 
HETATM   22  C   UNL     1     -39.114 -57.153  17.421  1.00  0.00     0.088 A 
HETATM   23  N   UNL     1     -40.342 -56.884  16.929  1.00  0.00    -0.373 N 
HETATM   24  C   UNL     1     -40.519 -55.657  16.379  1.00  0.00     0.117 A 
ATOM     25  HN  UNL     1     -41.097 -57.568  16.968  1.00  0.00     0.164 HD
ENDBRANCH   4  19
TORSDOF 4
ENDMDL
MODEL 6
REMARK VINA RESULT:      -5.1     15.217     16.784
REMARK  4 active torsions:
REMARK  status: ('A' for Active; 'I' for Inactive)
REMARK       I    between atoms: N_2  and  C_3 
REMARK    1  A    between atoms: C_3  and  C_5 
REMARK    2  A    between atoms: C_5  and  N_6 
REMARK    3  A    between atoms: C_9  and  N_12 
REMARK       I    between atoms: N_12  and  C_13 
REMARK       I    between atoms: C_13  and  N_15 
REMARK    4  A    between atoms: N_15  and  C_16 
ROOT
HETATM    1  N   UNL     1     -50.385 -51.040  -0.596  1.00  0.00    -0.338 N 
HETATM    2  C   UNL     1     -50.300 -50.086   0.394  1.00  0.00     0.321 C 
HETATM    3  O   UNL     1     -49.908 -50.330   1.530  1.00  0.00    -0.247 OA
HETATM    4  N   UNL     1     -50.793 -48.876  -0.040  1.00  0.00    -0.308 N 
HETATM    5  H   UNL     1     -50.168 -50.692  -1.520  1.00  0.00     0.164 HD
HETATM    6  H   UNL     1     -51.522 -48.969  -0.734  1.00  0.00     0.170 HD
ENDROOT
BRANCH   1   7
HETATM    7  C   UNL     1     -50.066 -52.435  -0.305  1.00  0.00     0.089 C 
HETATM    8  C   UNL     1     -48.664 -52.821  -0.781  1.00  0.00     0.055 C 
HETATM    9  C   UNL     1     -48.616 -53.014  -2.294  1.00  0.00     0.275 C 
HETATM   10  N   UNL     1     -49.601 -53.976  -2.820  1.00  0.00     0.097 N 
HETATM   11  C   UNL     1     -50.960 -53.584  -2.400  1.00  0.00     0.275 C 
HETATM   12  C   UNL     1     -51.125 -53.373  -0.890  1.00  0.00     0.055 C 
BRANCH  10  13
HETATM   13  C   UNL     1     -49.328 -55.383  -2.415  1.00  0.00     0.374 C 
BRANCH  13  14
HETATM   14  C   UNL     1     -49.238 -56.355  -3.598  1.00  0.00     0.245 C 
HETATM   15  N   UNL     1     -47.968 -56.779  -3.916  1.00  0.00    -0.364 N 
HETATM   16  C   UNL     1     -47.723 -57.683  -5.007  1.00  0.00     0.149 C 
HETATM   17  H   UNL     1     -47.216 -56.479  -3.302  1.00  0.00     0.161 HD
HETATM   18  O   UNL     1     -50.232 -56.674  -4.247  1.00  0.00    -0.272 OA
ENDBRANCH  13  14
ENDBRANCH  10  13
ENDBRANCH   1   7
BRANCH   4  19
HETATM   19  C   UNL     1     -50.867 -47.753   0.809  1.00  0.00     0.051 A 
HETATM   20  C   UNL     1     -49.764 -46.905   0.903  1.00  0.00     0.032 A 
HETATM   21  C   UNL     1     -49.852 -45.754   1.684  1.00  0.00     0.019 A 
HETATM   22  C   UNL     1     -51.021 -45.522   2.391  1.00  0.00     0.088 A 
HETATM   23  N   UNL     1     -52.090 -46.345   2.362  1.00  0.00    -0.373 N 
HETATM   24  C   UNL     1     -51.997 -47.433   1.558  1.00  0.00     0.117 A 
ATOM     25  HN  UNL     1     -52.924 -46.159   2.918  1.00  0.00     0.164 HD
ENDBRANCH   4  19
TORSDOF 4
ENDMDL
MODEL 7
REMARK VINA RESULT:      -5.0      6.429      7.685
REMARK  4 active torsions:
REMARK  status: ('A' for Active; 'I' for Inactive)
REMARK       I    between atoms: N_2  and  C_3 
REMARK    1  A    between atoms: C_3  and  C_5 
REMARK    2  A    between atoms: C_5  and  N_6 
REMARK    3  A    between atoms: C_9  and  N_12 
REMARK       I    between atoms: N_12  and  C_13 
REMARK       I    between atoms: C_13  and  N_15 
REMARK    4  A    between atoms: N_15  and  C_16 
ROOT
HETATM    1  N   UNL     1     -39.780 -54.579  15.587  1.00  0.00    -0.338 N 
HETATM    2  C   UNL     1     -39.038 -55.604  16.133  1.00  0.00     0.321 C 
HETATM    3  O   UNL     1     -38.028 -56.057  15.605  1.00  0.00    -0.247 OA
HETATM    4  N   UNL     1     -39.633 -56.091  17.275  1.00  0.00    -0.308 N 
HETATM    5  H   UNL     1     -40.180 -53.953  16.272  1.00  0.00     0.164 HD
HETATM    6  H   UNL     1     -40.640 -56.006  17.267  1.00  0.00     0.170 HD
ENDROOT
BRANCH   1   7
HETATM    7  C   UNL     1     -39.420 -54.021  14.286  1.00  0.00     0.089 C 
HETATM    8  C   UNL     1     -39.299 -52.496  14.323  1.00  0.00     0.055 C 
HETATM    9  C   UNL     1     -40.669 -51.823  14.352  1.00  0.00     0.275 C 
HETATM   10  N   UNL     1     -41.572 -52.224  13.258  1.00  0.00     0.097 N 
HETATM   11  C   UNL     1     -41.726 -53.691  13.245  1.00  0.00     0.275 C 
HETATM   12  C   UNL     1     -40.406 -54.471  13.205  1.00  0.00     0.055 C 
BRANCH  10  13
HETATM   13  C   UNL     1     -41.126 -51.745  11.920  1.00  0.00     0.374 C 
BRANCH  13  14
HETATM   14  C   UNL     1     -41.127 -50.217  11.783  1.00  0.00     0.245 C 
HETATM   15  N   UNL     1     -42.371 -49.636  11.695  1.00  0.00    -0.364 N 
HETATM   16  C   UNL     1     -42.533 -48.214  11.553  1.00  0.00     0.149 C 
HETATM   17  H   UNL     1     -43.174 -50.249  11.805  1.00  0.00     0.161 HD
HETATM   18  O   UNL     1     -40.081 -49.578  11.695  1.00  0.00    -0.272 OA
ENDBRANCH  13  14
ENDBRANCH  10  13
ENDBRANCH   1   7
BRANCH   4  19
HETATM   19  C   UNL     1     -39.095 -57.181  17.989  1.00  0.00     0.051 A 
HETATM   20  C   UNL     1     -38.154 -56.935  18.988  1.00  0.00     0.032 A 
HETATM   21  C   UNL     1     -37.669 -57.998  19.747  1.00  0.00     0.019 A 
HETATM   22  C   UNL     1     -38.099 -59.280  19.440  1.00  0.00     0.088 A 
HETATM   23  N   UNL     1     -38.970 -59.561  18.449  1.00  0.00    -0.373 N 
HETATM   24  C   UNL     1     -39.464 -58.504  17.757  1.00  0.00     0.117 A 
ATOM     25  HN  UNL     1     -39.243 -60.519  18.231  1.00  0.00     0.164 HD
ENDBRANCH   4  19
TORSDOF 4
ENDMDL
MODEL 8
REMARK VINA RESULT:      -4.9      4.500      5.294
REMARK  4 active torsions:
REMARK  status: ('A' for Active; 'I' for Inactive)
REMARK       I    between atoms: N_2  and  C_3 
REMARK    1  A    between atoms: C_3  and  C_5 
REMARK    2  A    between atoms: C_5  and  N_6 
REMARK    3  A    between atoms: C_9  and  N_12 
REMARK       I    between atoms: N_12  and  C_13 
REMARK       I    between atoms: C_13  and  N_15 
REMARK    4  A    between atoms: N_15  and  C_16 
ROOT
HETATM    1  N   UNL     1     -39.968 -50.367  13.565  1.00  0.00    -0.338 N 
HETATM    2  C   UNL     1     -39.168 -51.432  13.918  1.00  0.00     0.321 C 
HETATM    3  O   UNL     1     -38.146 -51.735  13.311  1.00  0.00    -0.247 OA
HETATM    4  N   UNL     1     -39.719 -52.140  14.962  1.00  0.00    -0.308 N 
HETATM    5  H   UNL     1     -40.387 -49.891  14.352  1.00  0.00     0.164 HD
HETATM    6  H   UNL     1     -40.729 -52.107  14.977  1.00  0.00     0.170 HD
ENDROOT
BRANCH   1   7
HETATM    7  C   UNL     1     -39.657 -49.573  12.379  1.00  0.00     0.089 C 
HETATM    8  C   UNL     1     -39.413 -48.101  12.714  1.00  0.00     0.055 C 
HETATM    9  C   UNL     1     -40.719 -47.364  12.997  1.00  0.00     0.275 C 
HETATM   10  N   UNL     1     -41.726 -47.469  11.926  1.00  0.00     0.097 N 
HETATM   11  C   UNL     1     -41.997 -48.888  11.628  1.00  0.00     0.275 C 
HETATM   12  C   UNL     1     -40.750 -49.724  11.318  1.00  0.00     0.055 C 
BRANCH  10  13
HETATM   13  C   UNL     1     -41.339 -46.751  10.679  1.00  0.00     0.374 C 
BRANCH  13  14
HETATM   14  C   UNL     1     -42.481 -45.931  10.065  1.00  0.00     0.245 C 
HETATM   15  N   UNL     1     -43.501 -46.669   9.509  1.00  0.00    -0.364 N 
HETATM   16  C   UNL     1     -44.635 -46.042   8.885  1.00  0.00     0.149 C 
HETATM   17  H   UNL     1     -43.452 -47.677   9.619  1.00  0.00     0.161 HD
HETATM   18  O   UNL     1     -42.443 -44.703  10.023  1.00  0.00    -0.272 OA
ENDBRANCH  13  14
ENDBRANCH  10  13
ENDBRANCH   1   7
BRANCH   4  19
HETATM   19  C   UNL     1     -39.116 -53.309  15.470  1.00  0.00     0.051 A 
HETATM   20  C   UNL     1     -38.643 -53.309  16.781  1.00  0.00     0.032 A 
HETATM   21  C   UNL     1     -38.110 -54.480  17.316  1.00  0.00     0.019 A 
HETATM   22  C   UNL     1     -38.015 -55.596  16.500  1.00  0.00     0.088 A 
HETATM   23  N   UNL     1     -38.418 -55.619  15.212  1.00  0.00    -0.373 N 
HETATM   24  C   UNL     1     -38.977 -54.482  14.731  1.00  0.00     0.117 A 
ATOM     25  HN  UNL     1     -38.307 -56.450  14.631  1.00  0.00     0.164 HD
ENDBRANCH   4  19
TORSDOF 4
ENDMDL
MODEL 9
REMARK VINA RESULT:      -4.8      6.932      9.107
REMARK  4 active torsions:
REMARK  status: ('A' for Active; 'I' for Inactive)
REMARK       I    between atoms: N_2  and  C_3 
REMARK    1  A    between atoms: C_3  and  C_5 
REMARK    2  A    between atoms: C_5  and  N_6 
REMARK    3  A    between atoms: C_9  and  N_12 
REMARK       I    between atoms: N_12  and  C_13 
REMARK       I    between atoms: C_13  and  N_15 
REMARK    4  A    between atoms: N_15  and  C_16 
ROOT
HETATM    1  N   UNL     1     -39.646 -54.235  15.770  1.00  0.00    -0.338 N 
HETATM    2  C   UNL     1     -38.630 -55.046  16.228  1.00  0.00     0.321 C 
HETATM    3  O   UNL     1     -38.178 -55.986  15.585  1.00  0.00    -0.247 OA
HETATM    4  N   UNL     1     -38.273 -54.711  17.515  1.00  0.00    -0.308 N 
HETATM    5  H   UNL     1     -39.557 -53.268  16.050  1.00  0.00     0.164 HD
HETATM    6  H   UNL     1     -39.037 -54.331  18.055  1.00  0.00     0.170 HD
ENDROOT
BRANCH   1   7
HETATM    7  C   UNL     1     -40.290 -54.514  14.490  1.00  0.00     0.089 C 
HETATM    8  C   UNL     1     -39.988 -53.440  13.443  1.00  0.00     0.055 C 
HETATM    9  C   UNL     1     -40.795 -52.168  13.693  1.00  0.00     0.275 C 
HETATM   10  N   UNL     1     -42.251 -52.375  13.788  1.00  0.00     0.097 N 
HETATM   11  C   UNL     1     -42.550 -53.379  14.827  1.00  0.00     0.275 C 
HETATM   12  C   UNL     1     -41.799 -54.706  14.666  1.00  0.00     0.055 C 
BRANCH  10  13
HETATM   13  C   UNL     1     -42.876 -52.775  12.496  1.00  0.00     0.374 C 
BRANCH  13  14
HETATM   14  C   UNL     1     -44.404 -52.896  12.566  1.00  0.00     0.245 C 
HETATM   15  N   UNL     1     -45.077 -51.715  12.777  1.00  0.00    -0.364 N 
HETATM   16  C   UNL     1     -46.511 -51.669  12.876  1.00  0.00     0.149 C 
HETATM   17  H   UNL     1     -44.522 -50.864  12.791  1.00  0.00     0.161 HD
HETATM   18  O   UNL     1     -44.967 -53.986  12.500  1.00  0.00    -0.272 OA
ENDBRANCH  13  14
ENDBRANCH  10  13
ENDBRANCH   1   7
BRANCH   4  19
HETATM   19  C   UNL     1     -37.291 -55.431  18.228  1.00  0.00     0.051 A 
HETATM   20  C   UNL     1     -35.974 -54.975  18.209  1.00  0.00     0.032 A 
HETATM   21  C   UNL     1     -35.010 -55.638  18.966  1.00  0.00     0.019 A 
HETATM   22  C   UNL     1     -35.387 -56.770  19.670  1.00  0.00     0.088 A 
HETATM   23  N   UNL     1     -36.641 -57.269  19.673  1.00  0.00    -0.373 N 
HETATM   24  C   UNL     1     -37.570 -56.578  18.967  1.00  0.00     0.117 A 
ATOM     25  HN  UNL     1     -36.878 -58.122  20.180  1.00  0.00     0.164 HD
ENDBRANCH   4  19
TORSDOF 4
ENDMDL
