MODEL 1
REMARK VINA RESULT:      -6.0      0.000      0.000
REMARK  6 active torsions:
REMARK  status: ('A' for Active; 'I' for Inactive)
REMARK    1  A    between atoms: C_2  and  C_3 
REMARK    2  A    between atoms: C_7  and  C_8 
REMARK    3  A    between atoms: C_8  and  C_9 
REMARK    4  A    between atoms: C_9  and  N_10 
REMARK       I    between atoms: N_10  and  C_11 
REMARK       I    between atoms: C_11  and  N_13 
REMARK    5  A    between atoms: C_17  and  C_18 
REMARK    6  A    between atoms: C_18  and  O_19 
ROOT
HETATM    1  N   UNL     1     -41.873 -50.839  11.778  1.00  0.00    -0.343 N 
HETATM    2  C   UNL     1     -41.011 -49.778  11.865  1.00  0.00     0.318 C 
HETATM    3  O   UNL     1     -39.810 -49.944  12.065  1.00  0.00    -0.247 OA
HETATM    4  N   UNL     1     -41.580 -48.528  11.718  1.00  0.00    -0.334 N 
HETATM    5  C   UNL     1     -43.009 -48.222  11.633  1.00  0.00     0.127 C 
HETATM    6  C   UNL     1     -43.290 -47.375  10.394  1.00  0.00     0.020 C 
HETATM    7  C   UNL     1     -42.415 -46.119  10.370  1.00  0.00     0.010 C 
HETATM    8  C   UNL     1     -40.926 -46.478  10.523  1.00  0.00     0.027 C 
HETATM    9  C   UNL     1     -40.710 -47.354  11.763  1.00  0.00     0.134 C 
HETATM   10  H   UNL     1     -42.635 -50.720  11.121  1.00  0.00     0.164 HD
ENDROOT
BRANCH   1  11
HETATM   11  C   UNL     1     -41.341 -52.192  11.830  1.00  0.00     0.131 C 
BRANCH  11  12
HETATM   12  C   UNL     1     -42.019 -53.066  12.882  1.00  0.00     0.084 C 
BRANCH  12  13
HETATM   13  C   UNL     1     -43.477 -52.737  13.015  1.00  0.00     0.052 A 
HETATM   14  N   UNL     1     -44.395 -53.113  12.147  1.00  0.00    -0.363 N 
HETATM   15  C   UNL     1     -45.633 -52.658  12.557  1.00  0.00     0.103 A 
ATOM     16  HN  UNL     1     -44.218 -53.656  11.302  1.00  0.00     0.165 HD
HETATM   17  C   UNL     1     -45.651 -51.953  13.744  1.00  0.00    -0.001 A 
HETATM   18  S   UNL     1     -44.055 -51.838  14.359  1.00  0.00    -0.080 SA
BRANCH  17  19
HETATM   19  C   UNL     1     -46.813 -51.355  14.468  1.00  0.00     0.043 C 
HETATM   20  C   UNL     1     -46.945 -51.893  15.885  1.00  0.00     0.010 C 
ENDBRANCH  17  19
ENDBRANCH  12  13
ENDBRANCH  11  12
ENDBRANCH   1  11
BRANCH   8  21
HETATM   21  C   UNL     1     -40.045 -45.229  10.593  1.00  0.00     0.170 C 
BRANCH  21  22
HETATM   22  O   UNL     1     -39.642 -44.823   9.291  1.00  0.00    -0.400 OA
HETATM   23  H   UNL     1     -40.400 -44.376   8.877  1.00  0.00     0.209 HD
ENDBRANCH  21  22
ENDBRANCH   8  21
TORSDOF 6
ENDMDL
MODEL 2
REMARK VINA RESULT:      -6.0      3.493      7.052
REMARK  6 active torsions:
REMARK  status: ('A' for Active; 'I' for Inactive)
REMARK    1  A    between atoms: C_2  and  C_3 
REMARK    2  A    between atoms: C_7  and  C_8 
REMARK    3  A    between atoms: C_8  and  C_9 
REMARK    4  A    between atoms: C_9  and  N_10 
REMARK       I    between atoms: N_10  and  C_11 
REMARK       I    between atoms: C_11  and  N_13 
REMARK    5  A    between atoms: C_17  and  C_18 
REMARK    6  A    between atoms: C_18  and  O_19 
ROOT
HETATM    1  N   UNL     1     -40.856 -51.350  12.036  1.00  0.00    -0.343 N 
HETATM    2  C   UNL     1     -39.887 -52.090  12.660  1.00  0.00     0.318 C 
HETATM    3  O   UNL     1     -38.708 -51.744  12.646  1.00  0.00    -0.247 OA
HETATM    4  N   UNL     1     -40.323 -53.238  13.294  1.00  0.00    -0.334 N 
HETATM    5  C   UNL     1     -41.668 -53.811  13.236  1.00  0.00     0.127 C 
HETATM    6  C   UNL     1     -42.195 -54.052  14.649  1.00  0.00     0.020 C 
HETATM    7  C   UNL     1     -41.224 -54.907  15.466  1.00  0.00     0.010 C 
HETATM    8  C   UNL     1     -39.807 -54.304  15.452  1.00  0.00     0.027 C 
HETATM    9  C   UNL     1     -39.345 -54.055  14.011  1.00  0.00     0.134 C 
HETATM   10  H   UNL     1     -41.756 -51.343  12.500  1.00  0.00     0.164 HD
ENDROOT
BRANCH   1  11
HETATM   11  C   UNL     1     -40.494 -50.080  11.424  1.00  0.00     0.131 C 
BRANCH  11  12
HETATM   12  C   UNL     1     -41.324 -48.906  11.939  1.00  0.00     0.084 C 
BRANCH  12  13
HETATM   13  C   UNL     1     -42.201 -48.337  10.862  1.00  0.00     0.052 A 
HETATM   14  N   UNL     1     -41.885 -48.340   9.583  1.00  0.00    -0.363 N 
HETATM   15  C   UNL     1     -42.900 -47.751   8.854  1.00  0.00     0.103 A 
ATOM     16  HN  UNL     1     -41.023 -48.719   9.190  1.00  0.00     0.165 HD
HETATM   17  C   UNL     1     -43.989 -47.318   9.583  1.00  0.00    -0.001 A 
HETATM   18  S   UNL     1     -43.724 -47.643  11.246  1.00  0.00    -0.080 SA
BRANCH  17  19
HETATM   19  C   UNL     1     -45.248 -46.672   9.105  1.00  0.00     0.043 C 
HETATM   20  C   UNL     1     -46.397 -47.662   8.998  1.00  0.00     0.010 C 
ENDBRANCH  17  19
ENDBRANCH  12  13
ENDBRANCH  11  12
ENDBRANCH   1  11
BRANCH   8  21
HETATM   21  C   UNL     1     -38.804 -55.193  16.187  1.00  0.00     0.170 C 
BRANCH  21  22
HETATM   22  O   UNL     1     -38.019 -55.937  15.263  1.00  0.00    -0.400 OA
HETATM   23  H   UNL     1     -37.100 -55.917  15.579  1.00  0.00     0.209 HD
ENDBRANCH  21  22
ENDBRANCH   8  21
TORSDOF 6
ENDMDL
MODEL 3
REMARK VINA RESULT:      -5.9      1.752      2.705
REMARK  6 active torsions:
REMARK  status: ('A' for Active; 'I' for Inactive)
REMARK    1  A    between atoms: C_2  and  C_3 
REMARK    2  A    between atoms: C_7  and  C_8 
REMARK    3  A    between atoms: C_8  and  C_9 
REMARK    4  A    between atoms: C_9  and  N_10 
REMARK       I    between atoms: N_10  and  C_11 
REMARK       I    between atoms: C_11  and  N_13 
REMARK    5  A    between atoms: C_17  and  C_18 
REMARK    6  A    between atoms: C_18  and  O_19 
ROOT
HETATM    1  N   UNL     1     -40.149 -52.888  13.247  1.00  0.00    -0.343 N 
HETATM    2  C   UNL     1     -40.533 -52.008  12.270  1.00  0.00     0.318 C 
HETATM    3  O   UNL     1     -41.374 -52.313  11.427  1.00  0.00    -0.247 OA
HETATM    4  N   UNL     1     -39.912 -50.774  12.295  1.00  0.00    -0.334 N 
HETATM    5  C   UNL     1     -38.797 -50.374  13.154  1.00  0.00     0.127 C 
HETATM    6  C   UNL     1     -39.140 -49.081  13.890  1.00  0.00     0.020 C 
HETATM    7  C   UNL     1     -39.558 -47.979  12.913  1.00  0.00     0.010 C 
HETATM    8  C   UNL     1     -40.691 -48.459  11.988  1.00  0.00     0.027 C 
HETATM    9  C   UNL     1     -40.303 -49.774  11.302  1.00  0.00     0.134 C 
HETATM   10  H   UNL     1     -39.931 -52.466  14.141  1.00  0.00     0.164 HD
ENDROOT
BRANCH   1  11
HETATM   11  C   UNL     1     -40.820 -54.175  13.345  1.00  0.00     0.131 C 
BRANCH  11  12
HETATM   12  C   UNL     1     -41.927 -54.198  14.397  1.00  0.00     0.084 C 
BRANCH  12  13
HETATM   13  C   UNL     1     -43.204 -53.615  13.865  1.00  0.00     0.052 A 
HETATM   14  N   UNL     1     -43.692 -53.888  12.671  1.00  0.00    -0.363 N 
HETATM   15  C   UNL     1     -44.876 -53.200  12.488  1.00  0.00     0.103 A 
ATOM     16  HN  UNL     1     -43.262 -54.511  11.988  1.00  0.00     0.165 HD
HETATM   17  C   UNL     1     -45.290 -52.421  13.550  1.00  0.00    -0.001 A 
HETATM   18  S   UNL     1     -44.142 -52.539  14.819  1.00  0.00    -0.080 SA
BRANCH  17  19
HETATM   19  C   UNL     1     -46.520 -51.584  13.684  1.00  0.00     0.043 C 
HETATM   20  C   UNL     1     -46.942 -51.413  15.135  1.00  0.00     0.010 C 
ENDBRANCH  17  19
ENDBRANCH  12  13
ENDBRANCH  11  12
ENDBRANCH   1  11
BRANCH   8  21
HETATM   21  C   UNL     1     -41.058 -47.402  10.945  1.00  0.00     0.170 C 
BRANCH  21  22
HETATM   22  O   UNL     1     -39.899 -46.707  10.503  1.00  0.00    -0.400 OA
HETATM   23  H   UNL     1     -40.193 -45.859  10.128  1.00  0.00     0.209 HD
ENDBRANCH  21  22
ENDBRANCH   8  21
TORSDOF 6
ENDMDL
MODEL 4
REMARK VINA RESULT:      -5.8      2.939      6.731
REMARK  6 active torsions:
REMARK  status: ('A' for Active; 'I' for Inactive)
REMARK    1  A    between atoms: C_2  and  C_3 
REMARK    2  A    between atoms: C_7  and  C_8 
REMARK    3  A    between atoms: C_8  and  C_9 
REMARK    4  A    between atoms: C_9  and  N_10 
REMARK       I    between atoms: N_10  and  C_11 
REMARK       I    between atoms: C_11  and  N_13 
REMARK    5  A    between atoms: C_17  and  C_18 
REMARK    6  A    between atoms: C_18  and  O_19 
ROOT
HETATM    1  N   UNL     1     -42.197 -50.237  11.903  1.00  0.00    -0.343 N 
HETATM    2  C   UNL     1     -42.137 -51.496  12.438  1.00  0.00     0.318 C 
HETATM    3  O   UNL     1     -41.158 -52.220  12.265  1.00  0.00    -0.247 OA
HETATM    4  N   UNL     1     -43.239 -51.892  13.171  1.00  0.00    -0.334 N 
HETATM    5  C   UNL     1     -44.505 -51.170  13.303  1.00  0.00     0.127 C 
HETATM    6  C   UNL     1     -44.857 -50.997  14.779  1.00  0.00     0.020 C 
HETATM    7  C   UNL     1     -44.866 -52.341  15.509  1.00  0.00     0.010 C 
HETATM    8  C   UNL     1     -43.541 -53.097  15.296  1.00  0.00     0.027 C 
HETATM    9  C   UNL     1     -43.224 -53.211  13.800  1.00  0.00     0.134 C 
HETATM   10  H   UNL     1     -42.679 -49.552  12.473  1.00  0.00     0.164 HD
ENDROOT
BRANCH   1  11
HETATM   11  C   UNL     1     -41.040 -49.711  11.196  1.00  0.00     0.131 C 
BRANCH  11  12
HETATM   12  C   UNL     1     -41.137 -48.213  10.913  1.00  0.00     0.084 C 
BRANCH  12  13
HETATM   13  C   UNL     1     -42.323 -47.891  10.052  1.00  0.00     0.052 A 
HETATM   14  N   UNL     1     -42.356 -48.085   8.748  1.00  0.00    -0.363 N 
HETATM   15  C   UNL     1     -43.585 -47.694   8.254  1.00  0.00     0.103 A 
ATOM     16  HN  UNL     1     -41.592 -48.466   8.191  1.00  0.00     0.165 HD
HETATM   17  C   UNL     1     -44.485 -47.220   9.188  1.00  0.00    -0.001 A 
HETATM   18  S   UNL     1     -43.758 -47.246  10.740  1.00  0.00    -0.080 SA
BRANCH  17  19
HETATM   19  C   UNL     1     -45.888 -46.747   8.990  1.00  0.00     0.043 C 
HETATM   20  C   UNL     1     -46.888 -47.894   9.007  1.00  0.00     0.010 C 
ENDBRANCH  17  19
ENDBRANCH  12  13
ENDBRANCH  11  12
ENDBRANCH   1  11
BRANCH   8  21
HETATM   21  C   UNL     1     -43.566 -54.482  15.942  1.00  0.00     0.170 C 
BRANCH  21  22
HETATM   22  O   UNL     1     -43.680 -55.498  14.953  1.00  0.00    -0.400 OA
HETATM   23  H   UNL     1     -43.235 -56.291  15.297  1.00  0.00     0.209 HD
ENDBRANCH  21  22
ENDBRANCH   8  21
TORSDOF 6
ENDMDL
MODEL 5
REMARK VINA RESULT:      -5.6      3.171      7.733
REMARK  6 active torsions:
REMARK  status: ('A' for Active; 'I' for Inactive)
REMARK    1  A    between atoms: C_2  and  C_3 
REMARK    2  A    between atoms: C_7  and  C_8 
REMARK    3  A    between atoms: C_8  and  C_9 
REMARK    4  A    between atoms: C_9  and  N_10 
REMARK       I    between atoms: N_10  and  C_11 
REMARK       I    between atoms: C_11  and  N_13 
REMARK    5  A    between atoms: C_17  and  C_18 
REMARK    6  A    between atoms: C_18  and  O_19 
ROOT
HETATM    1  N   UNL     1     -41.147 -50.749  11.768  1.00  0.00    -0.343 N 
HETATM    2  C   UNL     1     -40.310 -51.673  12.336  1.00  0.00     0.318 C 
HETATM    3  O   UNL     1     -39.094 -51.500  12.371  1.00  0.00    -0.247 OA
HETATM    4  N   UNL     1     -40.921 -52.798  12.855  1.00  0.00    -0.334 N 
HETATM    5  C   UNL     1     -42.333 -53.165  12.726  1.00  0.00     0.127 C 
HETATM    6  C   UNL     1     -42.927 -53.451  14.102  1.00  0.00     0.020 C 
HETATM    7  C   UNL     1     -42.110 -54.506  14.852  1.00  0.00     0.010 C 
HETATM    8  C   UNL     1     -40.622 -54.114  14.914  1.00  0.00     0.027 C 
HETATM    9  C   UNL     1     -40.090 -53.807  13.509  1.00  0.00     0.134 C 
HETATM   10  H   UNL     1     -42.049 -50.654  12.218  1.00  0.00     0.164 HD
ENDROOT
BRANCH   1  11
HETATM   11  C   UNL     1     -40.592 -49.496  11.281  1.00  0.00     0.131 C 
BRANCH  11  12
HETATM   12  C   UNL     1     -41.649 -48.545  10.724  1.00  0.00     0.084 C 
BRANCH  12  13
HETATM   13  C   UNL     1     -41.202 -47.115  10.805  1.00  0.00     0.052 A 
HETATM   14  N   UNL     1     -39.969 -46.719  10.561  1.00  0.00    -0.363 N 
HETATM   15  C   UNL     1     -39.884 -45.349  10.715  1.00  0.00     0.103 A 
ATOM     16  HN  UNL     1     -39.195 -47.330  10.299  1.00  0.00     0.165 HD
HETATM   17  C   UNL     1     -41.059 -44.709  11.059  1.00  0.00    -0.001 A 
HETATM   18  S   UNL     1     -42.311 -45.870  11.215  1.00  0.00    -0.080 SA
BRANCH  17  19
HETATM   19  C   UNL     1     -41.311 -43.253  11.274  1.00  0.00     0.043 C 
HETATM   20  C   UNL     1     -40.248 -42.609  12.150  1.00  0.00     0.010 C 
ENDBRANCH  17  19
ENDBRANCH  12  13
ENDBRANCH  11  12
ENDBRANCH   1  11
BRANCH   8  21
HETATM   21  C   UNL     1     -39.776 -55.200  15.579  1.00  0.00     0.170 C 
BRANCH  21  22
HETATM   22  O   UNL     1     -38.639 -55.511  14.783  1.00  0.00    -0.400 OA
HETATM   23  H   UNL     1     -38.812 -56.362  14.347  1.00  0.00     0.209 HD
ENDBRANCH  21  22
ENDBRANCH   8  21
TORSDOF 6
ENDMDL
MODEL 6
REMARK VINA RESULT:      -5.6      2.812      7.234
REMARK  6 active torsions:
REMARK  status: ('A' for Active; 'I' for Inactive)
REMARK    1  A    between atoms: C_2  and  C_3 
REMARK    2  A    between atoms: C_7  and  C_8 
REMARK    3  A    between atoms: C_8  and  C_9 
REMARK    4  A    between atoms: C_9  and  N_10 
REMARK       I    between atoms: N_10  and  C_11 
REMARK       I    between atoms: C_11  and  N_13 
REMARK    5  A    between atoms: C_17  and  C_18 
REMARK    6  A    between atoms: C_18  and  O_19 
ROOT
HETATM    1  N   UNL     1     -40.214 -50.720  12.281  1.00  0.00    -0.343 N 
HETATM    2  C   UNL     1     -41.580 -50.660  12.352  1.00  0.00     0.318 C 
HETATM    3  O   UNL     1     -42.211 -49.761  11.799  1.00  0.00    -0.247 OA
HETATM    4  N   UNL     1     -42.190 -51.663  13.081  1.00  0.00    -0.334 N 
HETATM    5  C   UNL     1     -41.523 -52.679  13.896  1.00  0.00     0.127 C 
HETATM    6  C   UNL     1     -42.007 -54.071  13.497  1.00  0.00     0.020 C 
HETATM    7  C   UNL     1     -43.533 -54.168  13.564  1.00  0.00     0.010 C 
HETATM    8  C   UNL     1     -44.197 -53.047  12.744  1.00  0.00     0.027 C 
HETATM    9  C   UNL     1     -43.649 -51.678  13.165  1.00  0.00     0.134 C 
HETATM   10  H   UNL     1     -39.827 -51.656  12.247  1.00  0.00     0.164 HD
ENDROOT
BRANCH   1  11
HETATM   11  C   UNL     1     -39.503 -49.754  11.457  1.00  0.00     0.131 C 
BRANCH  11  12
HETATM   12  C   UNL     1     -39.139 -48.475  12.207  1.00  0.00     0.084 C 
BRANCH  12  13
HETATM   13  C   UNL     1     -39.936 -47.303  11.717  1.00  0.00     0.052 A 
HETATM   14  N   UNL     1     -40.672 -47.324  10.623  1.00  0.00    -0.363 N 
HETATM   15  C   UNL     1     -41.281 -46.096  10.452  1.00  0.00     0.103 A 
ATOM     16  HN  UNL     1     -40.776 -48.124   9.999  1.00  0.00     0.165 HD
HETATM   17  C   UNL     1     -41.017 -45.153  11.426  1.00  0.00    -0.001 A 
HETATM   18  S   UNL     1     -39.950 -45.823  12.589  1.00  0.00    -0.080 SA
BRANCH  17  19
HETATM   19  C   UNL     1     -41.530 -43.756  11.550  1.00  0.00     0.043 C 
HETATM   20  C   UNL     1     -40.406 -42.743  11.705  1.00  0.00     0.010 C 
ENDBRANCH  17  19
ENDBRANCH  12  13
ENDBRANCH  11  12
ENDBRANCH   1  11
BRANCH   8  21
HETATM   21  C   UNL     1     -45.720 -53.074  12.874  1.00  0.00     0.170 C 
BRANCH  21  22
HETATM   22  O   UNL     1     -46.336 -52.618  11.675  1.00  0.00    -0.400 OA
HETATM   23  H   UNL     1     -46.851 -53.360  11.312  1.00  0.00     0.209 HD
ENDBRANCH  21  22
ENDBRANCH   8  21
TORSDOF 6
ENDMDL
MODEL 7
REMARK VINA RESULT:      -5.4      3.111      3.714
REMARK  6 active torsions:
REMARK  status: ('A' for Active; 'I' for Inactive)
REMARK    1  A    between atoms: C_2  and  C_3 
REMARK    2  A    between atoms: C_7  and  C_8 
REMARK    3  A    between atoms: C_8  and  C_9 
REMARK    4  A    between atoms: C_9  and  N_10 
REMARK       I    between atoms: N_10  and  C_11 
REMARK       I    between atoms: C_11  and  N_13 
REMARK    5  A    between atoms: C_17  and  C_18 
REMARK    6  A    between atoms: C_18  and  O_19 
ROOT
HETATM    1  N   UNL     1     -41.150 -53.133  14.480  1.00  0.00    -0.343 N 
HETATM    2  C   UNL     1     -39.934 -52.870  13.908  1.00  0.00     0.318 C 
HETATM    3  O   UNL     1     -39.175 -53.777  13.572  1.00  0.00    -0.247 OA
HETATM    4  N   UNL     1     -39.622 -51.534  13.744  1.00  0.00    -0.334 N 
HETATM    5  C   UNL     1     -40.384 -50.391  14.249  1.00  0.00     0.127 C 
HETATM    6  C   UNL     1     -40.677 -49.414  13.112  1.00  0.00     0.020 C 
HETATM    7  C   UNL     1     -39.392 -48.996  12.394  1.00  0.00     0.010 C 
HETATM    8  C   UNL     1     -38.590 -50.227  11.932  1.00  0.00     0.027 C 
HETATM    9  C   UNL     1     -38.354 -51.185  13.106  1.00  0.00     0.134 C 
HETATM   10  H   UNL     1     -41.888 -52.483  14.235  1.00  0.00     0.164 HD
ENDROOT
BRANCH   1  11
HETATM   11  C   UNL     1     -41.592 -54.513  14.604  1.00  0.00     0.131 C 
BRANCH  11  12
HETATM   12  C   UNL     1     -42.689 -54.702  15.649  1.00  0.00     0.084 C 
BRANCH  12  13
HETATM   13  C   UNL     1     -43.973 -54.052  15.224  1.00  0.00     0.052 A 
HETATM   14  N   UNL     1     -44.822 -54.594  14.373  1.00  0.00    -0.363 N 
HETATM   15  C   UNL     1     -45.902 -53.751  14.197  1.00  0.00     0.103 A 
ATOM     16  HN  UNL     1     -44.700 -55.498  13.916  1.00  0.00     0.165 HD
HETATM   17  C   UNL     1     -45.875 -52.579  14.928  1.00  0.00    -0.001 A 
HETATM   18  S   UNL     1     -44.434 -52.523  15.855  1.00  0.00    -0.080 SA
BRANCH  17  19
HETATM   19  C   UNL     1     -46.885 -51.480  14.984  1.00  0.00     0.043 C 
HETATM   20  C   UNL     1     -47.576 -51.406  16.337  1.00  0.00     0.010 C 
ENDBRANCH  17  19
ENDBRANCH  12  13
ENDBRANCH  11  12
ENDBRANCH   1  11
BRANCH   8  21
HETATM   21  C   UNL     1     -37.258 -49.830  11.293  1.00  0.00     0.170 C 
BRANCH  21  22
HETATM   22  O   UNL     1     -37.251 -50.145   9.906  1.00  0.00    -0.400 OA
HETATM   23  H   UNL     1     -38.008 -49.691   9.500  1.00  0.00     0.209 HD
ENDBRANCH  21  22
ENDBRANCH   8  21
TORSDOF 6
ENDMDL
MODEL 8
REMARK VINA RESULT:      -5.3      2.978      6.906
REMARK  6 active torsions:
REMARK  status: ('A' for Active; 'I' for Inactive)
REMARK    1  A    between atoms: C_2  and  C_3 
REMARK    2  A    between atoms: C_7  and  C_8 
REMARK    3  A    between atoms: C_8  and  C_9 
REMARK    4  A    between atoms: C_9  and  N_10 
REMARK       I    between atoms: N_10  and  C_11 
REMARK       I    between atoms: C_11  and  N_13 
REMARK    5  A    between atoms: C_17  and  C_18 
REMARK    6  A    between atoms: C_18  and  O_19 
ROOT
HETATM    1  N   UNL     1     -42.686 -52.562  12.003  1.00  0.00    -0.343 N 
HETATM    2  C   UNL     1     -43.068 -53.221  13.141  1.00  0.00     0.318 C 
HETATM    3  O   UNL     1     -42.264 -53.872  13.804  1.00  0.00    -0.247 OA
HETATM    4  N   UNL     1     -44.401 -53.107  13.483  1.00  0.00    -0.334 N 
HETATM    5  C   UNL     1     -45.459 -52.489  12.683  1.00  0.00     0.127 C 
HETATM    6  C   UNL     1     -46.207 -51.451  13.516  1.00  0.00     0.020 C 
HETATM    7  C   UNL     1     -46.732 -52.057  14.819  1.00  0.00     0.010 C 
HETATM    8  C   UNL     1     -45.601 -52.750  15.603  1.00  0.00     0.027 C 
HETATM    9  C   UNL     1     -44.867 -53.756  14.708  1.00  0.00     0.134 C 
HETATM   10  H   UNL     1     -43.162 -51.684  11.836  1.00  0.00     0.164 HD
ENDROOT
BRANCH   1  11
HETATM   11  C   UNL     1     -41.281 -52.556  11.624  1.00  0.00     0.131 C 
BRANCH  11  12
HETATM   12  C   UNL     1     -40.492 -51.413  12.257  1.00  0.00     0.084 C 
BRANCH  12  13
HETATM   13  C   UNL     1     -41.017 -50.075  11.826  1.00  0.00     0.052 A 
HETATM   14  N   UNL     1     -40.902 -49.603  10.601  1.00  0.00    -0.363 N 
HETATM   15  C   UNL     1     -41.491 -48.356  10.528  1.00  0.00     0.103 A 
ATOM     16  HN  UNL     1     -40.448 -50.085   9.825  1.00  0.00     0.165 HD
HETATM   17  C   UNL     1     -42.064 -47.893  11.696  1.00  0.00    -0.001 A 
HETATM   18  S   UNL     1     -41.840 -49.056  12.936  1.00  0.00    -0.080 SA
BRANCH  17  19
HETATM   19  C   UNL     1     -42.793 -46.614  11.946  1.00  0.00     0.043 C 
HETATM   20  C   UNL     1     -42.461 -45.552  10.909  1.00  0.00     0.010 C 
ENDBRANCH  17  19
ENDBRANCH  12  13
ENDBRANCH  11  12
ENDBRANCH   1  11
BRANCH   8  21
HETATM   21  C   UNL     1     -46.125 -53.442  16.863  1.00  0.00     0.170 C 
BRANCH  21  22
HETATM   22  O   UNL     1     -46.561 -52.483  17.819  1.00  0.00    -0.400 OA
HETATM   23  H   UNL     1     -46.380 -52.849  18.701  1.00  0.00     0.209 HD
ENDBRANCH  21  22
ENDBRANCH   8  21
TORSDOF 6
ENDMDL
MODEL 9
REMARK VINA RESULT:      -5.3      1.571      2.091
REMARK  6 active torsions:
REMARK  status: ('A' for Active; 'I' for Inactive)
REMARK    1  A    between atoms: C_2  and  C_3 
REMARK    2  A    between atoms: C_7  and  C_8 
REMARK    3  A    between atoms: C_8  and  C_9 
REMARK    4  A    between atoms: C_9  and  N_10 
REMARK       I    between atoms: N_10  and  C_11 
REMARK       I    between atoms: C_11  and  N_13 
REMARK    5  A    between atoms: C_17  and  C_18 
REMARK    6  A    between atoms: C_18  and  O_19 
ROOT
HETATM    1  N   UNL     1     -39.930 -50.446  12.915  1.00  0.00    -0.343 N 
HETATM    2  C   UNL     1     -40.085 -49.490  11.946  1.00  0.00     0.318 C 
HETATM    3  O   UNL     1     -40.411 -49.788  10.799  1.00  0.00    -0.247 OA
HETATM    4  N   UNL     1     -39.847 -48.188  12.342  1.00  0.00    -0.334 N 
HETATM    5  C   UNL     1     -39.309 -47.751  13.631  1.00  0.00     0.127 C 
HETATM    6  C   UNL     1     -40.224 -46.697  14.249  1.00  0.00     0.020 C 
HETATM    7  C   UNL     1     -40.462 -45.533  13.284  1.00  0.00     0.010 C 
HETATM    8  C   UNL     1     -40.969 -46.039  11.921  1.00  0.00     0.027 C 
HETATM    9  C   UNL     1     -40.030 -47.116  11.366  1.00  0.00     0.134 C 
HETATM   10  H   UNL     1     -40.202 -50.159  13.847  1.00  0.00     0.164 HD
ENDROOT
BRANCH   1  11
HETATM   11  C   UNL     1     -40.250 -51.830  12.604  1.00  0.00     0.131 C 
BRANCH  11  12
HETATM   12  C   UNL     1     -41.076 -52.516  13.689  1.00  0.00     0.084 C 
BRANCH  12  13
HETATM   13  C   UNL     1     -42.528 -52.582  13.318  1.00  0.00     0.052 A 
HETATM   14  N   UNL     1     -43.054 -53.545  12.587  1.00  0.00    -0.363 N 
HETATM   15  C   UNL     1     -44.408 -53.319  12.430  1.00  0.00     0.103 A 
ATOM     16  HN  UNL     1     -42.541 -54.336  12.198  1.00  0.00     0.165 HD
HETATM   17  C   UNL     1     -44.906 -52.194  13.055  1.00  0.00    -0.001 A 
HETATM   18  S   UNL     1     -43.627 -51.377  13.854  1.00  0.00    -0.080 SA
BRANCH  17  19
HETATM   19  C   UNL     1     -46.309 -51.684  13.103  1.00  0.00     0.043 C 
HETATM   20  C   UNL     1     -46.768 -51.400  14.525  1.00  0.00     0.010 C 
ENDBRANCH  17  19
ENDBRANCH  12  13
ENDBRANCH  11  12
ENDBRANCH   1  11
BRANCH   8  21
HETATM   21  C   UNL     1     -41.126 -44.898  10.915  1.00  0.00     0.170 C 
BRANCH  21  22
HETATM   22  O   UNL     1     -40.607 -45.272   9.644  1.00  0.00    -0.400 OA
HETATM   23  H   UNL     1     -40.653 -44.490   9.069  1.00  0.00     0.209 HD
ENDBRANCH  21  22
ENDBRANCH   8  21
TORSDOF 6
ENDMDL
