MODEL 1
REMARK VINA RESULT:      -6.6      0.000      0.000
REMARK  5 active torsions:
REMARK  status: ('A' for Active; 'I' for Inactive)
REMARK    1  A    between atoms: C_2  and  C_5 
REMARK    2  A    between atoms: C_9  and  N_10 
REMARK       I    between atoms: N_10  and  C_11 
REMARK       I    between atoms: C_11  and  N_13 
REMARK    3  A    between atoms: N_13  and  C_14 
REMARK    4  A    between atoms: C_16  and  C_17 
REMARK    5  A    between atoms: C_17  and  O_18 
ROOT
HETATM    1  N   UNL     1     -40.105 -50.594  11.340  1.00  0.00    -0.289 N 
HETATM    2  C   UNL     1     -40.783 -51.495  12.110  1.00  0.00     0.322 C 
HETATM    3  O   UNL     1     -40.290 -52.593  12.354  1.00  0.00    -0.247 OA
HETATM    4  N   UNL     1     -42.023 -51.125  12.514  1.00  0.00    -0.335 N 
HETATM    5  H   UNL     1     -39.234 -50.902  10.937  1.00  0.00     0.172 HD
HETATM    6  H   UNL     1     -42.246 -50.138  12.417  1.00  0.00     0.164 HD
ENDROOT
BRANCH   1   7
HETATM    7  C   UNL     1     -40.537 -49.324  11.075  1.00  0.00     0.152 A 
HETATM    8  N   UNL     1     -41.525 -48.971  10.289  1.00  0.00    -0.345 N 
HETATM    9  C   UNL     1     -41.659 -47.600  10.319  1.00  0.00     0.105 A 
ATOM     10  HN  UNL     1     -42.102 -49.610   9.742  1.00  0.00     0.167 HD
HETATM   11  C   UNL     1     -40.751 -46.915  11.111  1.00  0.00     0.009 A 
HETATM   12  S   UNL     1     -39.701 -48.075  11.857  1.00  0.00    -0.056 SA
BRANCH  11  13
HETATM   13  C   UNL     1     -40.617 -45.419  11.373  1.00  0.00    -0.016 C 
HETATM   14  C   UNL     1     -39.679 -44.756  10.339  1.00  0.00     0.020 C 
HETATM   15  C   UNL     1     -40.024 -45.169  12.772  1.00  0.00     0.020 C 
HETATM   16  C   UNL     1     -41.993 -44.736  11.259  1.00  0.00     0.020 C 
ENDBRANCH  11  13
ENDBRANCH   1   7
BRANCH   4  17
HETATM   17  C   UNL     1     -42.905 -51.928  13.306  1.00  0.00     0.109 C 
HETATM   18  C   UNL     1     -44.271 -51.262  13.513  1.00  0.00     0.040 C 
HETATM   19  C   UNL     1     -45.312 -52.375  13.306  1.00  0.00     0.034 C 
HETATM   20  C   UNL     1     -44.563 -53.364  12.457  1.00  0.00    -0.022 C 
HETATM   21  C   UNL     1     -43.248 -53.130  12.486  1.00  0.00    -0.005 C 
BRANCH  19  22
HETATM   22  C   UNL     1     -46.596 -51.841  12.668  1.00  0.00     0.172 C 
BRANCH  22  23
HETATM   23  O   UNL     1     -46.799 -52.415  11.380  1.00  0.00    -0.400 OA
HETATM   24  H   UNL     1     -46.044 -52.151  10.826  1.00  0.00     0.209 HD
ENDBRANCH  22  23
ENDBRANCH  19  22
ENDBRANCH   4  17
TORSDOF 5
ENDMDL
MODEL 2
REMARK VINA RESULT:      -6.3      2.929      6.697
REMARK  5 active torsions:
REMARK  status: ('A' for Active; 'I' for Inactive)
REMARK    1  A    between atoms: C_2  and  C_5 
REMARK    2  A    between atoms: C_9  and  N_10 
REMARK       I    between atoms: N_10  and  C_11 
REMARK       I    between atoms: C_11  and  N_13 
REMARK    3  A    between atoms: N_13  and  C_14 
REMARK    4  A    between atoms: C_16  and  C_17 
REMARK    5  A    between atoms: C_17  and  O_18 
ROOT
HETATM    1  N   UNL     1     -41.007 -53.837  13.759  1.00  0.00    -0.289 N 
HETATM    2  C   UNL     1     -39.940 -53.042  13.453  1.00  0.00     0.322 C 
HETATM    3  O   UNL     1     -38.799 -53.414  13.709  1.00  0.00    -0.247 OA
HETATM    4  N   UNL     1     -40.230 -51.827  12.924  1.00  0.00    -0.335 N 
HETATM    5  H   UNL     1     -40.811 -54.690  14.259  1.00  0.00     0.172 HD
HETATM    6  H   UNL     1     -41.181 -51.705  12.585  1.00  0.00     0.164 HD
ENDROOT
BRANCH   1   7
HETATM    7  C   UNL     1     -42.305 -53.542  13.449  1.00  0.00     0.152 A 
HETATM    8  N   UNL     1     -42.930 -53.797  12.325  1.00  0.00    -0.345 N 
HETATM    9  C   UNL     1     -44.236 -53.370  12.427  1.00  0.00     0.105 A 
ATOM     10  HN  UNL     1     -42.515 -54.240  11.506  1.00  0.00     0.167 HD
HETATM   11  C   UNL     1     -44.591 -52.767  13.624  1.00  0.00     0.009 A 
HETATM   12  S   UNL     1     -43.201 -52.766  14.660  1.00  0.00    -0.056 SA
BRANCH  11  13
HETATM   13  C   UNL     1     -45.930 -52.192  14.069  1.00  0.00    -0.016 C 
HETATM   14  C   UNL     1     -46.854 -53.299  14.623  1.00  0.00     0.020 C 
HETATM   15  C   UNL     1     -46.652 -51.531  12.880  1.00  0.00     0.020 C 
HETATM   16  C   UNL     1     -45.717 -51.158  15.191  1.00  0.00     0.020 C 
ENDBRANCH  11  13
ENDBRANCH   1   7
BRANCH   4  17
HETATM   17  C   UNL     1     -39.264 -50.837  12.555  1.00  0.00     0.109 C 
HETATM   18  C   UNL     1     -39.780 -49.901  11.456  1.00  0.00     0.040 C 
HETATM   19  C   UNL     1     -39.361 -48.485  11.885  1.00  0.00     0.034 C 
HETATM   20  C   UNL     1     -39.198 -48.633  13.372  1.00  0.00    -0.022 C 
HETATM   21  C   UNL     1     -39.117 -49.918  13.726  1.00  0.00    -0.005 C 
BRANCH  19  22
HETATM   22  C   UNL     1     -40.391 -47.434  11.466  1.00  0.00     0.172 C 
BRANCH  22  23
HETATM   23  O   UNL     1     -41.061 -47.829  10.272  1.00  0.00    -0.400 OA
HETATM   24  H   UNL     1     -41.929 -48.183  10.534  1.00  0.00     0.209 HD
ENDBRANCH  22  23
ENDBRANCH  19  22
ENDBRANCH   4  17
TORSDOF 5
ENDMDL
MODEL 3
REMARK VINA RESULT:      -6.1      3.244      4.631
REMARK  5 active torsions:
REMARK  status: ('A' for Active; 'I' for Inactive)
REMARK    1  A    between atoms: C_2  and  C_5 
REMARK    2  A    between atoms: C_9  and  N_10 
REMARK       I    between atoms: N_10  and  C_11 
REMARK       I    between atoms: C_11  and  N_13 
REMARK    3  A    between atoms: N_13  and  C_14 
REMARK    4  A    between atoms: C_16  and  C_17 
REMARK    5  A    between atoms: C_17  and  O_18 
ROOT
HETATM    1  N   UNL     1     -42.926 -53.045  11.836  1.00  0.00    -0.289 N 
HETATM    2  C   UNL     1     -43.973 -53.418  12.628  1.00  0.00     0.322 C 
HETATM    3  O   UNL     1     -44.692 -54.357  12.300  1.00  0.00    -0.247 OA
HETATM    4  N   UNL     1     -44.191 -52.659  13.731  1.00  0.00    -0.335 N 
HETATM    5  H   UNL     1     -42.825 -53.526  10.956  1.00  0.00     0.172 HD
HETATM    6  H   UNL     1     -43.433 -52.037  14.000  1.00  0.00     0.164 HD
ENDROOT
BRANCH   1   7
HETATM    7  C   UNL     1     -42.030 -52.062  12.152  1.00  0.00     0.152 A 
HETATM    8  N   UNL     1     -42.143 -50.778  11.912  1.00  0.00    -0.345 N 
HETATM    9  C   UNL     1     -41.040 -50.124  12.417  1.00  0.00     0.105 A 
ATOM     10  HN  UNL     1     -42.923 -50.334  11.428  1.00  0.00     0.167 HD
HETATM   11  C   UNL     1     -40.079 -50.922  13.018  1.00  0.00     0.009 A 
HETATM   12  S   UNL     1     -40.621 -52.567  12.946  1.00  0.00    -0.056 SA
BRANCH  11  13
HETATM   13  C   UNL     1     -38.759 -50.534  13.674  1.00  0.00    -0.016 C 
HETATM   14  C   UNL     1     -37.566 -50.825  12.736  1.00  0.00     0.020 C 
HETATM   15  C   UNL     1     -38.545 -51.341  14.968  1.00  0.00     0.020 C 
HETATM   16  C   UNL     1     -38.747 -49.027  13.991  1.00  0.00     0.020 C 
ENDBRANCH  11  13
ENDBRANCH   1   7
BRANCH   4  17
HETATM   17  C   UNL     1     -45.245 -52.865  14.678  1.00  0.00     0.109 C 
HETATM   18  C   UNL     1     -44.895 -52.317  16.067  1.00  0.00     0.040 C 
HETATM   19  C   UNL     1     -46.160 -51.592  16.558  1.00  0.00     0.034 C 
HETATM   20  C   UNL     1     -46.867 -51.269  15.272  1.00  0.00    -0.022 C 
HETATM   21  C   UNL     1     -46.381 -51.988  14.257  1.00  0.00    -0.005 C 
BRANCH  19  22
HETATM   22  C   UNL     1     -45.818 -50.371  17.414  1.00  0.00     0.172 C 
BRANCH  22  23
HETATM   23  O   UNL     1     -46.999 -49.778  17.947  1.00  0.00    -0.400 OA
HETATM   24  H   UNL     1     -47.302 -49.113  17.305  1.00  0.00     0.209 HD
ENDBRANCH  22  23
ENDBRANCH  19  22
ENDBRANCH   4  17
TORSDOF 5
ENDMDL
MODEL 4
REMARK VINA RESULT:      -5.9      2.560      6.565
REMARK  5 active torsions:
REMARK  status: ('A' for Active; 'I' for Inactive)
REMARK    1  A    between atoms: C_2  and  C_5 
REMARK    2  A    between atoms: C_9  and  N_10 
REMARK       I    between atoms: N_10  and  C_11 
REMARK       I    between atoms: C_11  and  N_13 
REMARK    3  A    between atoms: N_13  and  C_14 
REMARK    4  A    between atoms: C_16  and  C_17 
REMARK    5  A    between atoms: C_17  and  O_18 
ROOT
HETATM    1  N   UNL     1     -40.906 -52.433  12.866  1.00  0.00    -0.289 N 
HETATM    2  C   UNL     1     -40.219 -51.371  12.353  1.00  0.00     0.322 C 
HETATM    3  O   UNL     1     -38.992 -51.390  12.312  1.00  0.00    -0.247 OA
HETATM    4  N   UNL     1     -40.964 -50.306  11.964  1.00  0.00    -0.335 N 
HETATM    5  H   UNL     1     -40.359 -53.180  13.265  1.00  0.00     0.172 HD
HETATM    6  H   UNL     1     -41.961 -50.474  11.866  1.00  0.00     0.164 HD
ENDROOT
BRANCH   1   7
HETATM    7  C   UNL     1     -42.269 -52.535  12.887  1.00  0.00     0.152 A 
HETATM    8  N   UNL     1     -43.038 -53.077  11.975  1.00  0.00    -0.345 N 
HETATM    9  C   UNL     1     -44.350 -53.007  12.390  1.00  0.00     0.105 A 
ATOM     10  HN  UNL     1     -42.716 -53.486  11.098  1.00  0.00     0.167 HD
HETATM   11  C   UNL     1     -44.573 -52.385  13.609  1.00  0.00     0.009 A 
HETATM   12  S   UNL     1     -43.041 -51.890  14.251  1.00  0.00    -0.056 SA
BRANCH  11  13
HETATM   13  C   UNL     1     -45.879 -52.142  14.356  1.00  0.00    -0.016 C 
HETATM   14  C   UNL     1     -46.470 -53.466  14.889  1.00  0.00     0.020 C 
HETATM   15  C   UNL     1     -46.923 -51.505  13.420  1.00  0.00     0.020 C 
HETATM   16  C   UNL     1     -45.633 -51.220  15.566  1.00  0.00     0.020 C 
ENDBRANCH  11  13
ENDBRANCH   1   7
BRANCH   4  17
HETATM   17  C   UNL     1     -40.441 -49.088  11.422  1.00  0.00     0.109 C 
HETATM   18  C   UNL     1     -41.449 -48.377  10.511  1.00  0.00     0.040 C 
HETATM   19  C   UNL     1     -41.370 -46.888  10.890  1.00  0.00     0.034 C 
HETATM   20  C   UNL     1     -40.830 -46.938  12.291  1.00  0.00    -0.022 C 
HETATM   21  C   UNL     1     -40.298 -48.133  12.564  1.00  0.00    -0.005 C 
BRANCH  19  22
HETATM   22  C   UNL     1     -42.730 -46.197  10.763  1.00  0.00     0.172 C 
BRANCH  22  23
HETATM   23  O   UNL     1     -42.868 -45.167  11.737  1.00  0.00    -0.400 OA
HETATM   24  H   UNL     1     -43.150 -45.591  12.566  1.00  0.00     0.209 HD
ENDBRANCH  22  23
ENDBRANCH  19  22
ENDBRANCH   4  17
TORSDOF 5
ENDMDL
MODEL 5
REMARK VINA RESULT:      -5.8      3.049      4.126
REMARK  5 active torsions:
REMARK  status: ('A' for Active; 'I' for Inactive)
REMARK    1  A    between atoms: C_2  and  C_5 
REMARK    2  A    between atoms: C_9  and  N_10 
REMARK       I    between atoms: N_10  and  C_11 
REMARK       I    between atoms: C_11  and  N_13 
REMARK    3  A    between atoms: N_13  and  C_14 
REMARK    4  A    between atoms: C_16  and  C_17 
REMARK    5  A    between atoms: C_17  and  O_18 
ROOT
HETATM    1  N   UNL     1     -42.293 -52.748  11.750  1.00  0.00    -0.289 N 
HETATM    2  C   UNL     1     -43.539 -52.556  12.274  1.00  0.00     0.322 C 
HETATM    3  O   UNL     1     -44.394 -53.430  12.171  1.00  0.00    -0.247 OA
HETATM    4  N   UNL     1     -43.771 -51.345  12.840  1.00  0.00    -0.335 N 
HETATM    5  H   UNL     1     -42.145 -53.596  11.225  1.00  0.00     0.172 HD
HETATM    6  H   UNL     1     -42.948 -50.782  13.037  1.00  0.00     0.164 HD
ENDROOT
BRANCH   1   7
HETATM    7  C   UNL     1     -41.256 -51.866  11.877  1.00  0.00     0.152 A 
HETATM    8  N   UNL     1     -40.978 -50.850  11.098  1.00  0.00    -0.345 N 
HETATM    9  C   UNL     1     -39.872 -50.192  11.588  1.00  0.00     0.105 A 
ATOM     10  HN  UNL     1     -41.499 -50.588  10.261  1.00  0.00     0.167 HD
HETATM   11  C   UNL     1     -39.297 -50.730  12.730  1.00  0.00     0.009 A 
HETATM   12  S   UNL     1     -40.223 -52.119  13.196  1.00  0.00    -0.056 SA
BRANCH  11  13
HETATM   13  C   UNL     1     -38.085 -50.262  13.527  1.00  0.00    -0.016 C 
HETATM   14  C   UNL     1     -38.261 -50.561  15.032  1.00  0.00     0.020 C 
HETATM   15  C   UNL     1     -37.895 -48.742  13.370  1.00  0.00     0.020 C 
HETATM   16  C   UNL     1     -36.820 -50.999  13.049  1.00  0.00     0.020 C 
ENDBRANCH  11  13
ENDBRANCH   1   7
BRANCH   4  17
HETATM   17  C   UNL     1     -45.011 -50.934  13.426  1.00  0.00     0.109 C 
HETATM   18  C   UNL     1     -46.112 -51.988  13.258  1.00  0.00     0.040 C 
HETATM   19  C   UNL     1     -46.824 -52.065  14.619  1.00  0.00     0.034 C 
HETATM   20  C   UNL     1     -45.773 -51.552  15.563  1.00  0.00    -0.022 C 
HETATM   21  C   UNL     1     -44.802 -50.911  14.907  1.00  0.00    -0.005 C 
BRANCH  19  22
HETATM   22  C   UNL     1     -47.309 -53.483  14.927  1.00  0.00     0.172 C 
BRANCH  22  23
HETATM   23  O   UNL     1     -46.640 -54.438  14.109  1.00  0.00    -0.400 OA
HETATM   24  H   UNL     1     -46.956 -54.308  13.198  1.00  0.00     0.209 HD
ENDBRANCH  22  23
ENDBRANCH  19  22
ENDBRANCH   4  17
TORSDOF 5
ENDMDL
MODEL 6
REMARK VINA RESULT:      -5.7      3.543      4.700
REMARK  5 active torsions:
REMARK  status: ('A' for Active; 'I' for Inactive)
REMARK    1  A    between atoms: C_2  and  C_5 
REMARK    2  A    between atoms: C_9  and  N_10 
REMARK       I    between atoms: N_10  and  C_11 
REMARK       I    between atoms: C_11  and  N_13 
REMARK    3  A    between atoms: N_13  and  C_14 
REMARK    4  A    between atoms: C_16  and  C_17 
REMARK    5  A    between atoms: C_17  and  O_18 
ROOT
HETATM    1  N   UNL     1     -42.048 -54.506  14.002  1.00  0.00    -0.289 N 
HETATM    2  C   UNL     1     -43.373 -54.555  14.329  1.00  0.00     0.322 C 
HETATM    3  O   UNL     1     -43.816 -55.502  14.972  1.00  0.00    -0.247 OA
HETATM    4  N   UNL     1     -44.145 -53.548  13.851  1.00  0.00    -0.335 N 
HETATM    5  H   UNL     1     -41.487 -55.306  14.251  1.00  0.00     0.172 HD
HETATM    6  H   UNL     1     -43.647 -52.733  13.501  1.00  0.00     0.164 HD
ENDROOT
BRANCH   1   7
HETATM    7  C   UNL     1     -41.449 -53.462  13.354  1.00  0.00     0.152 A 
HETATM    8  N   UNL     1     -41.694 -53.038  12.139  1.00  0.00    -0.345 N 
HETATM    9  C   UNL     1     -40.901 -51.942  11.874  1.00  0.00     0.105 A 
ATOM     10  HN  UNL     1     -42.363 -53.453  11.492  1.00  0.00     0.167 HD
HETATM   11  C   UNL     1     -40.037 -51.554  12.886  1.00  0.00     0.009 A 
HETATM   12  S   UNL     1     -40.264 -52.625  14.230  1.00  0.00    -0.056 SA
BRANCH  11  13
HETATM   13  C   UNL     1     -39.039 -50.403  12.930  1.00  0.00    -0.016 C 
HETATM   14  C   UNL     1     -39.243 -49.444  11.736  1.00  0.00     0.020 C 
HETATM   15  C   UNL     1     -37.597 -50.939  12.860  1.00  0.00     0.020 C 
HETATM   16  C   UNL     1     -39.230 -49.586  14.223  1.00  0.00     0.020 C 
ENDBRANCH  11  13
ENDBRANCH   1   7
BRANCH   4  17
HETATM   17  C   UNL     1     -45.557 -53.422  14.059  1.00  0.00     0.109 C 
HETATM   18  C   UNL     1     -45.905 -53.128  15.523  1.00  0.00     0.040 C 
HETATM   19  C   UNL     1     -46.982 -52.030  15.481  1.00  0.00     0.034 C 
HETATM   20  C   UNL     1     -46.740 -51.392  14.142  1.00  0.00    -0.022 C 
HETATM   21  C   UNL     1     -45.986 -52.171  13.362  1.00  0.00    -0.005 C 
BRANCH  19  22
HETATM   22  C   UNL     1     -46.863 -51.071  16.667  1.00  0.00     0.172 C 
BRANCH  22  23
HETATM   23  O   UNL     1     -45.840 -51.495  17.563  1.00  0.00    -0.400 OA
HETATM   24  H   UNL     1     -46.280 -51.900  18.330  1.00  0.00     0.209 HD
ENDBRANCH  22  23
ENDBRANCH  19  22
ENDBRANCH   4  17
TORSDOF 5
ENDMDL
MODEL 7
REMARK VINA RESULT:      -5.7      2.199      2.656
REMARK  5 active torsions:
REMARK  status: ('A' for Active; 'I' for Inactive)
REMARK    1  A    between atoms: C_2  and  C_5 
REMARK    2  A    between atoms: C_9  and  N_10 
REMARK       I    between atoms: N_10  and  C_11 
REMARK       I    between atoms: C_11  and  N_13 
REMARK    3  A    between atoms: N_13  and  C_14 
REMARK    4  A    between atoms: C_16  and  C_17 
REMARK    5  A    between atoms: C_17  and  O_18 
ROOT
HETATM    1  N   UNL     1     -41.624 -50.777  11.956  1.00  0.00    -0.289 N 
HETATM    2  C   UNL     1     -42.466 -51.746  12.422  1.00  0.00     0.322 C 
HETATM    3  O   UNL     1     -42.091 -52.913  12.482  1.00  0.00    -0.247 OA
HETATM    4  N   UNL     1     -43.722 -51.346  12.740  1.00  0.00    -0.335 N 
HETATM    5  H   UNL     1     -40.728 -51.080  11.607  1.00  0.00     0.172 HD
HETATM    6  H   UNL     1     -43.860 -50.344  12.831  1.00  0.00     0.164 HD
ENDROOT
BRANCH   1   7
HETATM    7  C   UNL     1     -41.925 -49.444  11.920  1.00  0.00     0.152 A 
HETATM    8  N   UNL     1     -42.487 -48.784  10.937  1.00  0.00    -0.345 N 
HETATM    9  C   UNL     1     -42.647 -47.467  11.309  1.00  0.00     0.105 A 
ATOM     10  HN  UNL     1     -42.762 -49.183  10.039  1.00  0.00     0.167 HD
HETATM   11  C   UNL     1     -42.180 -47.127  12.569  1.00  0.00     0.009 A 
HETATM   12  S   UNL     1     -41.529 -48.554  13.306  1.00  0.00    -0.056 SA
BRANCH  11  13
HETATM   13  C   UNL     1     -42.199 -45.783  13.288  1.00  0.00    -0.016 C 
HETATM   14  C   UNL     1     -40.887 -45.552  14.069  1.00  0.00     0.020 C 
HETATM   15  C   UNL     1     -43.361 -45.730  14.297  1.00  0.00     0.020 C 
HETATM   16  C   UNL     1     -42.342 -44.638  12.267  1.00  0.00     0.020 C 
ENDBRANCH  11  13
ENDBRANCH   1   7
BRANCH   4  17
HETATM   17  C   UNL     1     -44.762 -52.204  13.223  1.00  0.00     0.109 C 
HETATM   18  C   UNL     1     -44.903 -52.145  14.749  1.00  0.00     0.040 C 
HETATM   19  C   UNL     1     -46.415 -52.080  15.024  1.00  0.00     0.034 C 
HETATM   20  C   UNL     1     -46.954 -51.524  13.735  1.00  0.00    -0.022 C 
HETATM   21  C   UNL     1     -46.056 -51.622  12.751  1.00  0.00    -0.005 C 
BRANCH  19  22
HETATM   22  C   UNL     1     -46.733 -51.232  16.257  1.00  0.00     0.172 C 
BRANCH  22  23
HETATM   23  O   UNL     1     -48.040 -51.516  16.746  1.00  0.00    -0.400 OA
HETATM   24  H   UNL     1     -47.936 -51.953  17.608  1.00  0.00     0.209 HD
ENDBRANCH  22  23
ENDBRANCH  19  22
ENDBRANCH   4  17
TORSDOF 5
ENDMDL
MODEL 8
REMARK VINA RESULT:      -5.7      4.056      7.093
REMARK  5 active torsions:
REMARK  status: ('A' for Active; 'I' for Inactive)
REMARK    1  A    between atoms: C_2  and  C_5 
REMARK    2  A    between atoms: C_9  and  N_10 
REMARK       I    between atoms: N_10  and  C_11 
REMARK       I    between atoms: C_11  and  N_13 
REMARK    3  A    between atoms: N_13  and  C_14 
REMARK    4  A    between atoms: C_16  and  C_17 
REMARK    5  A    between atoms: C_17  and  O_18 
ROOT
HETATM    1  N   UNL     1     -41.384 -54.422  13.424  1.00  0.00    -0.289 N 
HETATM    2  C   UNL     1     -40.246 -53.705  13.660  1.00  0.00     0.322 C 
HETATM    3  O   UNL     1     -39.151 -54.259  13.638  1.00  0.00    -0.247 OA
HETATM    4  N   UNL     1     -40.416 -52.396  13.974  1.00  0.00    -0.335 N 
HETATM    5  H   UNL     1     -41.279 -55.418  13.306  1.00  0.00     0.172 HD
HETATM    6  H   UNL     1     -41.335 -52.008  13.777  1.00  0.00     0.164 HD
ENDROOT
BRANCH   1   7
HETATM    7  C   UNL     1     -42.638 -53.882  13.356  1.00  0.00     0.152 A 
HETATM    8  N   UNL     1     -43.278 -53.496  12.280  1.00  0.00    -0.345 N 
HETATM    9  C   UNL     1     -44.528 -53.040  12.636  1.00  0.00     0.105 A 
ATOM     10  HN  UNL     1     -42.909 -53.529  11.330  1.00  0.00     0.167 HD
HETATM   11  C   UNL     1     -44.822 -53.058  13.991  1.00  0.00     0.009 A 
HETATM   12  S   UNL     1     -43.450 -53.700  14.832  1.00  0.00    -0.056 SA
BRANCH  11  13
HETATM   13  C   UNL     1     -46.092 -52.635  14.721  1.00  0.00    -0.016 C 
HETATM   14  C   UNL     1     -46.679 -51.343  14.111  1.00  0.00     0.020 C 
HETATM   15  C   UNL     1     -45.791 -52.358  16.205  1.00  0.00     0.020 C 
HETATM   16  C   UNL     1     -47.163 -53.735  14.602  1.00  0.00     0.020 C 
ENDBRANCH  11  13
ENDBRANCH   1   7
BRANCH   4  17
HETATM   17  C   UNL     1     -39.361 -51.478  14.277  1.00  0.00     0.109 C 
HETATM   18  C   UNL     1     -38.360 -51.340  13.124  1.00  0.00     0.040 C 
HETATM   19  C   UNL     1     -38.073 -49.834  13.000  1.00  0.00     0.034 C 
HETATM   20  C   UNL     1     -39.297 -49.220  13.622  1.00  0.00    -0.022 C 
HETATM   21  C   UNL     1     -39.978 -50.117  14.340  1.00  0.00    -0.005 C 
BRANCH  19  22
HETATM   22  C   UNL     1     -37.829 -49.419  11.548  1.00  0.00     0.172 C 
BRANCH  22  23
HETATM   23  O   UNL     1     -38.731 -50.086  10.670  1.00  0.00    -0.400 OA
HETATM   24  H   UNL     1     -39.217 -50.740  11.201  1.00  0.00     0.209 HD
ENDBRANCH  22  23
ENDBRANCH  19  22
ENDBRANCH   4  17
TORSDOF 5
ENDMDL
MODEL 9
REMARK VINA RESULT:      -5.6      3.745      7.543
REMARK  5 active torsions:
REMARK  status: ('A' for Active; 'I' for Inactive)
REMARK    1  A    between atoms: C_2  and  C_5 
REMARK    2  A    between atoms: C_9  and  N_10 
REMARK       I    between atoms: N_10  and  C_11 
REMARK       I    between atoms: C_11  and  N_13 
REMARK    3  A    between atoms: N_13  and  C_14 
REMARK    4  A    between atoms: C_16  and  C_17 
REMARK    5  A    between atoms: C_17  and  O_18 
ROOT
HETATM    1  N   UNL     1     -41.130 -51.261  11.259  1.00  0.00    -0.289 N 
HETATM    2  C   UNL     1     -40.209 -50.306  11.578  1.00  0.00     0.322 C 
HETATM    3  O   UNL     1     -40.041 -49.338  10.842  1.00  0.00    -0.247 OA
HETATM    4  N   UNL     1     -39.474 -50.532  12.695  1.00  0.00    -0.335 N 
HETATM    5  H   UNL     1     -41.599 -51.164  10.371  1.00  0.00     0.172 HD
HETATM    6  H   UNL     1     -39.824 -51.254  13.319  1.00  0.00     0.164 HD
ENDROOT
BRANCH   1   7
HETATM    7  C   UNL     1     -41.438 -52.333  12.049  1.00  0.00     0.152 A 
HETATM    8  N   UNL     1     -40.811 -53.482  12.106  1.00  0.00    -0.345 N 
HETATM    9  C   UNL     1     -41.416 -54.282  13.052  1.00  0.00     0.105 A 
ATOM     10  HN  UNL     1     -40.003 -53.743  11.541  1.00  0.00     0.167 HD
HETATM   11  C   UNL     1     -42.521 -53.741  13.692  1.00  0.00     0.009 A 
HETATM   12  S   UNL     1     -42.779 -52.145  13.068  1.00  0.00    -0.056 SA
BRANCH  11  13
HETATM   13  C   UNL     1     -43.411 -54.340  14.775  1.00  0.00    -0.016 C 
HETATM   14  C   UNL     1     -42.668 -55.443  15.559  1.00  0.00     0.020 C 
HETATM   15  C   UNL     1     -44.666 -54.975  14.147  1.00  0.00     0.020 C 
HETATM   16  C   UNL     1     -43.826 -53.249  15.781  1.00  0.00     0.020 C 
ENDBRANCH  11  13
ENDBRANCH   1   7
BRANCH   4  17
HETATM   17  C   UNL     1     -38.444 -49.670  13.192  1.00  0.00     0.109 C 
HETATM   18  C   UNL     1     -38.953 -48.730  14.292  1.00  0.00     0.040 C 
HETATM   19  C   UNL     1     -37.869 -48.742  15.383  1.00  0.00     0.034 C 
HETATM   20  C   UNL     1     -37.175 -50.052  15.135  1.00  0.00    -0.022 C 
HETATM   21  C   UNL     1     -37.472 -50.537  13.926  1.00  0.00    -0.005 C 
BRANCH  19  22
HETATM   22  C   UNL     1     -38.469 -48.602  16.783  1.00  0.00     0.172 C 
BRANCH  22  23
HETATM   23  O   UNL     1     -38.119 -47.348  17.363  1.00  0.00    -0.400 OA
HETATM   24  H   UNL     1     -38.923 -46.990  17.778  1.00  0.00     0.209 HD
ENDBRANCH  22  23
ENDBRANCH  19  22
ENDBRANCH   4  17
TORSDOF 5
ENDMDL
