MODEL 1
REMARK VINA RESULT:      -6.2      0.000      0.000
REMARK  4 active torsions:
REMARK  status: ('A' for Active; 'I' for Inactive)
REMARK    1  A    between atoms: O_2  and  C_3 
REMARK    2  A    between atoms: C_9  and  N_10 
REMARK       I    between atoms: N_10  and  C_11 
REMARK       I    between atoms: C_11  and  N_13 
REMARK    3  A    between atoms: N_13  and  C_14 
REMARK    4  A    between atoms: C_14  and  C_15 
ROOT
HETATM    1  N   UNL     1     -42.625 -52.092  12.406  1.00  0.00    -0.305 N 
HETATM    2  C   UNL     1     -42.843 -50.767  12.713  1.00  0.00     0.320 C 
HETATM    3  O   UNL     1     -43.429 -50.349  13.705  1.00  0.00    -0.247 OA
HETATM    4  N   UNL     1     -42.354 -49.877  11.767  1.00  0.00    -0.342 N 
HETATM    5  H   UNL     1     -41.989 -52.329  11.656  1.00  0.00     0.171 HD
HETATM    6  H   UNL     1     -41.531 -50.170  11.260  1.00  0.00     0.164 HD
ENDROOT
BRANCH   1   7
HETATM    7  C   UNL     1     -43.137 -53.193  13.154  1.00  0.00     0.087 A 
HETATM    8  C   UNL     1     -44.451 -53.651  12.972  1.00  0.00     0.169 A 
HETATM    9  N   UNL     1     -44.994 -54.691  13.657  1.00  0.00    -0.345 N 
HETATM   10  C   UNL     1     -44.216 -55.305  14.570  1.00  0.00     0.090 A 
ATOM     11  HN  UNL     1     -45.952 -54.995  13.488  1.00  0.00     0.167 HD
HETATM   12  C   UNL     1     -42.918 -54.925  14.838  1.00  0.00     0.019 A 
HETATM   13  C   UNL     1     -42.383 -53.857  14.125  1.00  0.00     0.035 A 
BRANCH   8  14
HETATM   14  O   UNL     1     -45.236 -53.026  12.015  1.00  0.00    -0.339 OA
HETATM   15  C   UNL     1     -46.293 -52.263  12.609  1.00  0.00     0.211 C 
ENDBRANCH   8  14
ENDBRANCH   1   7
BRANCH   4  16
HETATM   16  C   UNL     1     -42.510 -48.468  12.094  1.00  0.00     0.130 C 
BRANCH  16  17
HETATM   17  C   UNL     1     -43.032 -47.596  10.960  1.00  0.00     0.018 C 
HETATM   18  C   UNL     1     -44.541 -47.834  10.737  1.00  0.00     0.022 C 
HETATM   19  C   UNL     1     -44.933 -47.350   9.340  1.00  0.00     0.141 C 
HETATM   20  S   UNL     1     -43.418 -47.102   8.438  1.00  0.00     0.144 S 
HETATM   21  O   UNL     1     -43.443 -47.891   7.224  1.00  0.00    -0.228 OA
HETATM   22  O   UNL     1     -43.111 -45.687   8.437  1.00  0.00    -0.228 OA
HETATM   23  C   UNL     1     -42.362 -47.897   9.624  1.00  0.00     0.146 C 
ENDBRANCH  16  17
ENDBRANCH   4  16
TORSDOF 4
ENDMDL
MODEL 2
REMARK VINA RESULT:      -6.1      1.881      2.095
REMARK  4 active torsions:
REMARK  status: ('A' for Active; 'I' for Inactive)
REMARK    1  A    between atoms: O_2  and  C_3 
REMARK    2  A    between atoms: C_9  and  N_10 
REMARK       I    between atoms: N_10  and  C_11 
REMARK       I    between atoms: C_11  and  N_13 
REMARK    3  A    between atoms: N_13  and  C_14 
REMARK    4  A    between atoms: C_14  and  C_15 
ROOT
HETATM    1  N   UNL     1     -42.895 -52.469  11.961  1.00  0.00    -0.305 N 
HETATM    2  C   UNL     1     -42.159 -51.390  12.400  1.00  0.00     0.320 C 
HETATM    3  O   UNL     1     -41.955 -51.091  13.571  1.00  0.00    -0.247 OA
HETATM    4  N   UNL     1     -41.651 -50.596  11.381  1.00  0.00    -0.342 N 
HETATM    5  H   UNL     1     -42.865 -52.724  10.983  1.00  0.00     0.171 HD
HETATM    6  H   UNL     1     -41.427 -51.068  10.516  1.00  0.00     0.164 HD
ENDROOT
BRANCH   1   7
HETATM    7  C   UNL     1     -43.618 -53.357  12.810  1.00  0.00     0.087 A 
HETATM    8  C   UNL     1     -45.020 -53.416  12.779  1.00  0.00     0.169 A 
HETATM    9  N   UNL     1     -45.763 -54.239  13.565  1.00  0.00    -0.345 N 
HETATM   10  C   UNL     1     -45.101 -55.033  14.429  1.00  0.00     0.090 A 
ATOM     11  HN  UNL     1     -46.780 -54.254  13.505  1.00  0.00     0.167 HD
HETATM   12  C   UNL     1     -43.728 -55.041  14.552  1.00  0.00     0.019 A 
HETATM   13  C   UNL     1     -42.988 -54.190  13.736  1.00  0.00     0.035 A 
BRANCH   8  14
HETATM   14  O   UNL     1     -45.690 -52.610  11.871  1.00  0.00    -0.339 OA
HETATM   15  C   UNL     1     -46.523 -51.647  12.528  1.00  0.00     0.211 C 
ENDBRANCH   8  14
ENDBRANCH   1   7
BRANCH   4  16
HETATM   16  C   UNL     1     -40.814 -49.486  11.810  1.00  0.00     0.130 C 
BRANCH  16  17
HETATM   17  C   UNL     1     -41.427 -48.106  11.623  1.00  0.00     0.018 C 
HETATM   18  C   UNL     1     -42.312 -48.066  10.358  1.00  0.00     0.022 C 
HETATM   19  C   UNL     1     -42.514 -46.614   9.922  1.00  0.00     0.141 C 
HETATM   20  S   UNL     1     -41.319 -45.639  10.811  1.00  0.00     0.144 S 
HETATM   21  O   UNL     1     -40.504 -44.897   9.872  1.00  0.00    -0.228 OA
HETATM   22  O   UNL     1     -41.985 -45.005  11.930  1.00  0.00    -0.228 OA
HETATM   23  C   UNL     1     -40.381 -47.014  11.432  1.00  0.00     0.146 C 
ENDBRANCH  16  17
ENDBRANCH   4  16
TORSDOF 4
ENDMDL
MODEL 3
REMARK VINA RESULT:      -6.1      2.372      3.061
REMARK  4 active torsions:
REMARK  status: ('A' for Active; 'I' for Inactive)
REMARK    1  A    between atoms: O_2  and  C_3 
REMARK    2  A    between atoms: C_9  and  N_10 
REMARK       I    between atoms: N_10  and  C_11 
REMARK       I    between atoms: C_11  and  N_13 
REMARK    3  A    between atoms: N_13  and  C_14 
REMARK    4  A    between atoms: C_14  and  C_15 
ROOT
HETATM    1  N   UNL     1     -42.178 -52.445  11.728  1.00  0.00    -0.305 N 
HETATM    2  C   UNL     1     -41.522 -51.295  12.111  1.00  0.00     0.320 C 
HETATM    3  O   UNL     1     -41.491 -50.832  13.245  1.00  0.00    -0.247 OA
HETATM    4  N   UNL     1     -40.879 -50.636  11.072  1.00  0.00    -0.342 N 
HETATM    5  H   UNL     1     -42.005 -52.832  10.809  1.00  0.00     0.171 HD
HETATM    6  H   UNL     1     -40.529 -51.216  10.323  1.00  0.00     0.164 HD
ENDROOT
BRANCH   1   7
HETATM    7  C   UNL     1     -43.009 -53.227  12.582  1.00  0.00     0.087 A 
HETATM    8  C   UNL     1     -42.460 -54.120  13.516  1.00  0.00     0.169 A 
HETATM    9  N   UNL     1     -43.201 -54.893  14.353  1.00  0.00    -0.345 N 
HETATM   10  C   UNL     1     -44.542 -54.794  14.263  1.00  0.00     0.090 A 
ATOM     11  HN  UNL     1     -42.760 -55.524  15.022  1.00  0.00     0.167 HD
HETATM   12  C   UNL     1     -45.182 -53.962  13.370  1.00  0.00     0.019 A 
HETATM   13  C   UNL     1     -44.404 -53.179  12.522  1.00  0.00     0.035 A 
BRANCH   8  14
HETATM   14  O   UNL     1     -41.080 -54.199  13.615  1.00  0.00    -0.339 OA
HETATM   15  C   UNL     1     -40.629 -54.000  14.960  1.00  0.00     0.211 C 
ENDBRANCH   8  14
ENDBRANCH   1   7
BRANCH   4  16
HETATM   16  C   UNL     1     -40.122 -49.454  11.455  1.00  0.00     0.130 C 
BRANCH  16  17
HETATM   17  C   UNL     1     -40.911 -48.153  11.452  1.00  0.00     0.018 C 
HETATM   18  C   UNL     1     -41.907 -48.119  10.272  1.00  0.00     0.022 C 
HETATM   19  C   UNL     1     -42.321 -46.673   9.995  1.00  0.00     0.141 C 
HETATM   20  S   UNL     1     -41.175 -45.632  10.875  1.00  0.00     0.144 S 
HETATM   21  O   UNL     1     -40.545 -44.715   9.948  1.00  0.00    -0.228 OA
HETATM   22  O   UNL     1     -41.807 -45.187  12.099  1.00  0.00    -0.228 OA
HETATM   23  C   UNL     1     -40.025 -46.923  11.283  1.00  0.00     0.146 C 
ENDBRANCH  16  17
ENDBRANCH   4  16
TORSDOF 4
ENDMDL
MODEL 4
REMARK VINA RESULT:      -6.1      3.100      7.444
REMARK  4 active torsions:
REMARK  status: ('A' for Active; 'I' for Inactive)
REMARK    1  A    between atoms: O_2  and  C_3 
REMARK    2  A    between atoms: C_9  and  N_10 
REMARK       I    between atoms: N_10  and  C_11 
REMARK       I    between atoms: C_11  and  N_13 
REMARK    3  A    between atoms: N_13  and  C_14 
REMARK    4  A    between atoms: C_14  and  C_15 
ROOT
HETATM    1  N   UNL     1     -41.798 -49.339  10.958  1.00  0.00    -0.305 N 
HETATM    2  C   UNL     1     -42.031 -49.967  12.162  1.00  0.00     0.320 C 
HETATM    3  O   UNL     1     -42.091 -49.418  13.256  1.00  0.00    -0.247 OA
HETATM    4  N   UNL     1     -42.177 -51.344  12.065  1.00  0.00    -0.342 N 
HETATM    5  H   UNL     1     -41.934 -49.852  10.097  1.00  0.00     0.171 HD
HETATM    6  H   UNL     1     -42.577 -51.692  11.205  1.00  0.00     0.164 HD
ENDROOT
BRANCH   1   7
HETATM    7  C   UNL     1     -41.494 -47.954  10.811  1.00  0.00     0.087 A 
HETATM    8  C   UNL     1     -42.354 -47.088  10.118  1.00  0.00     0.169 A 
HETATM    9  N   UNL     1     -42.115 -45.761   9.943  1.00  0.00    -0.345 N 
HETATM   10  C   UNL     1     -40.977 -45.263  10.463  1.00  0.00     0.090 A 
ATOM     11  HN  UNL     1     -42.772 -45.167   9.437  1.00  0.00     0.167 HD
HETATM   12  C   UNL     1     -40.058 -46.029  11.147  1.00  0.00     0.019 A 
HETATM   13  C   UNL     1     -40.322 -47.385  11.314  1.00  0.00     0.035 A 
BRANCH   8  14
HETATM   14  O   UNL     1     -43.533 -47.606   9.604  1.00  0.00    -0.339 OA
HETATM   15  C   UNL     1     -43.511 -47.665   8.173  1.00  0.00     0.211 C 
ENDBRANCH   8  14
ENDBRANCH   1   7
BRANCH   4  16
HETATM   16  C   UNL     1     -42.489 -52.029  13.310  1.00  0.00     0.130 C 
BRANCH  16  17
HETATM   17  C   UNL     1     -43.722 -52.920  13.265  1.00  0.00     0.018 C 
HETATM   18  C   UNL     1     -45.010 -52.070  13.203  1.00  0.00     0.022 C 
HETATM   19  C   UNL     1     -46.204 -52.920  13.641  1.00  0.00     0.141 C 
HETATM   20  S   UNL     1     -45.541 -54.381  14.414  1.00  0.00     0.144 S 
HETATM   21  O   UNL     1     -46.070 -54.501  15.756  1.00  0.00    -0.228 OA
HETATM   22  O   UNL     1     -45.591 -55.468  13.458  1.00  0.00    -0.228 OA
HETATM   23  C   UNL     1     -43.864 -53.799  14.502  1.00  0.00     0.146 C 
ENDBRANCH  16  17
ENDBRANCH   4  16
TORSDOF 4
ENDMDL
MODEL 5
REMARK VINA RESULT:      -6.0      2.940      7.296
REMARK  4 active torsions:
REMARK  status: ('A' for Active; 'I' for Inactive)
REMARK    1  A    between atoms: O_2  and  C_3 
REMARK    2  A    between atoms: C_9  and  N_10 
REMARK       I    between atoms: N_10  and  C_11 
REMARK       I    between atoms: C_11  and  N_13 
REMARK    3  A    between atoms: N_13  and  C_14 
REMARK    4  A    between atoms: C_14  and  C_15 
ROOT
HETATM    1  N   UNL     1     -41.207 -49.151  10.627  1.00  0.00    -0.305 N 
HETATM    2  C   UNL     1     -40.903 -49.980  11.685  1.00  0.00     0.320 C 
HETATM    3  O   UNL     1     -40.668 -49.619  12.833  1.00  0.00    -0.247 OA
HETATM    4  N   UNL     1     -40.848 -51.326  11.355  1.00  0.00    -0.342 N 
HETATM    5  H   UNL     1     -41.547 -49.554   9.764  1.00  0.00     0.171 HD
HETATM    6  H   UNL     1     -41.459 -51.630  10.609  1.00  0.00     0.164 HD
ENDROOT
BRANCH   1   7
HETATM    7  C   UNL     1     -41.201 -47.727  10.684  1.00  0.00     0.087 A 
HETATM    8  C   UNL     1     -42.325 -46.977  10.304  1.00  0.00     0.169 A 
HETATM    9  N   UNL     1     -42.376 -45.619  10.333  1.00  0.00    -0.345 N 
HETATM   10  C   UNL     1     -41.273 -44.966  10.746  1.00  0.00     0.090 A 
ATOM     11  HN  UNL     1     -43.217 -45.114  10.054  1.00  0.00     0.167 HD
HETATM   12  C   UNL     1     -40.112 -45.605  11.126  1.00  0.00     0.019 A 
HETATM   13  C   UNL     1     -40.081 -46.996  11.087  1.00  0.00     0.035 A 
BRANCH   8  14
HETATM   14  O   UNL     1     -43.462 -47.659   9.900  1.00  0.00    -0.339 OA
HETATM   15  C   UNL     1     -43.775 -47.408   8.525  1.00  0.00     0.211 C 
ENDBRANCH   8  14
ENDBRANCH   1   7
BRANCH   4  16
HETATM   16  C   UNL     1     -40.595 -52.233  12.464  1.00  0.00     0.130 C 
BRANCH  16  17
HETATM   17  C   UNL     1     -41.827 -52.641  13.259  1.00  0.00     0.018 C 
HETATM   18  C   UNL     1     -41.617 -54.019  13.926  1.00  0.00     0.022 C 
HETATM   19  C   UNL     1     -42.974 -54.620  14.293  1.00  0.00     0.141 C 
HETATM   20  S   UNL     1     -44.209 -53.668  13.432  1.00  0.00     0.144 S 
HETATM   21  O   UNL     1     -45.014 -54.548  12.613  1.00  0.00    -0.228 OA
HETATM   22  O   UNL     1     -44.792 -52.725  14.364  1.00  0.00    -0.228 OA
HETATM   23  C   UNL     1     -43.071 -52.786  12.391  1.00  0.00     0.146 C 
ENDBRANCH  16  17
ENDBRANCH   4  16
TORSDOF 4
ENDMDL
MODEL 6
REMARK VINA RESULT:      -5.6      3.730      7.788
REMARK  4 active torsions:
REMARK  status: ('A' for Active; 'I' for Inactive)
REMARK    1  A    between atoms: O_2  and  C_3 
REMARK    2  A    between atoms: C_9  and  N_10 
REMARK       I    between atoms: N_10  and  C_11 
REMARK       I    between atoms: C_11  and  N_13 
REMARK    3  A    between atoms: N_13  and  C_14 
REMARK    4  A    between atoms: C_14  and  C_15 
ROOT
HETATM    1  N   UNL     1     -40.810 -49.473  10.898  1.00  0.00    -0.305 N 
HETATM    2  C   UNL     1     -41.526 -50.324  11.711  1.00  0.00     0.320 C 
HETATM    3  O   UNL     1     -42.299 -49.984  12.599  1.00  0.00    -0.247 OA
HETATM    4  N   UNL     1     -41.291 -51.671  11.470  1.00  0.00    -0.342 N 
HETATM    5  H   UNL     1     -40.331 -49.847  10.089  1.00  0.00     0.171 HD
HETATM    6  H   UNL     1     -41.061 -51.923  10.519  1.00  0.00     0.164 HD
ENDROOT
BRANCH   1   7
HETATM    7  C   UNL     1     -40.785 -48.054  11.031  1.00  0.00     0.087 A 
HETATM    8  C   UNL     1     -41.706 -47.241  10.351  1.00  0.00     0.169 A 
HETATM    9  N   UNL     1     -41.728 -45.885  10.436  1.00  0.00    -0.345 N 
HETATM   10  C   UNL     1     -40.800 -45.298  11.215  1.00  0.00     0.090 A 
ATOM     11  HN  UNL     1     -42.421 -45.334   9.929  1.00  0.00     0.167 HD
HETATM   12  C   UNL     1     -39.841 -46.001  11.912  1.00  0.00     0.019 A 
HETATM   13  C   UNL     1     -39.836 -47.389  11.810  1.00  0.00     0.035 A 
BRANCH   8  14
HETATM   14  O   UNL     1     -42.671 -47.857   9.568  1.00  0.00    -0.339 OA
HETATM   15  C   UNL     1     -43.996 -47.500   9.976  1.00  0.00     0.211 C 
ENDBRANCH   8  14
ENDBRANCH   1   7
BRANCH   4  16
HETATM   16  C   UNL     1     -42.082 -52.596  12.268  1.00  0.00     0.130 C 
BRANCH  16  17
HETATM   17  C   UNL     1     -41.276 -53.603  13.076  1.00  0.00     0.018 C 
HETATM   18  C   UNL     1     -42.093 -54.114  14.284  1.00  0.00     0.022 C 
HETATM   19  C   UNL     1     -41.145 -54.716  15.322  1.00  0.00     0.141 C 
HETATM   20  S   UNL     1     -39.499 -54.203  14.877  1.00  0.00     0.144 S 
HETATM   21  O   UNL     1     -38.889 -53.513  15.993  1.00  0.00    -0.228 OA
HETATM   22  O   UNL     1     -38.847 -55.299  14.191  1.00  0.00    -0.228 OA
HETATM   23  C   UNL     1     -40.000 -53.009  13.660  1.00  0.00     0.146 C 
ENDBRANCH  16  17
ENDBRANCH   4  16
TORSDOF 4
ENDMDL
MODEL 7
REMARK VINA RESULT:      -5.6      1.793      2.768
REMARK  4 active torsions:
REMARK  status: ('A' for Active; 'I' for Inactive)
REMARK    1  A    between atoms: O_2  and  C_3 
REMARK    2  A    between atoms: C_9  and  N_10 
REMARK       I    between atoms: N_10  and  C_11 
REMARK       I    between atoms: C_11  and  N_13 
REMARK    3  A    between atoms: N_13  and  C_14 
REMARK    4  A    between atoms: C_14  and  C_15 
ROOT
HETATM    1  N   UNL     1     -43.811 -51.532  12.519  1.00  0.00    -0.305 N 
HETATM    2  C   UNL     1     -42.788 -50.682  12.879  1.00  0.00     0.320 C 
HETATM    3  O   UNL     1     -42.522 -50.326  14.021  1.00  0.00    -0.247 OA
HETATM    4  N   UNL     1     -42.047 -50.200  11.810  1.00  0.00    -0.342 N 
HETATM    5  H   UNL     1     -43.845 -51.895  11.575  1.00  0.00     0.171 HD
HETATM    6  H   UNL     1     -41.964 -50.813  11.010  1.00  0.00     0.164 HD
ENDROOT
BRANCH   1   7
HETATM    7  C   UNL     1     -44.784 -52.058  13.419  1.00  0.00     0.087 A 
HETATM    8  C   UNL     1     -44.684 -53.366  13.918  1.00  0.00     0.169 A 
HETATM    9  N   UNL     1     -45.582 -53.921  14.774  1.00  0.00    -0.345 N 
HETATM   10  C   UNL     1     -46.630 -53.164  15.150  1.00  0.00     0.090 A 
ATOM     11  HN  UNL     1     -45.467 -54.875  15.118  1.00  0.00     0.167 HD
HETATM   12  C   UNL     1     -46.831 -51.874  14.707  1.00  0.00     0.019 A 
HETATM   13  C   UNL     1     -45.900 -51.325  13.830  1.00  0.00     0.035 A 
BRANCH   8  14
HETATM   14  O   UNL     1     -43.591 -54.130  13.541  1.00  0.00    -0.339 OA
HETATM   15  C   UNL     1     -42.950 -54.736  14.669  1.00  0.00     0.211 C 
ENDBRANCH   8  14
ENDBRANCH   1   7
BRANCH   4  16
HETATM   16  C   UNL     1     -40.919 -49.352  12.162  1.00  0.00     0.130 C 
BRANCH  16  17
HETATM   17  C   UNL     1     -41.045 -47.898  11.731  1.00  0.00     0.018 C 
HETATM   18  C   UNL     1     -41.865 -47.091  12.761  1.00  0.00     0.022 C 
HETATM   19  C   UNL     1     -42.387 -45.810  12.108  1.00  0.00     0.141 C 
HETATM   20  S   UNL     1     -42.169 -46.003  10.351  1.00  0.00     0.144 S 
HETATM   21  O   UNL     1     -43.442 -45.830   9.684  1.00  0.00    -0.228 OA
HETATM   22  O   UNL     1     -40.980 -45.279   9.955  1.00  0.00    -0.228 OA
HETATM   23  C   UNL     1     -41.772 -47.734  10.402  1.00  0.00     0.146 C 
ENDBRANCH  16  17
ENDBRANCH   4  16
TORSDOF 4
ENDMDL
MODEL 8
REMARK VINA RESULT:      -5.5      3.429      4.572
REMARK  4 active torsions:
REMARK  status: ('A' for Active; 'I' for Inactive)
REMARK    1  A    between atoms: O_2  and  C_3 
REMARK    2  A    between atoms: C_9  and  N_10 
REMARK       I    between atoms: N_10  and  C_11 
REMARK       I    between atoms: C_11  and  N_13 
REMARK    3  A    between atoms: N_13  and  C_14 
REMARK    4  A    between atoms: C_14  and  C_15 
ROOT
HETATM    1  N   UNL     1     -40.462 -50.546  11.305  1.00  0.00    -0.305 N 
HETATM    2  C   UNL     1     -41.423 -49.561  11.358  1.00  0.00     0.320 C 
HETATM    3  O   UNL     1     -42.292 -49.454  12.216  1.00  0.00    -0.247 OA
HETATM    4  N   UNL     1     -41.366 -48.654  10.309  1.00  0.00    -0.342 N 
HETATM    5  H   UNL     1     -39.691 -50.452  10.656  1.00  0.00     0.171 HD
HETATM    6  H   UNL     1     -40.450 -48.473   9.923  1.00  0.00     0.164 HD
ENDROOT
BRANCH   1   7
HETATM    7  C   UNL     1     -40.389 -51.658  12.194  1.00  0.00     0.087 A 
HETATM    8  C   UNL     1     -39.509 -51.662  13.287  1.00  0.00     0.169 A 
HETATM    9  N   UNL     1     -39.394 -52.693  14.165  1.00  0.00    -0.345 N 
HETATM   10  C   UNL     1     -40.170 -53.774  13.956  1.00  0.00     0.090 A 
ATOM     11  HN  UNL     1     -38.745 -52.650  14.951  1.00  0.00     0.167 HD
HETATM   12  C   UNL     1     -41.055 -53.879  12.905  1.00  0.00     0.019 A 
HETATM   13  C   UNL     1     -41.157 -52.812  12.018  1.00  0.00     0.035 A 
BRANCH   8  14
HETATM   14  O   UNL     1     -38.730 -50.536  13.505  1.00  0.00    -0.339 OA
HETATM   15  C   UNL     1     -39.184 -49.785  14.637  1.00  0.00     0.211 C 
ENDBRANCH   8  14
ENDBRANCH   1   7
BRANCH   4  16
HETATM   16  C   UNL     1     -42.326 -47.563  10.372  1.00  0.00     0.130 C 
BRANCH  16  17
HETATM   17  C   UNL     1     -41.717 -46.170  10.437  1.00  0.00     0.018 C 
HETATM   18  C   UNL     1     -40.212 -46.245  10.778  1.00  0.00     0.022 C 
HETATM   19  C   UNL     1     -39.740 -44.891  11.308  1.00  0.00     0.141 C 
HETATM   20  S   UNL     1     -41.202 -43.946  11.683  1.00  0.00     0.144 S 
HETATM   21  O   UNL     1     -41.165 -43.525  13.068  1.00  0.00    -0.228 OA
HETATM   22  O   UNL     1     -41.442 -43.020  10.596  1.00  0.00    -0.228 OA
HETATM   23  C   UNL     1     -42.344 -45.298  11.519  1.00  0.00     0.146 C 
ENDBRANCH  16  17
ENDBRANCH   4  16
TORSDOF 4
ENDMDL
MODEL 9
REMARK VINA RESULT:      -5.5      2.813      3.621
REMARK  4 active torsions:
REMARK  status: ('A' for Active; 'I' for Inactive)
REMARK    1  A    between atoms: O_2  and  C_3 
REMARK    2  A    between atoms: C_9  and  N_10 
REMARK       I    between atoms: N_10  and  C_11 
REMARK       I    between atoms: C_11  and  N_13 
REMARK    3  A    between atoms: N_13  and  C_14 
REMARK    4  A    between atoms: C_14  and  C_15 
ROOT
HETATM    1  N   UNL     1     -41.679 -50.415  11.414  1.00  0.00    -0.305 N 
HETATM    2  C   UNL     1     -40.935 -49.298  11.724  1.00  0.00     0.320 C 
HETATM    3  O   UNL     1     -40.191 -49.179  12.691  1.00  0.00    -0.247 OA
HETATM    4  N   UNL     1     -41.103 -48.240  10.842  1.00  0.00    -0.342 N 
HETATM    5  H   UNL     1     -42.129 -50.475  10.509  1.00  0.00     0.171 HD
HETATM    6  H   UNL     1     -41.308 -48.485   9.883  1.00  0.00     0.164 HD
ENDROOT
BRANCH   1   7
HETATM    7  C   UNL     1     -41.772 -51.580  12.229  1.00  0.00     0.087 A 
HETATM    8  C   UNL     1     -42.768 -51.706  13.211  1.00  0.00     0.169 A 
HETATM    9  N   UNL     1     -42.904 -52.790  14.020  1.00  0.00    -0.345 N 
HETATM   10  C   UNL     1     -42.017 -53.792  13.865  1.00  0.00     0.090 A 
ATOM     11  HN  UNL     1     -43.647 -52.842  14.716  1.00  0.00     0.167 HD
HETATM   12  C   UNL     1     -40.993 -53.763  12.944  1.00  0.00     0.019 A 
HETATM   13  C   UNL     1     -40.872 -52.643  12.126  1.00  0.00     0.035 A 
BRANCH   8  14
HETATM   14  O   UNL     1     -43.688 -50.677  13.348  1.00  0.00    -0.339 OA
HETATM   15  C   UNL     1     -45.035 -51.162  13.332  1.00  0.00     0.211 C 
ENDBRANCH   8  14
ENDBRANCH   1   7
BRANCH   4  16
HETATM   16  C   UNL     1     -40.281 -47.069  11.105  1.00  0.00     0.130 C 
BRANCH  16  17
HETATM   17  C   UNL     1     -40.929 -45.735  10.762  1.00  0.00     0.018 C 
HETATM   18  C   UNL     1     -39.942 -44.570  10.996  1.00  0.00     0.022 C 
HETATM   19  C   UNL     1     -40.719 -43.259  11.121  1.00  0.00     0.141 C 
HETATM   20  S   UNL     1     -42.431 -43.696  11.348  1.00  0.00     0.144 S 
HETATM   21  O   UNL     1     -42.924 -43.096  12.570  1.00  0.00    -0.228 OA
HETATM   22  O   UNL     1     -43.114 -43.549  10.080  1.00  0.00    -0.228 OA
HETATM   23  C   UNL     1     -42.146 -45.427  11.626  1.00  0.00     0.146 C 
ENDBRANCH  16  17
ENDBRANCH   4  16
TORSDOF 4
ENDMDL
