MODEL 1
REMARK VINA RESULT:      -5.8      0.000      0.000
REMARK  5 active torsions:
REMARK  status: ('A' for Active; 'I' for Inactive)
REMARK    1  A    between atoms: O_2  and  C_3 
REMARK    2  A    between atoms: C_5  and  N_6 
REMARK       I    between atoms: N_6  and  C_7 
REMARK       I    between atoms: C_7  and  N_9 
REMARK    3  A    between atoms: N_9  and  C_10 
REMARK    4  A    between atoms: C_10  and  C_12 
REMARK    5  A    between atoms: C_12  and  C_13 
ROOT
HETATM    1  N   UNL     1     -43.110 -53.097  11.914  1.00  0.00    -0.295 N 
HETATM    2  C   UNL     1     -43.935 -53.720  12.805  1.00  0.00     0.322 C 
HETATM    3  O   UNL     1     -44.787 -54.508  12.403  1.00  0.00    -0.247 OA
HETATM    4  N   UNL     1     -43.727 -53.447  14.118  1.00  0.00    -0.339 N 
HETATM    5  H   UNL     1     -43.267 -53.401  10.961  1.00  0.00     0.172 HD
HETATM    6  H   UNL     1     -42.964 -52.803  14.314  1.00  0.00     0.164 HD
ENDROOT
BRANCH   1   7
HETATM    7  C   UNL     1     -42.116 -52.144  12.161  1.00  0.00     0.114 A 
HETATM    8  C   UNL     1     -40.854 -52.581  12.498  1.00  0.00     0.104 A 
HETATM    9  C   UNL     1     -39.923 -51.595  12.715  1.00  0.00     0.146 A 
HETATM   10  N   UNL     1     -40.177 -50.280  12.601  1.00  0.00    -0.333 N 
HETATM   11  C   UNL     1     -41.426 -49.966  12.266  1.00  0.00     0.183 A 
ATOM     12  HN  UNL     1     -39.462 -49.571  12.760  1.00  0.00     0.168 HD
HETATM   13  N   UNL     1     -42.419 -50.835  12.059  1.00  0.00    -0.338 N 
ATOM     14  HN  UNL     1     -43.363 -50.523  11.833  1.00  0.00     0.168 HD
BRANCH   9  15
HETATM   15  O   UNL     1     -38.656 -52.010  13.073  1.00  0.00    -0.341 OA
HETATM   16  C   UNL     1     -37.707 -50.944  13.060  1.00  0.00     0.211 C 
ENDBRANCH   9  15
ENDBRANCH   1   7
BRANCH   4  17
HETATM   17  C   UNL     1     -44.371 -54.132  15.226  1.00  0.00     0.082 C 
HETATM   18  C   UNL     1     -43.521 -53.965  16.486  1.00  0.00     0.032 C 
BRANCH  17  19
HETATM   19  C   UNL     1     -45.787 -53.573  15.456  1.00  0.00     0.029 C 
BRANCH  19  20
HETATM   20  C   UNL     1     -45.839 -52.070  15.362  1.00  0.00    -0.013 A 
HETATM   21  C   UNL     1     -47.122 -51.346  15.687  1.00  0.00     0.005 A 
HETATM   22  C   UNL     1     -46.624 -51.392  14.269  1.00  0.00     0.005 A 
ENDBRANCH  19  20
ENDBRANCH  17  19
ENDBRANCH   4  17
TORSDOF 5
ENDMDL
MODEL 2
REMARK VINA RESULT:      -5.8      3.855      5.257
REMARK  5 active torsions:
REMARK  status: ('A' for Active; 'I' for Inactive)
REMARK    1  A    between atoms: O_2  and  C_3 
REMARK    2  A    between atoms: C_5  and  N_6 
REMARK       I    between atoms: N_6  and  C_7 
REMARK       I    between atoms: C_7  and  N_9 
REMARK    3  A    between atoms: N_9  and  C_10 
REMARK    4  A    between atoms: C_10  and  C_12 
REMARK    5  A    between atoms: C_12  and  C_13 
ROOT
HETATM    1  N   UNL     1     -41.112 -48.987  10.543  1.00  0.00    -0.295 N 
HETATM    2  C   UNL     1     -41.345 -49.905  11.528  1.00  0.00     0.322 C 
HETATM    3  O   UNL     1     -40.513 -50.778  11.758  1.00  0.00    -0.247 OA
HETATM    4  N   UNL     1     -42.495 -49.760  12.232  1.00  0.00    -0.339 N 
HETATM    5  H   UNL     1     -40.206 -49.105  10.109  1.00  0.00     0.172 HD
HETATM    6  H   UNL     1     -43.077 -48.972  11.960  1.00  0.00     0.164 HD
ENDROOT
BRANCH   1   7
HETATM    7  C   UNL     1     -41.942 -47.952  10.101  1.00  0.00     0.114 A 
HETATM    8  C   UNL     1     -41.723 -46.681  10.583  1.00  0.00     0.104 A 
HETATM    9  C   UNL     1     -42.565 -45.709  10.098  1.00  0.00     0.146 A 
HETATM   10  N   UNL     1     -43.538 -45.935   9.199  1.00  0.00    -0.333 N 
HETATM   11  C   UNL     1     -43.661 -47.196   8.794  1.00  0.00     0.183 A 
ATOM     12  HN  UNL     1     -44.141 -45.190   8.851  1.00  0.00     0.168 HD
HETATM   13  N   UNL     1     -42.921 -48.225   9.216  1.00  0.00    -0.338 N 
ATOM     14  HN  UNL     1     -43.090 -49.175   8.884  1.00  0.00     0.168 HD
BRANCH   9  15
HETATM   15  O   UNL     1     -42.376 -44.431  10.584  1.00  0.00    -0.341 OA
HETATM   16  C   UNL     1     -42.321 -44.390  12.010  1.00  0.00     0.211 C 
ENDBRANCH   9  15
ENDBRANCH   1   7
BRANCH   4  17
HETATM   17  C   UNL     1     -42.845 -50.514  13.425  1.00  0.00     0.082 C 
HETATM   18  C   UNL     1     -43.345 -49.551  14.503  1.00  0.00     0.032 C 
BRANCH  17  19
HETATM   19  C   UNL     1     -43.924 -51.564  13.102  1.00  0.00     0.029 C 
BRANCH  19  20
HETATM   20  C   UNL     1     -45.315 -51.086  13.427  1.00  0.00    -0.013 A 
HETATM   21  C   UNL     1     -46.290 -52.025  14.090  1.00  0.00     0.005 A 
HETATM   22  C   UNL     1     -46.507 -51.603  12.663  1.00  0.00     0.005 A 
ENDBRANCH  19  20
ENDBRANCH  17  19
ENDBRANCH   4  17
TORSDOF 5
ENDMDL
MODEL 3
REMARK VINA RESULT:      -5.5      2.790      3.719
REMARK  5 active torsions:
REMARK  status: ('A' for Active; 'I' for Inactive)
REMARK    1  A    between atoms: O_2  and  C_3 
REMARK    2  A    between atoms: C_5  and  N_6 
REMARK       I    between atoms: N_6  and  C_7 
REMARK       I    between atoms: C_7  and  N_9 
REMARK    3  A    between atoms: N_9  and  C_10 
REMARK    4  A    between atoms: C_10  and  C_12 
REMARK    5  A    between atoms: C_12  and  C_13 
ROOT
HETATM    1  N   UNL     1     -40.526 -50.740  11.222  1.00  0.00    -0.295 N 
HETATM    2  C   UNL     1     -41.153 -51.683  11.986  1.00  0.00     0.322 C 
HETATM    3  O   UNL     1     -40.806 -52.859  11.914  1.00  0.00    -0.247 OA
HETATM    4  N   UNL     1     -42.118 -51.237  12.828  1.00  0.00    -0.339 N 
HETATM    5  H   UNL     1     -39.768 -51.126  10.674  1.00  0.00     0.172 HD
HETATM    6  H   UNL     1     -42.281 -50.233  12.813  1.00  0.00     0.164 HD
ENDROOT
BRANCH   1   7
HETATM    7  C   UNL     1     -40.797 -49.371  11.127  1.00  0.00     0.114 A 
HETATM    8  C   UNL     1     -40.020 -48.495  11.850  1.00  0.00     0.104 A 
HETATM    9  C   UNL     1     -40.330 -47.165  11.701  1.00  0.00     0.146 A 
HETATM   10  N   UNL     1     -41.308 -46.704  10.901  1.00  0.00    -0.333 N 
HETATM   11  C   UNL     1     -41.995 -47.634  10.244  1.00  0.00     0.183 A 
ATOM     12  HN  UNL     1     -41.509 -45.709  10.805  1.00  0.00     0.168 HD
HETATM   13  N   UNL     1     -41.801 -48.953  10.332  1.00  0.00    -0.338 N 
ATOM     14  HN  UNL     1     -42.387 -49.613   9.820  1.00  0.00     0.168 HD
BRANCH   9  15
HETATM   15  O   UNL     1     -39.576 -46.269  12.432  1.00  0.00    -0.341 OA
HETATM   16  C   UNL     1     -40.311 -45.098  12.788  1.00  0.00     0.211 C 
ENDBRANCH   9  15
ENDBRANCH   1   7
BRANCH   4  17
HETATM   17  C   UNL     1     -42.777 -52.040  13.845  1.00  0.00     0.082 C 
HETATM   18  C   UNL     1     -42.912 -51.220  15.128  1.00  0.00     0.032 C 
BRANCH  17  19
HETATM   19  C   UNL     1     -44.163 -52.501  13.354  1.00  0.00     0.029 C 
BRANCH  19  20
HETATM   20  C   UNL     1     -45.168 -51.379  13.321  1.00  0.00    -0.013 A 
HETATM   21  C   UNL     1     -46.450 -51.503  14.107  1.00  0.00     0.005 A 
HETATM   22  C   UNL     1     -46.483 -51.543  12.604  1.00  0.00     0.005 A 
ENDBRANCH  19  20
ENDBRANCH  17  19
ENDBRANCH   4  17
TORSDOF 5
ENDMDL
MODEL 4
REMARK VINA RESULT:      -5.5      3.871      5.343
REMARK  5 active torsions:
REMARK  status: ('A' for Active; 'I' for Inactive)
REMARK    1  A    between atoms: O_2  and  C_3 
REMARK    2  A    between atoms: C_5  and  N_6 
REMARK       I    between atoms: N_6  and  C_7 
REMARK       I    between atoms: C_7  and  N_9 
REMARK    3  A    between atoms: N_9  and  C_10 
REMARK    4  A    between atoms: C_10  and  C_12 
REMARK    5  A    between atoms: C_12  and  C_13 
ROOT
HETATM    1  N   UNL     1     -41.147 -49.029  10.721  1.00  0.00    -0.295 N 
HETATM    2  C   UNL     1     -41.426 -50.015  11.624  1.00  0.00     0.322 C 
HETATM    3  O   UNL     1     -40.761 -51.048  11.625  1.00  0.00    -0.247 OA
HETATM    4  N   UNL     1     -42.421 -49.762  12.510  1.00  0.00    -0.339 N 
HETATM    5  H   UNL     1     -40.347 -49.248  10.140  1.00  0.00     0.172 HD
HETATM    6  H   UNL     1     -42.866 -48.852  12.419  1.00  0.00     0.164 HD
ENDROOT
BRANCH   1   7
HETATM    7  C   UNL     1     -41.805 -47.810  10.528  1.00  0.00     0.114 A 
HETATM    8  C   UNL     1     -42.868 -47.767   9.654  1.00  0.00     0.104 A 
HETATM    9  C   UNL     1     -43.478 -46.543   9.520  1.00  0.00     0.146 A 
HETATM   10  N   UNL     1     -43.107 -45.439  10.192  1.00  0.00    -0.333 N 
HETATM   11  C   UNL     1     -42.073 -45.590  11.015  1.00  0.00     0.183 A 
ATOM     12  HN  UNL     1     -43.586 -44.546  10.078  1.00  0.00     0.168 HD
HETATM   13  N   UNL     1     -41.387 -46.721  11.204  1.00  0.00    -0.338 N 
ATOM     14  HN  UNL     1     -40.583 -46.759  11.830  1.00  0.00     0.168 HD
BRANCH   9  15
HETATM   15  O   UNL     1     -44.533 -46.472   8.633  1.00  0.00    -0.341 OA
HETATM   16  C   UNL     1     -45.693 -47.156   9.106  1.00  0.00     0.211 C 
ENDBRANCH   9  15
ENDBRANCH   1   7
BRANCH   4  17
HETATM   17  C   UNL     1     -42.753 -50.596  13.653  1.00  0.00     0.082 C 
HETATM   18  C   UNL     1     -43.184 -49.707  14.819  1.00  0.00     0.032 C 
BRANCH  17  19
HETATM   19  C   UNL     1     -43.876 -51.586  13.290  1.00  0.00     0.029 C 
BRANCH  19  20
HETATM   20  C   UNL     1     -45.242 -50.950  13.318  1.00  0.00    -0.013 A 
HETATM   21  C   UNL     1     -46.328 -51.553  14.174  1.00  0.00     0.005 A 
HETATM   22  C   UNL     1     -46.423 -51.630  12.675  1.00  0.00     0.005 A 
ENDBRANCH  19  20
ENDBRANCH  17  19
ENDBRANCH   4  17
TORSDOF 5
ENDMDL
MODEL 5
REMARK VINA RESULT:      -5.2      4.256      6.864
REMARK  5 active torsions:
REMARK  status: ('A' for Active; 'I' for Inactive)
REMARK    1  A    between atoms: O_2  and  C_3 
REMARK    2  A    between atoms: C_5  and  N_6 
REMARK       I    between atoms: N_6  and  C_7 
REMARK       I    between atoms: C_7  and  N_9 
REMARK    3  A    between atoms: N_9  and  C_10 
REMARK    4  A    between atoms: C_10  and  C_12 
REMARK    5  A    between atoms: C_12  and  C_13 
ROOT
HETATM    1  N   UNL     1     -42.077 -50.029  11.628  1.00  0.00    -0.295 N 
HETATM    2  C   UNL     1     -40.914 -50.674  11.935  1.00  0.00     0.322 C 
HETATM    3  O   UNL     1     -40.858 -51.899  11.867  1.00  0.00    -0.247 OA
HETATM    4  N   UNL     1     -39.856 -49.893  12.265  1.00  0.00    -0.339 N 
HETATM    5  H   UNL     1     -42.803 -50.663  11.318  1.00  0.00     0.172 HD
HETATM    6  H   UNL     1     -40.031 -48.891  12.248  1.00  0.00     0.164 HD
ENDROOT
BRANCH   1   7
HETATM    7  C   UNL     1     -42.357 -48.660  11.683  1.00  0.00     0.114 A 
HETATM    8  C   UNL     1     -42.314 -47.932  10.515  1.00  0.00     0.104 A 
HETATM    9  C   UNL     1     -42.612 -46.596  10.636  1.00  0.00     0.146 A 
HETATM   10  N   UNL     1     -42.946 -46.001  11.795  1.00  0.00    -0.333 N 
HETATM   11  C   UNL     1     -42.963 -46.795  12.862  1.00  0.00     0.183 A 
ATOM     12  HN  UNL     1     -43.171 -45.008  11.851  1.00  0.00     0.168 HD
HETATM   13  N   UNL     1     -42.665 -48.097  12.868  1.00  0.00    -0.338 N 
ATOM     14  HN  UNL     1     -42.669 -48.641  13.731  1.00  0.00     0.168 HD
BRANCH   9  15
HETATM   15  O   UNL     1     -42.555 -45.843   9.481  1.00  0.00    -0.341 OA
HETATM   16  C   UNL     1     -43.466 -46.303   8.483  1.00  0.00     0.211 C 
ENDBRANCH   9  15
ENDBRANCH   1   7
BRANCH   4  17
HETATM   17  C   UNL     1     -38.494 -50.365  12.452  1.00  0.00     0.082 C 
HETATM   18  C   UNL     1     -37.616 -49.838  11.316  1.00  0.00     0.032 C 
BRANCH  17  19
HETATM   19  C   UNL     1     -37.944 -49.901  13.814  1.00  0.00     0.029 C 
BRANCH  19  20
HETATM   20  C   UNL     1     -37.492 -48.464  13.799  1.00  0.00    -0.013 A 
HETATM   21  C   UNL     1     -36.988 -47.827  15.069  1.00  0.00     0.005 A 
HETATM   22  C   UNL     1     -38.303 -47.394  14.482  1.00  0.00     0.005 A 
ENDBRANCH  19  20
ENDBRANCH  17  19
ENDBRANCH   4  17
TORSDOF 5
ENDMDL
MODEL 6
REMARK VINA RESULT:      -5.2      3.358      4.680
REMARK  5 active torsions:
REMARK  status: ('A' for Active; 'I' for Inactive)
REMARK    1  A    between atoms: O_2  and  C_3 
REMARK    2  A    between atoms: C_5  and  N_6 
REMARK       I    between atoms: N_6  and  C_7 
REMARK       I    between atoms: C_7  and  N_9 
REMARK    3  A    between atoms: N_9  and  C_10 
REMARK    4  A    between atoms: C_10  and  C_12 
REMARK    5  A    between atoms: C_12  and  C_13 
ROOT
HETATM    1  N   UNL     1     -43.068 -49.025  13.572  1.00  0.00    -0.295 N 
HETATM    2  C   UNL     1     -43.848 -50.061  14.000  1.00  0.00     0.322 C 
HETATM    3  O   UNL     1     -44.097 -50.185  15.196  1.00  0.00    -0.247 OA
HETATM    4  N   UNL     1     -44.344 -50.883  13.042  1.00  0.00    -0.339 N 
HETATM    5  H   UNL     1     -42.794 -48.407  14.326  1.00  0.00     0.172 HD
HETATM    6  H   UNL     1     -44.088 -50.644  12.087  1.00  0.00     0.164 HD
ENDROOT
BRANCH   1   7
HETATM    7  C   UNL     1     -42.637 -48.734  12.273  1.00  0.00     0.114 A 
HETATM    8  C   UNL     1     -43.477 -48.025  11.445  1.00  0.00     0.104 A 
HETATM    9  C   UNL     1     -42.988 -47.762  10.188  1.00  0.00     0.146 A 
HETATM   10  N   UNL     1     -41.770 -48.138   9.759  1.00  0.00    -0.333 N 
HETATM   11  C   UNL     1     -41.037 -48.814  10.640  1.00  0.00     0.183 A 
ATOM     12  HN  UNL     1     -41.431 -47.920   8.822  1.00  0.00     0.168 HD
HETATM   13  N   UNL     1     -41.419 -49.150  11.876  1.00  0.00    -0.338 N 
ATOM     14  HN  UNL     1     -40.815 -49.696  12.490  1.00  0.00     0.168 HD
BRANCH   9  15
HETATM   15  O   UNL     1     -43.821 -47.069   9.333  1.00  0.00    -0.341 OA
HETATM   16  C   UNL     1     -43.503 -45.679   9.266  1.00  0.00     0.211 C 
ENDBRANCH   9  15
ENDBRANCH   1   7
BRANCH   4  17
HETATM   17  C   UNL     1     -45.329 -51.928  13.265  1.00  0.00     0.082 C 
HETATM   18  C   UNL     1     -46.580 -51.629  12.438  1.00  0.00     0.032 C 
BRANCH  17  19
HETATM   19  C   UNL     1     -44.751 -53.304  12.885  1.00  0.00     0.029 C 
BRANCH  19  20
HETATM   20  C   UNL     1     -44.844 -54.303  14.009  1.00  0.00    -0.013 A 
HETATM   21  C   UNL     1     -45.657 -55.559  13.826  1.00  0.00     0.005 A 
HETATM   22  C   UNL     1     -46.131 -54.490  14.771  1.00  0.00     0.005 A 
ENDBRANCH  19  20
ENDBRANCH  17  19
ENDBRANCH   4  17
TORSDOF 5
ENDMDL
MODEL 7
REMARK VINA RESULT:      -5.0      2.601      3.744
REMARK  5 active torsions:
REMARK  status: ('A' for Active; 'I' for Inactive)
REMARK    1  A    between atoms: O_2  and  C_3 
REMARK    2  A    between atoms: C_5  and  N_6 
REMARK       I    between atoms: N_6  and  C_7 
REMARK       I    between atoms: C_7  and  N_9 
REMARK    3  A    between atoms: N_9  and  C_10 
REMARK    4  A    between atoms: C_10  and  C_12 
REMARK    5  A    between atoms: C_12  and  C_13 
ROOT
HETATM    1  N   UNL     1     -40.908 -50.899  12.314  1.00  0.00    -0.295 N 
HETATM    2  C   UNL     1     -41.395 -52.175  12.299  1.00  0.00     0.322 C 
HETATM    3  O   UNL     1     -40.660 -53.106  11.978  1.00  0.00    -0.247 OA
HETATM    4  N   UNL     1     -42.683 -52.338  12.689  1.00  0.00    -0.339 N 
HETATM    5  H   UNL     1     -39.923 -50.856  12.085  1.00  0.00     0.172 HD
HETATM    6  H   UNL     1     -43.167 -51.486  12.963  1.00  0.00     0.164 HD
ENDROOT
BRANCH   1   7
HETATM    7  C   UNL     1     -41.585 -49.710  12.604  1.00  0.00     0.114 A 
HETATM    8  C   UNL     1     -42.204 -49.037  11.574  1.00  0.00     0.104 A 
HETATM    9  C   UNL     1     -42.861 -47.884  11.929  1.00  0.00     0.146 A 
HETATM   10  N   UNL     1     -42.935 -47.416  13.187  1.00  0.00    -0.333 N 
HETATM   11  C   UNL     1     -42.308 -48.144  14.106  1.00  0.00     0.183 A 
ATOM     12  HN  UNL     1     -43.439 -46.560  13.421  1.00  0.00     0.168 HD
HETATM   13  N   UNL     1     -41.616 -49.263  13.874  1.00  0.00    -0.338 N 
ATOM     14  HN  UNL     1     -41.133 -49.757  14.625  1.00  0.00     0.168 HD
BRANCH   9  15
HETATM   15  O   UNL     1     -43.472 -47.182  10.909  1.00  0.00    -0.341 OA
HETATM   16  C   UNL     1     -42.910 -47.476   9.630  1.00  0.00     0.211 C 
ENDBRANCH   9  15
ENDBRANCH   1   7
BRANCH   4  17
HETATM   17  C   UNL     1     -43.334 -53.618  12.913  1.00  0.00     0.082 C 
HETATM   18  C   UNL     1     -42.930 -54.157  14.286  1.00  0.00     0.032 C 
BRANCH  17  19
HETATM   19  C   UNL     1     -44.864 -53.469  12.825  1.00  0.00     0.029 C 
BRANCH  19  20
HETATM   20  C   UNL     1     -45.315 -52.037  12.955  1.00  0.00    -0.013 A 
HETATM   21  C   UNL     1     -46.437 -51.692  13.901  1.00  0.00     0.005 A 
HETATM   22  C   UNL     1     -46.652 -51.597  12.416  1.00  0.00     0.005 A 
ENDBRANCH  19  20
ENDBRANCH  17  19
ENDBRANCH   4  17
TORSDOF 5
ENDMDL
MODEL 8
REMARK VINA RESULT:      -4.9      2.800      4.284
REMARK  5 active torsions:
REMARK  status: ('A' for Active; 'I' for Inactive)
REMARK    1  A    between atoms: O_2  and  C_3 
REMARK    2  A    between atoms: C_5  and  N_6 
REMARK       I    between atoms: N_6  and  C_7 
REMARK       I    between atoms: C_7  and  N_9 
REMARK    3  A    between atoms: N_9  and  C_10 
REMARK    4  A    between atoms: C_10  and  C_12 
REMARK    5  A    between atoms: C_12  and  C_13 
ROOT
HETATM    1  N   UNL     1     -40.131 -50.861  11.491  1.00  0.00    -0.295 N 
HETATM    2  C   UNL     1     -40.880 -51.800  12.141  1.00  0.00     0.322 C 
HETATM    3  O   UNL     1     -40.640 -52.993  11.977  1.00  0.00    -0.247 OA
HETATM    4  N   UNL     1     -41.839 -51.336  12.980  1.00  0.00    -0.339 N 
HETATM    5  H   UNL     1     -39.386 -51.270  10.942  1.00  0.00     0.172 HD
HETATM    6  H   UNL     1     -41.907 -50.323  13.048  1.00  0.00     0.164 HD
ENDROOT
BRANCH   1   7
HETATM    7  C   UNL     1     -40.269 -49.469  11.508  1.00  0.00     0.114 A 
HETATM    8  C   UNL     1     -41.238 -48.894  10.717  1.00  0.00     0.104 A 
HETATM    9  C   UNL     1     -41.328 -47.525  10.790  1.00  0.00     0.146 A 
HETATM   10  N   UNL     1     -40.556 -46.760  11.580  1.00  0.00    -0.333 N 
HETATM   11  C   UNL     1     -39.655 -47.416  12.308  1.00  0.00     0.183 A 
ATOM     12  HN  UNL     1     -40.653 -45.745  11.620  1.00  0.00     0.168 HD
HETATM   13  N   UNL     1     -39.458 -48.737  12.297  1.00  0.00    -0.338 N 
ATOM     14  HN  UNL     1     -38.727 -49.172  12.860  1.00  0.00     0.168 HD
BRANCH   9  15
HETATM   15  O   UNL     1     -42.280 -46.925   9.990  1.00  0.00    -0.341 OA
HETATM   16  C   UNL     1     -42.591 -45.597  10.411  1.00  0.00     0.211 C 
ENDBRANCH   9  15
ENDBRANCH   1   7
BRANCH   4  17
HETATM   17  C   UNL     1     -42.619 -52.156  13.892  1.00  0.00     0.082 C 
HETATM   18  C   UNL     1     -42.970 -51.336  15.134  1.00  0.00     0.032 C 
BRANCH  17  19
HETATM   19  C   UNL     1     -43.901 -52.661  13.202  1.00  0.00     0.029 C 
BRANCH  19  20
HETATM   20  C   UNL     1     -43.995 -54.164  13.183  1.00  0.00    -0.013 A 
HETATM   21  C   UNL     1     -45.248 -54.839  13.681  1.00  0.00     0.005 A 
HETATM   22  C   UNL     1     -43.970 -54.955  14.465  1.00  0.00     0.005 A 
ENDBRANCH  19  20
ENDBRANCH  17  19
ENDBRANCH   4  17
TORSDOF 5
ENDMDL
MODEL 9
REMARK VINA RESULT:      -4.9      1.429      2.045
REMARK  5 active torsions:
REMARK  status: ('A' for Active; 'I' for Inactive)
REMARK    1  A    between atoms: O_2  and  C_3 
REMARK    2  A    between atoms: C_5  and  N_6 
REMARK       I    between atoms: N_6  and  C_7 
REMARK       I    between atoms: C_7  and  N_9 
REMARK    3  A    between atoms: N_9  and  C_10 
REMARK    4  A    between atoms: C_10  and  C_12 
REMARK    5  A    between atoms: C_12  and  C_13 
ROOT
HETATM    1  N   UNL     1     -42.779 -53.846  12.380  1.00  0.00    -0.295 N 
HETATM    2  C   UNL     1     -43.965 -53.907  13.055  1.00  0.00     0.322 C 
HETATM    3  O   UNL     1     -44.952 -54.396  12.512  1.00  0.00    -0.247 OA
HETATM    4  N   UNL     1     -43.961 -53.445  14.330  1.00  0.00    -0.339 N 
HETATM    5  H   UNL     1     -42.831 -54.274  11.464  1.00  0.00     0.172 HD
HETATM    6  H   UNL     1     -43.066 -53.099  14.667  1.00  0.00     0.164 HD
ENDROOT
BRANCH   1   7
HETATM    7  C   UNL     1     -41.563 -53.295  12.798  1.00  0.00     0.114 A 
HETATM    8  C   UNL     1     -41.241 -52.022  12.385  1.00  0.00     0.104 A 
HETATM    9  C   UNL     1     -40.040 -51.536  12.842  1.00  0.00     0.146 A 
HETATM   10  N   UNL     1     -39.211 -52.215  13.653  1.00  0.00    -0.333 N 
HETATM   11  C   UNL     1     -39.620 -53.434  13.997  1.00  0.00     0.183 A 
ATOM     12  HN  UNL     1     -38.329 -51.824  13.983  1.00  0.00     0.168 HD
HETATM   13  N   UNL     1     -40.751 -54.019  13.592  1.00  0.00    -0.338 N 
ATOM     14  HN  UNL     1     -40.988 -54.971  13.872  1.00  0.00     0.168 HD
BRANCH   9  15
HETATM   15  O   UNL     1     -39.688 -50.268  12.424  1.00  0.00    -0.341 OA
HETATM   16  C   UNL     1     -40.373 -49.873  11.236  1.00  0.00     0.211 C 
ENDBRANCH   9  15
ENDBRANCH   1   7
BRANCH   4  17
HETATM   17  C   UNL     1     -45.061 -53.581  15.271  1.00  0.00     0.082 C 
HETATM   18  C   UNL     1     -44.500 -53.826  16.672  1.00  0.00     0.032 C 
BRANCH  17  19
HETATM   19  C   UNL     1     -45.940 -52.316  15.258  1.00  0.00     0.029 C 
BRANCH  19  20
HETATM   20  C   UNL     1     -46.595 -52.052  16.590  1.00  0.00    -0.013 A 
HETATM   21  C   UNL     1     -47.856 -51.228  16.650  1.00  0.00     0.005 A 
HETATM   22  C   UNL     1     -46.570 -50.675  17.201  1.00  0.00     0.005 A 
ENDBRANCH  19  20
ENDBRANCH  17  19
ENDBRANCH   4  17
TORSDOF 5
ENDMDL
