MODEL 1
REMARK VINA RESULT:      -5.4      0.000      0.000
REMARK  8 active torsions:
REMARK  status: ('A' for Active; 'I' for Inactive)
REMARK    1  A    between atoms: C_2  and  C_3 
REMARK    2  A    between atoms: C_3  and  C_4 
REMARK    3  A    between atoms: C_4  and  N_5 
REMARK    4  A    between atoms: C_6  and  N_7 
REMARK    5  A    between atoms: C_8  and  N_9 
REMARK    6  A    between atoms: N_9  and  C_10 
REMARK    7  A    between atoms: C_10  and  C_11 
REMARK    8  A    between atoms: C_11  and  O_12 
ROOT
HETATM    1  N   UNL     1     -43.773 -53.567  13.262  1.00  0.00    -0.288 N 
HETATM    2  C   UNL     1     -42.493 -53.237  12.816  1.00  0.00     0.111 C 
HETATM    3  C   UNL     1     -41.400 -53.650  13.502  1.00  0.00     0.116 C 
HETATM    4  C   UNL     1     -41.607 -54.525  14.700  1.00  0.00     0.274 C 
HETATM    5  O   UNL     1     -40.665 -54.849  15.422  1.00  0.00    -0.266 OA
HETATM    6  N   UNL     1     -42.876 -54.934  14.937  1.00  0.00    -0.274 N 
HETATM    7  C   UNL     1     -43.986 -54.478  14.291  1.00  0.00     0.330 C 
HETATM    8  O   UNL     1     -45.092 -54.864  14.670  1.00  0.00    -0.246 OA
HETATM    9  H   UNL     1     -43.034 -55.536  15.730  1.00  0.00     0.173 HD
ENDROOT
BRANCH   3  10
HETATM   10  N   UNL     1     -40.072 -53.355  13.152  1.00  0.00    -0.284 NA
HETATM   11  H   UNL     1     -39.516 -54.185  13.387  1.00  0.00     0.128 HD
BRANCH  10  12
HETATM   12  C   UNL     1     -39.395 -52.201  13.777  1.00  0.00     0.118 C 
BRANCH  12  13
HETATM   13  C   UNL     1     -39.097 -51.100  12.743  1.00  0.00     0.181 C 
BRANCH  13  14
HETATM   14  O   UNL     1     -37.745 -51.212  12.292  1.00  0.00    -0.395 OA
HETATM   15  C   UNL     1     -37.406 -50.194  11.362  1.00  0.00     0.201 C 
ENDBRANCH  13  14
ENDBRANCH  12  13
ENDBRANCH  10  12
ENDBRANCH   3  10
BRANCH   2  16
HETATM   16  N   UNL     1     -42.273 -52.512  11.650  1.00  0.00    -0.287 NA
HETATM   17  H   UNL     1     -41.974 -51.555  11.755  1.00  0.00     0.125 HD
HETATM   18  H   UNL     1     -41.714 -53.054  10.987  1.00  0.00     0.125 HD
ENDBRANCH   2  16
BRANCH   1  19
HETATM   19  C   UNL     1     -44.975 -52.986  12.659  1.00  0.00     0.135 C 
BRANCH  19  20
HETATM   20  C   UNL     1     -45.328 -51.598  13.227  1.00  0.00     0.020 C 
BRANCH  20  21
HETATM   21  C   UNL     1     -46.737 -51.510  13.817  1.00  0.00    -0.003 C 
HETATM   22  C   UNL     1     -46.696 -51.470  15.337  1.00  0.00     0.005 C 
ENDBRANCH  20  21
ENDBRANCH  19  20
ENDBRANCH   1  19
TORSDOF 8
ENDMDL
MODEL 2
REMARK VINA RESULT:      -5.3      2.436      3.841
REMARK  8 active torsions:
REMARK  status: ('A' for Active; 'I' for Inactive)
REMARK    1  A    between atoms: C_2  and  C_3 
REMARK    2  A    between atoms: C_3  and  C_4 
REMARK    3  A    between atoms: C_4  and  N_5 
REMARK    4  A    between atoms: C_6  and  N_7 
REMARK    5  A    between atoms: C_8  and  N_9 
REMARK    6  A    between atoms: N_9  and  C_10 
REMARK    7  A    between atoms: C_10  and  C_11 
REMARK    8  A    between atoms: C_11  and  O_12 
ROOT
HETATM    1  N   UNL     1     -42.620 -52.180  12.483  1.00  0.00    -0.288 N 
HETATM    2  C   UNL     1     -41.388 -51.907  11.889  1.00  0.00     0.111 C 
HETATM    3  C   UNL     1     -41.040 -50.633  11.586  1.00  0.00     0.116 C 
HETATM    4  C   UNL     1     -41.979 -49.533  11.974  1.00  0.00     0.274 C 
HETATM    5  O   UNL     1     -41.768 -48.368  11.638  1.00  0.00    -0.266 OA
HETATM    6  N   UNL     1     -43.060 -49.891  12.706  1.00  0.00    -0.274 N 
HETATM    7  C   UNL     1     -43.449 -51.172  12.964  1.00  0.00     0.330 C 
HETATM    8  O   UNL     1     -44.508 -51.359  13.565  1.00  0.00    -0.246 OA
HETATM    9  H   UNL     1     -43.696 -49.163  12.990  1.00  0.00     0.173 HD
ENDROOT
BRANCH   3  10
HETATM   10  N   UNL     1     -39.836 -50.254  10.970  1.00  0.00    -0.284 NA
HETATM   11  H   UNL     1     -39.454 -51.098  10.529  1.00  0.00     0.128 HD
BRANCH  10  12
HETATM   12  C   UNL     1     -38.751 -49.675  11.789  1.00  0.00     0.118 C 
BRANCH  12  13
HETATM   13  C   UNL     1     -37.524 -50.604  11.828  1.00  0.00     0.181 C 
BRANCH  13  14
HETATM   14  O   UNL     1     -37.753 -51.673  12.748  1.00  0.00    -0.395 OA
HETATM   15  C   UNL     1     -38.196 -51.204  14.013  1.00  0.00     0.201 C 
ENDBRANCH  13  14
ENDBRANCH  12  13
ENDBRANCH  10  12
ENDBRANCH   3  10
BRANCH   2  16
HETATM   16  N   UNL     1     -40.456 -52.901  11.614  1.00  0.00    -0.287 NA
HETATM   17  H   UNL     1     -40.794 -53.730  11.150  1.00  0.00     0.125 HD
HETATM   18  H   UNL     1     -39.613 -52.502  11.196  1.00  0.00     0.125 HD
ENDBRANCH   2  16
BRANCH   1  19
HETATM   19  C   UNL     1     -43.111 -53.550  12.651  1.00  0.00     0.135 C 
BRANCH  19  20
HETATM   20  C   UNL     1     -42.675 -54.192  13.982  1.00  0.00     0.020 C 
BRANCH  20  21
HETATM   21  C   UNL     1     -43.805 -54.911  14.722  1.00  0.00    -0.003 C 
HETATM   22  C   UNL     1     -45.061 -54.988  13.869  1.00  0.00     0.005 C 
ENDBRANCH  20  21
ENDBRANCH  19  20
ENDBRANCH   1  19
TORSDOF 8
ENDMDL
MODEL 3
REMARK VINA RESULT:      -5.2      1.796      2.022
REMARK  8 active torsions:
REMARK  status: ('A' for Active; 'I' for Inactive)
REMARK    1  A    between atoms: C_2  and  C_3 
REMARK    2  A    between atoms: C_3  and  C_4 
REMARK    3  A    between atoms: C_4  and  N_5 
REMARK    4  A    between atoms: C_6  and  N_7 
REMARK    5  A    between atoms: C_8  and  N_9 
REMARK    6  A    between atoms: N_9  and  C_10 
REMARK    7  A    between atoms: C_10  and  C_11 
REMARK    8  A    between atoms: C_11  and  O_12 
ROOT
HETATM    1  N   UNL     1     -43.358 -53.791  13.694  1.00  0.00    -0.288 N 
HETATM    2  C   UNL     1     -42.507 -53.139  12.801  1.00  0.00     0.111 C 
HETATM    3  C   UNL     1     -41.165 -53.190  12.971  1.00  0.00     0.116 C 
HETATM    4  C   UNL     1     -40.626 -54.023  14.093  1.00  0.00     0.274 C 
HETATM    5  O   UNL     1     -39.425 -54.030  14.362  1.00  0.00    -0.266 OA
HETATM    6  N   UNL     1     -41.527 -54.759  14.787  1.00  0.00    -0.274 N 
HETATM    7  C   UNL     1     -42.882 -54.668  14.662  1.00  0.00     0.330 C 
HETATM    8  O   UNL     1     -43.591 -55.329  15.423  1.00  0.00    -0.246 OA
HETATM    9  H   UNL     1     -41.183 -55.337  15.536  1.00  0.00     0.173 HD
ENDROOT
BRANCH   3  10
HETATM   10  N   UNL     1     -40.224 -52.554  12.144  1.00  0.00    -0.284 NA
HETATM   11  H   UNL     1     -39.403 -53.167  12.109  1.00  0.00     0.128 HD
BRANCH  10  12
HETATM   12  C   UNL     1     -39.734 -51.208  12.504  1.00  0.00     0.118 C 
BRANCH  12  13
HETATM   13  C   UNL     1     -40.195 -50.153  11.481  1.00  0.00     0.181 C 
BRANCH  13  14
HETATM   14  O   UNL     1     -41.562 -49.811  11.721  1.00  0.00    -0.395 OA
HETATM   15  C   UNL     1     -41.928 -48.595  11.085  1.00  0.00     0.201 C 
ENDBRANCH  13  14
ENDBRANCH  12  13
ENDBRANCH  10  12
ENDBRANCH   3  10
BRANCH   2  16
HETATM   16  N   UNL     1     -42.980 -52.445  11.692  1.00  0.00    -0.287 NA
HETATM   17  H   UNL     1     -42.611 -51.520  11.540  1.00  0.00     0.125 HD
HETATM   18  H   UNL     1     -42.971 -53.042  10.862  1.00  0.00     0.125 HD
ENDBRANCH   2  16
BRANCH   1  19
HETATM   19  C   UNL     1     -44.811 -53.604  13.656  1.00  0.00     0.135 C 
BRANCH  19  20
HETATM   20  C   UNL     1     -45.289 -52.392  14.477  1.00  0.00     0.020 C 
BRANCH  20  21
HETATM   21  C   UNL     1     -46.437 -51.618  13.826  1.00  0.00    -0.003 C 
HETATM   22  C   UNL     1     -46.562 -51.955  12.348  1.00  0.00     0.005 C 
ENDBRANCH  20  21
ENDBRANCH  19  20
ENDBRANCH   1  19
TORSDOF 8
ENDMDL
MODEL 4
REMARK VINA RESULT:      -5.1      7.176      8.800
REMARK  8 active torsions:
REMARK  status: ('A' for Active; 'I' for Inactive)
REMARK    1  A    between atoms: C_2  and  C_3 
REMARK    2  A    between atoms: C_3  and  C_4 
REMARK    3  A    between atoms: C_4  and  N_5 
REMARK    4  A    between atoms: C_6  and  N_7 
REMARK    5  A    between atoms: C_8  and  N_9 
REMARK    6  A    between atoms: N_9  and  C_10 
REMARK    7  A    between atoms: C_10  and  C_11 
REMARK    8  A    between atoms: C_11  and  O_12 
ROOT
HETATM    1  N   UNL     1     -42.710 -46.490  10.271  1.00  0.00    -0.288 N 
HETATM    2  C   UNL     1     -42.621 -45.098  10.259  1.00  0.00     0.111 C 
HETATM    3  C   UNL     1     -41.452 -44.483  10.560  1.00  0.00     0.116 C 
HETATM    4  C   UNL     1     -40.253 -45.338  10.831  1.00  0.00     0.274 C 
HETATM    5  O   UNL     1     -39.191 -44.844  11.208  1.00  0.00    -0.266 OA
HETATM    6  N   UNL     1     -40.405 -46.670  10.638  1.00  0.00    -0.274 N 
HETATM    7  C   UNL     1     -41.587 -47.302  10.394  1.00  0.00     0.330 C 
HETATM    8  O   UNL     1     -41.599 -48.532  10.333  1.00  0.00    -0.246 OA
HETATM    9  H   UNL     1     -39.605 -47.261  10.801  1.00  0.00     0.173 HD
ENDROOT
BRANCH   3  10
HETATM   10  N   UNL     1     -41.262 -43.092  10.597  1.00  0.00    -0.284 NA
HETATM   11  H   UNL     1     -40.286 -42.922  10.331  1.00  0.00     0.128 HD
BRANCH  10  12
HETATM   12  C   UNL     1     -41.491 -42.360  11.859  1.00  0.00     0.118 C 
BRANCH  12  13
HETATM   13  C   UNL     1     -40.223 -41.615  12.311  1.00  0.00     0.181 C 
BRANCH  13  14
HETATM   14  O   UNL     1     -39.595 -42.330  13.378  1.00  0.00    -0.395 OA
HETATM   15  C   UNL     1     -40.516 -43.139  14.095  1.00  0.00     0.201 C 
ENDBRANCH  13  14
ENDBRANCH  12  13
ENDBRANCH  10  12
ENDBRANCH   3  10
BRANCH   2  16
HETATM   16  N   UNL     1     -43.694 -44.286   9.909  1.00  0.00    -0.287 NA
HETATM   17  H   UNL     1     -43.535 -43.290   9.916  1.00  0.00     0.125 HD
HETATM   18  H   UNL     1     -44.148 -44.631   9.061  1.00  0.00     0.125 HD
ENDBRANCH   2  16
BRANCH   1  19
HETATM   19  C   UNL     1     -43.993 -47.185  10.138  1.00  0.00     0.135 C 
BRANCH  19  20
HETATM   20  C   UNL     1     -44.344 -47.537   8.679  1.00  0.00     0.020 C 
BRANCH  20  21
HETATM   21  C   UNL     1     -45.786 -48.013   8.488  1.00  0.00    -0.003 C 
HETATM   22  C   UNL     1     -46.770 -47.081   9.178  1.00  0.00     0.005 C 
ENDBRANCH  20  21
ENDBRANCH  19  20
ENDBRANCH   1  19
TORSDOF 8
ENDMDL
MODEL 5
REMARK VINA RESULT:      -4.8      2.303      6.253
REMARK  8 active torsions:
REMARK  status: ('A' for Active; 'I' for Inactive)
REMARK    1  A    between atoms: C_2  and  C_3 
REMARK    2  A    between atoms: C_3  and  C_4 
REMARK    3  A    between atoms: C_4  and  N_5 
REMARK    4  A    between atoms: C_6  and  N_7 
REMARK    5  A    between atoms: C_8  and  N_9 
REMARK    6  A    between atoms: N_9  and  C_10 
REMARK    7  A    between atoms: C_10  and  C_11 
REMARK    8  A    between atoms: C_11  and  O_12 
ROOT
HETATM    1  N   UNL     1     -41.674 -54.389  14.322  1.00  0.00    -0.288 N 
HETATM    2  C   UNL     1     -42.896 -54.872  14.791  1.00  0.00     0.111 C 
HETATM    3  C   UNL     1     -44.040 -54.620  14.111  1.00  0.00     0.116 C 
HETATM    4  C   UNL     1     -43.941 -53.876  12.814  1.00  0.00     0.274 C 
HETATM    5  O   UNL     1     -44.950 -53.528  12.201  1.00  0.00    -0.266 OA
HETATM    6  N   UNL     1     -42.692 -53.613  12.362  1.00  0.00    -0.274 N 
HETATM    7  C   UNL     1     -41.541 -53.809  13.065  1.00  0.00     0.330 C 
HETATM    8  O   UNL     1     -40.475 -53.438  12.571  1.00  0.00    -0.246 OA
HETATM    9  H   UNL     1     -42.604 -53.127  11.484  1.00  0.00     0.173 HD
ENDROOT
BRANCH   3  10
HETATM   10  N   UNL     1     -45.320 -55.041  14.506  1.00  0.00    -0.284 NA
HETATM   11  H   UNL     1     -45.757 -55.466  13.680  1.00  0.00     0.128 HD
BRANCH  10  12
HETATM   12  C   UNL     1     -46.281 -54.050  15.031  1.00  0.00     0.118 C 
BRANCH  12  13
HETATM   13  C   UNL     1     -45.906 -53.609  16.457  1.00  0.00     0.181 C 
BRANCH  13  14
HETATM   14  O   UNL     1     -45.686 -54.758  17.278  1.00  0.00    -0.395 OA
HETATM   15  C   UNL     1     -45.220 -54.409  18.574  1.00  0.00     0.201 C 
ENDBRANCH  13  14
ENDBRANCH  12  13
ENDBRANCH  10  12
ENDBRANCH   3  10
BRANCH   2  16
HETATM   16  N   UNL     1     -42.999 -55.653  15.937  1.00  0.00    -0.287 NA
HETATM   17  H   UNL     1     -43.741 -55.425  16.580  1.00  0.00     0.125 HD
HETATM   18  H   UNL     1     -42.936 -56.646  15.705  1.00  0.00     0.125 HD
ENDBRANCH   2  16
BRANCH   1  19
HETATM   19  C   UNL     1     -40.449 -54.478  15.121  1.00  0.00     0.135 C 
BRANCH  19  20
HETATM   20  C   UNL     1     -40.222 -53.249  16.023  1.00  0.00     0.020 C 
BRANCH  20  21
HETATM   21  C   UNL     1     -38.923 -52.496  15.727  1.00  0.00    -0.003 C 
HETATM   22  C   UNL     1     -39.204 -51.091  15.217  1.00  0.00     0.005 C 
ENDBRANCH  20  21
ENDBRANCH  19  20
ENDBRANCH   1  19
TORSDOF 8
ENDMDL
MODEL 6
REMARK VINA RESULT:      -4.8      1.751      2.074
REMARK  8 active torsions:
REMARK  status: ('A' for Active; 'I' for Inactive)
REMARK    1  A    between atoms: C_2  and  C_3 
REMARK    2  A    between atoms: C_3  and  C_4 
REMARK    3  A    between atoms: C_4  and  N_5 
REMARK    4  A    between atoms: C_6  and  N_7 
REMARK    5  A    between atoms: C_8  and  N_9 
REMARK    6  A    between atoms: N_9  and  C_10 
REMARK    7  A    between atoms: C_10  and  C_11 
REMARK    8  A    between atoms: C_11  and  O_12 
ROOT
HETATM    1  N   UNL     1     -43.587 -51.758  13.206  1.00  0.00    -0.288 N 
HETATM    2  C   UNL     1     -42.386 -51.161  13.589  1.00  0.00     0.111 C 
HETATM    3  C   UNL     1     -41.226 -51.858  13.539  1.00  0.00     0.116 C 
HETATM    4  C   UNL     1     -41.264 -53.252  12.993  1.00  0.00     0.274 C 
HETATM    5  O   UNL     1     -40.265 -53.972  13.015  1.00  0.00    -0.266 OA
HETATM    6  N   UNL     1     -42.446 -53.670  12.481  1.00  0.00    -0.274 N 
HETATM    7  C   UNL     1     -43.629 -53.000  12.581  1.00  0.00     0.330 C 
HETATM    8  O   UNL     1     -44.651 -53.537  12.153  1.00  0.00    -0.246 OA
HETATM    9  H   UNL     1     -42.488 -54.599  12.096  1.00  0.00     0.173 HD
ENDROOT
BRANCH   3  10
HETATM   10  N   UNL     1     -39.970 -51.359  13.920  1.00  0.00    -0.284 NA
HETATM   11  H   UNL     1     -40.138 -50.701  14.690  1.00  0.00     0.128 HD
BRANCH  10  12
HETATM   12  C   UNL     1     -39.139 -50.648  12.928  1.00  0.00     0.118 C 
BRANCH  12  13
HETATM   13  C   UNL     1     -37.663 -51.075  13.027  1.00  0.00     0.181 C 
BRANCH  13  14
HETATM   14  O   UNL     1     -37.115 -51.233  11.716  1.00  0.00    -0.395 OA
HETATM   15  C   UNL     1     -37.200 -50.038  10.954  1.00  0.00     0.201 C 
ENDBRANCH  13  14
ENDBRANCH  12  13
ENDBRANCH  10  12
ENDBRANCH   3  10
BRANCH   2  16
HETATM   16  N   UNL     1     -42.311 -49.835  14.001  1.00  0.00    -0.287 NA
HETATM   17  H   UNL     1     -42.518 -49.129  13.312  1.00  0.00     0.125 HD
HETATM   18  H   UNL     1     -42.797 -49.705  14.892  1.00  0.00     0.125 HD
ENDBRANCH   2  16
BRANCH   1  19
HETATM   19  C   UNL     1     -44.880 -51.105  13.424  1.00  0.00     0.135 C 
BRANCH  19  20
HETATM   20  C   UNL     1     -45.432 -51.309  14.848  1.00  0.00     0.020 C 
BRANCH  20  21
HETATM   21  C   UNL     1     -46.953 -51.460  14.907  1.00  0.00    -0.003 C 
HETATM   22  C   UNL     1     -47.457 -51.410  16.342  1.00  0.00     0.005 C 
ENDBRANCH  20  21
ENDBRANCH  19  20
ENDBRANCH   1  19
TORSDOF 8
ENDMDL
MODEL 7
REMARK VINA RESULT:      -4.8      2.808      4.639
REMARK  8 active torsions:
REMARK  status: ('A' for Active; 'I' for Inactive)
REMARK    1  A    between atoms: C_2  and  C_3 
REMARK    2  A    between atoms: C_3  and  C_4 
REMARK    3  A    between atoms: C_4  and  N_5 
REMARK    4  A    between atoms: C_6  and  N_7 
REMARK    5  A    between atoms: C_8  and  N_9 
REMARK    6  A    between atoms: N_9  and  C_10 
REMARK    7  A    between atoms: C_10  and  C_11 
REMARK    8  A    between atoms: C_11  and  O_12 
ROOT
HETATM    1  N   UNL     1     -40.449 -52.992  13.154  1.00  0.00    -0.288 N 
HETATM    2  C   UNL     1     -40.742 -52.147  12.084  1.00  0.00     0.111 C 
HETATM    3  C   UNL     1     -40.166 -50.924  11.998  1.00  0.00     0.116 C 
HETATM    4  C   UNL     1     -39.158 -50.544  13.038  1.00  0.00     0.274 C 
HETATM    5  O   UNL     1     -38.675 -49.412  13.074  1.00  0.00    -0.266 OA
HETATM    6  N   UNL     1     -38.813 -51.506  13.926  1.00  0.00    -0.274 N 
HETATM    7  C   UNL     1     -39.428 -52.715  14.057  1.00  0.00     0.330 C 
HETATM    8  O   UNL     1     -39.076 -53.463  14.971  1.00  0.00    -0.246 OA
HETATM    9  H   UNL     1     -38.125 -51.275  14.625  1.00  0.00     0.173 HD
ENDROOT
BRANCH   3  10
HETATM   10  N   UNL     1     -40.408 -49.991  10.977  1.00  0.00    -0.284 NA
HETATM   11  H   UNL     1     -39.542 -49.454  10.859  1.00  0.00     0.128 HD
BRANCH  10  12
HETATM   12  C   UNL     1     -41.498 -49.007  11.135  1.00  0.00     0.118 C 
BRANCH  12  13
HETATM   13  C   UNL     1     -40.976 -47.566  10.995  1.00  0.00     0.181 C 
BRANCH  13  14
HETATM   14  O   UNL     1     -41.844 -46.816  10.143  1.00  0.00    -0.395 OA
HETATM   15  C   UNL     1     -43.117 -47.429  10.003  1.00  0.00     0.201 C 
ENDBRANCH  13  14
ENDBRANCH  12  13
ENDBRANCH  10  12
ENDBRANCH   3  10
BRANCH   2  16
HETATM   16  N   UNL     1     -41.596 -52.519  11.051  1.00  0.00    -0.287 NA
HETATM   17  H   UNL     1     -42.312 -53.194  11.271  1.00  0.00     0.125 HD
HETATM   18  H   UNL     1     -41.936 -51.696  10.549  1.00  0.00     0.125 HD
ENDBRANCH   2  16
BRANCH   1  19
HETATM   19  C   UNL     1     -41.189 -54.236  13.382  1.00  0.00     0.135 C 
BRANCH  19  20
HETATM   20  C   UNL     1     -42.487 -54.032  14.186  1.00  0.00     0.020 C 
BRANCH  20  21
HETATM   21  C   UNL     1     -43.761 -54.180  13.353  1.00  0.00    -0.003 C 
HETATM   22  C   UNL     1     -44.844 -54.915  14.128  1.00  0.00     0.005 C 
ENDBRANCH  20  21
ENDBRANCH  19  20
ENDBRANCH   1  19
TORSDOF 8
ENDMDL
MODEL 8
REMARK VINA RESULT:      -4.7      2.259      2.670
REMARK  8 active torsions:
REMARK  status: ('A' for Active; 'I' for Inactive)
REMARK    1  A    between atoms: C_2  and  C_3 
REMARK    2  A    between atoms: C_3  and  C_4 
REMARK    3  A    between atoms: C_4  and  N_5 
REMARK    4  A    between atoms: C_6  and  N_7 
REMARK    5  A    between atoms: C_8  and  N_9 
REMARK    6  A    between atoms: N_9  and  C_10 
REMARK    7  A    between atoms: C_10  and  C_11 
REMARK    8  A    between atoms: C_11  and  O_12 
ROOT
HETATM    1  N   UNL     1     -43.509 -51.665  13.890  1.00  0.00    -0.288 N 
HETATM    2  C   UNL     1     -42.830 -50.983  12.880  1.00  0.00     0.111 C 
HETATM    3  C   UNL     1     -41.706 -51.505  12.335  1.00  0.00     0.116 C 
HETATM    4  C   UNL     1     -41.262 -52.860  12.794  1.00  0.00     0.274 C 
HETATM    5  O   UNL     1     -40.197 -53.345  12.413  1.00  0.00    -0.266 OA
HETATM    6  N   UNL     1     -42.091 -53.512  13.644  1.00  0.00    -0.274 N 
HETATM    7  C   UNL     1     -43.191 -52.972  14.242  1.00  0.00     0.330 C 
HETATM    8  O   UNL     1     -43.805 -53.647  15.069  1.00  0.00    -0.246 OA
HETATM    9  H   UNL     1     -41.818 -54.431  13.953  1.00  0.00     0.173 HD
ENDROOT
BRANCH   3  10
HETATM   10  N   UNL     1     -40.938 -50.892  11.331  1.00  0.00    -0.284 NA
HETATM   11  H   UNL     1     -40.599 -51.644  10.721  1.00  0.00     0.128 HD
BRANCH  10  12
HETATM   12  C   UNL     1     -39.759 -50.087  11.708  1.00  0.00     0.118 C 
BRANCH  12  13
HETATM   13  C   UNL     1     -40.037 -48.581  11.554  1.00  0.00     0.181 C 
BRANCH  13  14
HETATM   14  O   UNL     1     -40.741 -48.099  12.701  1.00  0.00    -0.395 OA
HETATM   15  C   UNL     1     -40.074 -48.418  13.912  1.00  0.00     0.201 C 
ENDBRANCH  13  14
ENDBRANCH  12  13
ENDBRANCH  10  12
ENDBRANCH   3  10
BRANCH   2  16
HETATM   16  N   UNL     1     -43.281 -49.772  12.365  1.00  0.00    -0.287 NA
HETATM   17  H   UNL     1     -43.793 -49.171  12.992  1.00  0.00     0.125 HD
HETATM   18  H   UNL     1     -42.537 -49.300  11.847  1.00  0.00     0.125 HD
ENDBRANCH   2  16
BRANCH   1  19
HETATM   19  C   UNL     1     -44.612 -51.050  14.632  1.00  0.00     0.135 C 
BRANCH  19  20
HETATM   20  C   UNL     1     -45.997 -51.371  14.038  1.00  0.00     0.020 C 
BRANCH  20  21
HETATM   21  C   UNL     1     -47.096 -51.549  15.089  1.00  0.00    -0.003 C 
HETATM   22  C   UNL     1     -46.610 -51.135  16.469  1.00  0.00     0.005 C 
ENDBRANCH  20  21
ENDBRANCH  19  20
ENDBRANCH   1  19
TORSDOF 8
ENDMDL
MODEL 9
REMARK VINA RESULT:      -4.6      2.377      6.374
REMARK  8 active torsions:
REMARK  status: ('A' for Active; 'I' for Inactive)
REMARK    1  A    between atoms: C_2  and  C_3 
REMARK    2  A    between atoms: C_3  and  C_4 
REMARK    3  A    between atoms: C_4  and  N_5 
REMARK    4  A    between atoms: C_6  and  N_7 
REMARK    5  A    between atoms: C_8  and  N_9 
REMARK    6  A    between atoms: N_9  and  C_10 
REMARK    7  A    between atoms: C_10  and  C_11 
REMARK    8  A    between atoms: C_11  and  O_12 
ROOT
HETATM    1  N   UNL     1     -40.460 -50.845  12.453  1.00  0.00    -0.288 N 
HETATM    2  C   UNL     1     -41.229 -51.955  12.106  1.00  0.00     0.111 C 
HETATM    3  C   UNL     1     -42.550 -51.994  12.401  1.00  0.00     0.116 C 
HETATM    4  C   UNL     1     -43.167 -50.788  13.040  1.00  0.00     0.274 C 
HETATM    5  O   UNL     1     -44.336 -50.798  13.424  1.00  0.00    -0.266 OA
HETATM    6  N   UNL     1     -42.372 -49.699  13.167  1.00  0.00    -0.274 N 
HETATM    7  C   UNL     1     -41.031 -49.669  12.929  1.00  0.00     0.330 C 
HETATM    8  O   UNL     1     -40.408 -48.635  13.176  1.00  0.00    -0.246 OA
HETATM    9  H   UNL     1     -42.773 -48.872  13.581  1.00  0.00     0.173 HD
ENDROOT
BRANCH   3  10
HETATM   10  N   UNL     1     -43.407 -53.069  12.115  1.00  0.00    -0.284 NA
HETATM   11  H   UNL     1     -44.330 -52.665  11.921  1.00  0.00     0.128 HD
BRANCH  10  12
HETATM   12  C   UNL     1     -43.611 -54.126  13.127  1.00  0.00     0.118 C 
BRANCH  12  13
HETATM   13  C   UNL     1     -45.108 -54.408  13.347  1.00  0.00     0.181 C 
BRANCH  13  14
HETATM   14  O   UNL     1     -45.309 -54.975  14.643  1.00  0.00    -0.395 OA
HETATM   15  C   UNL     1     -45.977 -54.080  15.521  1.00  0.00     0.201 C 
ENDBRANCH  13  14
ENDBRANCH  12  13
ENDBRANCH  10  12
ENDBRANCH   3  10
BRANCH   2  16
HETATM   16  N   UNL     1     -40.700 -53.043  11.420  1.00  0.00    -0.287 NA
HETATM   17  H   UNL     1     -41.187 -53.341  10.589  1.00  0.00     0.125 HD
HETATM   18  H   UNL     1     -39.690 -52.938  11.298  1.00  0.00     0.125 HD
ENDBRANCH   2  16
BRANCH   1  19
HETATM   19  C   UNL     1     -39.000 -50.842  12.322  1.00  0.00     0.135 C 
BRANCH  19  20
HETATM   20  C   UNL     1     -38.278 -51.401  13.563  1.00  0.00     0.020 C 
BRANCH  20  21
HETATM   21  C   UNL     1     -37.420 -50.369  14.298  1.00  0.00    -0.003 C 
HETATM   22  C   UNL     1     -38.066 -49.949  15.609  1.00  0.00     0.005 C 
ENDBRANCH  20  21
ENDBRANCH  19  20
ENDBRANCH   1  19
TORSDOF 8
ENDMDL
