MODEL 1
REMARK VINA RESULT:      -6.4      0.000      0.000
REMARK  4 active torsions:
REMARK  status: ('A' for Active; 'I' for Inactive)
REMARK    1  A    between atoms: C_5  and  C_6 
REMARK    2  A    between atoms: C_6  and  C_7 
REMARK    3  A    between atoms: C_7  and  N_8 
REMARK       I    between atoms: N_8  and  C_9 
REMARK       I    between atoms: C_9  and  N_11 
REMARK       I    between atoms: N_15  and  C_18 
REMARK    4  A    between atoms: C_18  and  C_20 
ROOT
HETATM    1  N   UNL     1     -42.078 -48.138  11.514  1.00  0.00    -0.343 N 
HETATM    2  C   UNL     1     -41.269 -49.241  11.362  1.00  0.00     0.318 C 
HETATM    3  O   UNL     1     -40.448 -49.308  10.450  1.00  0.00    -0.247 OA
HETATM    4  N   UNL     1     -41.445 -50.251  12.297  1.00  0.00    -0.333 N 
HETATM    5  C   UNL     1     -42.352 -50.202  13.450  1.00  0.00     0.129 C 
HETATM    6  C   UNL     1     -43.628 -50.990  13.163  1.00  0.00     0.040 C 
HETATM    7  C   UNL     1     -43.526 -52.485  13.496  1.00  0.00     0.127 C 
HETATM    8  N   UNL     1     -42.199 -53.065  13.306  1.00  0.00    -0.350 N 
HETATM    9  C   UNL     1     -41.512 -52.755  12.045  1.00  0.00     0.145 C 
HETATM   10  C   UNL     1     -40.652 -51.484  12.144  1.00  0.00     0.147 C 
HETATM   11  C   UNL     1     -41.492 -53.805  14.258  1.00  0.00     0.224 C 
HETATM   12  O   UNL     1     -40.337 -54.180  14.073  1.00  0.00    -0.273 OA
HETATM   13  H   UNL     1     -42.997 -48.334  11.874  1.00  0.00     0.164 HD
ENDROOT
BRANCH   1  14
HETATM   14  C   UNL     1     -41.982 -47.051  10.546  1.00  0.00     0.129 C 
BRANCH  14  15
HETATM   15  C   UNL     1     -43.342 -46.418  10.237  1.00  0.00     0.060 C 
BRANCH  15  16
HETATM   16  C   UNL     1     -44.156 -47.257   9.288  1.00  0.00    -0.041 A 
HETATM   17  C   UNL     1     -45.484 -47.585   9.564  1.00  0.00     0.010 A 
HETATM   18  C   UNL     1     -46.224 -48.320   8.639  1.00  0.00     0.025 A 
HETATM   19  C   UNL     1     -45.619 -48.713   7.451  1.00  0.00     0.005 A 
HETATM   20  C   UNL     1     -46.395 -49.442   6.394  1.00  0.00     0.068 C 
HETATM   21  N   UNL     1     -44.328 -48.421   7.166  1.00  0.00    -0.369 N 
HETATM   22  C   UNL     1     -43.632 -47.705   8.080  1.00  0.00     0.095 A 
ATOM     23  HN  UNL     1     -43.896 -48.729   6.295  1.00  0.00     0.165 HD
ENDBRANCH  15  16
ENDBRANCH  14  15
ENDBRANCH   1  14
BRANCH  11  24
HETATM   24  C   UNL     1     -42.181 -54.181  15.532  1.00  0.00     0.078 A 
HETATM   25  C   UNL     1     -41.587 -55.197  16.484  1.00  0.00     0.015 A 
HETATM   26  C   UNL     1     -42.774 -55.569  15.649  1.00  0.00     0.015 A 
ENDBRANCH  11  24
TORSDOF 4
ENDMDL
MODEL 2
REMARK VINA RESULT:      -6.3      4.272      7.299
REMARK  4 active torsions:
REMARK  status: ('A' for Active; 'I' for Inactive)
REMARK    1  A    between atoms: C_5  and  C_6 
REMARK    2  A    between atoms: C_6  and  C_7 
REMARK    3  A    between atoms: C_7  and  N_8 
REMARK       I    between atoms: N_8  and  C_9 
REMARK       I    between atoms: C_9  and  N_11 
REMARK       I    between atoms: N_15  and  C_18 
REMARK    4  A    between atoms: C_18  and  C_20 
ROOT
HETATM    1  N   UNL     1     -44.476 -54.427  13.507  1.00  0.00    -0.343 N 
HETATM    2  C   UNL     1     -43.203 -54.513  14.022  1.00  0.00     0.318 C 
HETATM    3  O   UNL     1     -42.919 -55.340  14.886  1.00  0.00    -0.247 OA
HETATM    4  N   UNL     1     -42.281 -53.615  13.503  1.00  0.00    -0.333 N 
HETATM    5  C   UNL     1     -42.535 -52.656  12.421  1.00  0.00     0.129 C 
HETATM    6  C   UNL     1     -42.763 -51.256  12.988  1.00  0.00     0.040 C 
HETATM    7  C   UNL     1     -41.473 -50.450  13.197  1.00  0.00     0.127 C 
HETATM    8  N   UNL     1     -40.304 -51.249  13.555  1.00  0.00    -0.350 N 
HETATM    9  C   UNL     1     -40.481 -52.250  14.616  1.00  0.00     0.145 C 
HETATM   10  C   UNL     1     -40.918 -53.618  14.064  1.00  0.00     0.147 C 
HETATM   11  C   UNL     1     -39.065 -51.210  12.910  1.00  0.00     0.224 C 
HETATM   12  O   UNL     1     -38.152 -51.981  13.194  1.00  0.00    -0.273 OA
HETATM   13  H   UNL     1     -44.769 -53.497  13.255  1.00  0.00     0.164 HD
ENDROOT
BRANCH   1  14
HETATM   14  C   UNL     1     -45.512 -55.309  14.032  1.00  0.00     0.129 C 
BRANCH  14  15
HETATM   15  C   UNL     1     -46.769 -54.547  14.464  1.00  0.00     0.060 C 
BRANCH  15  16
HETATM   16  C   UNL     1     -46.448 -53.392  15.376  1.00  0.00    -0.041 A 
HETATM   17  C   UNL     1     -46.721 -52.075  15.005  1.00  0.00     0.010 A 
HETATM   18  C   UNL     1     -46.458 -51.035  15.895  1.00  0.00     0.025 A 
HETATM   19  C   UNL     1     -45.927 -51.334  17.144  1.00  0.00     0.005 A 
HETATM   20  C   UNL     1     -45.695 -50.257  18.162  1.00  0.00     0.068 C 
HETATM   21  N   UNL     1     -45.639 -52.602  17.523  1.00  0.00    -0.369 N 
HETATM   22  C   UNL     1     -45.905 -53.593  16.640  1.00  0.00     0.095 A 
ATOM     23  HN  UNL     1     -45.238 -52.802  18.438  1.00  0.00     0.165 HD
ENDBRANCH  15  16
ENDBRANCH  14  15
ENDBRANCH   1  14
BRANCH  11  24
HETATM   24  C   UNL     1     -38.834 -50.169  11.860  1.00  0.00     0.078 A 
HETATM   25  C   UNL     1     -37.449 -49.872  11.329  1.00  0.00     0.015 A 
HETATM   26  C   UNL     1     -38.114 -48.897  12.252  1.00  0.00     0.015 A 
ENDBRANCH  11  24
TORSDOF 4
ENDMDL
MODEL 3
REMARK VINA RESULT:      -6.3      3.441      7.479
REMARK  4 active torsions:
REMARK  status: ('A' for Active; 'I' for Inactive)
REMARK    1  A    between atoms: C_5  and  C_6 
REMARK    2  A    between atoms: C_6  and  C_7 
REMARK    3  A    between atoms: C_7  and  N_8 
REMARK       I    between atoms: N_8  and  C_9 
REMARK       I    between atoms: C_9  and  N_11 
REMARK       I    between atoms: N_15  and  C_18 
REMARK    4  A    between atoms: C_18  and  C_20 
ROOT
HETATM    1  N   UNL     1     -42.884 -51.665  12.554  1.00  0.00    -0.343 N 
HETATM    2  C   UNL     1     -41.712 -51.164  12.037  1.00  0.00     0.318 C 
HETATM    3  O   UNL     1     -40.791 -51.907  11.706  1.00  0.00    -0.247 OA
HETATM    4  N   UNL     1     -41.648 -49.783  11.916  1.00  0.00    -0.333 N 
HETATM    5  C   UNL     1     -42.736 -48.846  12.220  1.00  0.00     0.129 C 
HETATM    6  C   UNL     1     -42.516 -48.192  13.583  1.00  0.00     0.040 C 
HETATM    7  C   UNL     1     -41.642 -46.930  13.535  1.00  0.00     0.127 C 
HETATM    8  N   UNL     1     -40.607 -46.941  12.505  1.00  0.00    -0.350 N 
HETATM    9  C   UNL     1     -39.788 -48.156  12.398  1.00  0.00     0.145 C 
HETATM   10  C   UNL     1     -40.391 -49.185  11.428  1.00  0.00     0.147 C 
HETATM   11  C   UNL     1     -40.395 -45.938  11.555  1.00  0.00     0.224 C 
HETATM   12  O   UNL     1     -39.572 -46.053  10.651  1.00  0.00    -0.273 OA
HETATM   13  H   UNL     1     -43.326 -51.080  13.243  1.00  0.00     0.164 HD
ENDROOT
BRANCH   1  14
HETATM   14  C   UNL     1     -43.012 -53.104  12.751  1.00  0.00     0.129 C 
BRANCH  14  15
HETATM   15  C   UNL     1     -44.467 -53.578  12.698  1.00  0.00     0.060 C 
BRANCH  15  16
HETATM   16  C   UNL     1     -45.314 -52.931  13.762  1.00  0.00    -0.041 A 
HETATM   17  C   UNL     1     -46.149 -51.852  13.471  1.00  0.00     0.010 A 
HETATM   18  C   UNL     1     -46.957 -51.310  14.470  1.00  0.00     0.025 A 
HETATM   19  C   UNL     1     -46.915 -51.863  15.744  1.00  0.00     0.005 A 
HETATM   20  C   UNL     1     -47.819 -51.362  16.832  1.00  0.00     0.068 C 
HETATM   21  N   UNL     1     -46.103 -52.901  16.056  1.00  0.00    -0.369 N 
HETATM   22  C   UNL     1     -45.330 -53.408  15.069  1.00  0.00     0.095 A 
ATOM     23  HN  UNL     1     -46.076 -53.285  17.000  1.00  0.00     0.165 HD
ENDBRANCH  15  16
ENDBRANCH  14  15
ENDBRANCH   1  14
BRANCH  11  24
HETATM   24  C   UNL     1     -41.177 -44.667  11.666  1.00  0.00     0.078 A 
HETATM   25  C   UNL     1     -40.677 -43.374  11.059  1.00  0.00     0.015 A 
HETATM   26  C   UNL     1     -40.635 -43.561  12.546  1.00  0.00     0.015 A 
ENDBRANCH  11  24
TORSDOF 4
ENDMDL
MODEL 4
REMARK VINA RESULT:      -6.2      2.974      4.932
REMARK  4 active torsions:
REMARK  status: ('A' for Active; 'I' for Inactive)
REMARK    1  A    between atoms: C_5  and  C_6 
REMARK    2  A    between atoms: C_6  and  C_7 
REMARK    3  A    between atoms: C_7  and  N_8 
REMARK       I    between atoms: N_8  and  C_9 
REMARK       I    between atoms: C_9  and  N_11 
REMARK       I    between atoms: N_15  and  C_18 
REMARK    4  A    between atoms: C_18  and  C_20 
ROOT
HETATM    1  N   UNL     1     -39.708 -51.304  13.808  1.00  0.00    -0.343 N 
HETATM    2  C   UNL     1     -40.394 -52.463  13.522  1.00  0.00     0.318 C 
HETATM    3  O   UNL     1     -39.823 -53.440  13.043  1.00  0.00    -0.247 OA
HETATM    4  N   UNL     1     -41.751 -52.447  13.813  1.00  0.00    -0.333 N 
HETATM    5  C   UNL     1     -42.477 -51.345  14.453  1.00  0.00     0.129 C 
HETATM    6  C   UNL     1     -43.245 -50.532  13.413  1.00  0.00     0.040 C 
HETATM    7  C   UNL     1     -44.646 -51.078  13.104  1.00  0.00     0.127 C 
HETATM    8  N   UNL     1     -44.771 -52.530  13.199  1.00  0.00    -0.350 N 
HETATM    9  C   UNL     1     -43.733 -53.332  12.537  1.00  0.00     0.145 C 
HETATM   10  C   UNL     1     -42.548 -53.639  13.468  1.00  0.00     0.147 C 
HETATM   11  C   UNL     1     -45.734 -53.216  13.945  1.00  0.00     0.224 C 
HETATM   12  O   UNL     1     -45.725 -54.438  14.065  1.00  0.00    -0.273 OA
HETATM   13  H   UNL     1     -40.238 -50.458  13.683  1.00  0.00     0.164 HD
ENDROOT
BRANCH   1  14
HETATM   14  C   UNL     1     -38.287 -51.228  13.492  1.00  0.00     0.129 C 
BRANCH  14  15
HETATM   15  C   UNL     1     -38.016 -50.490  12.177  1.00  0.00     0.060 C 
BRANCH  15  16
HETATM   16  C   UNL     1     -39.122 -49.531  11.826  1.00  0.00    -0.041 A 
HETATM   17  C   UNL     1     -39.165 -48.243  12.361  1.00  0.00     0.010 A 
HETATM   18  C   UNL     1     -40.175 -47.364  11.973  1.00  0.00     0.025 A 
HETATM   19  C   UNL     1     -41.125 -47.792  11.054  1.00  0.00     0.005 A 
HETATM   20  C   UNL     1     -42.188 -46.859  10.552  1.00  0.00     0.068 C 
HETATM   21  N   UNL     1     -41.115 -49.041  10.531  1.00  0.00    -0.369 N 
HETATM   22  C   UNL     1     -40.123 -49.874  10.923  1.00  0.00     0.095 A 
ATOM     23  HN  UNL     1     -41.827 -49.342   9.867  1.00  0.00     0.165 HD
ENDBRANCH  15  16
ENDBRANCH  14  15
ENDBRANCH   1  14
BRANCH  11  24
HETATM   24  C   UNL     1     -46.835 -52.434  14.589  1.00  0.00     0.078 A 
HETATM   25  C   UNL     1     -46.550 -51.203  15.423  1.00  0.00     0.015 A 
HETATM   26  C   UNL     1     -46.965 -52.476  16.096  1.00  0.00     0.015 A 
ENDBRANCH  11  24
TORSDOF 4
ENDMDL
MODEL 5
REMARK VINA RESULT:      -6.1      3.549      7.034
REMARK  4 active torsions:
REMARK  status: ('A' for Active; 'I' for Inactive)
REMARK    1  A    between atoms: C_5  and  C_6 
REMARK    2  A    between atoms: C_6  and  C_7 
REMARK    3  A    between atoms: C_7  and  N_8 
REMARK       I    between atoms: N_8  and  C_9 
REMARK       I    between atoms: C_9  and  N_11 
REMARK       I    between atoms: N_15  and  C_18 
REMARK    4  A    between atoms: C_18  and  C_20 
ROOT
HETATM    1  N   UNL     1     -41.059 -52.615  14.071  1.00  0.00    -0.343 N 
HETATM    2  C   UNL     1     -40.713 -52.010  12.884  1.00  0.00     0.318 C 
HETATM    3  O   UNL     1     -40.505 -52.670  11.868  1.00  0.00    -0.247 OA
HETATM    4  N   UNL     1     -40.621 -50.626  12.919  1.00  0.00    -0.333 N 
HETATM    5  C   UNL     1     -40.929 -49.775  14.074  1.00  0.00     0.129 C 
HETATM    6  C   UNL     1     -39.645 -49.334  14.774  1.00  0.00     0.040 C 
HETATM    7  C   UNL     1     -39.023 -48.058  14.189  1.00  0.00     0.127 C 
HETATM    8  N   UNL     1     -39.222 -47.883  12.753  1.00  0.00    -0.350 N 
HETATM    9  C   UNL     1     -38.948 -49.046  11.897  1.00  0.00     0.145 C 
HETATM   10  C   UNL     1     -40.191 -49.928  11.693  1.00  0.00     0.147 C 
HETATM   11  C   UNL     1     -39.741 -46.741  12.137  1.00  0.00     0.224 C 
HETATM   12  O   UNL     1     -39.978 -46.693  10.933  1.00  0.00    -0.273 OA
HETATM   13  H   UNL     1     -40.713 -52.156  14.896  1.00  0.00     0.164 HD
ENDROOT
BRANCH   1  14
HETATM   14  C   UNL     1     -41.135 -54.071  14.126  1.00  0.00     0.129 C 
BRANCH  14  15
HETATM   15  C   UNL     1     -42.469 -54.568  14.691  1.00  0.00     0.060 C 
BRANCH  15  16
HETATM   16  C   UNL     1     -43.644 -53.822  14.115  1.00  0.00    -0.041 A 
HETATM   17  C   UNL     1     -44.510 -53.090  14.927  1.00  0.00     0.010 A 
HETATM   18  C   UNL     1     -45.557 -52.370  14.354  1.00  0.00     0.025 A 
HETATM   19  C   UNL     1     -45.716 -52.395  12.974  1.00  0.00     0.005 A 
HETATM   20  C   UNL     1     -46.783 -51.578  12.306  1.00  0.00     0.068 C 
HETATM   21  N   UNL     1     -44.899 -53.109  12.165  1.00  0.00    -0.369 N 
HETATM   22  C   UNL     1     -43.890 -53.799  12.746  1.00  0.00     0.095 A 
ATOM     23  HN  UNL     1     -45.039 -53.127  11.155  1.00  0.00     0.165 HD
ENDBRANCH  15  16
ENDBRANCH  14  15
ENDBRANCH   1  14
BRANCH  11  24
HETATM   24  C   UNL     1     -39.982 -45.522  12.972  1.00  0.00     0.078 A 
HETATM   25  C   UNL     1     -40.163 -44.156  12.347  1.00  0.00     0.015 A 
HETATM   26  C   UNL     1     -38.887 -44.481  13.063  1.00  0.00     0.015 A 
ENDBRANCH  11  24
TORSDOF 4
ENDMDL
MODEL 6
REMARK VINA RESULT:      -5.9      3.176      7.768
REMARK  4 active torsions:
REMARK  status: ('A' for Active; 'I' for Inactive)
REMARK    1  A    between atoms: C_5  and  C_6 
REMARK    2  A    between atoms: C_6  and  C_7 
REMARK    3  A    between atoms: C_7  and  N_8 
REMARK       I    between atoms: N_8  and  C_9 
REMARK       I    between atoms: C_9  and  N_11 
REMARK       I    between atoms: N_15  and  C_18 
REMARK    4  A    between atoms: C_18  and  C_20 
ROOT
HETATM    1  N   UNL     1     -41.663 -50.710  11.696  1.00  0.00    -0.343 N 
HETATM    2  C   UNL     1     -40.733 -49.733  11.425  1.00  0.00     0.318 C 
HETATM    3  O   UNL     1     -39.549 -50.011  11.247  1.00  0.00    -0.247 OA
HETATM    4  N   UNL     1     -41.222 -48.435  11.365  1.00  0.00    -0.333 N 
HETATM    5  C   UNL     1     -42.631 -48.044  11.491  1.00  0.00     0.129 C 
HETATM    6  C   UNL     1     -42.915 -47.507  12.893  1.00  0.00     0.040 C 
HETATM    7  C   UNL     1     -42.638 -46.005  13.053  1.00  0.00     0.127 C 
HETATM    8  N   UNL     1     -41.541 -45.495  12.235  1.00  0.00    -0.350 N 
HETATM    9  C   UNL     1     -40.291 -46.266  12.242  1.00  0.00     0.145 C 
HETATM   10  C   UNL     1     -40.260 -47.341  11.142  1.00  0.00     0.147 C 
HETATM   11  C   UNL     1     -41.612 -44.395  11.375  1.00  0.00     0.224 C 
HETATM   12  O   UNL     1     -40.683 -44.077  10.638  1.00  0.00    -0.273 OA
HETATM   13  H   UNL     1     -42.408 -50.426  12.310  1.00  0.00     0.164 HD
ENDROOT
BRANCH   1  14
HETATM   14  C   UNL     1     -41.220 -52.094  11.816  1.00  0.00     0.129 C 
BRANCH  14  15
HETATM   15  C   UNL     1     -41.442 -52.662  13.221  1.00  0.00     0.060 C 
BRANCH  15  16
HETATM   16  C   UNL     1     -42.904 -52.818  13.546  1.00  0.00    -0.041 A 
HETATM   17  C   UNL     1     -43.708 -53.733  12.865  1.00  0.00     0.010 A 
HETATM   18  C   UNL     1     -45.045 -53.887  13.227  1.00  0.00     0.025 A 
HETATM   19  C   UNL     1     -45.554 -53.120  14.269  1.00  0.00     0.005 A 
HETATM   20  C   UNL     1     -46.966 -53.303  14.742  1.00  0.00     0.068 C 
HETATM   21  N   UNL     1     -44.800 -52.215  14.936  1.00  0.00    -0.369 N 
HETATM   22  C   UNL     1     -43.505 -52.086  14.565  1.00  0.00     0.095 A 
ATOM     23  HN  UNL     1     -45.194 -51.651  15.689  1.00  0.00     0.165 HD
ENDBRANCH  15  16
ENDBRANCH  14  15
ENDBRANCH   1  14
BRANCH  11  24
HETATM   24  C   UNL     1     -42.852 -43.557  11.381  1.00  0.00     0.078 A 
HETATM   25  C   UNL     1     -42.828 -42.103  10.962  1.00  0.00     0.015 A 
HETATM   26  C   UNL     1     -42.973 -42.455  12.412  1.00  0.00     0.015 A 
ENDBRANCH  11  24
TORSDOF 4
ENDMDL
MODEL 7
REMARK VINA RESULT:      -5.9      2.839      4.401
REMARK  4 active torsions:
REMARK  status: ('A' for Active; 'I' for Inactive)
REMARK    1  A    between atoms: C_5  and  C_6 
REMARK    2  A    between atoms: C_6  and  C_7 
REMARK    3  A    between atoms: C_7  and  N_8 
REMARK       I    between atoms: N_8  and  C_9 
REMARK       I    between atoms: C_9  and  N_11 
REMARK       I    between atoms: N_15  and  C_18 
REMARK    4  A    between atoms: C_18  and  C_20 
ROOT
HETATM    1  N   UNL     1     -42.155 -49.688  11.830  1.00  0.00    -0.343 N 
HETATM    2  C   UNL     1     -41.874 -50.993  12.162  1.00  0.00     0.318 C 
HETATM    3  O   UNL     1     -40.906 -51.579  11.682  1.00  0.00    -0.247 OA
HETATM    4  N   UNL     1     -42.745 -51.586  13.065  1.00  0.00    -0.333 N 
HETATM    5  C   UNL     1     -43.871 -50.922  13.731  1.00  0.00     0.129 C 
HETATM    6  C   UNL     1     -45.189 -51.289  13.051  1.00  0.00     0.040 C 
HETATM    7  C   UNL     1     -45.828 -52.579  13.584  1.00  0.00     0.127 C 
HETATM    8  N   UNL     1     -44.877 -53.594  14.029  1.00  0.00    -0.350 N 
HETATM    9  C   UNL     1     -43.754 -53.893  13.130  1.00  0.00     0.145 C 
HETATM   10  C   UNL     1     -42.530 -53.004  13.408  1.00  0.00     0.147 C 
HETATM   11  C   UNL     1     -44.891 -54.232  15.273  1.00  0.00     0.224 C 
HETATM   12  O   UNL     1     -44.003 -55.004  15.625  1.00  0.00    -0.273 OA
HETATM   13  H   UNL     1     -43.135 -49.460  11.805  1.00  0.00     0.164 HD
ENDROOT
BRANCH   1  14
HETATM   14  C   UNL     1     -41.310 -49.009  10.855  1.00  0.00     0.129 C 
BRANCH  14  15
HETATM   15  C   UNL     1     -42.047 -47.886  10.119  1.00  0.00     0.060 C 
BRANCH  15  16
HETATM   16  C   UNL     1     -41.610 -46.521  10.580  1.00  0.00    -0.041 A 
HETATM   17  C   UNL     1     -40.269 -46.234  10.834  1.00  0.00     0.010 A 
HETATM   18  C   UNL     1     -39.894 -44.946  11.210  1.00  0.00     0.025 A 
HETATM   19  C   UNL     1     -40.872 -43.965  11.324  1.00  0.00     0.005 A 
HETATM   20  C   UNL     1     -40.508 -42.547  11.655  1.00  0.00     0.068 C 
HETATM   21  N   UNL     1     -42.182 -44.221  11.098  1.00  0.00    -0.369 N 
HETATM   22  C   UNL     1     -42.519 -45.479  10.733  1.00  0.00     0.095 A 
ATOM     23  HN  UNL     1     -42.888 -43.492  11.199  1.00  0.00     0.165 HD
ENDBRANCH  15  16
ENDBRANCH  14  15
ENDBRANCH   1  14
BRANCH  11  24
HETATM   24  C   UNL     1     -46.048 -53.990  16.191  1.00  0.00     0.078 A 
HETATM   25  C   UNL     1     -46.119 -52.760  17.069  1.00  0.00     0.015 A 
HETATM   26  C   UNL     1     -45.818 -54.093  17.684  1.00  0.00     0.015 A 
ENDBRANCH  11  24
TORSDOF 4
ENDMDL
MODEL 8
REMARK VINA RESULT:      -5.8      3.207      4.068
REMARK  4 active torsions:
REMARK  status: ('A' for Active; 'I' for Inactive)
REMARK    1  A    between atoms: C_5  and  C_6 
REMARK    2  A    between atoms: C_6  and  C_7 
REMARK    3  A    between atoms: C_7  and  N_8 
REMARK       I    between atoms: N_8  and  C_9 
REMARK       I    between atoms: C_9  and  N_11 
REMARK       I    between atoms: N_15  and  C_18 
REMARK    4  A    between atoms: C_18  and  C_20 
ROOT
HETATM    1  N   UNL     1     -40.149 -47.663  12.743  1.00  0.00    -0.343 N 
HETATM    2  C   UNL     1     -39.710 -48.915  12.380  1.00  0.00     0.318 C 
HETATM    3  O   UNL     1     -38.759 -49.061  11.616  1.00  0.00    -0.247 OA
HETATM    4  N   UNL     1     -40.406 -49.981  12.933  1.00  0.00    -0.333 N 
HETATM    5  C   UNL     1     -41.498 -49.878  13.908  1.00  0.00     0.129 C 
HETATM    6  C   UNL     1     -42.850 -50.057  13.220  1.00  0.00     0.040 C 
HETATM    7  C   UNL     1     -43.298 -51.521  13.097  1.00  0.00     0.127 C 
HETATM    8  N   UNL     1     -42.210 -52.481  12.930  1.00  0.00    -0.350 N 
HETATM    9  C   UNL     1     -41.183 -52.156  11.931  1.00  0.00     0.145 C 
HETATM   10  C   UNL     1     -40.021 -51.346  12.529  1.00  0.00     0.147 C 
HETATM   11  C   UNL     1     -42.013 -53.628  13.704  1.00  0.00     0.224 C 
HETATM   12  O   UNL     1     -41.022 -54.342  13.579  1.00  0.00    -0.273 OA
HETATM   13  H   UNL     1     -41.141 -47.589  12.894  1.00  0.00     0.164 HD
ENDROOT
BRANCH   1  14
HETATM   14  C   UNL     1     -39.495 -46.491  12.172  1.00  0.00     0.129 C 
BRANCH  14  15
HETATM   15  C   UNL     1     -40.151 -46.030  10.867  1.00  0.00     0.060 C 
BRANCH  15  16
HETATM   16  C   UNL     1     -41.002 -44.803  11.061  1.00  0.00    -0.041 A 
HETATM   17  C   UNL     1     -40.433 -43.564  11.360  1.00  0.00     0.010 A 
HETATM   18  C   UNL     1     -41.247 -42.439  11.483  1.00  0.00     0.025 A 
HETATM   19  C   UNL     1     -42.618 -42.575  11.302  1.00  0.00     0.005 A 
HETATM   20  C   UNL     1     -43.525 -41.381  11.351  1.00  0.00     0.068 C 
HETATM   21  N   UNL     1     -43.196 -43.768  11.026  1.00  0.00    -0.369 N 
HETATM   22  C   UNL     1     -42.384 -44.844  10.911  1.00  0.00     0.095 A 
ATOM     23  HN  UNL     1     -44.205 -43.851  10.909  1.00  0.00     0.165 HD
ENDBRANCH  15  16
ENDBRANCH  14  15
ENDBRANCH   1  14
BRANCH  11  24
HETATM   24  C   UNL     1     -43.065 -54.016  14.695  1.00  0.00     0.078 A 
HETATM   25  C   UNL     1     -43.136 -55.413  15.271  1.00  0.00     0.015 A 
HETATM   26  C   UNL     1     -44.150 -54.976  14.257  1.00  0.00     0.015 A 
ENDBRANCH  11  24
TORSDOF 4
ENDMDL
MODEL 9
REMARK VINA RESULT:      -5.7      3.543      8.373
REMARK  4 active torsions:
REMARK  status: ('A' for Active; 'I' for Inactive)
REMARK    1  A    between atoms: C_5  and  C_6 
REMARK    2  A    between atoms: C_6  and  C_7 
REMARK    3  A    between atoms: C_7  and  N_8 
REMARK       I    between atoms: N_8  and  C_9 
REMARK       I    between atoms: C_9  and  N_11 
REMARK       I    between atoms: N_15  and  C_18 
REMARK    4  A    between atoms: C_18  and  C_20 
ROOT
HETATM    1  N   UNL     1     -39.780 -49.789  13.110  1.00  0.00    -0.343 N 
HETATM    2  C   UNL     1     -40.187 -49.110  11.984  1.00  0.00     0.318 C 
HETATM    3  O   UNL     1     -40.316 -49.685  10.905  1.00  0.00    -0.247 OA
HETATM    4  N   UNL     1     -40.438 -47.756  12.154  1.00  0.00    -0.333 N 
HETATM    5  C   UNL     1     -40.376 -47.027  13.426  1.00  0.00     0.129 C 
HETATM    6  C   UNL     1     -39.069 -46.242  13.531  1.00  0.00     0.040 C 
HETATM    7  C   UNL     1     -39.129 -44.843  12.903  1.00  0.00     0.127 C 
HETATM    8  N   UNL     1     -40.007 -44.731  11.742  1.00  0.00    -0.350 N 
HETATM    9  C   UNL     1     -39.882 -45.769  10.710  1.00  0.00     0.145 C 
HETATM   10  C   UNL     1     -40.813 -46.966  10.967  1.00  0.00     0.147 C 
HETATM   11  C   UNL     1     -41.018 -43.780  11.576  1.00  0.00     0.224 C 
HETATM   12  O   UNL     1     -41.790 -43.801  10.621  1.00  0.00    -0.273 OA
HETATM   13  H   UNL     1     -39.218 -49.250  13.748  1.00  0.00     0.164 HD
ENDROOT
BRANCH   1  14
HETATM   14  C   UNL     1     -39.457 -51.207  13.003  1.00  0.00     0.129 C 
BRANCH  14  15
HETATM   15  C   UNL     1     -39.869 -51.998  14.248  1.00  0.00     0.060 C 
BRANCH  15  16
HETATM   16  C   UNL     1     -41.145 -52.770  14.034  1.00  0.00    -0.041 A 
HETATM   17  C   UNL     1     -41.433 -53.919  14.771  1.00  0.00     0.010 A 
HETATM   18  C   UNL     1     -42.645 -54.579  14.583  1.00  0.00     0.025 A 
HETATM   19  C   UNL     1     -43.551 -54.074  13.657  1.00  0.00     0.005 A 
HETATM   20  C   UNL     1     -44.899 -54.707  13.472  1.00  0.00     0.068 C 
HETATM   21  N   UNL     1     -43.290 -52.970  12.918  1.00  0.00    -0.369 N 
HETATM   22  C   UNL     1     -42.106 -52.348  13.121  1.00  0.00     0.095 A 
ATOM     23  HN  UNL     1     -43.961 -52.621  12.234  1.00  0.00     0.165 HD
ENDBRANCH  15  16
ENDBRANCH  14  15
ENDBRANCH   1  14
BRANCH  11  24
HETATM   24  C   UNL     1     -41.140 -42.679  12.582  1.00  0.00     0.078 A 
HETATM   25  C   UNL     1     -41.889 -41.401  12.272  1.00  0.00     0.015 A 
HETATM   26  C   UNL     1     -40.391 -41.387  12.333  1.00  0.00     0.015 A 
ENDBRANCH  11  24
TORSDOF 4
ENDMDL
