MODEL 1
REMARK VINA RESULT:      -5.7      0.000      0.000
REMARK  4 active torsions:
REMARK  status: ('A' for Active; 'I' for Inactive)
REMARK    1  A    between atoms: C_2  and  C_4 
REMARK       I    between atoms: C_4  and  N_6 
REMARK    2  A    between atoms: N_6  and  C_7 
REMARK    3  A    between atoms: C_10  and  C_11 
REMARK    4  A    between atoms: C_11  and  C_12 
REMARK       I    between atoms: C_12  and  N_14 
ROOT
HETATM    1  C   UNL     1     -41.024 -48.322  11.099  1.00  0.00     0.151 A 
HETATM    2  N   UNL     1     -41.609 -48.167   9.942  1.00  0.00    -0.339 N 
ATOM      3  HN  UNL     1     -41.209 -48.446   9.046  1.00  0.00     0.168 HD
HETATM    4  C   UNL     1     -42.850 -47.570  10.104  1.00  0.00     0.026 A 
HETATM    5  C   UNL     1     -43.171 -47.287  11.421  1.00  0.00     0.078 A 
HETATM    6  S   UNL     1     -41.909 -47.811  12.463  1.00  0.00    -0.064 SA
ENDROOT
BRANCH   1   7
HETATM    7  N   UNL     1     -39.793 -48.848  11.372  1.00  0.00    -0.307 N 
HETATM    8  C   UNL     1     -39.641 -50.168  11.744  1.00  0.00     0.227 C 
HETATM    9  O   UNL     1     -40.535 -51.008  11.801  1.00  0.00    -0.273 OA
HETATM   10  H   UNL     1     -38.993 -48.257  11.200  1.00  0.00     0.171 HD
BRANCH   8  11
HETATM   11  C   UNL     1     -38.194 -50.528  12.076  1.00  0.00     0.070 C 
HETATM   12  C   UNL     1     -37.251 -49.993  11.001  1.00  0.00     0.019 C 
HETATM   13  C   UNL     1     -37.802 -49.970  13.445  1.00  0.00     0.019 C 
ENDBRANCH   8  11
ENDBRANCH   1   7
BRANCH   4  14
HETATM   14  C   UNL     1     -43.666 -47.358   8.872  1.00  0.00     0.160 C 
BRANCH  14  15
HETATM   15  C   UNL     1     -44.394 -46.032   8.847  1.00  0.00     0.221 C 
HETATM   16  O   UNL     1     -43.832 -44.938   8.861  1.00  0.00    -0.273 OA
HETATM   17  N   UNL     1     -45.758 -46.101   8.832  1.00  0.00    -0.370 N 
HETATM   18  H   UNL     1     -46.263 -46.962   8.669  1.00  0.00     0.159 HD
HETATM   19  H   UNL     1     -46.269 -45.228   8.777  1.00  0.00     0.159 HD
ENDBRANCH  14  15
ENDBRANCH   4  14
TORSDOF 4
ENDMDL
MODEL 2
REMARK VINA RESULT:      -5.7      2.144      6.090
REMARK  4 active torsions:
REMARK  status: ('A' for Active; 'I' for Inactive)
REMARK    1  A    between atoms: C_2  and  C_4 
REMARK       I    between atoms: C_4  and  N_6 
REMARK    2  A    between atoms: N_6  and  C_7 
REMARK    3  A    between atoms: C_10  and  C_11 
REMARK    4  A    between atoms: C_11  and  C_12 
REMARK       I    between atoms: C_12  and  N_14 
ROOT
HETATM    1  C   UNL     1     -41.131 -48.750  10.784  1.00  0.00     0.151 A 
HETATM    2  N   UNL     1     -41.229 -49.974  11.227  1.00  0.00    -0.339 N 
ATOM      3  HN  UNL     1     -41.888 -50.669  10.876  1.00  0.00     0.168 HD
HETATM    4  C   UNL     1     -40.310 -50.196  12.242  1.00  0.00     0.026 A 
HETATM    5  C   UNL     1     -39.523 -49.095  12.538  1.00  0.00     0.078 A 
HETATM    6  S   UNL     1     -39.926 -47.784  11.504  1.00  0.00    -0.064 SA
ENDROOT
BRANCH   1   7
HETATM    7  N   UNL     1     -41.863 -48.131   9.810  1.00  0.00    -0.307 N 
HETATM    8  C   UNL     1     -43.122 -47.627  10.069  1.00  0.00     0.227 C 
HETATM    9  O   UNL     1     -43.681 -47.607  11.162  1.00  0.00    -0.273 OA
HETATM   10  H   UNL     1     -41.409 -47.974   8.923  1.00  0.00     0.171 HD
BRANCH   8  11
HETATM   11  C   UNL     1     -43.794 -47.047   8.826  1.00  0.00     0.070 C 
HETATM   12  C   UNL     1     -43.452 -47.882   7.595  1.00  0.00     0.019 C 
HETATM   13  C   UNL     1     -45.311 -46.983   9.014  1.00  0.00     0.019 C 
ENDBRANCH   8  11
ENDBRANCH   1   7
BRANCH   4  14
HETATM   14  C   UNL     1     -40.267 -51.567  12.831  1.00  0.00     0.160 C 
BRANCH  14  15
HETATM   15  C   UNL     1     -41.259 -52.525  12.207  1.00  0.00     0.221 C 
HETATM   16  O   UNL     1     -42.478 -52.366  12.231  1.00  0.00    -0.273 OA
HETATM   17  N   UNL     1     -40.724 -53.632  11.611  1.00  0.00    -0.370 N 
HETATM   18  H   UNL     1     -39.734 -53.735  11.432  1.00  0.00     0.159 HD
HETATM   19  H   UNL     1     -41.363 -54.269  11.153  1.00  0.00     0.159 HD
ENDBRANCH  14  15
ENDBRANCH   4  14
TORSDOF 4
ENDMDL
MODEL 3
REMARK VINA RESULT:      -5.5      2.064      2.426
REMARK  4 active torsions:
REMARK  status: ('A' for Active; 'I' for Inactive)
REMARK    1  A    between atoms: C_2  and  C_4 
REMARK       I    between atoms: C_4  and  N_6 
REMARK    2  A    between atoms: N_6  and  C_7 
REMARK    3  A    between atoms: C_10  and  C_11 
REMARK    4  A    between atoms: C_11  and  C_12 
REMARK       I    between atoms: C_12  and  N_14 
ROOT
HETATM    1  C   UNL     1     -41.182 -48.800  10.899  1.00  0.00     0.151 A 
HETATM    2  N   UNL     1     -42.250 -48.552  10.189  1.00  0.00    -0.339 N 
ATOM      3  HN  UNL     1     -42.868 -49.264   9.800  1.00  0.00     0.168 HD
HETATM    4  C   UNL     1     -42.423 -47.184  10.039  1.00  0.00     0.026 A 
HETATM    5  C   UNL     1     -41.450 -46.422  10.663  1.00  0.00     0.078 A 
HETATM    6  S   UNL     1     -40.328 -47.441  11.472  1.00  0.00    -0.064 SA
ENDROOT
BRANCH   1   7
HETATM    7  N   UNL     1     -40.653 -50.008  11.255  1.00  0.00    -0.307 N 
HETATM    8  C   UNL     1     -41.332 -50.872  12.089  1.00  0.00     0.227 C 
HETATM    9  O   UNL     1     -42.465 -50.706  12.532  1.00  0.00    -0.273 OA
HETATM   10  H   UNL     1     -39.790 -50.281  10.809  1.00  0.00     0.171 HD
BRANCH   8  11
HETATM   11  C   UNL     1     -40.529 -52.130  12.420  1.00  0.00     0.070 C 
HETATM   12  C   UNL     1     -39.546 -51.852  13.555  1.00  0.00     0.019 C 
HETATM   13  C   UNL     1     -41.463 -53.279  12.801  1.00  0.00     0.019 C 
ENDBRANCH   8  11
ENDBRANCH   1   7
BRANCH   4  14
HETATM   14  C   UNL     1     -43.628 -46.733   9.281  1.00  0.00     0.160 C 
BRANCH  14  15
HETATM   15  C   UNL     1     -44.059 -47.698   8.198  1.00  0.00     0.221 C 
HETATM   16  O   UNL     1     -43.322 -48.095   7.298  1.00  0.00    -0.273 OA
HETATM   17  N   UNL     1     -45.360 -48.110   8.250  1.00  0.00    -0.370 N 
HETATM   18  H   UNL     1     -45.960 -47.935   9.046  1.00  0.00     0.159 HD
HETATM   19  H   UNL     1     -45.664 -48.785   7.559  1.00  0.00     0.159 HD
ENDBRANCH  14  15
ENDBRANCH   4  14
TORSDOF 4
ENDMDL
MODEL 4
REMARK VINA RESULT:      -5.5      4.206      6.722
REMARK  4 active torsions:
REMARK  status: ('A' for Active; 'I' for Inactive)
REMARK    1  A    between atoms: C_2  and  C_4 
REMARK       I    between atoms: C_4  and  N_6 
REMARK    2  A    between atoms: N_6  and  C_7 
REMARK    3  A    between atoms: C_10  and  C_11 
REMARK    4  A    between atoms: C_11  and  C_12 
REMARK       I    between atoms: C_12  and  N_14 
ROOT
HETATM    1  C   UNL     1     -42.449 -51.747  12.448  1.00  0.00     0.151 A 
HETATM    2  N   UNL     1     -41.928 -50.685  11.894  1.00  0.00    -0.339 N 
ATOM      3  HN  UNL     1     -42.463 -49.929  11.468  1.00  0.00     0.168 HD
HETATM    4  C   UNL     1     -40.543 -50.733  11.967  1.00  0.00     0.026 A 
HETATM    5  C   UNL     1     -40.052 -51.865  12.596  1.00  0.00     0.078 A 
HETATM    6  S   UNL     1     -41.350 -52.858  13.127  1.00  0.00    -0.064 SA
ENDROOT
BRANCH   1   7
HETATM    7  N   UNL     1     -43.766 -52.091  12.564  1.00  0.00    -0.307 N 
HETATM    8  C   UNL     1     -44.618 -51.400  13.402  1.00  0.00     0.227 C 
HETATM    9  O   UNL     1     -44.334 -50.400  14.055  1.00  0.00    -0.273 OA
HETATM   10  H   UNL     1     -44.110 -52.809  11.944  1.00  0.00     0.171 HD
BRANCH   8  11
HETATM   11  C   UNL     1     -46.024 -51.997  13.440  1.00  0.00     0.070 C 
HETATM   12  C   UNL     1     -46.815 -51.427  14.615  1.00  0.00     0.019 C 
HETATM   13  C   UNL     1     -46.761 -51.723  12.128  1.00  0.00     0.019 C 
ENDBRANCH   8  11
ENDBRANCH   1   7
BRANCH   4  14
HETATM   14  C   UNL     1     -39.795 -49.567  11.411  1.00  0.00     0.160 C 
BRANCH  14  15
HETATM   15  C   UNL     1     -38.300 -49.646  11.633  1.00  0.00     0.221 C 
HETATM   16  O   UNL     1     -37.740 -49.301  12.672  1.00  0.00    -0.273 OA
HETATM   17  N   UNL     1     -37.565 -50.113  10.581  1.00  0.00    -0.370 N 
HETATM   18  H   UNL     1     -37.983 -50.546   9.768  1.00  0.00     0.159 HD
HETATM   19  H   UNL     1     -36.566 -50.210  10.716  1.00  0.00     0.159 HD
ENDBRANCH  14  15
ENDBRANCH   4  14
TORSDOF 4
ENDMDL
MODEL 5
REMARK VINA RESULT:      -5.4      4.075      6.192
REMARK  4 active torsions:
REMARK  status: ('A' for Active; 'I' for Inactive)
REMARK    1  A    between atoms: C_2  and  C_4 
REMARK       I    between atoms: C_4  and  N_6 
REMARK    2  A    between atoms: N_6  and  C_7 
REMARK    3  A    between atoms: C_10  and  C_11 
REMARK    4  A    between atoms: C_11  and  C_12 
REMARK       I    between atoms: C_12  and  N_14 
ROOT
HETATM    1  C   UNL     1     -41.355 -50.682  12.017  1.00  0.00     0.151 A 
HETATM    2  N   UNL     1     -40.055 -50.747  12.119  1.00  0.00    -0.339 N 
ATOM      3  HN  UNL     1     -39.521 -51.611  12.210  1.00  0.00     0.168 HD
HETATM    4  C   UNL     1     -39.504 -49.475  12.086  1.00  0.00     0.026 A 
HETATM    5  C   UNL     1     -40.437 -48.461  11.953  1.00  0.00     0.078 A 
HETATM    6  S   UNL     1     -42.019 -49.123  11.837  1.00  0.00    -0.064 SA
ENDROOT
BRANCH   1   7
HETATM    7  N   UNL     1     -42.266 -51.700  12.029  1.00  0.00    -0.307 N 
HETATM    8  C   UNL     1     -42.382 -52.548  13.112  1.00  0.00     0.227 C 
HETATM    9  O   UNL     1     -41.767 -52.454  14.171  1.00  0.00    -0.273 OA
HETATM   10  H   UNL     1     -42.913 -51.748  11.256  1.00  0.00     0.171 HD
BRANCH   8  11
HETATM   11  C   UNL     1     -43.405 -53.660  12.887  1.00  0.00     0.070 C 
HETATM   12  C   UNL     1     -43.549 -54.516  14.143  1.00  0.00     0.019 C 
HETATM   13  C   UNL     1     -44.760 -53.073  12.492  1.00  0.00     0.019 C 
ENDBRANCH   8  11
ENDBRANCH   1   7
BRANCH   4  14
HETATM   14  C   UNL     1     -38.015 -49.379  12.152  1.00  0.00     0.160 C 
BRANCH  14  15
HETATM   15  C   UNL     1     -37.303 -50.501  11.428  1.00  0.00     0.221 C 
HETATM   16  O   UNL     1     -36.906 -51.528  11.975  1.00  0.00    -0.273 OA
HETATM   17  N   UNL     1     -37.091 -50.309  10.093  1.00  0.00    -0.370 N 
HETATM   18  H   UNL     1     -37.525 -49.559   9.570  1.00  0.00     0.159 HD
HETATM   19  H   UNL     1     -36.650 -51.061   9.578  1.00  0.00     0.159 HD
ENDBRANCH  14  15
ENDBRANCH   4  14
TORSDOF 4
ENDMDL
MODEL 6
REMARK VINA RESULT:      -5.2      2.765      3.385
REMARK  4 active torsions:
REMARK  status: ('A' for Active; 'I' for Inactive)
REMARK    1  A    between atoms: C_2  and  C_4 
REMARK       I    between atoms: C_4  and  N_6 
REMARK    2  A    between atoms: N_6  and  C_7 
REMARK    3  A    between atoms: C_10  and  C_11 
REMARK    4  A    between atoms: C_11  and  C_12 
REMARK       I    between atoms: C_12  and  N_14 
ROOT
HETATM    1  C   UNL     1     -40.937 -49.986  11.440  1.00  0.00     0.151 A 
HETATM    2  N   UNL     1     -41.782 -49.180  10.854  1.00  0.00    -0.339 N 
ATOM      3  HN  UNL     1     -42.674 -49.465  10.450  1.00  0.00     0.168 HD
HETATM    4  C   UNL     1     -41.293 -47.882  10.859  1.00  0.00     0.026 A 
HETATM    5  C   UNL     1     -40.058 -47.749  11.471  1.00  0.00     0.078 A 
HETATM    6  S   UNL     1     -39.527 -49.268  12.071  1.00  0.00    -0.064 SA
ENDROOT
BRANCH   1   7
HETATM    7  N   UNL     1     -41.031 -51.337  11.624  1.00  0.00    -0.307 N 
HETATM    8  C   UNL     1     -42.028 -51.889  12.403  1.00  0.00     0.227 C 
HETATM    9  O   UNL     1     -42.947 -51.276  12.939  1.00  0.00    -0.273 OA
HETATM   10  H   UNL     1     -40.401 -51.918  11.092  1.00  0.00     0.171 HD
BRANCH   8  11
HETATM   11  C   UNL     1     -41.903 -53.406  12.537  1.00  0.00     0.070 C 
HETATM   12  C   UNL     1     -40.552 -53.778  13.143  1.00  0.00     0.019 C 
HETATM   13  C   UNL     1     -43.037 -53.965  13.397  1.00  0.00     0.019 C 
ENDBRANCH   8  11
ENDBRANCH   1   7
BRANCH   4  14
HETATM   14  C   UNL     1     -42.164 -46.828  10.259  1.00  0.00     0.160 C 
BRANCH  14  15
HETATM   15  C   UNL     1     -43.322 -47.382   9.458  1.00  0.00     0.221 C 
HETATM   16  O   UNL     1     -44.408 -47.692   9.945  1.00  0.00    -0.273 OA
HETATM   17  N   UNL     1     -43.095 -47.553   8.122  1.00  0.00    -0.370 N 
HETATM   18  H   UNL     1     -42.282 -47.178   7.651  1.00  0.00     0.159 HD
HETATM   19  H   UNL     1     -43.866 -47.887   7.558  1.00  0.00     0.159 HD
ENDBRANCH  14  15
ENDBRANCH   4  14
TORSDOF 4
ENDMDL
MODEL 7
REMARK VINA RESULT:      -5.1      5.242      7.284
REMARK  4 active torsions:
REMARK  status: ('A' for Active; 'I' for Inactive)
REMARK    1  A    between atoms: C_2  and  C_4 
REMARK       I    between atoms: C_4  and  N_6 
REMARK    2  A    between atoms: N_6  and  C_7 
REMARK    3  A    between atoms: C_10  and  C_11 
REMARK    4  A    between atoms: C_11  and  C_12 
REMARK       I    between atoms: C_12  and  N_14 
ROOT
HETATM    1  C   UNL     1     -41.200 -52.998  13.133  1.00  0.00     0.151 A 
HETATM    2  N   UNL     1     -40.581 -51.909  12.763  1.00  0.00    -0.339 N 
ATOM      3  HN  UNL     1     -40.962 -51.212  12.124  1.00  0.00     0.168 HD
HETATM    4  C   UNL     1     -39.332 -51.836  13.363  1.00  0.00     0.026 A 
HETATM    5  C   UNL     1     -39.044 -52.906  14.194  1.00  0.00     0.078 A 
HETATM    6  S   UNL     1     -40.373 -53.994  14.241  1.00  0.00    -0.064 SA
ENDROOT
BRANCH   1   7
HETATM    7  N   UNL     1     -42.432 -53.452  12.756  1.00  0.00    -0.307 N 
HETATM    8  C   UNL     1     -43.567 -52.689  12.945  1.00  0.00     0.227 C 
HETATM    9  O   UNL     1     -43.601 -51.543  13.383  1.00  0.00    -0.273 OA
HETATM   10  H   UNL     1     -42.466 -54.324  12.250  1.00  0.00     0.171 HD
BRANCH   8  11
HETATM   11  C   UNL     1     -44.845 -53.415  12.524  1.00  0.00     0.070 C 
HETATM   12  C   UNL     1     -45.109 -54.606  13.442  1.00  0.00     0.019 C 
HETATM   13  C   UNL     1     -46.038 -52.459  12.545  1.00  0.00     0.019 C 
ENDBRANCH   8  11
ENDBRANCH   1   7
BRANCH   4  14
HETATM   14  C   UNL     1     -38.510 -50.624  13.072  1.00  0.00     0.160 C 
BRANCH  14  15
HETATM   15  C   UNL     1     -37.549 -50.807  11.918  1.00  0.00     0.221 C 
HETATM   16  O   UNL     1     -36.645 -51.641  11.902  1.00  0.00    -0.273 OA
HETATM   17  N   UNL     1     -37.717 -49.958  10.862  1.00  0.00    -0.370 N 
HETATM   18  H   UNL     1     -38.529 -49.362  10.760  1.00  0.00     0.159 HD
HETATM   19  H   UNL     1     -37.111 -50.084  10.061  1.00  0.00     0.159 HD
ENDBRANCH  14  15
ENDBRANCH   4  14
TORSDOF 4
ENDMDL
MODEL 8
REMARK VINA RESULT:      -5.0      4.126      6.109
REMARK  4 active torsions:
REMARK  status: ('A' for Active; 'I' for Inactive)
REMARK    1  A    between atoms: C_2  and  C_4 
REMARK       I    between atoms: C_4  and  N_6 
REMARK    2  A    between atoms: N_6  and  C_7 
REMARK    3  A    between atoms: C_10  and  C_11 
REMARK    4  A    between atoms: C_11  and  C_12 
REMARK       I    between atoms: C_12  and  N_14 
ROOT
HETATM    1  C   UNL     1     -42.927 -51.220  12.909  1.00  0.00     0.151 A 
HETATM    2  N   UNL     1     -42.282 -50.505  12.028  1.00  0.00    -0.339 N 
ATOM      3  HN  UNL     1     -42.721 -49.889  11.344  1.00  0.00     0.168 HD
HETATM    4  C   UNL     1     -40.915 -50.701  12.154  1.00  0.00     0.026 A 
HETATM    5  C   UNL     1     -40.564 -51.585  13.160  1.00  0.00     0.078 A 
HETATM    6  S   UNL     1     -41.970 -52.146  13.973  1.00  0.00    -0.064 SA
ENDROOT
BRANCH   1   7
HETATM    7  N   UNL     1     -44.276 -51.327  13.103  1.00  0.00    -0.307 N 
HETATM    8  C   UNL     1     -44.982 -52.424  12.651  1.00  0.00     0.227 C 
HETATM    9  O   UNL     1     -44.503 -53.419  12.114  1.00  0.00    -0.273 OA
HETATM   10  H   UNL     1     -44.716 -50.619  13.671  1.00  0.00     0.171 HD
BRANCH   8  11
HETATM   11  C   UNL     1     -46.484 -52.305  12.904  1.00  0.00     0.070 C 
HETATM   12  C   UNL     1     -46.751 -51.474  14.156  1.00  0.00     0.019 C 
HETATM   13  C   UNL     1     -47.185 -51.680  11.697  1.00  0.00     0.019 C 
ENDBRANCH   8  11
ENDBRANCH   1   7
BRANCH   4  14
HETATM   14  C   UNL     1     -40.030 -49.920  11.239  1.00  0.00     0.160 C 
BRANCH  14  15
HETATM   15  C   UNL     1     -40.567 -48.544  10.907  1.00  0.00     0.221 C 
HETATM   16  O   UNL     1     -41.644 -48.342  10.349  1.00  0.00    -0.273 OA
HETATM   17  N   UNL     1     -39.763 -47.493  11.245  1.00  0.00    -0.370 N 
HETATM   18  H   UNL     1     -38.947 -47.594  11.835  1.00  0.00     0.159 HD
HETATM   19  H   UNL     1     -40.115 -46.561  11.068  1.00  0.00     0.159 HD
ENDBRANCH  14  15
ENDBRANCH   4  14
TORSDOF 4
ENDMDL
MODEL 9
REMARK VINA RESULT:      -5.0      4.773      7.705
REMARK  4 active torsions:
REMARK  status: ('A' for Active; 'I' for Inactive)
REMARK    1  A    between atoms: C_2  and  C_4 
REMARK       I    between atoms: C_4  and  N_6 
REMARK    2  A    between atoms: N_6  and  C_7 
REMARK    3  A    between atoms: C_10  and  C_11 
REMARK    4  A    between atoms: C_11  and  C_12 
REMARK       I    between atoms: C_12  and  N_14 
ROOT
HETATM    1  C   UNL     1     -42.214 -51.027  12.998  1.00  0.00     0.151 A 
HETATM    2  N   UNL     1     -41.532 -51.852  13.747  1.00  0.00    -0.339 N 
ATOM      3  HN  UNL     1     -41.936 -52.462  14.458  1.00  0.00     0.168 HD
HETATM    4  C   UNL     1     -40.181 -51.779  13.440  1.00  0.00     0.026 A 
HETATM    5  C   UNL     1     -39.881 -50.875  12.435  1.00  0.00     0.078 A 
HETATM    6  S   UNL     1     -41.319 -50.137  11.853  1.00  0.00    -0.064 SA
ENDROOT
BRANCH   1   7
HETATM    7  N   UNL     1     -43.558 -50.781  13.000  1.00  0.00    -0.307 N 
HETATM    8  C   UNL     1     -44.471 -51.785  13.251  1.00  0.00     0.227 C 
HETATM    9  O   UNL     1     -44.204 -52.943  13.559  1.00  0.00    -0.273 OA
HETATM   10  H   UNL     1     -43.849 -49.820  12.905  1.00  0.00     0.171 HD
BRANCH   8  11
HETATM   11  C   UNL     1     -45.919 -51.312  13.130  1.00  0.00     0.070 C 
HETATM   12  C   UNL     1     -46.645 -52.093  12.037  1.00  0.00     0.019 C 
HETATM   13  C   UNL     1     -46.650 -51.469  14.463  1.00  0.00     0.019 C 
ENDBRANCH   8  11
ENDBRANCH   1   7
BRANCH   4  14
HETATM   14  C   UNL     1     -39.266 -52.694  14.185  1.00  0.00     0.160 C 
BRANCH  14  15
HETATM   15  C   UNL     1     -39.706 -54.142  14.161  1.00  0.00     0.221 C 
HETATM   16  O   UNL     1     -40.793 -54.537  14.578  1.00  0.00    -0.273 OA
HETATM   17  N   UNL     1     -38.799 -55.031  13.659  1.00  0.00    -0.370 N 
HETATM   18  H   UNL     1     -37.961 -54.744  13.169  1.00  0.00     0.159 HD
HETATM   19  H   UNL     1     -39.083 -56.001  13.597  1.00  0.00     0.159 HD
ENDBRANCH  14  15
ENDBRANCH   4  14
TORSDOF 4
ENDMDL
