MODEL 1
REMARK VINA RESULT:      -6.5      0.000      0.000
REMARK  5 active torsions:
REMARK  status: ('A' for Active; 'I' for Inactive)
REMARK    1  A    between atoms: S_2  and  N_5 
REMARK    2  A    between atoms: C_9  and  C_11 
REMARK       I    between atoms: C_11  and  N_13 
REMARK    3  A    between atoms: N_13  and  C_14 
REMARK    4  A    between atoms: C_14  and  C_15 
REMARK    5  A    between atoms: C_15  and  C_16 
ROOT
HETATM    1  C   UNL     1     -41.378 -50.008  11.765  1.00  0.00     0.223 C 
HETATM    2  O   UNL     1     -40.274 -50.479  12.014  1.00  0.00    -0.273 OA
HETATM    3  N   UNL     1     -42.561 -50.637  12.103  1.00  0.00    -0.360 N 
HETATM    4  H   UNL     1     -43.418 -50.100  12.057  1.00  0.00     0.162 HD
ENDROOT
BRANCH   1   5
HETATM    5  C   UNL     1     -41.582 -48.692  11.027  1.00  0.00     0.096 C 
HETATM    6  C   UNL     1     -40.469 -47.706  11.406  1.00  0.00     0.017 C 
HETATM    7  C   UNL     1     -40.700 -46.335  10.780  1.00  0.00     0.021 C 
HETATM    8  C   UNL     1     -42.096 -45.802  11.088  1.00  0.00     0.135 C 
HETATM    9  N   UNL     1     -43.144 -46.779  10.704  1.00  0.00    -0.310 N 
HETATM   10  C   UNL     1     -42.954 -48.105  11.359  1.00  0.00     0.149 C 
BRANCH   9  11
HETATM   11  S   UNL     1     -43.698 -46.778   9.102  1.00  0.00     0.224 S 
HETATM   12  C   UNL     1     -45.411 -47.227   9.312  1.00  0.00     0.186 C 
HETATM   13  O   UNL     1     -43.049 -47.862   8.396  1.00  0.00    -0.206 OA
HETATM   14  O   UNL     1     -43.632 -45.425   8.599  1.00  0.00    -0.206 OA
ENDBRANCH   9  11
ENDBRANCH   1   5
BRANCH   3  15
HETATM   15  C   UNL     1     -42.547 -51.866  12.873  1.00  0.00     0.127 C 
BRANCH  15  16
HETATM   16  C   UNL     1     -43.522 -52.905  12.318  1.00  0.00     0.059 C 
BRANCH  16  17
HETATM   17  C   UNL     1     -44.802 -52.915  13.102  1.00  0.00    -0.041 A 
HETATM   18  C   UNL     1     -45.424 -51.727  13.493  1.00  0.00     0.010 A 
HETATM   19  C   UNL     1     -46.566 -51.777  14.287  1.00  0.00     0.018 A 
HETATM   20  C   UNL     1     -47.051 -53.018  14.661  1.00  0.00     0.087 A 
HETATM   21  N   UNL     1     -46.486 -54.187  14.292  1.00  0.00    -0.375 N 
HETATM   22  C   UNL     1     -45.377 -54.110  13.525  1.00  0.00     0.094 A 
ATOM     23  HN  UNL     1     -46.878 -55.084  14.578  1.00  0.00     0.164 HD
ENDBRANCH  16  17
ENDBRANCH  15  16
ENDBRANCH   3  15
TORSDOF 5
ENDMDL
MODEL 2
REMARK VINA RESULT:      -6.4      3.442      6.609
REMARK  5 active torsions:
REMARK  status: ('A' for Active; 'I' for Inactive)
REMARK    1  A    between atoms: S_2  and  N_5 
REMARK    2  A    between atoms: C_9  and  C_11 
REMARK       I    between atoms: C_11  and  N_13 
REMARK    3  A    between atoms: N_13  and  C_14 
REMARK    4  A    between atoms: C_14  and  C_15 
REMARK    5  A    between atoms: C_15  and  C_16 
ROOT
HETATM    1  C   UNL     1     -40.939 -50.035  11.611  1.00  0.00     0.223 C 
HETATM    2  O   UNL     1     -39.792 -49.867  11.213  1.00  0.00    -0.273 OA
HETATM    3  N   UNL     1     -41.996 -49.233  11.227  1.00  0.00    -0.360 N 
HETATM    4  H   UNL     1     -42.936 -49.554  11.425  1.00  0.00     0.162 HD
ENDROOT
BRANCH   1   5
HETATM    5  C   UNL     1     -41.333 -51.124  12.600  1.00  0.00     0.096 C 
HETATM    6  C   UNL     1     -40.183 -51.372  13.585  1.00  0.00     0.017 C 
HETATM    7  C   UNL     1     -40.489 -52.538  14.519  1.00  0.00     0.021 C 
HETATM    8  C   UNL     1     -40.889 -53.791  13.746  1.00  0.00     0.135 C 
HETATM    9  N   UNL     1     -42.005 -53.514  12.809  1.00  0.00    -0.310 N 
HETATM   10  C   UNL     1     -41.688 -52.411  11.855  1.00  0.00     0.149 C 
BRANCH   9  11
HETATM   11  S   UNL     1     -43.592 -53.595  13.399  1.00  0.00     0.224 S 
HETATM   12  C   UNL     1     -43.441 -54.831  14.674  1.00  0.00     0.186 C 
HETATM   13  O   UNL     1     -44.436 -54.144  12.360  1.00  0.00    -0.206 OA
HETATM   14  O   UNL     1     -43.912 -52.328  14.018  1.00  0.00    -0.206 OA
ENDBRANCH   9  11
ENDBRANCH   1   5
BRANCH   3  15
HETATM   15  C   UNL     1     -41.807 -48.191  10.236  1.00  0.00     0.127 C 
BRANCH  15  16
HETATM   16  C   UNL     1     -42.942 -47.166  10.255  1.00  0.00     0.059 C 
BRANCH  16  17
HETATM   17  C   UNL     1     -44.064 -47.588   9.351  1.00  0.00    -0.041 A 
HETATM   18  C   UNL     1     -45.373 -47.704   9.824  1.00  0.00     0.010 A 
HETATM   19  C   UNL     1     -46.371 -48.175   8.977  1.00  0.00     0.018 A 
HETATM   20  C   UNL     1     -46.026 -48.511   7.679  1.00  0.00     0.087 A 
HETATM   21  N   UNL     1     -44.776 -48.400   7.182  1.00  0.00    -0.375 N 
HETATM   22  C   UNL     1     -43.825 -47.944   8.027  1.00  0.00     0.094 A 
ATOM     23  HN  UNL     1     -44.561 -48.647   6.216  1.00  0.00     0.164 HD
ENDBRANCH  16  17
ENDBRANCH  15  16
ENDBRANCH   3  15
TORSDOF 5
ENDMDL
MODEL 3
REMARK VINA RESULT:      -6.3      3.186      6.621
REMARK  5 active torsions:
REMARK  status: ('A' for Active; 'I' for Inactive)
REMARK    1  A    between atoms: S_2  and  N_5 
REMARK    2  A    between atoms: C_9  and  C_11 
REMARK       I    between atoms: C_11  and  N_13 
REMARK    3  A    between atoms: N_13  and  C_14 
REMARK    4  A    between atoms: C_14  and  C_15 
REMARK    5  A    between atoms: C_15  and  C_16 
ROOT
HETATM    1  C   UNL     1     -42.453 -49.482  12.687  1.00  0.00     0.223 C 
HETATM    2  O   UNL     1     -41.433 -49.079  13.237  1.00  0.00    -0.273 OA
HETATM    3  N   UNL     1     -42.808 -49.124  11.401  1.00  0.00    -0.360 N 
HETATM    4  H   UNL     1     -43.540 -49.652  10.943  1.00  0.00     0.162 HD
ENDROOT
BRANCH   1   5
HETATM    5  C   UNL     1     -43.465 -50.397  13.362  1.00  0.00     0.096 C 
HETATM    6  C   UNL     1     -43.760 -49.889  14.779  1.00  0.00     0.017 C 
HETATM    7  C   UNL     1     -44.680 -50.842  15.535  1.00  0.00     0.021 C 
HETATM    8  C   UNL     1     -44.149 -52.272  15.515  1.00  0.00     0.135 C 
HETATM    9  N   UNL     1     -43.880 -52.730  14.131  1.00  0.00    -0.310 N 
HETATM   10  C   UNL     1     -42.936 -51.831  13.406  1.00  0.00     0.149 C 
BRANCH   9  11
HETATM   11  S   UNL     1     -45.161 -53.389  13.237  1.00  0.00     0.224 S 
HETATM   12  C   UNL     1     -46.030 -54.322  14.483  1.00  0.00     0.186 C 
HETATM   13  O   UNL     1     -44.614 -54.336  12.289  1.00  0.00    -0.206 OA
HETATM   14  O   UNL     1     -46.010 -52.306  12.793  1.00  0.00    -0.206 OA
ENDBRANCH   9  11
ENDBRANCH   1   5
BRANCH   3  15
HETATM   15  C   UNL     1     -41.919 -48.313  10.591  1.00  0.00     0.127 C 
BRANCH  15  16
HETATM   16  C   UNL     1     -42.633 -47.102   9.988  1.00  0.00     0.059 C 
BRANCH  16  17
HETATM   17  C   UNL     1     -43.810 -47.528   9.160  1.00  0.00    -0.041 A 
HETATM   18  C   UNL     1     -45.104 -47.536   9.688  1.00  0.00     0.010 A 
HETATM   19  C   UNL     1     -46.159 -48.013   8.915  1.00  0.00     0.018 A 
HETATM   20  C   UNL     1     -45.884 -48.466   7.636  1.00  0.00     0.087 A 
HETATM   21  N   UNL     1     -44.650 -48.461   7.087  1.00  0.00    -0.375 N 
HETATM   22  C   UNL     1     -43.644 -47.996   7.860  1.00  0.00     0.094 A 
ATOM     23  HN  UNL     1     -44.487 -48.792   6.137  1.00  0.00     0.164 HD
ENDBRANCH  16  17
ENDBRANCH  15  16
ENDBRANCH   3  15
TORSDOF 5
ENDMDL
MODEL 4
REMARK VINA RESULT:      -6.1      3.600      5.235
REMARK  5 active torsions:
REMARK  status: ('A' for Active; 'I' for Inactive)
REMARK    1  A    between atoms: S_2  and  N_5 
REMARK    2  A    between atoms: C_9  and  C_11 
REMARK       I    between atoms: C_11  and  N_13 
REMARK    3  A    between atoms: N_13  and  C_14 
REMARK    4  A    between atoms: C_14  and  C_15 
REMARK    5  A    between atoms: C_15  and  C_16 
ROOT
HETATM    1  C   UNL     1     -43.918 -53.309  12.558  1.00  0.00     0.223 C 
HETATM    2  O   UNL     1     -44.405 -54.432  12.490  1.00  0.00    -0.273 OA
HETATM    3  N   UNL     1     -44.672 -52.154  12.482  1.00  0.00    -0.360 N 
HETATM    4  H   UNL     1     -44.237 -51.281  12.753  1.00  0.00     0.162 HD
ENDROOT
BRANCH   1   5
HETATM    5  C   UNL     1     -42.425 -53.049  12.699  1.00  0.00     0.096 C 
HETATM    6  C   UNL     1     -41.742 -54.271  13.328  1.00  0.00     0.017 C 
HETATM    7  C   UNL     1     -40.264 -54.009  13.597  1.00  0.00     0.021 C 
HETATM    8  C   UNL     1     -40.056 -52.731  14.405  1.00  0.00     0.135 C 
HETATM    9  N   UNL     1     -40.725 -51.573  13.765  1.00  0.00    -0.310 N 
HETATM   10  C   UNL     1     -42.183 -51.803  13.552  1.00  0.00     0.149 C 
BRANCH   9  11
HETATM   11  S   UNL     1     -39.889 -50.726  12.558  1.00  0.00     0.224 S 
HETATM   12  C   UNL     1     -39.638 -49.141  13.335  1.00  0.00     0.186 C 
HETATM   13  O   UNL     1     -40.787 -50.523  11.441  1.00  0.00    -0.206 OA
HETATM   14  O   UNL     1     -38.603 -51.357  12.367  1.00  0.00    -0.206 OA
ENDBRANCH   9  11
ENDBRANCH   1   5
BRANCH   3  15
HETATM   15  C   UNL     1     -46.120 -52.223  12.415  1.00  0.00     0.127 C 
BRANCH  15  16
HETATM   16  C   UNL     1     -46.787 -51.431  13.540  1.00  0.00     0.059 C 
BRANCH  16  17
HETATM   17  C   UNL     1     -46.345 -51.929  14.886  1.00  0.00    -0.041 A 
HETATM   18  C   UNL     1     -45.707 -51.087  15.799  1.00  0.00     0.010 A 
HETATM   19  C   UNL     1     -45.241 -51.605  17.004  1.00  0.00     0.018 A 
HETATM   20  C   UNL     1     -45.431 -52.952  17.256  1.00  0.00     0.087 A 
HETATM   21  N   UNL     1     -46.055 -53.795  16.405  1.00  0.00    -0.375 N 
HETATM   22  C   UNL     1     -46.494 -53.267  15.241  1.00  0.00     0.094 A 
ATOM     23  HN  UNL     1     -46.188 -54.780  16.630  1.00  0.00     0.164 HD
ENDBRANCH  16  17
ENDBRANCH  15  16
ENDBRANCH   3  15
TORSDOF 5
ENDMDL
MODEL 5
REMARK VINA RESULT:      -6.0      2.153      2.651
REMARK  5 active torsions:
REMARK  status: ('A' for Active; 'I' for Inactive)
REMARK    1  A    between atoms: S_2  and  N_5 
REMARK    2  A    between atoms: C_9  and  C_11 
REMARK       I    between atoms: C_11  and  N_13 
REMARK    3  A    between atoms: N_13  and  C_14 
REMARK    4  A    between atoms: C_14  and  C_15 
REMARK    5  A    between atoms: C_15  and  C_16 
ROOT
HETATM    1  C   UNL     1     -40.943 -52.036  12.266  1.00  0.00     0.223 C 
HETATM    2  O   UNL     1     -40.261 -53.054  12.322  1.00  0.00    -0.273 OA
HETATM    3  N   UNL     1     -42.312 -52.034  12.453  1.00  0.00    -0.360 N 
HETATM    4  H   UNL     1     -42.772 -51.144  12.600  1.00  0.00     0.162 HD
ENDROOT
BRANCH   1   5
HETATM    5  C   UNL     1     -40.372 -50.660  11.951  1.00  0.00     0.096 C 
HETATM    6  C   UNL     1     -38.868 -50.640  12.254  1.00  0.00     0.017 C 
HETATM    7  C   UNL     1     -38.279 -49.246  12.065  1.00  0.00     0.021 C 
HETATM    8  C   UNL     1     -39.056 -48.194  12.850  1.00  0.00     0.135 C 
HETATM    9  N   UNL     1     -40.503 -48.241  12.528  1.00  0.00    -0.310 N 
HETATM   10  C   UNL     1     -41.097 -49.588  12.766  1.00  0.00     0.149 C 
BRANCH   9  11
HETATM   11  S   UNL     1     -41.057 -47.377  11.179  1.00  0.00     0.224 S 
HETATM   12  C   UNL     1     -42.397 -46.432  11.878  1.00  0.00     0.186 C 
HETATM   13  O   UNL     1     -41.632 -48.318  10.242  1.00  0.00    -0.206 OA
HETATM   14  O   UNL     1     -40.015 -46.465  10.764  1.00  0.00    -0.206 OA
ENDBRANCH   9  11
ENDBRANCH   1   5
BRANCH   3  15
HETATM   15  C   UNL     1     -43.005 -53.251  12.830  1.00  0.00     0.127 C 
BRANCH  15  16
HETATM   16  C   UNL     1     -44.463 -53.249  12.370  1.00  0.00     0.059 C 
BRANCH  16  17
HETATM   17  C   UNL     1     -45.386 -52.913  13.505  1.00  0.00    -0.041 A 
HETATM   18  C   UNL     1     -46.054 -51.687  13.560  1.00  0.00     0.010 A 
HETATM   19  C   UNL     1     -46.838 -51.380  14.667  1.00  0.00     0.018 A 
HETATM   20  C   UNL     1     -46.931 -52.313  15.685  1.00  0.00     0.087 A 
HETATM   21  N   UNL     1     -46.312 -53.513  15.662  1.00  0.00    -0.375 N 
HETATM   22  C   UNL     1     -45.554 -53.785  14.577  1.00  0.00     0.094 A 
ATOM     23  HN  UNL     1     -46.412 -54.181  16.426  1.00  0.00     0.164 HD
ENDBRANCH  16  17
ENDBRANCH  15  16
ENDBRANCH   3  15
TORSDOF 5
ENDMDL
MODEL 6
REMARK VINA RESULT:      -5.9      3.454      6.721
REMARK  5 active torsions:
REMARK  status: ('A' for Active; 'I' for Inactive)
REMARK    1  A    between atoms: S_2  and  N_5 
REMARK    2  A    between atoms: C_9  and  C_11 
REMARK       I    between atoms: C_11  and  N_13 
REMARK    3  A    between atoms: N_13  and  C_14 
REMARK    4  A    between atoms: C_14  and  C_15 
REMARK    5  A    between atoms: C_15  and  C_16 
ROOT
HETATM    1  C   UNL     1     -41.051 -52.936  13.334  1.00  0.00     0.223 C 
HETATM    2  O   UNL     1     -40.519 -53.436  12.350  1.00  0.00    -0.273 OA
HETATM    3  N   UNL     1     -40.373 -52.138  14.235  1.00  0.00    -0.360 N 
HETATM    4  H   UNL     1     -40.915 -51.596  14.896  1.00  0.00     0.162 HD
ENDROOT
BRANCH   1   5
HETATM    5  C   UNL     1     -42.512 -53.158  13.703  1.00  0.00     0.096 C 
HETATM    6  C   UNL     1     -42.672 -54.519  14.394  1.00  0.00     0.017 C 
HETATM    7  C   UNL     1     -44.138 -54.834  14.673  1.00  0.00     0.021 C 
HETATM    8  C   UNL     1     -44.993 -54.701  13.418  1.00  0.00     0.135 C 
HETATM    9  N   UNL     1     -44.816 -53.374  12.781  1.00  0.00    -0.310 N 
HETATM   10  C   UNL     1     -43.390 -53.084  12.453  1.00  0.00     0.149 C 
BRANCH   9  11
HETATM   11  S   UNL     1     -45.760 -52.081  13.338  1.00  0.00     0.224 S 
HETATM   12  C   UNL     1     -46.812 -51.768  11.933  1.00  0.00     0.186 C 
HETATM   13  O   UNL     1     -44.901 -50.927  13.501  1.00  0.00    -0.206 OA
HETATM   14  O   UNL     1     -46.577 -52.553  14.433  1.00  0.00    -0.206 OA
ENDBRANCH   9  11
ENDBRANCH   1   5
BRANCH   3  15
HETATM   15  C   UNL     1     -38.991 -51.769  13.996  1.00  0.00     0.127 C 
BRANCH  15  16
HETATM   16  C   UNL     1     -38.807 -50.254  13.897  1.00  0.00     0.059 C 
BRANCH  16  17
HETATM   17  C   UNL     1     -39.683 -49.674  12.825  1.00  0.00    -0.041 A 
HETATM   18  C   UNL     1     -40.693 -48.758  13.129  1.00  0.00     0.010 A 
HETATM   19  C   UNL     1     -41.536 -48.303  12.119  1.00  0.00     0.018 A 
HETATM   20  C   UNL     1     -41.337 -48.779  10.834  1.00  0.00     0.087 A 
HETATM   21  N   UNL     1     -40.364 -49.653  10.499  1.00  0.00    -0.375 N 
HETATM   22  C   UNL     1     -39.562 -50.081  11.500  1.00  0.00     0.094 A 
ATOM     23  HN  UNL     1     -40.239 -49.973   9.540  1.00  0.00     0.164 HD
ENDBRANCH  16  17
ENDBRANCH  15  16
ENDBRANCH   3  15
TORSDOF 5
ENDMDL
MODEL 7
REMARK VINA RESULT:      -5.8      3.443      7.798
REMARK  5 active torsions:
REMARK  status: ('A' for Active; 'I' for Inactive)
REMARK    1  A    between atoms: S_2  and  N_5 
REMARK    2  A    between atoms: C_9  and  C_11 
REMARK       I    between atoms: C_11  and  N_13 
REMARK    3  A    between atoms: N_13  and  C_14 
REMARK    4  A    between atoms: C_14  and  C_15 
REMARK    5  A    between atoms: C_15  and  C_16 
ROOT
HETATM    1  C   UNL     1     -42.147 -50.950  12.784  1.00  0.00     0.223 C 
HETATM    2  O   UNL     1     -41.070 -51.198  13.314  1.00  0.00    -0.273 OA
HETATM    3  N   UNL     1     -42.308 -49.964  11.829  1.00  0.00    -0.360 N 
HETATM    4  H   UNL     1     -43.165 -49.957  11.290  1.00  0.00     0.162 HD
ENDROOT
BRANCH   1   5
HETATM    5  C   UNL     1     -43.441 -51.671  13.134  1.00  0.00     0.096 C 
HETATM    6  C   UNL     1     -44.574 -50.650  13.307  1.00  0.00     0.017 C 
HETATM    7  C   UNL     1     -45.862 -51.319  13.774  1.00  0.00     0.021 C 
HETATM    8  C   UNL     1     -45.636 -52.172  15.019  1.00  0.00     0.135 C 
HETATM    9  N   UNL     1     -44.539 -53.148  14.813  1.00  0.00    -0.310 N 
HETATM   10  C   UNL     1     -43.261 -52.492  14.411  1.00  0.00     0.149 C 
BRANCH   9  11
HETATM   11  S   UNL     1     -44.909 -54.634  14.087  1.00  0.00     0.224 S 
HETATM   12  C   UNL     1     -46.608 -54.864  14.577  1.00  0.00     0.186 C 
HETATM   13  O   UNL     1     -44.127 -55.664  14.737  1.00  0.00    -0.206 OA
HETATM   14  O   UNL     1     -44.860 -54.464  12.652  1.00  0.00    -0.206 OA
ENDBRANCH   9  11
ENDBRANCH   1   5
BRANCH   3  15
HETATM   15  C   UNL     1     -41.161 -49.229  11.330  1.00  0.00     0.127 C 
BRANCH  15  16
HETATM   16  C   UNL     1     -41.570 -47.935  10.625  1.00  0.00     0.059 C 
BRANCH  16  17
HETATM   17  C   UNL     1     -40.778 -46.768  11.139  1.00  0.00    -0.041 A 
HETATM   18  C   UNL     1     -40.226 -46.773  12.422  1.00  0.00     0.010 A 
HETATM   19  C   UNL     1     -39.567 -45.641  12.892  1.00  0.00     0.018 A 
HETATM   20  C   UNL     1     -39.480 -44.539  12.059  1.00  0.00     0.087 A 
HETATM   21  N   UNL     1     -39.988 -44.501  10.809  1.00  0.00    -0.375 N 
HETATM   22  C   UNL     1     -40.626 -45.612  10.379  1.00  0.00     0.094 A 
ATOM     23  HN  UNL     1     -39.895 -43.674  10.219  1.00  0.00     0.164 HD
ENDBRANCH  16  17
ENDBRANCH  15  16
ENDBRANCH   3  15
TORSDOF 5
ENDMDL
MODEL 8
REMARK VINA RESULT:      -5.7      3.200      6.927
REMARK  5 active torsions:
REMARK  status: ('A' for Active; 'I' for Inactive)
REMARK    1  A    between atoms: S_2  and  N_5 
REMARK    2  A    between atoms: C_9  and  C_11 
REMARK       I    between atoms: C_11  and  N_13 
REMARK    3  A    between atoms: N_13  and  C_14 
REMARK    4  A    between atoms: C_14  and  C_15 
REMARK    5  A    between atoms: C_15  and  C_16 
ROOT
HETATM    1  C   UNL     1     -41.688 -51.990  12.284  1.00  0.00     0.223 C 
HETATM    2  O   UNL     1     -40.701 -52.574  11.851  1.00  0.00    -0.273 OA
HETATM    3  N   UNL     1     -41.968 -50.667  12.000  1.00  0.00    -0.360 N 
HETATM    4  H   UNL     1     -42.893 -50.318  12.215  1.00  0.00     0.162 HD
ENDROOT
BRANCH   1   5
HETATM    5  C   UNL     1     -42.706 -52.638  13.212  1.00  0.00     0.096 C 
HETATM    6  C   UNL     1     -42.089 -53.876  13.877  1.00  0.00     0.017 C 
HETATM    7  C   UNL     1     -43.113 -54.624  14.724  1.00  0.00     0.021 C 
HETATM    8  C   UNL     1     -44.376 -54.943  13.931  1.00  0.00     0.135 C 
HETATM    9  N   UNL     1     -44.946 -53.724  13.309  1.00  0.00    -0.310 N 
HETATM   10  C   UNL     1     -43.965 -53.020  12.433  1.00  0.00     0.149 C 
BRANCH   9  11
HETATM   11  S   UNL     1     -45.991 -52.761  14.233  1.00  0.00     0.224 S 
HETATM   12  C   UNL     1     -46.506 -51.539  13.041  1.00  0.00     0.186 C 
HETATM   13  O   UNL     1     -45.208 -52.079  15.241  1.00  0.00    -0.206 OA
HETATM   14  O   UNL     1     -47.137 -53.560  14.603  1.00  0.00    -0.206 OA
ENDBRANCH   9  11
ENDBRANCH   1   5
BRANCH   3  15
HETATM   15  C   UNL     1     -41.136 -49.922  11.074  1.00  0.00     0.127 C 
BRANCH  15  16
HETATM   16  C   UNL     1     -41.365 -48.414  11.181  1.00  0.00     0.059 C 
BRANCH  16  17
HETATM   17  C   UNL     1     -42.552 -47.990  10.366  1.00  0.00    -0.041 A 
HETATM   18  C   UNL     1     -42.500 -47.952   8.970  1.00  0.00     0.010 A 
HETATM   19  C   UNL     1     -43.594 -47.477   8.253  1.00  0.00     0.018 A 
HETATM   20  C   UNL     1     -44.709 -47.058   8.958  1.00  0.00     0.087 A 
HETATM   21  N   UNL     1     -44.803 -47.092  10.305  1.00  0.00    -0.375 N 
HETATM   22  C   UNL     1     -43.725 -47.554  10.977  1.00  0.00     0.094 A 
ATOM     23  HN  UNL     1     -45.645 -46.785  10.790  1.00  0.00     0.164 HD
ENDBRANCH  16  17
ENDBRANCH  15  16
ENDBRANCH   3  15
TORSDOF 5
ENDMDL
MODEL 9
REMARK VINA RESULT:      -5.7      3.046      4.157
REMARK  5 active torsions:
REMARK  status: ('A' for Active; 'I' for Inactive)
REMARK    1  A    between atoms: S_2  and  N_5 
REMARK    2  A    between atoms: C_9  and  C_11 
REMARK       I    between atoms: C_11  and  N_13 
REMARK    3  A    between atoms: N_13  and  C_14 
REMARK    4  A    between atoms: C_14  and  C_15 
REMARK    5  A    between atoms: C_15  and  C_16 
ROOT
HETATM    1  C   UNL     1     -42.125 -53.172  12.978  1.00  0.00     0.223 C 
HETATM    2  O   UNL     1     -42.105 -54.261  13.539  1.00  0.00    -0.273 OA
HETATM    3  N   UNL     1     -43.223 -52.699  12.286  1.00  0.00    -0.360 N 
HETATM    4  H   UNL     1     -43.242 -51.719  12.031  1.00  0.00     0.162 HD
ENDROOT
BRANCH   1   5
HETATM    5  C   UNL     1     -40.935 -52.223  12.946  1.00  0.00     0.096 C 
HETATM    6  C   UNL     1     -39.793 -52.792  13.799  1.00  0.00     0.017 C 
HETATM    7  C   UNL     1     -38.624 -51.817  13.891  1.00  0.00     0.021 C 
HETATM    8  C   UNL     1     -39.078 -50.435  14.351  1.00  0.00     0.135 C 
HETATM    9  N   UNL     1     -40.177 -49.916  13.502  1.00  0.00    -0.310 N 
HETATM   10  C   UNL     1     -41.346 -50.841  13.454  1.00  0.00     0.149 C 
BRANCH   9  11
HETATM   11  S   UNL     1     -39.773 -49.104  12.070  1.00  0.00     0.224 S 
HETATM   12  C   UNL     1     -41.351 -49.020  11.244  1.00  0.00     0.186 C 
HETATM   13  O   UNL     1     -38.917 -49.966  11.283  1.00  0.00    -0.206 OA
HETATM   14  O   UNL     1     -39.356 -47.762  12.410  1.00  0.00    -0.206 OA
ENDBRANCH   9  11
ENDBRANCH   1   5
BRANCH   3  15
HETATM   15  C   UNL     1     -44.465 -53.448  12.276  1.00  0.00     0.127 C 
BRANCH  15  16
HETATM   16  C   UNL     1     -45.683 -52.549  12.487  1.00  0.00     0.059 C 
BRANCH  16  17
HETATM   17  C   UNL     1     -46.072 -52.501  13.936  1.00  0.00    -0.041 A 
HETATM   18  C   UNL     1     -46.780 -51.418  14.463  1.00  0.00     0.010 A 
HETATM   19  C   UNL     1     -47.053 -51.372  15.827  1.00  0.00     0.018 A 
HETATM   20  C   UNL     1     -46.609 -52.416  16.621  1.00  0.00     0.087 A 
HETATM   21  N   UNL     1     -45.934 -53.485  16.147  1.00  0.00    -0.375 N 
HETATM   22  C   UNL     1     -45.679 -53.502  14.820  1.00  0.00     0.094 A 
ATOM     23  HN  UNL     1     -45.633 -54.241  16.760  1.00  0.00     0.164 HD
ENDBRANCH  16  17
ENDBRANCH  15  16
ENDBRANCH   3  15
TORSDOF 5
ENDMDL
