MODEL 1
REMARK VINA RESULT:      -6.4      0.000      0.000
REMARK  4 active torsions:
REMARK  status: ('A' for Active; 'I' for Inactive)
REMARK    1  A    between atoms: O_2  and  C_3 
REMARK    2  A    between atoms: C_6  and  N_7 
REMARK       I    between atoms: N_7  and  C_8 
REMARK       I    between atoms: C_8  and  N_10 
REMARK    3  A    between atoms: N_10  and  C_11 
REMARK    4  A    between atoms: C_11  and  C_12 
REMARK       I    between atoms: C_12  and  N_14 
ROOT
HETATM    1  N   UNL     1     -41.385 -49.951  11.026  1.00  0.00    -0.308 N 
HETATM    2  C   UNL     1     -41.860 -50.609  12.136  1.00  0.00     0.321 C 
HETATM    3  O   UNL     1     -42.244 -50.085  13.176  1.00  0.00    -0.247 OA
HETATM    4  N   UNL     1     -41.844 -51.976  12.016  1.00  0.00    -0.334 N 
HETATM    5  H   UNL     1     -41.075 -50.524  10.256  1.00  0.00     0.170 HD
HETATM    6  H   UNL     1     -41.792 -52.438  11.117  1.00  0.00     0.164 HD
ENDROOT
BRANCH   1   7
HETATM    7  C   UNL     1     -41.206 -48.547  10.913  1.00  0.00     0.051 A 
HETATM    8  C   UNL     1     -40.153 -47.848  11.500  1.00  0.00     0.035 A 
HETATM    9  C   UNL     1     -40.014 -46.478  11.291  1.00  0.00     0.058 A 
HETATM   10  C   UNL     1     -40.946 -45.834  10.502  1.00  0.00     0.141 A 
HETATM   11  N   UNL     1     -42.002 -46.454   9.938  1.00  0.00    -0.345 N 
HETATM   12  C   UNL     1     -42.105 -47.792  10.158  1.00  0.00     0.119 A 
ATOM     13  HN  UNL     1     -42.688 -45.947   9.377  1.00  0.00     0.167 HD
BRANCH  10  14
HETATM   14  O   UNL     1     -40.725 -44.486  10.292  1.00  0.00    -0.341 OA
HETATM   15  C   UNL     1     -40.131 -43.833  11.406  1.00  0.00     0.211 C 
ENDBRANCH  10  14
ENDBRANCH   1   7
BRANCH   4  16
HETATM   16  C   UNL     1     -42.363 -52.742  13.137  1.00  0.00     0.227 C 
BRANCH  16  17
HETATM   17  C   UNL     1     -43.854 -53.062  13.062  1.00  0.00     0.237 C 
HETATM   18  O   UNL     1     -44.332 -53.581  12.050  1.00  0.00    -0.272 OA
HETATM   19  N   UNL     1     -44.621 -52.708  14.172  1.00  0.00    -0.351 N 
HETATM   20  C   UNL     1     -46.055 -52.982  14.178  1.00  0.00     0.126 C 
HETATM   21  C   UNL     1     -44.093 -52.150  15.422  1.00  0.00     0.126 C 
HETATM   22  C   UNL     1     -46.847 -51.728  14.546  1.00  0.00     0.020 C 
HETATM   23  C   UNL     1     -46.348 -51.111  15.852  1.00  0.00     0.003 C 
HETATM   24  C   UNL     1     -44.840 -50.873  15.802  1.00  0.00     0.020 C 
ENDBRANCH  16  17
ENDBRANCH   4  16
TORSDOF 4
ENDMDL
MODEL 2
REMARK VINA RESULT:      -6.1      2.444      3.271
REMARK  4 active torsions:
REMARK  status: ('A' for Active; 'I' for Inactive)
REMARK    1  A    between atoms: O_2  and  C_3 
REMARK    2  A    between atoms: C_6  and  N_7 
REMARK       I    between atoms: N_7  and  C_8 
REMARK       I    between atoms: C_8  and  N_10 
REMARK    3  A    between atoms: N_10  and  C_11 
REMARK    4  A    between atoms: C_11  and  C_12 
REMARK       I    between atoms: C_12  and  N_14 
ROOT
HETATM    1  N   UNL     1     -40.798 -49.564  10.732  1.00  0.00    -0.308 N 
HETATM    2  C   UNL     1     -41.299 -50.474  11.634  1.00  0.00     0.321 C 
HETATM    3  O   UNL     1     -42.037 -50.219  12.580  1.00  0.00    -0.247 OA
HETATM    4  N   UNL     1     -40.869 -51.759  11.419  1.00  0.00    -0.334 N 
HETATM    5  H   UNL     1     -40.175 -49.924  10.024  1.00  0.00     0.170 HD
HETATM    6  H   UNL     1     -40.490 -52.059  10.531  1.00  0.00     0.164 HD
ENDROOT
BRANCH   1   7
HETATM    7  C   UNL     1     -41.005 -48.161  10.773  1.00  0.00     0.051 A 
HETATM    8  C   UNL     1     -40.116 -47.261  11.357  1.00  0.00     0.035 A 
HETATM    9  C   UNL     1     -40.363 -45.891  11.303  1.00  0.00     0.058 A 
HETATM   10  C   UNL     1     -41.508 -45.453  10.669  1.00  0.00     0.141 A 
HETATM   11  N   UNL     1     -42.419 -46.280  10.117  1.00  0.00    -0.345 N 
HETATM   12  C   UNL     1     -42.144 -47.610  10.184  1.00  0.00     0.119 A 
ATOM     13  HN  UNL     1     -43.268 -45.928   9.674  1.00  0.00     0.167 HD
BRANCH  10  14
HETATM   14  O   UNL     1     -41.671 -44.081  10.605  1.00  0.00    -0.341 OA
HETATM   15  C   UNL     1     -40.581 -43.359  11.161  1.00  0.00     0.211 C 
ENDBRANCH  10  14
ENDBRANCH   1   7
BRANCH   4  16
HETATM   16  C   UNL     1     -41.383 -52.783  12.313  1.00  0.00     0.227 C 
BRANCH  16  17
HETATM   17  C   UNL     1     -40.445 -53.173  13.452  1.00  0.00     0.237 C 
HETATM   18  O   UNL     1     -39.224 -53.049  13.327  1.00  0.00    -0.272 OA
HETATM   19  N   UNL     1     -41.044 -53.696  14.598  1.00  0.00    -0.351 N 
HETATM   20  C   UNL     1     -40.214 -54.092  15.732  1.00  0.00     0.126 C 
HETATM   21  C   UNL     1     -42.489 -53.804  14.822  1.00  0.00     0.126 C 
HETATM   22  C   UNL     1     -40.551 -55.513  16.182  1.00  0.00     0.020 C 
HETATM   23  C   UNL     1     -42.047 -55.680  16.446  1.00  0.00     0.003 C 
HETATM   24  C   UNL     1     -42.867 -55.223  15.240  1.00  0.00     0.020 C 
ENDBRANCH  16  17
ENDBRANCH   4  16
TORSDOF 4
ENDMDL
MODEL 3
REMARK VINA RESULT:      -6.0      2.155      7.640
REMARK  4 active torsions:
REMARK  status: ('A' for Active; 'I' for Inactive)
REMARK    1  A    between atoms: O_2  and  C_3 
REMARK    2  A    between atoms: C_6  and  N_7 
REMARK       I    between atoms: N_7  and  C_8 
REMARK       I    between atoms: C_8  and  N_10 
REMARK    3  A    between atoms: N_10  and  C_11 
REMARK    4  A    between atoms: C_11  and  C_12 
REMARK       I    between atoms: C_12  and  N_14 
ROOT
HETATM    1  N   UNL     1     -42.209 -52.374  11.783  1.00  0.00    -0.308 N 
HETATM    2  C   UNL     1     -41.441 -51.293  12.145  1.00  0.00     0.321 C 
HETATM    3  O   UNL     1     -41.370 -50.803  13.268  1.00  0.00    -0.247 OA
HETATM    4  N   UNL     1     -40.739 -50.740  11.103  1.00  0.00    -0.334 N 
HETATM    5  H   UNL     1     -42.186 -52.642  10.810  1.00  0.00     0.170 HD
HETATM    6  H   UNL     1     -40.557 -51.246  10.247  1.00  0.00     0.164 HD
ENDROOT
BRANCH   1   7
HETATM    7  C   UNL     1     -43.099 -53.077  12.636  1.00  0.00     0.051 A 
HETATM    8  C   UNL     1     -42.704 -54.094  13.503  1.00  0.00     0.035 A 
HETATM    9  C   UNL     1     -43.630 -54.695  14.353  1.00  0.00     0.058 A 
HETATM   10  C   UNL     1     -44.941 -54.267  14.306  1.00  0.00     0.141 A 
HETATM   11  N   UNL     1     -45.385 -53.312  13.464  1.00  0.00    -0.345 N 
HETATM   12  C   UNL     1     -44.454 -52.743  12.652  1.00  0.00     0.119 A 
ATOM     13  HN  UNL     1     -46.366 -53.031  13.437  1.00  0.00     0.167 HD
BRANCH  10  14
HETATM   14  O   UNL     1     -45.801 -54.866  15.208  1.00  0.00    -0.341 OA
HETATM   15  C   UNL     1     -46.042 -54.076  16.365  1.00  0.00     0.211 C 
ENDBRANCH  10  14
ENDBRANCH   1   7
BRANCH   4  16
HETATM   16  C   UNL     1     -39.877 -49.613  11.416  1.00  0.00     0.227 C 
BRANCH  16  17
HETATM   17  C   UNL     1     -40.564 -48.249  11.386  1.00  0.00     0.237 C 
HETATM   18  O   UNL     1     -41.266 -47.924  10.425  1.00  0.00    -0.272 OA
HETATM   19  N   UNL     1     -40.323 -47.409  12.473  1.00  0.00    -0.351 N 
HETATM   20  C   UNL     1     -40.944 -46.089  12.519  1.00  0.00     0.126 C 
HETATM   21  C   UNL     1     -39.551 -47.771  13.667  1.00  0.00     0.126 C 
HETATM   22  C   UNL     1     -39.901 -45.006  12.795  1.00  0.00     0.020 C 
HETATM   23  C   UNL     1     -39.075 -45.325  14.040  1.00  0.00     0.003 C 
HETATM   24  C   UNL     1     -38.475 -46.726  13.952  1.00  0.00     0.020 C 
ENDBRANCH  16  17
ENDBRANCH   4  16
TORSDOF 4
ENDMDL
MODEL 4
REMARK VINA RESULT:      -5.9      2.982      7.641
REMARK  4 active torsions:
REMARK  status: ('A' for Active; 'I' for Inactive)
REMARK    1  A    between atoms: O_2  and  C_3 
REMARK    2  A    between atoms: C_6  and  N_7 
REMARK       I    between atoms: N_7  and  C_8 
REMARK       I    between atoms: C_8  and  N_10 
REMARK    3  A    between atoms: N_10  and  C_11 
REMARK    4  A    between atoms: C_11  and  C_12 
REMARK       I    between atoms: C_12  and  N_14 
ROOT
HETATM    1  N   UNL     1     -42.379 -52.651  11.830  1.00  0.00    -0.308 N 
HETATM    2  C   UNL     1     -41.736 -51.463  12.088  1.00  0.00     0.321 C 
HETATM    3  O   UNL     1     -41.870 -50.775  13.095  1.00  0.00    -0.247 OA
HETATM    4  N   UNL     1     -40.911 -51.049  11.073  1.00  0.00    -0.334 N 
HETATM    5  H   UNL     1     -42.188 -53.085  10.939  1.00  0.00     0.170 HD
HETATM    6  H   UNL     1     -40.569 -51.684  10.363  1.00  0.00     0.164 HD
ENDROOT
BRANCH   1   7
HETATM    7  C   UNL     1     -43.353 -53.261  12.662  1.00  0.00     0.051 A 
HETATM    8  C   UNL     1     -43.046 -54.100  13.732  1.00  0.00     0.035 A 
HETATM    9  C   UNL     1     -44.059 -54.611  14.540  1.00  0.00     0.058 A 
HETATM   10  C   UNL     1     -45.366 -54.276  14.249  1.00  0.00     0.141 A 
HETATM   11  N   UNL     1     -45.722 -53.496  13.208  1.00  0.00    -0.345 N 
HETATM   12  C   UNL     1     -44.708 -53.010  12.443  1.00  0.00     0.119 A 
ATOM     13  HN  UNL     1     -46.699 -53.283  13.004  1.00  0.00     0.167 HD
BRANCH  10  14
HETATM   14  O   UNL     1     -46.320 -54.773  15.116  1.00  0.00    -0.341 OA
HETATM   15  C   UNL     1     -46.225 -54.233  16.427  1.00  0.00     0.211 C 
ENDBRANCH  10  14
ENDBRANCH   1   7
BRANCH   4  16
HETATM   16  C   UNL     1     -40.170 -49.817  11.287  1.00  0.00     0.227 C 
BRANCH  16  17
HETATM   17  C   UNL     1     -38.929 -49.957  12.165  1.00  0.00     0.237 C 
HETATM   18  O   UNL     1     -38.240 -50.979  12.116  1.00  0.00    -0.272 OA
HETATM   19  N   UNL     1     -38.654 -48.894  13.025  1.00  0.00    -0.351 N 
HETATM   20  C   UNL     1     -37.484 -48.952  13.896  1.00  0.00     0.126 C 
HETATM   21  C   UNL     1     -39.401 -47.632  13.076  1.00  0.00     0.126 C 
HETATM   22  C   UNL     1     -37.869 -48.649  15.344  1.00  0.00     0.020 C 
HETATM   23  C   UNL     1     -38.638 -47.335  15.459  1.00  0.00     0.003 C 
HETATM   24  C   UNL     1     -39.832 -47.317  14.506  1.00  0.00     0.020 C 
ENDBRANCH  16  17
ENDBRANCH   4  16
TORSDOF 4
ENDMDL
MODEL 5
REMARK VINA RESULT:      -5.8      3.408      7.484
REMARK  4 active torsions:
REMARK  status: ('A' for Active; 'I' for Inactive)
REMARK    1  A    between atoms: O_2  and  C_3 
REMARK    2  A    between atoms: C_6  and  N_7 
REMARK       I    between atoms: N_7  and  C_8 
REMARK       I    between atoms: C_8  and  N_10 
REMARK    3  A    between atoms: N_10  and  C_11 
REMARK    4  A    between atoms: C_11  and  C_12 
REMARK       I    between atoms: C_12  and  N_14 
ROOT
HETATM    1  N   UNL     1     -40.875 -50.458  11.226  1.00  0.00    -0.308 N 
HETATM    2  C   UNL     1     -41.807 -49.498  11.542  1.00  0.00     0.321 C 
HETATM    3  O   UNL     1     -42.418 -49.408  12.603  1.00  0.00    -0.247 OA
HETATM    4  N   UNL     1     -42.054 -48.611  10.524  1.00  0.00    -0.334 N 
HETATM    5  H   UNL     1     -40.480 -50.419  10.299  1.00  0.00     0.170 HD
HETATM    6  H   UNL     1     -41.410 -48.481   9.756  1.00  0.00     0.164 HD
ENDROOT
BRANCH   1   7
HETATM    7  C   UNL     1     -40.498 -51.547  12.055  1.00  0.00     0.051 A 
HETATM    8  C   UNL     1     -39.577 -51.450  13.096  1.00  0.00     0.035 A 
HETATM    9  C   UNL     1     -39.306 -52.552  13.903  1.00  0.00     0.058 A 
HETATM   10  C   UNL     1     -39.961 -53.738  13.639  1.00  0.00     0.141 A 
HETATM   11  N   UNL     1     -40.836 -53.898  12.625  1.00  0.00    -0.345 N 
HETATM   12  C   UNL     1     -41.081 -52.801  11.861  1.00  0.00     0.119 A 
ATOM     13  HN  UNL     1     -41.288 -54.794  12.441  1.00  0.00     0.167 HD
BRANCH  10  14
HETATM   14  O   UNL     1     -39.687 -54.780  14.505  1.00  0.00    -0.341 OA
HETATM   15  C   UNL     1     -40.537 -54.804  15.644  1.00  0.00     0.211 C 
ENDBRANCH  10  14
ENDBRANCH   1   7
BRANCH   4  16
HETATM   16  C   UNL     1     -43.004 -47.546  10.796  1.00  0.00     0.227 C 
BRANCH  16  17
HETATM   17  C   UNL     1     -42.512 -46.142  10.451  1.00  0.00     0.237 C 
HETATM   18  O   UNL     1     -42.697 -45.673   9.325  1.00  0.00    -0.272 OA
HETATM   19  N   UNL     1     -41.830 -45.459  11.458  1.00  0.00    -0.351 N 
HETATM   20  C   UNL     1     -41.328 -44.111  11.207  1.00  0.00     0.126 C 
HETATM   21  C   UNL     1     -41.641 -45.943  12.830  1.00  0.00     0.126 C 
HETATM   22  C   UNL     1     -39.851 -44.001  11.583  1.00  0.00     0.020 C 
HETATM   23  C   UNL     1     -39.598 -44.480  13.012  1.00  0.00     0.003 C 
HETATM   24  C   UNL     1     -40.167 -45.880  13.227  1.00  0.00     0.020 C 
ENDBRANCH  16  17
ENDBRANCH   4  16
TORSDOF 4
ENDMDL
MODEL 6
REMARK VINA RESULT:      -5.6      2.485      2.762
REMARK  4 active torsions:
REMARK  status: ('A' for Active; 'I' for Inactive)
REMARK    1  A    between atoms: O_2  and  C_3 
REMARK    2  A    between atoms: C_6  and  N_7 
REMARK       I    between atoms: N_7  and  C_8 
REMARK       I    between atoms: C_8  and  N_10 
REMARK    3  A    between atoms: N_10  and  C_11 
REMARK    4  A    between atoms: C_11  and  C_12 
REMARK       I    between atoms: C_12  and  N_14 
ROOT
HETATM    1  N   UNL     1     -41.689 -51.015  11.821  1.00  0.00    -0.308 N 
HETATM    2  C   UNL     1     -42.424 -51.913  12.559  1.00  0.00     0.321 C 
HETATM    3  O   UNL     1     -42.431 -52.007  13.782  1.00  0.00    -0.247 OA
HETATM    4  N   UNL     1     -43.171 -52.775  11.795  1.00  0.00    -0.334 N 
HETATM    5  H   UNL     1     -41.766 -51.082  10.818  1.00  0.00     0.170 HD
HETATM    6  H   UNL     1     -43.403 -52.577  10.830  1.00  0.00     0.164 HD
ENDROOT
BRANCH   1   7
HETATM    7  C   UNL     1     -40.766 -50.075  12.348  1.00  0.00     0.051 A 
HETATM    8  C   UNL     1     -39.385 -50.260  12.352  1.00  0.00     0.035 A 
HETATM    9  C   UNL     1     -38.541 -49.262  12.833  1.00  0.00     0.058 A 
HETATM   10  C   UNL     1     -39.105 -48.097  13.312  1.00  0.00     0.141 A 
HETATM   11  N   UNL     1     -40.435 -47.878  13.362  1.00  0.00    -0.345 N 
HETATM   12  C   UNL     1     -41.229 -48.871  12.880  1.00  0.00     0.119 A 
ATOM     13  HN  UNL     1     -40.824 -47.015  13.742  1.00  0.00     0.167 HD
BRANCH  10  14
HETATM   14  O   UNL     1     -38.215 -47.125  13.728  1.00  0.00    -0.341 OA
HETATM   15  C   UNL     1     -37.194 -47.627  14.581  1.00  0.00     0.211 C 
ENDBRANCH  10  14
ENDBRANCH   1   7
BRANCH   4  16
HETATM   16  C   UNL     1     -44.002 -53.733  12.505  1.00  0.00     0.227 C 
BRANCH  16  17
HETATM   17  C   UNL     1     -45.407 -53.240  12.842  1.00  0.00     0.237 C 
HETATM   18  O   UNL     1     -46.147 -52.808  11.955  1.00  0.00    -0.272 OA
HETATM   19  N   UNL     1     -45.774 -53.282  14.187  1.00  0.00    -0.351 N 
HETATM   20  C   UNL     1     -47.102 -52.829  14.590  1.00  0.00     0.126 C 
HETATM   21  C   UNL     1     -44.959 -53.845  15.268  1.00  0.00     0.126 C 
HETATM   22  C   UNL     1     -47.008 -51.818  15.732  1.00  0.00     0.020 C 
HETATM   23  C   UNL     1     -46.180 -52.360  16.896  1.00  0.00     0.003 C 
HETATM   24  C   UNL     1     -44.815 -52.846  16.414  1.00  0.00     0.020 C 
ENDBRANCH  16  17
ENDBRANCH   4  16
TORSDOF 4
ENDMDL
MODEL 7
REMARK VINA RESULT:      -5.5      1.964      2.859
REMARK  4 active torsions:
REMARK  status: ('A' for Active; 'I' for Inactive)
REMARK    1  A    between atoms: O_2  and  C_3 
REMARK    2  A    between atoms: C_6  and  N_7 
REMARK       I    between atoms: N_7  and  C_8 
REMARK       I    between atoms: C_8  and  N_10 
REMARK    3  A    between atoms: N_10  and  C_11 
REMARK    4  A    between atoms: C_11  and  C_12 
REMARK       I    between atoms: C_12  and  N_14 
ROOT
HETATM    1  N   UNL     1     -43.097 -48.913  11.509  1.00  0.00    -0.308 N 
HETATM    2  C   UNL     1     -43.290 -49.344  12.800  1.00  0.00     0.321 C 
HETATM    3  O   UNL     1     -42.909 -48.772  13.816  1.00  0.00    -0.247 OA
HETATM    4  N   UNL     1     -43.946 -50.546  12.888  1.00  0.00    -0.334 N 
HETATM    5  H   UNL     1     -43.443 -49.511  10.774  1.00  0.00     0.170 HD
HETATM    6  H   UNL     1     -44.499 -50.916  12.126  1.00  0.00     0.164 HD
ENDROOT
BRANCH   1   7
HETATM    7  C   UNL     1     -42.372 -47.754  11.125  1.00  0.00     0.051 A 
HETATM    8  C   UNL     1     -42.954 -46.504  10.925  1.00  0.00     0.035 A 
HETATM    9  C   UNL     1     -42.164 -45.401  10.609  1.00  0.00     0.058 A 
HETATM   10  C   UNL     1     -40.801 -45.581  10.489  1.00  0.00     0.141 A 
HETATM   11  N   UNL     1     -40.189 -46.773  10.638  1.00  0.00    -0.345 N 
HETATM   12  C   UNL     1     -40.989 -47.827  10.952  1.00  0.00     0.119 A 
ATOM     13  HN  UNL     1     -39.181 -46.879  10.522  1.00  0.00     0.167 HD
BRANCH  10  14
HETATM   14  O   UNL     1     -40.066 -44.440  10.222  1.00  0.00    -0.341 OA
HETATM   15  C   UNL     1     -40.454 -43.324  11.013  1.00  0.00     0.211 C 
ENDBRANCH  10  14
ENDBRANCH   1   7
BRANCH   4  16
HETATM   16  C   UNL     1     -44.217 -51.052  14.223  1.00  0.00     0.227 C 
BRANCH  16  17
HETATM   17  C   UNL     1     -44.473 -52.555  14.303  1.00  0.00     0.237 C 
HETATM   18  O   UNL     1     -45.626 -52.992  14.328  1.00  0.00    -0.272 OA
HETATM   19  N   UNL     1     -43.346 -53.373  14.376  1.00  0.00    -0.351 N 
HETATM   20  C   UNL     1     -43.507 -54.822  14.454  1.00  0.00     0.126 C 
HETATM   21  C   UNL     1     -41.957 -52.910  14.285  1.00  0.00     0.126 C 
HETATM   22  C   UNL     1     -42.704 -55.396  15.621  1.00  0.00     0.020 C 
HETATM   23  C   UNL     1     -41.242 -54.957  15.568  1.00  0.00     0.003 C 
HETATM   24  C   UNL     1     -41.133 -53.437  15.457  1.00  0.00     0.020 C 
ENDBRANCH  16  17
ENDBRANCH   4  16
TORSDOF 4
ENDMDL
MODEL 8
REMARK VINA RESULT:      -5.4      2.472      3.725
REMARK  4 active torsions:
REMARK  status: ('A' for Active; 'I' for Inactive)
REMARK    1  A    between atoms: O_2  and  C_3 
REMARK    2  A    between atoms: C_6  and  N_7 
REMARK       I    between atoms: N_7  and  C_8 
REMARK       I    between atoms: C_8  and  N_10 
REMARK    3  A    between atoms: N_10  and  C_11 
REMARK    4  A    between atoms: C_11  and  C_12 
REMARK       I    between atoms: C_12  and  N_14 
ROOT
HETATM    1  N   UNL     1     -42.030 -49.383  11.142  1.00  0.00    -0.308 N 
HETATM    2  C   UNL     1     -42.044 -50.133  12.295  1.00  0.00     0.321 C 
HETATM    3  O   UNL     1     -41.997 -49.695  13.440  1.00  0.00    -0.247 OA
HETATM    4  N   UNL     1     -42.082 -51.487  12.072  1.00  0.00    -0.334 N 
HETATM    5  H   UNL     1     -42.043 -49.891  10.271  1.00  0.00     0.170 HD
HETATM    6  H   UNL     1     -42.382 -51.880  11.190  1.00  0.00     0.164 HD
ENDROOT
BRANCH   1   7
HETATM    7  C   UNL     1     -41.903 -47.971  11.077  1.00  0.00     0.051 A 
HETATM    8  C   UNL     1     -40.686 -47.296  11.159  1.00  0.00     0.035 A 
HETATM    9  C   UNL     1     -40.639 -45.910  11.026  1.00  0.00     0.058 A 
HETATM   10  C   UNL     1     -41.822 -45.227  10.823  1.00  0.00     0.141 A 
HETATM   11  N   UNL     1     -43.029 -45.826  10.770  1.00  0.00    -0.345 N 
HETATM   12  C   UNL     1     -43.038 -47.179  10.898  1.00  0.00     0.119 A 
ATOM     13  HN  UNL     1     -43.889 -45.292  10.641  1.00  0.00     0.167 HD
BRANCH  10  14
HETATM   14  O   UNL     1     -41.704 -43.861  10.650  1.00  0.00    -0.341 OA
HETATM   15  C   UNL     1     -40.448 -43.347  11.074  1.00  0.00     0.211 C 
ENDBRANCH  10  14
ENDBRANCH   1   7
BRANCH   4  16
HETATM   16  C   UNL     1     -42.133 -52.345  13.244  1.00  0.00     0.227 C 
BRANCH  16  17
HETATM   17  C   UNL     1     -41.094 -53.463  13.269  1.00  0.00     0.237 C 
HETATM   18  O   UNL     1     -41.197 -54.429  12.507  1.00  0.00    -0.272 OA
HETATM   19  N   UNL     1     -40.069 -53.337  14.206  1.00  0.00    -0.351 N 
HETATM   20  C   UNL     1     -39.036 -54.366  14.291  1.00  0.00     0.126 C 
HETATM   21  C   UNL     1     -39.865 -52.183  15.087  1.00  0.00     0.126 C 
HETATM   22  C   UNL     1     -38.869 -54.850  15.731  1.00  0.00     0.020 C 
HETATM   23  C   UNL     1     -38.638 -53.686  16.693  1.00  0.00     0.003 C 
HETATM   24  C   UNL     1     -39.729 -52.628  16.541  1.00  0.00     0.020 C 
ENDBRANCH  16  17
ENDBRANCH   4  16
TORSDOF 4
ENDMDL
MODEL 9
REMARK VINA RESULT:      -5.4      3.116      7.659
REMARK  4 active torsions:
REMARK  status: ('A' for Active; 'I' for Inactive)
REMARK    1  A    between atoms: O_2  and  C_3 
REMARK    2  A    between atoms: C_6  and  N_7 
REMARK       I    between atoms: N_7  and  C_8 
REMARK       I    between atoms: C_8  and  N_10 
REMARK    3  A    between atoms: N_10  and  C_11 
REMARK    4  A    between atoms: C_11  and  C_12 
REMARK       I    between atoms: C_12  and  N_14 
ROOT
HETATM    1  N   UNL     1     -44.254 -52.914  13.696  1.00  0.00    -0.308 N 
HETATM    2  C   UNL     1     -43.220 -52.125  13.249  1.00  0.00     0.321 C 
HETATM    3  O   UNL     1     -42.971 -50.983  13.622  1.00  0.00    -0.247 OA
HETATM    4  N   UNL     1     -42.454 -52.717  12.276  1.00  0.00    -0.334 N 
HETATM    5  H   UNL     1     -44.347 -53.823  13.270  1.00  0.00     0.170 HD
HETATM    6  H   UNL     1     -42.449 -53.718  12.129  1.00  0.00     0.164 HD
ENDROOT
BRANCH   1   7
HETATM    7  C   UNL     1     -45.249 -52.520  14.628  1.00  0.00     0.051 A 
HETATM    8  C   UNL     1     -46.252 -51.593  14.349  1.00  0.00     0.035 A 
HETATM    9  C   UNL     1     -47.230 -51.305  15.299  1.00  0.00     0.058 A 
HETATM   10  C   UNL     1     -47.172 -51.949  16.519  1.00  0.00     0.141 A 
HETATM   11  N   UNL     1     -46.206 -52.828  16.854  1.00  0.00    -0.345 N 
HETATM   12  C   UNL     1     -45.272 -53.090  15.901  1.00  0.00     0.119 A 
ATOM     13  HN  UNL     1     -46.178 -53.272  17.772  1.00  0.00     0.167 HD
BRANCH  10  14
HETATM   14  O   UNL     1     -48.197 -51.658  17.399  1.00  0.00    -0.341 OA
HETATM   15  C   UNL     1     -48.092 -50.364  17.977  1.00  0.00     0.211 C 
ENDBRANCH  10  14
ENDBRANCH   1   7
BRANCH   4  16
HETATM   16  C   UNL     1     -41.320 -51.957  11.778  1.00  0.00     0.227 C 
BRANCH  16  17
HETATM   17  C   UNL     1     -40.022 -52.153  12.558  1.00  0.00     0.237 C 
HETATM   18  O   UNL     1     -39.808 -53.207  13.162  1.00  0.00    -0.272 OA
HETATM   19  N   UNL     1     -39.135 -51.076  12.567  1.00  0.00    -0.351 N 
HETATM   20  C   UNL     1     -37.872 -51.185  13.291  1.00  0.00     0.126 C 
HETATM   21  C   UNL     1     -39.311 -49.829  11.816  1.00  0.00     0.126 C 
HETATM   22  C   UNL     1     -37.679 -49.996  14.231  1.00  0.00     0.020 C 
HETATM   23  C   UNL     1     -37.837 -48.666  13.495  1.00  0.00     0.003 C 
HETATM   24  C   UNL     1     -39.160 -48.618  12.733  1.00  0.00     0.020 C 
ENDBRANCH  16  17
ENDBRANCH   4  16
TORSDOF 4
ENDMDL
