MODEL 1
REMARK VINA RESULT:      -5.2      0.000      0.000
REMARK  6 active torsions:
REMARK  status: ('A' for Active; 'I' for Inactive)
REMARK    1  A    between atoms: C_2  and  O_3 
REMARK    2  A    between atoms: C_2  and  C_7 
REMARK    3  A    between atoms: O_3  and  C_4 
REMARK    4  A    between atoms: C_4  and  C_5 
REMARK       I    between atoms: C_7  and  N_9 
REMARK    5  A    between atoms: N_9  and  C_10 
REMARK    6  A    between atoms: C_16  and  O_17 
ROOT
HETATM    1  C   UNL     1     -42.725 -52.075  12.720  1.00  0.00     0.252 C 
HETATM    2  O   UNL     1     -43.014 -51.256  13.593  1.00  0.00    -0.270 OA
HETATM    3  N   UNL     1     -41.790 -51.859  11.714  1.00  0.00    -0.309 N 
HETATM    4  H   UNL     1     -42.008 -52.210  10.800  1.00  0.00     0.170 HD
ENDROOT
BRANCH   3   5
HETATM    5  C   UNL     1     -41.135 -50.623  11.662  1.00  0.00     0.141 A 
HETATM    6  N   UNL     1     -41.915 -49.569  11.340  1.00  0.00    -0.350 N 
HETATM    7  C   UNL     1     -41.354 -48.349  11.485  1.00  0.00     0.090 A 
ATOM      8  HN  UNL     1     -42.872 -49.687  11.007  1.00  0.00     0.166 HD
HETATM    9  C   UNL     1     -40.042 -48.141  11.885  1.00  0.00     0.020 A 
HETATM   10  C   UNL     1     -39.229 -49.249  12.110  1.00  0.00     0.041 A 
HETATM   11  C   UNL     1     -39.779 -50.514  11.976  1.00  0.00     0.110 A 
BRANCH  11  12
HETATM   12  O   UNL     1     -39.004 -51.633  12.094  1.00  0.00    -0.357 OA
HETATM   13  H   UNL     1     -38.854 -52.010  11.214  1.00  0.00     0.218 HD
ENDBRANCH  11  12
ENDBRANCH   3   5
BRANCH   1  14
HETATM   14  C   UNL     1     -43.447 -53.441  12.618  1.00  0.00     0.209 C 
HETATM   15  C   UNL     1     -43.387 -54.096  14.000  1.00  0.00     0.050 C 
BRANCH  14  16
HETATM   16  O   UNL     1     -44.823 -53.397  12.236  1.00  0.00    -0.373 OA
BRANCH  16  17
HETATM   17  C   UNL     1     -45.720 -53.360  13.339  1.00  0.00     0.195 C 
BRANCH  17  18
HETATM   18  C   UNL     1     -46.432 -52.048  13.356  1.00  0.00    -0.011 C 
HETATM   19  C   UNL     1     -46.736 -51.392  14.486  1.00  0.00     0.009 C 
ENDBRANCH  17  18
ENDBRANCH  16  17
ENDBRANCH  14  16
ENDBRANCH   1  14
TORSDOF 6
ENDMDL
MODEL 2
REMARK VINA RESULT:      -5.2      1.566      2.067
REMARK  6 active torsions:
REMARK  status: ('A' for Active; 'I' for Inactive)
REMARK    1  A    between atoms: C_2  and  O_3 
REMARK    2  A    between atoms: C_2  and  C_7 
REMARK    3  A    between atoms: O_3  and  C_4 
REMARK    4  A    between atoms: C_4  and  C_5 
REMARK       I    between atoms: C_7  and  N_9 
REMARK    5  A    between atoms: N_9  and  C_10 
REMARK    6  A    between atoms: C_16  and  O_17 
ROOT
HETATM    1  C   UNL     1     -42.790 -52.936  12.990  1.00  0.00     0.252 C 
HETATM    2  O   UNL     1     -42.343 -52.770  14.125  1.00  0.00    -0.270 OA
HETATM    3  N   UNL     1     -42.372 -52.233  11.866  1.00  0.00    -0.309 N 
HETATM    4  H   UNL     1     -43.075 -51.965  11.202  1.00  0.00     0.170 HD
ENDROOT
BRANCH   3   5
HETATM    5  C   UNL     1     -41.389 -51.248  12.018  1.00  0.00     0.141 A 
HETATM    6  N   UNL     1     -40.136 -51.710  12.219  1.00  0.00    -0.350 N 
HETATM    7  C   UNL     1     -39.149 -50.789  12.161  1.00  0.00     0.090 A 
ATOM      8  HN  UNL     1     -39.945 -52.694  12.403  1.00  0.00     0.166 HD
HETATM    9  C   UNL     1     -39.363 -49.433  11.965  1.00  0.00     0.020 A 
HETATM   10  C   UNL     1     -40.672 -48.971  11.866  1.00  0.00     0.041 A 
HETATM   11  C   UNL     1     -41.707 -49.893  11.914  1.00  0.00     0.110 A 
BRANCH  11  12
HETATM   12  O   UNL     1     -43.011 -49.485  11.914  1.00  0.00    -0.357 OA
HETATM   13  H   UNL     1     -43.329 -49.440  12.828  1.00  0.00     0.218 HD
ENDBRANCH  11  12
ENDBRANCH   3   5
BRANCH   1  14
HETATM   14  C   UNL     1     -43.944 -53.931  12.710  1.00  0.00     0.209 C 
HETATM   15  C   UNL     1     -44.373 -54.526  14.053  1.00  0.00     0.050 C 
BRANCH  14  16
HETATM   16  O   UNL     1     -45.115 -53.379  12.105  1.00  0.00    -0.373 OA
BRANCH  16  17
HETATM   17  C   UNL     1     -46.010 -52.783  13.034  1.00  0.00     0.195 C 
BRANCH  17  18
HETATM   18  C   UNL     1     -46.669 -51.602  12.402  1.00  0.00    -0.011 C 
HETATM   19  C   UNL     1     -47.312 -51.660  11.227  1.00  0.00     0.009 C 
ENDBRANCH  17  18
ENDBRANCH  16  17
ENDBRANCH  14  16
ENDBRANCH   1  14
TORSDOF 6
ENDMDL
MODEL 3
REMARK VINA RESULT:      -5.1      4.482      5.844
REMARK  6 active torsions:
REMARK  status: ('A' for Active; 'I' for Inactive)
REMARK    1  A    between atoms: C_2  and  O_3 
REMARK    2  A    between atoms: C_2  and  C_7 
REMARK    3  A    between atoms: O_3  and  C_4 
REMARK    4  A    between atoms: C_4  and  C_5 
REMARK       I    between atoms: C_7  and  N_9 
REMARK    5  A    between atoms: N_9  and  C_10 
REMARK    6  A    between atoms: C_16  and  O_17 
ROOT
HETATM    1  C   UNL     1     -41.112 -46.486  10.855  1.00  0.00     0.252 C 
HETATM    2  O   UNL     1     -40.054 -45.984  10.474  1.00  0.00    -0.270 OA
HETATM    3  N   UNL     1     -41.206 -47.649  11.611  1.00  0.00    -0.309 N 
HETATM    4  H   UNL     1     -41.952 -48.283  11.389  1.00  0.00     0.170 HD
ENDROOT
BRANCH   3   5
HETATM    5  C   UNL     1     -40.029 -48.322  11.957  1.00  0.00     0.141 A 
HETATM    6  N   UNL     1     -39.283 -47.727  12.912  1.00  0.00    -0.350 N 
HETATM    7  C   UNL     1     -38.258 -48.456  13.404  1.00  0.00     0.090 A 
ATOM      8  HN  UNL     1     -39.481 -46.783  13.242  1.00  0.00     0.166 HD
HETATM    9  C   UNL     1     -37.919 -49.723  12.952  1.00  0.00     0.020 A 
HETATM   10  C   UNL     1     -38.641 -50.269  11.895  1.00  0.00     0.041 A 
HETATM   11  C   UNL     1     -39.703 -49.548  11.373  1.00  0.00     0.110 A 
BRANCH  11  12
HETATM   12  O   UNL     1     -40.385 -49.995  10.276  1.00  0.00    -0.357 OA
HETATM   13  H   UNL     1     -40.099 -50.897  10.071  1.00  0.00     0.218 HD
ENDBRANCH  11  12
ENDBRANCH   3   5
BRANCH   1  14
HETATM   14  C   UNL     1     -42.483 -45.886  10.459  1.00  0.00     0.209 C 
HETATM   15  C   UNL     1     -42.520 -44.446  10.975  1.00  0.00     0.050 C 
BRANCH  14  16
HETATM   16  O   UNL     1     -42.765 -45.835   9.059  1.00  0.00    -0.373 OA
BRANCH  16  17
HETATM   17  C   UNL     1     -43.467 -46.972   8.577  1.00  0.00     0.195 C 
BRANCH  17  18
HETATM   18  C   UNL     1     -44.592 -47.292   9.505  1.00  0.00    -0.011 C 
HETATM   19  C   UNL     1     -45.883 -47.210   9.152  1.00  0.00     0.009 C 
ENDBRANCH  17  18
ENDBRANCH  16  17
ENDBRANCH  14  16
ENDBRANCH   1  14
TORSDOF 6
ENDMDL
MODEL 4
REMARK VINA RESULT:      -5.0      3.797      5.188
REMARK  6 active torsions:
REMARK  status: ('A' for Active; 'I' for Inactive)
REMARK    1  A    between atoms: C_2  and  O_3 
REMARK    2  A    between atoms: C_2  and  C_7 
REMARK    3  A    between atoms: O_3  and  C_4 
REMARK    4  A    between atoms: C_4  and  C_5 
REMARK       I    between atoms: C_7  and  N_9 
REMARK    5  A    between atoms: N_9  and  C_10 
REMARK    6  A    between atoms: C_16  and  O_17 
ROOT
HETATM    1  C   UNL     1     -42.227 -47.488  10.247  1.00  0.00     0.252 C 
HETATM    2  O   UNL     1     -41.243 -46.771  10.428  1.00  0.00    -0.270 OA
HETATM    3  N   UNL     1     -42.362 -48.781  10.739  1.00  0.00    -0.309 N 
HETATM    4  H   UNL     1     -42.798 -49.458  10.140  1.00  0.00     0.170 HD
ENDROOT
BRANCH   3   5
HETATM    5  C   UNL     1     -41.307 -49.332  11.476  1.00  0.00     0.141 A 
HETATM    6  N   UNL     1     -40.259 -49.770  10.746  1.00  0.00    -0.350 N 
HETATM    7  C   UNL     1     -39.153 -50.112  11.442  1.00  0.00     0.090 A 
ATOM      8  HN  UNL     1     -40.300 -49.839   9.730  1.00  0.00     0.166 HD
HETATM    9  C   UNL     1     -39.068 -50.083  12.827  1.00  0.00     0.020 A 
HETATM   10  C   UNL     1     -40.197 -49.727  13.557  1.00  0.00     0.041 A 
HETATM   11  C   UNL     1     -41.346 -49.364  12.871  1.00  0.00     0.110 A 
BRANCH  11  12
HETATM   12  O   UNL     1     -42.508 -49.096  13.539  1.00  0.00    -0.357 OA
HETATM   13  H   UNL     1     -43.041 -48.481  13.013  1.00  0.00     0.218 HD
ENDBRANCH  11  12
ENDBRANCH   3   5
BRANCH   1  14
HETATM   14  C   UNL     1     -43.418 -47.025   9.373  1.00  0.00     0.209 C 
HETATM   15  C   UNL     1     -43.301 -47.739   8.024  1.00  0.00     0.050 C 
BRANCH  14  16
HETATM   16  O   UNL     1     -44.721 -47.311   9.885  1.00  0.00    -0.373 OA
BRANCH  16  17
HETATM   17  C   UNL     1     -45.775 -46.810   9.075  1.00  0.00     0.195 C 
BRANCH  17  18
HETATM   18  C   UNL     1     -46.869 -47.823   8.998  1.00  0.00    -0.011 C 
HETATM   19  C   UNL     1     -46.751 -48.984   8.338  1.00  0.00     0.009 C 
ENDBRANCH  17  18
ENDBRANCH  16  17
ENDBRANCH  14  16
ENDBRANCH   1  14
TORSDOF 6
ENDMDL
MODEL 5
REMARK VINA RESULT:      -4.8      1.249      2.243
REMARK  6 active torsions:
REMARK  status: ('A' for Active; 'I' for Inactive)
REMARK    1  A    between atoms: C_2  and  O_3 
REMARK    2  A    between atoms: C_2  and  C_7 
REMARK    3  A    between atoms: O_3  and  C_4 
REMARK    4  A    between atoms: C_4  and  C_5 
REMARK       I    between atoms: C_7  and  N_9 
REMARK    5  A    between atoms: N_9  and  C_10 
REMARK    6  A    between atoms: C_16  and  O_17 
ROOT
HETATM    1  C   UNL     1     -43.878 -51.487  13.163  1.00  0.00     0.252 C 
HETATM    2  O   UNL     1     -43.840 -50.365  13.669  1.00  0.00    -0.270 OA
HETATM    3  N   UNL     1     -42.871 -52.031  12.375  1.00  0.00    -0.309 N 
HETATM    4  H   UNL     1     -43.152 -52.576  11.580  1.00  0.00     0.170 HD
ENDROOT
BRANCH   3   5
HETATM    5  C   UNL     1     -41.735 -51.257  12.107  1.00  0.00     0.141 A 
HETATM    6  N   UNL     1     -41.980 -50.029  11.602  1.00  0.00    -0.350 N 
HETATM    7  C   UNL     1     -40.919 -49.195  11.532  1.00  0.00     0.090 A 
ATOM      8  HN  UNL     1     -42.909 -49.748  11.292  1.00  0.00     0.166 HD
HETATM    9  C   UNL     1     -39.628 -49.549  11.894  1.00  0.00     0.020 A 
HETATM   10  C   UNL     1     -39.387 -50.855  12.313  1.00  0.00     0.041 A 
HETATM   11  C   UNL     1     -40.456 -51.732  12.402  1.00  0.00     0.110 A 
BRANCH  11  12
HETATM   12  O   UNL     1     -40.261 -53.047  12.718  1.00  0.00    -0.357 OA
HETATM   13  H   UNL     1     -40.548 -53.598  11.975  1.00  0.00     0.218 HD
ENDBRANCH  11  12
ENDBRANCH   3   5
BRANCH   1  14
HETATM   14  C   UNL     1     -45.118 -52.402  13.311  1.00  0.00     0.209 C 
HETATM   15  C   UNL     1     -46.310 -51.660  12.701  1.00  0.00     0.050 C 
BRANCH  14  16
HETATM   16  O   UNL     1     -45.041 -53.673  12.662  1.00  0.00    -0.373 OA
BRANCH  16  17
HETATM   17  C   UNL     1     -45.260 -54.772  13.536  1.00  0.00     0.195 C 
BRANCH  17  18
HETATM   18  C   UNL     1     -44.338 -54.669  14.706  1.00  0.00    -0.011 C 
HETATM   19  C   UNL     1     -43.026 -54.935  14.634  1.00  0.00     0.009 C 
ENDBRANCH  17  18
ENDBRANCH  16  17
ENDBRANCH  14  16
ENDBRANCH   1  14
TORSDOF 6
ENDMDL
MODEL 6
REMARK VINA RESULT:      -4.8      1.657      2.175
REMARK  6 active torsions:
REMARK  status: ('A' for Active; 'I' for Inactive)
REMARK    1  A    between atoms: C_2  and  O_3 
REMARK    2  A    between atoms: C_2  and  C_7 
REMARK    3  A    between atoms: O_3  and  C_4 
REMARK    4  A    between atoms: C_4  and  C_5 
REMARK       I    between atoms: C_7  and  N_9 
REMARK    5  A    between atoms: N_9  and  C_10 
REMARK    6  A    between atoms: C_16  and  O_17 
ROOT
HETATM    1  C   UNL     1     -41.105 -52.833  12.761  1.00  0.00     0.252 C 
HETATM    2  O   UNL     1     -40.017 -53.371  12.961  1.00  0.00    -0.270 OA
HETATM    3  N   UNL     1     -41.290 -51.465  12.589  1.00  0.00    -0.309 N 
HETATM    4  H   UNL     1     -42.103 -51.054  13.009  1.00  0.00     0.170 HD
ENDROOT
BRANCH   3   5
HETATM    5  C   UNL     1     -40.174 -50.624  12.664  1.00  0.00     0.141 A 
HETATM    6  N   UNL     1     -39.639 -50.484  13.896  1.00  0.00    -0.350 N 
HETATM    7  C   UNL     1     -38.448 -49.847  13.956  1.00  0.00     0.090 A 
ATOM      8  HN  UNL     1     -40.105 -50.837  14.731  1.00  0.00     0.166 HD
HETATM    9  C   UNL     1     -37.801 -49.305  12.855  1.00  0.00     0.020 A 
HETATM   10  C   UNL     1     -38.427 -49.373  11.614  1.00  0.00     0.041 A 
HETATM   11  C   UNL     1     -39.646 -50.026  11.518  1.00  0.00     0.110 A 
BRANCH  11  12
HETATM   12  O   UNL     1     -40.345 -50.041  10.344  1.00  0.00    -0.357 OA
HETATM   13  H   UNL     1     -40.253 -49.180   9.910  1.00  0.00     0.218 HD
ENDBRANCH  11  12
ENDBRANCH   3   5
BRANCH   1  14
HETATM   14  C   UNL     1     -42.423 -53.646  12.747  1.00  0.00     0.209 C 
HETATM   15  C   UNL     1     -42.663 -54.155  14.171  1.00  0.00     0.050 C 
BRANCH  14  16
HETATM   16  O   UNL     1     -43.597 -52.932  12.356  1.00  0.00    -0.373 OA
BRANCH  16  17
HETATM   17  C   UNL     1     -44.587 -52.861  13.373  1.00  0.00     0.195 C 
BRANCH  17  18
HETATM   18  C   UNL     1     -45.407 -51.628  13.183  1.00  0.00    -0.011 C 
HETATM   19  C   UNL     1     -46.573 -51.616  12.519  1.00  0.00     0.009 C 
ENDBRANCH  17  18
ENDBRANCH  16  17
ENDBRANCH  14  16
ENDBRANCH   1  14
TORSDOF 6
ENDMDL
MODEL 7
REMARK VINA RESULT:      -4.6      3.266      4.874
REMARK  6 active torsions:
REMARK  status: ('A' for Active; 'I' for Inactive)
REMARK    1  A    between atoms: C_2  and  O_3 
REMARK    2  A    between atoms: C_2  and  C_7 
REMARK    3  A    between atoms: O_3  and  C_4 
REMARK    4  A    between atoms: C_4  and  C_5 
REMARK       I    between atoms: C_7  and  N_9 
REMARK    5  A    between atoms: N_9  and  C_10 
REMARK    6  A    between atoms: C_16  and  O_17 
ROOT
HETATM    1  C   UNL     1     -39.648 -49.502  12.066  1.00  0.00     0.252 C 
HETATM    2  O   UNL     1     -39.584 -48.768  13.051  1.00  0.00    -0.270 OA
HETATM    3  N   UNL     1     -40.415 -49.242  10.936  1.00  0.00    -0.309 N 
HETATM    4  H   UNL     1     -40.883 -50.020  10.508  1.00  0.00     0.170 HD
ENDROOT
BRANCH   3   5
HETATM    5  C   UNL     1     -41.194 -48.079  10.907  1.00  0.00     0.141 A 
HETATM    6  N   UNL     1     -40.531 -46.949  10.580  1.00  0.00    -0.350 N 
HETATM    7  C   UNL     1     -41.296 -45.860  10.346  1.00  0.00     0.090 A 
ATOM      8  HN  UNL     1     -39.514 -46.918  10.515  1.00  0.00     0.166 HD
HETATM    9  C   UNL     1     -42.677 -45.840  10.472  1.00  0.00     0.020 A 
HETATM   10  C   UNL     1     -43.324 -46.991  10.911  1.00  0.00     0.041 A 
HETATM   11  C   UNL     1     -42.567 -48.127  11.154  1.00  0.00     0.110 A 
BRANCH  11  12
HETATM   12  O   UNL     1     -43.138 -49.254  11.674  1.00  0.00    -0.357 OA
HETATM   13  H   UNL     1     -43.891 -49.513  11.122  1.00  0.00     0.218 HD
ENDBRANCH  11  12
ENDBRANCH   3   5
BRANCH   1  14
HETATM   14  C   UNL     1     -38.905 -50.860  12.016  1.00  0.00     0.209 C 
HETATM   15  C   UNL     1     -37.419 -50.579  12.255  1.00  0.00     0.050 C 
BRANCH  14  16
HETATM   16  O   UNL     1     -39.307 -51.831  12.984  1.00  0.00    -0.373 OA
BRANCH  16  17
HETATM   17  C   UNL     1     -40.582 -52.402  12.724  1.00  0.00     0.195 C 
BRANCH  17  18
HETATM   18  C   UNL     1     -40.578 -53.837  13.136  1.00  0.00    -0.011 C 
HETATM   19  C   UNL     1     -39.604 -54.386  13.876  1.00  0.00     0.009 C 
ENDBRANCH  17  18
ENDBRANCH  16  17
ENDBRANCH  14  16
ENDBRANCH   1  14
TORSDOF 6
ENDMDL
MODEL 8
REMARK VINA RESULT:      -4.6      2.373      5.959
REMARK  6 active torsions:
REMARK  status: ('A' for Active; 'I' for Inactive)
REMARK    1  A    between atoms: C_2  and  O_3 
REMARK    2  A    between atoms: C_2  and  C_7 
REMARK    3  A    between atoms: O_3  and  C_4 
REMARK    4  A    between atoms: C_4  and  C_5 
REMARK       I    between atoms: C_7  and  N_9 
REMARK    5  A    between atoms: N_9  and  C_10 
REMARK    6  A    between atoms: C_16  and  O_17 
ROOT
HETATM    1  C   UNL     1     -42.003 -49.301  11.762  1.00  0.00     0.252 C 
HETATM    2  O   UNL     1     -42.626 -49.155  12.814  1.00  0.00    -0.270 OA
HETATM    3  N   UNL     1     -41.500 -50.513  11.304  1.00  0.00    -0.309 N 
HETATM    4  H   UNL     1     -40.598 -50.500  10.863  1.00  0.00     0.170 HD
ENDROOT
BRANCH   3   5
HETATM    5  C   UNL     1     -41.686 -51.656  12.090  1.00  0.00     0.141 A 
HETATM    6  N   UNL     1     -42.970 -51.955  12.380  1.00  0.00    -0.350 N 
HETATM    7  C   UNL     1     -43.183 -53.158  12.957  1.00  0.00     0.090 A 
ATOM      8  HN  UNL     1     -43.734 -51.311  12.176  1.00  0.00     0.166 HD
HETATM    9  C   UNL     1     -42.173 -54.045  13.299  1.00  0.00     0.020 A 
HETATM   10  C   UNL     1     -40.851 -53.665  13.083  1.00  0.00     0.041 A 
HETATM   11  C   UNL     1     -40.600 -52.440  12.487  1.00  0.00     0.110 A 
BRANCH  11  12
HETATM   12  O   UNL     1     -39.322 -51.980  12.337  1.00  0.00    -0.357 OA
HETATM   13  H   UNL     1     -39.060 -52.068  11.409  1.00  0.00     0.218 HD
ENDBRANCH  11  12
ENDBRANCH   3   5
BRANCH   1  14
HETATM   14  C   UNL     1     -41.655 -48.097  10.852  1.00  0.00     0.209 C 
HETATM   15  C   UNL     1     -42.900 -47.211  10.766  1.00  0.00     0.050 C 
BRANCH  14  16
HETATM   16  O   UNL     1     -40.581 -47.265  11.296  1.00  0.00    -0.373 OA
BRANCH  16  17
HETATM   17  C   UNL     1     -40.976 -45.931  11.586  1.00  0.00     0.195 C 
BRANCH  17  18
HETATM   18  C   UNL     1     -39.875 -44.994  11.212  1.00  0.00    -0.011 C 
HETATM   19  C   UNL     1     -39.441 -44.835   9.953  1.00  0.00     0.009 C 
ENDBRANCH  17  18
ENDBRANCH  16  17
ENDBRANCH  14  16
ENDBRANCH   1  14
TORSDOF 6
ENDMDL
MODEL 9
REMARK VINA RESULT:      -4.5      1.430      1.744
REMARK  6 active torsions:
REMARK  status: ('A' for Active; 'I' for Inactive)
REMARK    1  A    between atoms: C_2  and  O_3 
REMARK    2  A    between atoms: C_2  and  C_7 
REMARK    3  A    between atoms: O_3  and  C_4 
REMARK    4  A    between atoms: C_4  and  C_5 
REMARK       I    between atoms: C_7  and  N_9 
REMARK    5  A    between atoms: N_9  and  C_10 
REMARK    6  A    between atoms: C_16  and  O_17 
ROOT
HETATM    1  C   UNL     1     -42.246 -50.975  12.314  1.00  0.00     0.252 C 
HETATM    2  O   UNL     1     -42.915 -50.186  12.981  1.00  0.00    -0.270 OA
HETATM    3  N   UNL     1     -41.299 -50.603  11.367  1.00  0.00    -0.309 N 
HETATM    4  H   UNL     1     -41.251 -51.147  10.525  1.00  0.00     0.170 HD
ENDROOT
BRANCH   3   5
HETATM    5  C   UNL     1     -41.091 -49.240  11.126  1.00  0.00     0.141 A 
HETATM    6  N   UNL     1     -42.058 -48.626  10.411  1.00  0.00    -0.350 N 
HETATM    7  C   UNL     1     -41.982 -47.279  10.345  1.00  0.00     0.090 A 
ATOM      8  HN  UNL     1     -42.802 -49.147   9.949  1.00  0.00     0.166 HD
HETATM    9  C   UNL     1     -40.962 -46.530  10.914  1.00  0.00     0.020 A 
HETATM   10  C   UNL     1     -39.922 -47.198  11.555  1.00  0.00     0.041 A 
HETATM   11  C   UNL     1     -39.976 -48.580  11.646  1.00  0.00     0.110 A 
BRANCH  11  12
HETATM   12  O   UNL     1     -38.939 -49.290  12.182  1.00  0.00    -0.357 OA
HETATM   13  H   UNL     1     -38.894 -50.158  11.755  1.00  0.00     0.218 HD
ENDBRANCH  11  12
ENDBRANCH   3   5
BRANCH   1  14
HETATM   14  C   UNL     1     -42.450 -52.506  12.424  1.00  0.00     0.209 C 
HETATM   15  C   UNL     1     -41.148 -53.104  12.964  1.00  0.00     0.050 C 
BRANCH  14  16
HETATM   16  O   UNL     1     -43.499 -52.939  13.292  1.00  0.00    -0.373 OA
BRANCH  16  17
HETATM   17  C   UNL     1     -44.685 -53.318  12.607  1.00  0.00     0.195 C 
BRANCH  17  18
HETATM   18  C   UNL     1     -45.855 -52.612  13.210  1.00  0.00    -0.011 C 
HETATM   19  C   UNL     1     -46.502 -51.608  12.600  1.00  0.00     0.009 C 
ENDBRANCH  17  18
ENDBRANCH  16  17
ENDBRANCH  14  16
ENDBRANCH   1  14
TORSDOF 6
ENDMDL
