MODEL 1
REMARK VINA RESULT:      -5.8      0.000      0.000
REMARK  4 active torsions:
REMARK  status: ('A' for Active; 'I' for Inactive)
REMARK    1  A    between atoms: C_6  and  C_7 
REMARK    2  A    between atoms: C_7  and  C_8 
REMARK    3  A    between atoms: C_8  and  N_9 
REMARK       I    between atoms: N_9  and  C_10 
REMARK    4  A    between atoms: C_10  and  C_12 
ROOT
HETATM    1  N   UNL     1     -43.676 -54.512  14.527  1.00  0.00    -0.360 N 
HETATM    2  C   UNL     1     -44.841 -54.218  15.202  1.00  0.00     0.222 C 
HETATM    3  O   UNL     1     -45.015 -54.527  16.377  1.00  0.00    -0.273 OA
HETATM    4  H   UNL     1     -43.605 -54.298  13.539  1.00  0.00     0.162 HD
ENDROOT
BRANCH   1   5
HETATM    5  C   UNL     1     -42.587 -55.232  15.169  1.00  0.00     0.130 C 
BRANCH   5   6
HETATM    6  C   UNL     1     -41.258 -54.476  15.146  1.00  0.00     0.106 C 
BRANCH   6   7
HETATM    7  C   UNL     1     -41.126 -53.651  13.923  1.00  0.00     0.149 A 
HETATM    8  O   UNL     1     -41.028 -54.320  12.738  1.00  0.00    -0.223 OA
HETATM    9  N   UNL     1     -40.928 -53.348  11.743  1.00  0.00    -0.248 N 
HETATM   10  C   UNL     1     -40.964 -52.199  12.431  1.00  0.00     0.100 A 
ATOM     11  HN  UNL     1     -40.846 -53.479  10.735  1.00  0.00     0.196 HD
HETATM   12  C   UNL     1     -40.870 -50.878  11.782  1.00  0.00     0.091 C 
HETATM   13  N   UNL     1     -41.100 -52.343  13.789  1.00  0.00    -0.327 N 
ATOM     14  HN  UNL     1     -41.166 -51.623  14.507  1.00  0.00     0.169 HD
ENDBRANCH   6   7
ENDBRANCH   5   6
ENDBRANCH   1   5
BRANCH   2  15
HETATM   15  C   UNL     1     -45.871 -53.471  14.363  1.00  0.00     0.082 C 
HETATM   16  C   UNL     1     -45.368 -53.065  12.960  1.00  0.00     0.019 C 
HETATM   17  C   UNL     1     -45.557 -51.539  12.953  1.00  0.00    -0.013 C 
HETATM   18  C   UNL     1     -44.528 -50.905  13.906  1.00  0.00     0.005 C 
HETATM   19  C   UNL     1     -46.861 -51.389  13.735  1.00  0.00     0.010 C 
HETATM   20  C   UNL     1     -45.090 -51.242  15.295  1.00  0.00     0.006 C 
HETATM   21  C   UNL     1     -46.313 -52.116  14.968  1.00  0.00    -0.001 C 
ENDBRANCH   2  15
TORSDOF 4
ENDMDL
MODEL 2
REMARK VINA RESULT:      -5.7      1.696      2.266
REMARK  4 active torsions:
REMARK  status: ('A' for Active; 'I' for Inactive)
REMARK    1  A    between atoms: C_6  and  C_7 
REMARK    2  A    between atoms: C_7  and  C_8 
REMARK    3  A    between atoms: C_8  and  N_9 
REMARK       I    between atoms: N_9  and  C_10 
REMARK    4  A    between atoms: C_10  and  C_12 
ROOT
HETATM    1  N   UNL     1     -43.328 -53.190  13.593  1.00  0.00    -0.360 N 
HETATM    2  C   UNL     1     -44.625 -53.380  13.167  1.00  0.00     0.222 C 
HETATM    3  O   UNL     1     -44.966 -54.366  12.520  1.00  0.00    -0.273 OA
HETATM    4  H   UNL     1     -43.081 -52.328  14.065  1.00  0.00     0.162 HD
ENDROOT
BRANCH   1   5
HETATM    5  C   UNL     1     -42.277 -54.145  13.277  1.00  0.00     0.130 C 
BRANCH   5   6
HETATM    6  C   UNL     1     -40.875 -53.648  13.632  1.00  0.00     0.106 C 
BRANCH   6   7
HETATM    7  C   UNL     1     -40.520 -52.435  12.861  1.00  0.00     0.149 A 
HETATM    8  O   UNL     1     -41.277 -52.162  11.759  1.00  0.00    -0.223 OA
HETATM    9  N   UNL     1     -40.769 -50.983  11.214  1.00  0.00    -0.248 N 
HETATM   10  C   UNL     1     -39.756 -50.676  12.034  1.00  0.00     0.100 A 
ATOM     11  HN  UNL     1     -41.092 -50.476  10.389  1.00  0.00     0.196 HD
HETATM   12  C   UNL     1     -38.901 -49.491  11.835  1.00  0.00     0.091 C 
HETATM   13  N   UNL     1     -39.575 -51.546  13.080  1.00  0.00    -0.327 N 
ATOM     14  HN  UNL     1     -38.887 -51.512  13.831  1.00  0.00     0.169 HD
ENDBRANCH   6   7
ENDBRANCH   5   6
ENDBRANCH   1   5
BRANCH   2  15
HETATM   15  C   UNL     1     -45.582 -52.269  13.583  1.00  0.00     0.082 C 
HETATM   16  C   UNL     1     -44.910 -51.112  14.354  1.00  0.00     0.019 C 
HETATM   17  C   UNL     1     -45.694 -51.076  15.677  1.00  0.00    -0.013 C 
HETATM   18  C   UNL     1     -45.333 -52.322  16.504  1.00  0.00     0.005 C 
HETATM   19  C   UNL     1     -47.109 -51.399  15.201  1.00  0.00     0.010 C 
HETATM   20  C   UNL     1     -46.080 -53.449  15.776  1.00  0.00     0.006 C 
HETATM   21  C   UNL     1     -46.692 -52.727  14.562  1.00  0.00    -0.001 C 
ENDBRANCH   2  15
TORSDOF 4
ENDMDL
MODEL 3
REMARK VINA RESULT:      -5.7      3.438      4.820
REMARK  4 active torsions:
REMARK  status: ('A' for Active; 'I' for Inactive)
REMARK    1  A    between atoms: C_6  and  C_7 
REMARK    2  A    between atoms: C_7  and  C_8 
REMARK    3  A    between atoms: C_8  and  N_9 
REMARK       I    between atoms: N_9  and  C_10 
REMARK    4  A    between atoms: C_10  and  C_12 
ROOT
HETATM    1  N   UNL     1     -42.677 -50.439  12.386  1.00  0.00    -0.360 N 
HETATM    2  C   UNL     1     -43.114 -51.072  13.530  1.00  0.00     0.222 C 
HETATM    3  O   UNL     1     -42.384 -51.798  14.198  1.00  0.00    -0.273 OA
HETATM    4  H   UNL     1     -43.335 -49.905  11.830  1.00  0.00     0.162 HD
ENDROOT
BRANCH   1   5
HETATM    5  C   UNL     1     -41.321 -50.617  11.890  1.00  0.00     0.130 C 
BRANCH   5   6
HETATM    6  C   UNL     1     -40.684 -49.324  11.380  1.00  0.00     0.106 C 
BRANCH   6   7
HETATM    7  C   UNL     1     -41.699 -48.407  10.813  1.00  0.00     0.149 A 
HETATM    8  O   UNL     1     -42.426 -47.669  11.700  1.00  0.00    -0.223 OA
HETATM    9  N   UNL     1     -43.294 -46.884  10.941  1.00  0.00    -0.248 N 
HETATM   10  C   UNL     1     -43.008 -47.239   9.682  1.00  0.00     0.100 A 
ATOM     11  HN  UNL     1     -43.981 -46.203  11.266  1.00  0.00     0.196 HD
HETATM   12  C   UNL     1     -43.705 -46.666   8.515  1.00  0.00     0.091 C 
HETATM   13  N   UNL     1     -42.012 -48.174   9.557  1.00  0.00    -0.327 N 
ATOM     14  HN  UNL     1     -41.617 -48.582   8.710  1.00  0.00     0.169 HD
ENDBRANCH   6   7
ENDBRANCH   5   6
ENDBRANCH   1   5
BRANCH   2  15
HETATM   15  C   UNL     1     -44.566 -50.775  13.885  1.00  0.00     0.082 C 
HETATM   16  C   UNL     1     -44.982 -51.251  15.295  1.00  0.00     0.019 C 
HETATM   17  C   UNL     1     -46.166 -52.189  15.008  1.00  0.00    -0.013 C 
HETATM   18  C   UNL     1     -45.639 -53.467  14.334  1.00  0.00     0.005 C 
HETATM   19  C   UNL     1     -46.853 -51.468  13.849  1.00  0.00     0.010 C 
HETATM   20  C   UNL     1     -45.313 -52.997  12.909  1.00  0.00     0.006 C 
HETATM   21  C   UNL     1     -45.596 -51.486  12.972  1.00  0.00    -0.001 C 
ENDBRANCH   2  15
TORSDOF 4
ENDMDL
MODEL 4
REMARK VINA RESULT:      -5.5      2.743      3.671
REMARK  4 active torsions:
REMARK  status: ('A' for Active; 'I' for Inactive)
REMARK    1  A    between atoms: C_6  and  C_7 
REMARK    2  A    between atoms: C_7  and  C_8 
REMARK    3  A    between atoms: C_8  and  N_9 
REMARK       I    between atoms: N_9  and  C_10 
REMARK    4  A    between atoms: C_10  and  C_12 
ROOT
HETATM    1  N   UNL     1     -43.119 -52.170  12.346  1.00  0.00    -0.360 N 
HETATM    2  C   UNL     1     -43.662 -53.295  12.928  1.00  0.00     0.222 C 
HETATM    3  O   UNL     1     -42.980 -54.265  13.245  1.00  0.00    -0.273 OA
HETATM    4  H   UNL     1     -43.731 -51.423  12.039  1.00  0.00     0.162 HD
ENDROOT
BRANCH   1   5
HETATM    5  C   UNL     1     -41.697 -52.078  12.050  1.00  0.00     0.130 C 
BRANCH   5   6
HETATM    6  C   UNL     1     -41.093 -50.713  12.380  1.00  0.00     0.106 C 
BRANCH   6   7
HETATM    7  C   UNL     1     -41.845 -49.616  11.729  1.00  0.00     0.149 A 
HETATM    8  O   UNL     1     -43.028 -49.255  12.304  1.00  0.00    -0.223 OA
HETATM    9  N   UNL     1     -43.539 -48.211  11.534  1.00  0.00    -0.248 N 
HETATM   10  C   UNL     1     -42.619 -48.060  10.572  1.00  0.00     0.100 A 
ATOM     11  HN  UNL     1     -44.404 -47.688  11.670  1.00  0.00     0.196 HD
HETATM   12  C   UNL     1     -42.748 -47.059   9.497  1.00  0.00     0.091 C 
HETATM   13  N   UNL     1     -41.543 -48.905  10.664  1.00  0.00    -0.327 N 
ATOM     14  HN  UNL     1     -40.721 -48.967  10.064  1.00  0.00     0.169 HD
ENDBRANCH   6   7
ENDBRANCH   5   6
ENDBRANCH   1   5
BRANCH   2  15
HETATM   15  C   UNL     1     -45.168 -53.212  13.149  1.00  0.00     0.082 C 
HETATM   16  C   UNL     1     -45.779 -51.831  12.822  1.00  0.00     0.019 C 
HETATM   17  C   UNL     1     -46.453 -51.429  14.145  1.00  0.00    -0.013 C 
HETATM   18  C   UNL     1     -45.363 -51.108  15.182  1.00  0.00     0.005 C 
HETATM   19  C   UNL     1     -46.986 -52.774  14.637  1.00  0.00     0.010 C 
HETATM   20  C   UNL     1     -44.827 -52.496  15.562  1.00  0.00     0.006 C 
HETATM   21  C   UNL     1     -45.602 -53.433  14.619  1.00  0.00    -0.001 C 
ENDBRANCH   2  15
TORSDOF 4
ENDMDL
MODEL 5
REMARK VINA RESULT:      -5.5      3.409      4.652
REMARK  4 active torsions:
REMARK  status: ('A' for Active; 'I' for Inactive)
REMARK    1  A    between atoms: C_6  and  C_7 
REMARK    2  A    between atoms: C_7  and  C_8 
REMARK    3  A    between atoms: C_8  and  N_9 
REMARK       I    between atoms: N_9  and  C_10 
REMARK    4  A    between atoms: C_10  and  C_12 
ROOT
HETATM    1  N   UNL     1     -43.041 -51.385  12.765  1.00  0.00    -0.360 N 
HETATM    2  C   UNL     1     -42.666 -52.688  13.011  1.00  0.00     0.222 C 
HETATM    3  O   UNL     1     -41.530 -52.989  13.364  1.00  0.00    -0.273 OA
HETATM    4  H   UNL     1     -43.970 -51.193  12.410  1.00  0.00     0.162 HD
ENDROOT
BRANCH   1   5
HETATM    5  C   UNL     1     -42.095 -50.286  12.890  1.00  0.00     0.130 C 
BRANCH   5   6
HETATM    6  C   UNL     1     -42.749 -48.906  12.805  1.00  0.00     0.106 C 
BRANCH   6   7
HETATM    7  C   UNL     1     -42.797 -48.416  11.408  1.00  0.00     0.149 A 
HETATM    8  O   UNL     1     -41.680 -48.607  10.650  1.00  0.00    -0.223 OA
HETATM    9  N   UNL     1     -41.965 -48.083   9.389  1.00  0.00    -0.248 N 
HETATM   10  C   UNL     1     -43.215 -47.623   9.523  1.00  0.00     0.100 A 
ATOM     11  HN  UNL     1     -41.365 -48.057   8.564  1.00  0.00     0.196 HD
HETATM   12  C   UNL     1     -43.940 -46.957   8.425  1.00  0.00     0.091 C 
HETATM   13  N   UNL     1     -43.775 -47.822  10.759  1.00  0.00    -0.327 N 
ATOM     14  HN  UNL     1     -44.707 -47.574  11.089  1.00  0.00     0.169 HD
ENDBRANCH   6   7
ENDBRANCH   5   6
ENDBRANCH   1   5
BRANCH   2  15
HETATM   15  C   UNL     1     -43.788 -53.702  12.816  1.00  0.00     0.082 C 
HETATM   16  C   UNL     1     -45.188 -53.070  12.647  1.00  0.00     0.019 C 
HETATM   17  C   UNL     1     -45.998 -53.715  13.785  1.00  0.00    -0.013 C 
HETATM   18  C   UNL     1     -45.505 -53.151  15.129  1.00  0.00     0.005 C 
HETATM   19  C   UNL     1     -45.430 -55.133  13.798  1.00  0.00     0.010 C 
HETATM   20  C   UNL     1     -44.154 -53.856  15.325  1.00  0.00     0.006 C 
HETATM   21  C   UNL     1     -43.991 -54.655  14.020  1.00  0.00    -0.001 C 
ENDBRANCH   2  15
TORSDOF 4
ENDMDL
MODEL 6
REMARK VINA RESULT:      -5.4      1.481      2.286
REMARK  4 active torsions:
REMARK  status: ('A' for Active; 'I' for Inactive)
REMARK    1  A    between atoms: C_6  and  C_7 
REMARK    2  A    between atoms: C_7  and  C_8 
REMARK    3  A    between atoms: C_8  and  N_9 
REMARK       I    between atoms: N_9  and  C_10 
REMARK    4  A    between atoms: C_10  and  C_12 
ROOT
HETATM    1  N   UNL     1     -42.337 -52.835  14.246  1.00  0.00    -0.360 N 
HETATM    2  C   UNL     1     -43.407 -52.486  15.040  1.00  0.00     0.222 C 
HETATM    3  O   UNL     1     -43.498 -52.840  16.212  1.00  0.00    -0.273 OA
HETATM    4  H   UNL     1     -42.339 -52.576  13.266  1.00  0.00     0.162 HD
ENDROOT
BRANCH   1   5
HETATM    5  C   UNL     1     -41.258 -53.671  14.749  1.00  0.00     0.130 C 
BRANCH   5   6
HETATM    6  C   UNL     1     -39.887 -53.307  14.177  1.00  0.00     0.106 C 
BRANCH   6   7
HETATM    7  C   UNL     1     -39.982 -52.186  13.214  1.00  0.00     0.149 A 
HETATM    8  O   UNL     1     -40.554 -52.460  12.006  1.00  0.00    -0.223 OA
HETATM    9  N   UNL     1     -40.545 -51.266  11.286  1.00  0.00    -0.248 N 
HETATM   10  C   UNL     1     -39.960 -50.404  12.127  1.00  0.00     0.100 A 
ATOM     11  HN  UNL     1     -40.898 -51.091  10.344  1.00  0.00     0.196 HD
HETATM   12  C   UNL     1     -39.718 -48.991  11.779  1.00  0.00     0.091 C 
HETATM   13  N   UNL     1     -39.607 -50.932  13.343  1.00  0.00    -0.327 N 
ATOM     14  HN  UNL     1     -39.168 -50.472  14.139  1.00  0.00     0.169 HD
ENDBRANCH   6   7
ENDBRANCH   5   6
ENDBRANCH   1   5
BRANCH   2  15
HETATM   15  C   UNL     1     -44.443 -51.617  14.336  1.00  0.00     0.082 C 
HETATM   16  C   UNL     1     -45.579 -51.117  15.257  1.00  0.00     0.019 C 
HETATM   17  C   UNL     1     -46.845 -51.647  14.563  1.00  0.00    -0.013 C 
HETATM   18  C   UNL     1     -46.897 -53.177  14.721  1.00  0.00     0.005 C 
HETATM   19  C   UNL     1     -46.477 -51.483  13.090  1.00  0.00     0.010 C 
HETATM   20  C   UNL     1     -45.824 -53.662  13.735  1.00  0.00     0.006 C 
HETATM   21  C   UNL     1     -45.218 -52.348  13.212  1.00  0.00    -0.001 C 
ENDBRANCH   2  15
TORSDOF 4
ENDMDL
MODEL 7
REMARK VINA RESULT:      -5.4      4.120      5.911
REMARK  4 active torsions:
REMARK  status: ('A' for Active; 'I' for Inactive)
REMARK    1  A    between atoms: C_6  and  C_7 
REMARK    2  A    between atoms: C_7  and  C_8 
REMARK    3  A    between atoms: C_8  and  N_9 
REMARK       I    between atoms: N_9  and  C_10 
REMARK    4  A    between atoms: C_10  and  C_12 
ROOT
HETATM    1  N   UNL     1     -42.233 -50.013  11.702  1.00  0.00    -0.360 N 
HETATM    2  C   UNL     1     -42.190 -50.560  12.965  1.00  0.00     0.222 C 
HETATM    3  O   UNL     1     -41.371 -50.206  13.808  1.00  0.00    -0.273 OA
HETATM    4  H   UNL     1     -42.883 -50.386  11.019  1.00  0.00     0.162 HD
ENDROOT
BRANCH   1   5
HETATM    5  C   UNL     1     -41.285 -48.991  11.284  1.00  0.00     0.130 C 
BRANCH   5   6
HETATM    6  C   UNL     1     -41.898 -47.594  11.186  1.00  0.00     0.106 C 
BRANCH   6   7
HETATM    7  C   UNL     1     -43.088 -47.585  10.305  1.00  0.00     0.149 A 
HETATM    8  O   UNL     1     -42.905 -48.006   9.020  1.00  0.00    -0.223 OA
HETATM    9  N   UNL     1     -44.150 -47.923   8.397  1.00  0.00    -0.248 N 
HETATM   10  C   UNL     1     -44.947 -47.451   9.365  1.00  0.00     0.100 A 
ATOM     11  HN  UNL     1     -44.395 -48.163   7.436  1.00  0.00     0.196 HD
HETATM   12  C   UNL     1     -46.382 -47.183   9.154  1.00  0.00     0.091 C 
HETATM   13  N   UNL     1     -44.329 -47.240  10.571  1.00  0.00    -0.327 N 
ATOM     14  HN  UNL     1     -44.728 -46.904  11.447  1.00  0.00     0.169 HD
ENDBRANCH   6   7
ENDBRANCH   5   6
ENDBRANCH   1   5
BRANCH   2  15
HETATM   15  C   UNL     1     -43.254 -51.624  13.216  1.00  0.00     0.082 C 
HETATM   16  C   UNL     1     -43.299 -52.142  14.670  1.00  0.00     0.019 C 
HETATM   17  C   UNL     1     -43.085 -53.655  14.505  1.00  0.00    -0.013 C 
HETATM   18  C   UNL     1     -41.629 -53.909  14.075  1.00  0.00     0.005 C 
HETATM   19  C   UNL     1     -43.859 -53.935  13.218  1.00  0.00     0.010 C 
HETATM   20  C   UNL     1     -41.623 -53.472  12.603  1.00  0.00     0.006 C 
HETATM   21  C   UNL     1     -43.048 -52.925  12.401  1.00  0.00    -0.001 C 
ENDBRANCH   2  15
TORSDOF 4
ENDMDL
MODEL 8
REMARK VINA RESULT:      -5.3      5.895      8.120
REMARK  4 active torsions:
REMARK  status: ('A' for Active; 'I' for Inactive)
REMARK    1  A    between atoms: C_6  and  C_7 
REMARK    2  A    between atoms: C_7  and  C_8 
REMARK    3  A    between atoms: C_8  and  N_9 
REMARK       I    between atoms: N_9  and  C_10 
REMARK    4  A    between atoms: C_10  and  C_12 
ROOT
HETATM    1  N   UNL     1     -39.973 -48.078  11.334  1.00  0.00    -0.360 N 
HETATM    2  C   UNL     1     -39.470 -47.731  12.569  1.00  0.00     0.222 C 
HETATM    3  O   UNL     1     -39.993 -46.873  13.274  1.00  0.00    -0.273 OA
HETATM    4  H   UNL     1     -39.468 -48.742  10.759  1.00  0.00     0.162 HD
ENDROOT
BRANCH   1   5
HETATM    5  C   UNL     1     -41.150 -47.424  10.782  1.00  0.00     0.130 C 
BRANCH   5   6
HETATM    6  C   UNL     1     -42.436 -48.232  10.958  1.00  0.00     0.106 C 
BRANCH   6   7
HETATM    7  C   UNL     1     -43.582 -47.580  10.285  1.00  0.00     0.149 A 
HETATM    8  O   UNL     1     -43.369 -46.331   9.779  1.00  0.00    -0.223 OA
HETATM    9  N   UNL     1     -44.570 -45.934   9.190  1.00  0.00    -0.248 N 
HETATM   10  C   UNL     1     -45.380 -46.977   9.412  1.00  0.00     0.100 A 
ATOM     11  HN  UNL     1     -44.780 -45.061   8.707  1.00  0.00     0.196 HD
HETATM   12  C   UNL     1     -46.788 -47.000   8.971  1.00  0.00     0.091 C 
HETATM   13  N   UNL     1     -44.802 -48.027  10.078  1.00  0.00    -0.327 N 
ATOM     14  HN  UNL     1     -45.210 -48.923  10.344  1.00  0.00     0.169 HD
ENDBRANCH   6   7
ENDBRANCH   5   6
ENDBRANCH   1   5
BRANCH   2  15
HETATM   15  C   UNL     1     -38.226 -48.515  12.973  1.00  0.00     0.082 C 
HETATM   16  C   UNL     1     -37.770 -49.557  11.928  1.00  0.00     0.019 C 
HETATM   17  C   UNL     1     -37.780 -50.873  12.725  1.00  0.00    -0.013 C 
HETATM   18  C   UNL     1     -39.238 -51.267  13.018  1.00  0.00     0.005 C 
HETATM   19  C   UNL     1     -37.287 -50.405  14.093  1.00  0.00     0.010 C 
HETATM   20  C   UNL     1     -39.648 -50.279  14.120  1.00  0.00     0.006 C 
HETATM   21  C   UNL     1     -38.410 -49.374  14.248  1.00  0.00    -0.001 C 
ENDBRANCH   2  15
TORSDOF 4
ENDMDL
MODEL 9
REMARK VINA RESULT:      -5.2      1.871      3.175
REMARK  4 active torsions:
REMARK  status: ('A' for Active; 'I' for Inactive)
REMARK    1  A    between atoms: C_6  and  C_7 
REMARK    2  A    between atoms: C_7  and  C_8 
REMARK    3  A    between atoms: C_8  and  N_9 
REMARK       I    between atoms: N_9  and  C_10 
REMARK    4  A    between atoms: C_10  and  C_12 
ROOT
HETATM    1  N   UNL     1     -43.491 -52.028  12.949  1.00  0.00    -0.360 N 
HETATM    2  C   UNL     1     -44.793 -52.475  12.888  1.00  0.00     0.222 C 
HETATM    3  O   UNL     1     -45.120 -53.459  12.231  1.00  0.00    -0.273 OA
HETATM    4  H   UNL     1     -43.282 -51.172  13.448  1.00  0.00     0.162 HD
ENDROOT
BRANCH   1   5
HETATM    5  C   UNL     1     -42.425 -52.691  12.213  1.00  0.00     0.130 C 
BRANCH   5   6
HETATM    6  C   UNL     1     -41.024 -52.272  12.659  1.00  0.00     0.106 C 
BRANCH   6   7
HETATM    7  C   UNL     1     -40.423 -53.276  13.567  1.00  0.00     0.149 A 
HETATM    8  O   UNL     1     -39.148 -53.673  13.286  1.00  0.00    -0.223 OA
HETATM    9  N   UNL     1     -38.798 -54.597  14.271  1.00  0.00    -0.248 N 
HETATM   10  C   UNL     1     -39.898 -54.669  15.031  1.00  0.00     0.100 A 
ATOM     11  HN  UNL     1     -37.916 -55.098  14.384  1.00  0.00     0.196 HD
HETATM   12  C   UNL     1     -39.997 -55.552  16.208  1.00  0.00     0.091 C 
HETATM   13  N   UNL     1     -40.927 -53.853  14.636  1.00  0.00    -0.327 N 
ATOM     14  HN  UNL     1     -41.845 -53.726  15.060  1.00  0.00     0.169 HD
ENDBRANCH   6   7
ENDBRANCH   5   6
ENDBRANCH   1   5
BRANCH   2  15
HETATM   15  C   UNL     1     -45.771 -51.647  13.714  1.00  0.00     0.082 C 
HETATM   16  C   UNL     1     -45.101 -50.778  14.802  1.00  0.00     0.019 C 
HETATM   17  C   UNL     1     -45.784 -51.256  16.095  1.00  0.00    -0.013 C 
HETATM   18  C   UNL     1     -45.299 -52.680  16.418  1.00  0.00     0.005 C 
HETATM   19  C   UNL     1     -47.213 -51.499  15.614  1.00  0.00     0.010 C 
HETATM   20  C   UNL     1     -46.042 -53.540  15.385  1.00  0.00     0.006 C 
HETATM   21  C   UNL     1     -46.779 -52.493  14.531  1.00  0.00    -0.001 C 
ENDBRANCH   2  15
TORSDOF 4
ENDMDL
