MODEL 1
REMARK VINA RESULT:      -5.9      0.000      0.000
REMARK  5 active torsions:
REMARK  status: ('A' for Active; 'I' for Inactive)
REMARK    1  A    between atoms: N_1  and  S_2 
REMARK    2  A    between atoms: S_2  and  N_5 
REMARK    3  A    between atoms: N_5  and  C_6 
REMARK    4  A    between atoms: C_6  and  C_7 
REMARK    5  A    between atoms: C_12  and  N_14 
ROOT
HETATM    1  C   UNL     1     -41.484 -50.390  12.069  1.00  0.00    -0.039 A 
HETATM    2  C   UNL     1     -42.350 -49.364  12.428  1.00  0.00     0.025 A 
HETATM    3  C   UNL     1     -43.539 -49.706  13.040  1.00  0.00     0.090 A 
HETATM    4  N   UNL     1     -43.907 -50.976  13.318  1.00  0.00    -0.352 N 
ATOM      5  HN  UNL     1     -44.808 -51.168  13.757  1.00  0.00     0.166 HD
HETATM    6  C   UNL     1     -43.069 -51.988  13.008  1.00  0.00     0.103 A 
HETATM    7  C   UNL     1     -41.859 -51.710  12.371  1.00  0.00     0.056 A 
ENDROOT
BRANCH   1   8
HETATM    8  C   UNL     1     -40.155 -50.098  11.416  1.00  0.00     0.144 C 
BRANCH   8   9
HETATM    9  N   UNL     1     -39.157 -51.145  11.708  1.00  0.00    -0.203 NA
HETATM   10  H   UNL     1     -39.419 -51.683  12.532  1.00  0.00     0.141 HD
BRANCH   9  11
HETATM   11  S   UNL     1     -37.628 -50.537  11.964  1.00  0.00     0.276 S 
HETATM   12  O   UNL     1     -36.748 -51.622  12.288  1.00  0.00    -0.194 OA
HETATM   13  O   UNL     1     -37.721 -49.321  12.726  1.00  0.00    -0.194 OA
BRANCH  11  14
HETATM   14  N   UNL     1     -37.334 -50.098  10.388  1.00  0.00    -0.216 NA
HETATM   15  H   UNL     1     -37.146 -49.095  10.349  1.00  0.00     0.137 HD
HETATM   16  H   UNL     1     -38.150 -50.333   9.820  1.00  0.00     0.137 HD
ENDBRANCH  11  14
ENDBRANCH   9  11
ENDBRANCH   8   9
ENDBRANCH   1   8
BRANCH   6  17
HETATM   17  N   UNL     1     -43.419 -53.257  13.405  1.00  0.00    -0.363 N 
HETATM   18  C   UNL     1     -44.669 -53.841  12.894  1.00  0.00     0.150 C 
HETATM   19  C   UNL     1     -45.309 -54.726  13.977  1.00  0.00     0.187 C 
HETATM   20  O   UNL     1     -44.387 -55.712  14.476  1.00  0.00    -0.388 OA
HETATM   21  C   UNL     1     -43.237 -55.065  15.041  1.00  0.00     0.187 C 
HETATM   22  C   UNL     1     -42.491 -54.224  13.993  1.00  0.00     0.150 C 
ENDBRANCH   6  17
TORSDOF 5
ENDMDL
MODEL 2
REMARK VINA RESULT:      -5.7      4.151      4.954
REMARK  5 active torsions:
REMARK  status: ('A' for Active; 'I' for Inactive)
REMARK    1  A    between atoms: N_1  and  S_2 
REMARK    2  A    between atoms: S_2  and  N_5 
REMARK    3  A    between atoms: N_5  and  C_6 
REMARK    4  A    between atoms: C_6  and  C_7 
REMARK    5  A    between atoms: C_12  and  N_14 
ROOT
HETATM    1  C   UNL     1     -41.009 -48.353  11.340  1.00  0.00    -0.039 A 
HETATM    2  C   UNL     1     -39.686 -48.074  11.663  1.00  0.00     0.025 A 
HETATM    3  C   UNL     1     -39.008 -48.982  12.450  1.00  0.00     0.090 A 
HETATM    4  N   UNL     1     -39.547 -50.129  12.917  1.00  0.00    -0.352 N 
ATOM      5  HN  UNL     1     -39.000 -50.753  13.510  1.00  0.00     0.166 HD
HETATM    6  C   UNL     1     -40.821 -50.439  12.590  1.00  0.00     0.103 A 
HETATM    7  C   UNL     1     -41.567 -49.553  11.812  1.00  0.00     0.056 A 
ENDROOT
BRANCH   1   8
HETATM    8  C   UNL     1     -41.814 -47.423  10.467  1.00  0.00     0.144 C 
BRANCH   8   9
HETATM    9  N   UNL     1     -42.467 -48.139   9.354  1.00  0.00    -0.203 NA
HETATM   10  H   UNL     1     -41.781 -48.473   8.678  1.00  0.00     0.141 HD
BRANCH   9  11
HETATM   11  S   UNL     1     -43.572 -47.203   8.534  1.00  0.00     0.276 S 
HETATM   12  O   UNL     1     -43.166 -45.830   8.616  1.00  0.00    -0.194 OA
HETATM   13  O   UNL     1     -44.901 -47.668   8.828  1.00  0.00    -0.194 OA
BRANCH  11  14
HETATM   14  N   UNL     1     -43.194 -47.753   7.012  1.00  0.00    -0.216 NA
HETATM   15  H   UNL     1     -42.877 -48.722   7.075  1.00  0.00     0.137 HD
HETATM   16  H   UNL     1     -42.462 -47.161   6.617  1.00  0.00     0.137 HD
ENDBRANCH  11  14
ENDBRANCH   9  11
ENDBRANCH   8   9
ENDBRANCH   1   8
BRANCH   6  17
HETATM   17  N   UNL     1     -41.305 -51.663  12.985  1.00  0.00    -0.363 N 
HETATM   18  C   UNL     1     -40.359 -52.678  13.474  1.00  0.00     0.150 C 
HETATM   19  C   UNL     1     -40.834 -54.078  13.049  1.00  0.00     0.187 C 
HETATM   20  O   UNL     1     -42.191 -54.329  13.455  1.00  0.00    -0.388 OA
HETATM   21  C   UNL     1     -43.066 -53.356  12.867  1.00  0.00     0.187 C 
HETATM   22  C   UNL     1     -42.706 -51.930  13.313  1.00  0.00     0.150 C 
ENDBRANCH   6  17
TORSDOF 5
ENDMDL
MODEL 3
REMARK VINA RESULT:      -5.7      4.162      4.905
REMARK  5 active torsions:
REMARK  status: ('A' for Active; 'I' for Inactive)
REMARK    1  A    between atoms: N_1  and  S_2 
REMARK    2  A    between atoms: S_2  and  N_5 
REMARK    3  A    between atoms: N_5  and  C_6 
REMARK    4  A    between atoms: C_6  and  C_7 
REMARK    5  A    between atoms: C_12  and  N_14 
ROOT
HETATM    1  C   UNL     1     -40.958 -48.275  11.335  1.00  0.00    -0.039 A 
HETATM    2  C   UNL     1     -39.689 -47.858  11.719  1.00  0.00     0.025 A 
HETATM    3  C   UNL     1     -38.923 -48.725  12.471  1.00  0.00     0.090 A 
HETATM    4  N   UNL     1     -39.327 -49.958  12.848  1.00  0.00    -0.352 N 
ATOM      5  HN  UNL     1     -38.722 -50.548  13.419  1.00  0.00     0.166 HD
HETATM    6  C   UNL     1     -40.543 -50.399  12.459  1.00  0.00     0.103 A 
HETATM    7  C   UNL     1     -41.374 -49.563  11.713  1.00  0.00     0.056 A 
ENDROOT
BRANCH   1   8
HETATM    8  C   UNL     1     -41.849 -47.396  10.494  1.00  0.00     0.144 C 
BRANCH   8   9
HETATM    9  N   UNL     1     -42.462 -48.140   9.377  1.00  0.00    -0.203 NA
HETATM   10  H   UNL     1     -41.756 -48.466   8.720  1.00  0.00     0.141 HD
BRANCH   9  11
HETATM   11  S   UNL     1     -43.572 -47.239   8.523  1.00  0.00     0.276 S 
HETATM   12  O   UNL     1     -43.166 -45.864   8.546  1.00  0.00    -0.194 OA
HETATM   13  O   UNL     1     -44.900 -47.692   8.841  1.00  0.00    -0.194 OA
BRANCH  11  14
HETATM   14  N   UNL     1     -43.200 -47.853   7.025  1.00  0.00    -0.216 NA
HETATM   15  H   UNL     1     -43.458 -47.172   6.309  1.00  0.00     0.137 HD
HETATM   16  H   UNL     1     -43.709 -48.728   6.888  1.00  0.00     0.137 HD
ENDBRANCH  11  14
ENDBRANCH   9  11
ENDBRANCH   8   9
ENDBRANCH   1   8
BRANCH   6  17
HETATM   17  N   UNL     1     -40.882 -51.697  12.761  1.00  0.00    -0.363 N 
HETATM   18  C   UNL     1     -42.011 -52.320  12.053  1.00  0.00     0.150 C 
HETATM   19  C   UNL     1     -42.756 -53.274  13.002  1.00  0.00     0.187 C 
HETATM   20  O   UNL     1     -41.868 -54.234  13.602  1.00  0.00    -0.388 OA
HETATM   21  C   UNL     1     -40.848 -53.556  14.350  1.00  0.00     0.187 C 
HETATM   22  C   UNL     1     -40.001 -52.641  13.450  1.00  0.00     0.150 C 
ENDBRANCH   6  17
TORSDOF 5
ENDMDL
MODEL 4
REMARK VINA RESULT:      -5.6      3.776      7.274
REMARK  5 active torsions:
REMARK  status: ('A' for Active; 'I' for Inactive)
REMARK    1  A    between atoms: N_1  and  S_2 
REMARK    2  A    between atoms: S_2  and  N_5 
REMARK    3  A    between atoms: N_5  and  C_6 
REMARK    4  A    between atoms: C_6  and  C_7 
REMARK    5  A    between atoms: C_12  and  N_14 
ROOT
HETATM    1  C   UNL     1     -41.797 -50.948  12.530  1.00  0.00    -0.039 A 
HETATM    2  C   UNL     1     -40.458 -51.321  12.559  1.00  0.00     0.025 A 
HETATM    3  C   UNL     1     -39.545 -50.497  11.931  1.00  0.00     0.090 A 
HETATM    4  N   UNL     1     -39.871 -49.349  11.300  1.00  0.00    -0.352 N 
ATOM      5  HN  UNL     1     -39.153 -48.790  10.839  1.00  0.00     0.166 HD
HETATM    6  C   UNL     1     -41.161 -48.949  11.287  1.00  0.00     0.103 A 
HETATM    7  C   UNL     1     -42.137 -49.746  11.887  1.00  0.00     0.056 A 
ENDROOT
BRANCH   1   8
HETATM    8  C   UNL     1     -42.855 -51.781  13.210  1.00  0.00     0.144 C 
BRANCH   8   9
HETATM    9  N   UNL     1     -43.750 -52.437  12.237  1.00  0.00    -0.203 NA
HETATM   10  H   UNL     1     -44.096 -51.770  11.550  1.00  0.00     0.141 HD
BRANCH   9  11
HETATM   11  S   UNL     1     -45.068 -53.163  12.949  1.00  0.00     0.276 S 
HETATM   12  O   UNL     1     -45.331 -52.517  14.202  1.00  0.00    -0.194 OA
HETATM   13  O   UNL     1     -44.973 -54.589  12.784  1.00  0.00    -0.194 OA
BRANCH  11  14
HETATM   14  N   UNL     1     -46.195 -52.624  11.854  1.00  0.00    -0.216 NA
HETATM   15  H   UNL     1     -46.235 -51.604  11.887  1.00  0.00     0.137 HD
HETATM   16  H   UNL     1     -47.105 -53.027  12.087  1.00  0.00     0.137 HD
ENDBRANCH  11  14
ENDBRANCH   9  11
ENDBRANCH   8   9
ENDBRANCH   1   8
BRANCH   6  17
HETATM   17  N   UNL     1     -41.448 -47.722  10.736  1.00  0.00    -0.363 N 
HETATM   18  C   UNL     1     -40.460 -46.638  10.864  1.00  0.00     0.150 C 
HETATM   19  C   UNL     1     -41.186 -45.291  11.017  1.00  0.00     0.187 C 
HETATM   20  O   UNL     1     -42.134 -45.070   9.958  1.00  0.00    -0.388 OA
HETATM   21  C   UNL     1     -43.117 -46.115   9.954  1.00  0.00     0.187 C 
HETATM   22  C   UNL     1     -42.475 -47.492   9.720  1.00  0.00     0.150 C 
ENDBRANCH   6  17
TORSDOF 5
ENDMDL
MODEL 5
REMARK VINA RESULT:      -5.6      3.053      5.382
REMARK  5 active torsions:
REMARK  status: ('A' for Active; 'I' for Inactive)
REMARK    1  A    between atoms: N_1  and  S_2 
REMARK    2  A    between atoms: S_2  and  N_5 
REMARK    3  A    between atoms: N_5  and  C_6 
REMARK    4  A    between atoms: C_6  and  C_7 
REMARK    5  A    between atoms: C_12  and  N_14 
ROOT
HETATM    1  C   UNL     1     -41.269 -50.642  12.836  1.00  0.00    -0.039 A 
HETATM    2  C   UNL     1     -42.438 -51.229  13.306  1.00  0.00     0.025 A 
HETATM    3  C   UNL     1     -43.624 -50.551  13.112  1.00  0.00     0.090 A 
HETATM    4  N   UNL     1     -43.720 -49.358  12.485  1.00  0.00    -0.352 N 
ATOM      5  HN  UNL     1     -44.624 -48.897  12.387  1.00  0.00     0.166 HD
HETATM    6  C   UNL     1     -42.602 -48.783  11.991  1.00  0.00     0.103 A 
HETATM    7  C   UNL     1     -41.368 -49.409  12.170  1.00  0.00     0.056 A 
ENDROOT
BRANCH   1   8
HETATM    8  C   UNL     1     -39.934 -51.328  12.988  1.00  0.00     0.144 C 
BRANCH   8   9
HETATM    9  N   UNL     1     -39.125 -51.239  11.757  1.00  0.00    -0.203 NA
HETATM   10  H   UNL     1     -39.006 -52.156  11.328  1.00  0.00     0.141 HD
BRANCH   9  11
HETATM   11  S   UNL     1     -37.609 -50.600  12.016  1.00  0.00     0.276 S 
HETATM   12  O   UNL     1     -36.688 -51.676  12.244  1.00  0.00    -0.194 OA
HETATM   13  O   UNL     1     -37.719 -49.441  12.860  1.00  0.00    -0.194 OA
BRANCH  11  14
HETATM   14  N   UNL     1     -37.371 -50.048  10.467  1.00  0.00    -0.216 NA
HETATM   15  H   UNL     1     -36.399 -50.212  10.198  1.00  0.00     0.137 HD
HETATM   16  H   UNL     1     -37.590 -49.051  10.432  1.00  0.00     0.137 HD
ENDBRANCH  11  14
ENDBRANCH   9  11
ENDBRANCH   8   9
ENDBRANCH   1   8
BRANCH   6  17
HETATM   17  N   UNL     1     -42.744 -47.627  11.261  1.00  0.00    -0.363 N 
HETATM   18  C   UNL     1     -43.846 -47.530  10.291  1.00  0.00     0.150 C 
HETATM   19  C   UNL     1     -43.394 -46.708   9.072  1.00  0.00     0.187 C 
HETATM   20  O   UNL     1     -42.866 -45.426   9.457  1.00  0.00    -0.388 OA
HETATM   21  C   UNL     1     -41.739 -45.602  10.328  1.00  0.00     0.187 C 
HETATM   22  C   UNL     1     -42.131 -46.346  11.615  1.00  0.00     0.150 C 
ENDBRANCH   6  17
TORSDOF 5
ENDMDL
MODEL 6
REMARK VINA RESULT:      -5.6      4.131      4.671
REMARK  5 active torsions:
REMARK  status: ('A' for Active; 'I' for Inactive)
REMARK    1  A    between atoms: N_1  and  S_2 
REMARK    2  A    between atoms: S_2  and  N_5 
REMARK    3  A    between atoms: N_5  and  C_6 
REMARK    4  A    between atoms: C_6  and  C_7 
REMARK    5  A    between atoms: C_12  and  N_14 
ROOT
HETATM    1  C   UNL     1     -42.622 -47.968  12.105  1.00  0.00    -0.039 A 
HETATM    2  C   UNL     1     -42.207 -47.498  13.346  1.00  0.00     0.025 A 
HETATM    3  C   UNL     1     -42.541 -48.238  14.462  1.00  0.00     0.090 A 
HETATM    4  N   UNL     1     -43.237 -49.395  14.421  1.00  0.00    -0.352 N 
ATOM      5  HN  UNL     1     -43.468 -49.889  15.283  1.00  0.00     0.166 HD
HETATM    6  C   UNL     1     -43.622 -49.890  13.225  1.00  0.00     0.103 A 
HETATM    7  C   UNL     1     -43.332 -49.180  12.059  1.00  0.00     0.056 A 
ENDROOT
BRANCH   1   8
HETATM    8  C   UNL     1     -42.279 -47.230  10.835  1.00  0.00     0.144 C 
BRANCH   8   9
HETATM    9  N   UNL     1     -42.481 -48.069   9.638  1.00  0.00    -0.203 NA
HETATM   10  H   UNL     1     -41.597 -48.260   9.170  1.00  0.00     0.141 HD
BRANCH   9  11
HETATM   11  S   UNL     1     -43.508 -47.382   8.523  1.00  0.00     0.276 S 
HETATM   12  O   UNL     1     -43.114 -46.018   8.312  1.00  0.00    -0.194 OA
HETATM   13  O   UNL     1     -44.857 -47.796   8.799  1.00  0.00    -0.194 OA
BRANCH  11  14
HETATM   14  N   UNL     1     -42.989 -48.268   7.217  1.00  0.00    -0.216 NA
HETATM   15  H   UNL     1     -43.300 -49.235   7.322  1.00  0.00     0.137 HD
HETATM   16  H   UNL     1     -41.969 -48.222   7.168  1.00  0.00     0.137 HD
ENDBRANCH  11  14
ENDBRANCH   9  11
ENDBRANCH   8   9
ENDBRANCH   1   8
BRANCH   6  17
HETATM   17  N   UNL     1     -44.229 -51.123  13.205  1.00  0.00    -0.363 N 
HETATM   18  C   UNL     1     -43.387 -52.329  13.240  1.00  0.00     0.150 C 
HETATM   19  C   UNL     1     -44.033 -53.438  12.392  1.00  0.00     0.187 C 
HETATM   20  O   UNL     1     -45.394 -53.688  12.786  1.00  0.00    -0.388 OA
HETATM   21  C   UNL     1     -46.174 -52.492  12.638  1.00  0.00     0.187 C 
HETATM   22  C   UNL     1     -45.638 -51.356  13.524  1.00  0.00     0.150 C 
ENDBRANCH   6  17
TORSDOF 5
ENDMDL
MODEL 7
REMARK VINA RESULT:      -5.6      1.680      2.596
REMARK  5 active torsions:
REMARK  status: ('A' for Active; 'I' for Inactive)
REMARK    1  A    between atoms: N_1  and  S_2 
REMARK    2  A    between atoms: S_2  and  N_5 
REMARK    3  A    between atoms: N_5  and  C_6 
REMARK    4  A    between atoms: C_6  and  C_7 
REMARK    5  A    between atoms: C_12  and  N_14 
ROOT
HETATM    1  C   UNL     1     -40.823 -52.038  13.408  1.00  0.00    -0.039 A 
HETATM    2  C   UNL     1     -40.135 -53.217  13.667  1.00  0.00     0.025 A 
HETATM    3  C   UNL     1     -40.865 -54.315  14.076  1.00  0.00     0.090 A 
HETATM    4  N   UNL     1     -42.207 -54.315  14.231  1.00  0.00    -0.352 N 
ATOM      5  HN  UNL     1     -42.689 -55.154  14.553  1.00  0.00     0.166 HD
HETATM    6  C   UNL     1     -42.902 -53.191  13.954  1.00  0.00     0.103 A 
HETATM    7  C   UNL     1     -42.221 -52.040  13.553  1.00  0.00     0.056 A 
ENDROOT
BRANCH   1   8
HETATM    8  C   UNL     1     -40.103 -50.799  12.935  1.00  0.00     0.144 C 
BRANCH   8   9
HETATM    9  N   UNL     1     -39.239 -51.075  11.771  1.00  0.00    -0.203 NA
HETATM   10  H   UNL     1     -39.195 -52.073  11.574  1.00  0.00     0.141 HD
BRANCH   9  11
HETATM   11  S   UNL     1     -37.679 -50.529  11.971  1.00  0.00     0.276 S 
HETATM   12  O   UNL     1     -36.835 -51.646  12.281  1.00  0.00    -0.194 OA
HETATM   13  O   UNL     1     -37.696 -49.301  12.721  1.00  0.00    -0.194 OA
BRANCH  11  14
HETATM   14  N   UNL     1     -37.417 -50.120  10.382  1.00  0.00    -0.216 NA
HETATM   15  H   UNL     1     -38.149 -50.535   9.803  1.00  0.00     0.137 HD
HETATM   16  H   UNL     1     -36.497 -50.464  10.098  1.00  0.00     0.137 HD
ENDBRANCH  11  14
ENDBRANCH   9  11
ENDBRANCH   8   9
ENDBRANCH   1   8
BRANCH   6  17
HETATM   17  N   UNL     1     -44.274 -53.253  14.011  1.00  0.00    -0.363 N 
HETATM   18  C   UNL     1     -45.047 -52.005  13.911  1.00  0.00     0.150 C 
HETATM   19  C   UNL     1     -46.300 -52.099  14.798  1.00  0.00     0.187 C 
HETATM   20  O   UNL     1     -47.080 -53.271  14.501  1.00  0.00    -0.388 OA
HETATM   21  C   UNL     1     -46.289 -54.451  14.709  1.00  0.00     0.187 C 
HETATM   22  C   UNL     1     -45.055 -54.472  13.793  1.00  0.00     0.150 C 
ENDBRANCH   6  17
TORSDOF 5
ENDMDL
MODEL 8
REMARK VINA RESULT:      -5.5      4.850      6.610
REMARK  5 active torsions:
REMARK  status: ('A' for Active; 'I' for Inactive)
REMARK    1  A    between atoms: N_1  and  S_2 
REMARK    2  A    between atoms: S_2  and  N_5 
REMARK    3  A    between atoms: N_5  and  C_6 
REMARK    4  A    between atoms: C_6  and  C_7 
REMARK    5  A    between atoms: C_12  and  N_14 
ROOT
HETATM    1  C   UNL     1     -40.519 -45.679  11.843  1.00  0.00    -0.039 A 
HETATM    2  C   UNL     1     -39.851 -44.973  12.837  1.00  0.00     0.025 A 
HETATM    3  C   UNL     1     -39.036 -45.681  13.697  1.00  0.00     0.090 A 
HETATM    4  N   UNL     1     -38.841 -47.016  13.626  1.00  0.00    -0.352 N 
ATOM      5  HN  UNL     1     -38.239 -47.486  14.301  1.00  0.00     0.166 HD
HETATM    6  C   UNL     1     -39.454 -47.720  12.649  1.00  0.00     0.103 A 
HETATM    7  C   UNL     1     -40.306 -47.066  11.759  1.00  0.00     0.056 A 
ENDROOT
BRANCH   1   8
HETATM    8  C   UNL     1     -41.412 -44.977  10.850  1.00  0.00     0.144 C 
BRANCH   8   9
HETATM    9  N   UNL     1     -41.639 -45.793   9.641  1.00  0.00    -0.203 NA
HETATM   10  H   UNL     1     -41.226 -45.356   8.820  1.00  0.00     0.141 HD
BRANCH   9  11
HETATM   11  S   UNL     1     -43.253 -46.050   9.321  1.00  0.00     0.276 S 
HETATM   12  O   UNL     1     -43.872 -44.789   9.031  1.00  0.00    -0.194 OA
HETATM   13  O   UNL     1     -43.778 -47.007  10.258  1.00  0.00    -0.194 OA
BRANCH  11  14
HETATM   14  N   UNL     1     -43.034 -46.852   7.883  1.00  0.00    -0.216 NA
HETATM   15  H   UNL     1     -43.489 -47.765   7.935  1.00  0.00     0.137 HD
HETATM   16  H   UNL     1     -42.033 -46.958   7.710  1.00  0.00     0.137 HD
ENDBRANCH  11  14
ENDBRANCH   9  11
ENDBRANCH   8   9
ENDBRANCH   1   8
BRANCH   6  17
HETATM   17  N   UNL     1     -39.149 -49.055  12.532  1.00  0.00    -0.363 N 
HETATM   18  C   UNL     1     -40.212 -50.048  12.749  1.00  0.00     0.150 C 
HETATM   19  C   UNL     1     -39.623 -51.302  13.416  1.00  0.00     0.187 C 
HETATM   20  O   UNL     1     -38.503 -51.825  12.679  1.00  0.00    -0.388 OA
HETATM   21  C   UNL     1     -37.470 -50.833  12.588  1.00  0.00     0.187 C 
HETATM   22  C   UNL     1     -37.960 -49.574  11.854  1.00  0.00     0.150 C 
ENDBRANCH   6  17
TORSDOF 5
ENDMDL
MODEL 9
REMARK VINA RESULT:      -5.4      5.034      7.989
REMARK  5 active torsions:
REMARK  status: ('A' for Active; 'I' for Inactive)
REMARK    1  A    between atoms: N_1  and  S_2 
REMARK    2  A    between atoms: S_2  and  N_5 
REMARK    3  A    between atoms: N_5  and  C_6 
REMARK    4  A    between atoms: C_6  and  C_7 
REMARK    5  A    between atoms: C_12  and  N_14 
ROOT
HETATM    1  C   UNL     1     -41.175 -47.710  11.029  1.00  0.00    -0.039 A 
HETATM    2  C   UNL     1     -42.361 -48.120  10.430  1.00  0.00     0.025 A 
HETATM    3  C   UNL     1     -43.317 -47.160  10.167  1.00  0.00     0.090 A 
HETATM    4  N   UNL     1     -43.167 -45.847  10.446  1.00  0.00    -0.352 N 
ATOM      5  HN  UNL     1     -43.918 -45.187  10.243  1.00  0.00     0.166 HD
HETATM    6  C   UNL     1     -42.011 -45.419  10.998  1.00  0.00     0.103 A 
HETATM    7  C   UNL     1     -41.011 -46.342  11.306  1.00  0.00     0.056 A 
ENDROOT
BRANCH   1   8
HETATM    8  C   UNL     1     -40.070 -48.692  11.329  1.00  0.00     0.144 C 
BRANCH   8   9
HETATM    9  N   UNL     1     -40.390 -50.047  10.839  1.00  0.00    -0.203 NA
HETATM   10  H   UNL     1     -41.246 -50.046  10.287  1.00  0.00     0.141 HD
BRANCH   9  11
HETATM   11  S   UNL     1     -40.577 -51.158  12.065  1.00  0.00     0.276 S 
HETATM   12  O   UNL     1     -41.594 -50.689  12.961  1.00  0.00    -0.194 OA
HETATM   13  O   UNL     1     -39.284 -51.623  12.489  1.00  0.00    -0.194 OA
BRANCH  11  14
HETATM   14  N   UNL     1     -41.240 -52.361  11.130  1.00  0.00    -0.216 NA
HETATM   15  H   UNL     1     -41.735 -53.020  11.732  1.00  0.00     0.137 HD
HETATM   16  H   UNL     1     -40.493 -52.833  10.617  1.00  0.00     0.137 HD
ENDBRANCH  11  14
ENDBRANCH   9  11
ENDBRANCH   8   9
ENDBRANCH   1   8
BRANCH   6  17
HETATM   17  N   UNL     1     -41.843 -44.065  11.166  1.00  0.00    -0.363 N 
HETATM   18  C   UNL     1     -40.486 -43.501  11.078  1.00  0.00     0.150 C 
HETATM   19  C   UNL     1     -40.346 -42.330  12.064  1.00  0.00     0.187 C 
HETATM   20  O   UNL     1     -41.380 -41.346  11.878  1.00  0.00    -0.388 OA
HETATM   21  C   UNL     1     -42.669 -41.948  12.070  1.00  0.00     0.187 C 
HETATM   22  C   UNL     1     -42.919 -43.079  11.060  1.00  0.00     0.150 C 
ENDBRANCH   6  17
TORSDOF 5
ENDMDL
