MODEL 1
REMARK VINA RESULT:      -5.9      0.000      0.000
REMARK  3 active torsions:
REMARK  status: ('A' for Active; 'I' for Inactive)
REMARK       I    between atoms: C_2  and  N_3 
REMARK       I    between atoms: C_2  and  N_10 
REMARK    1  A    between atoms: N_3  and  C_4 
REMARK    2  A    between atoms: C_4  and  C_5 
REMARK    3  A    between atoms: N_10  and  C_11 
ROOT
HETATM    1  O   UNL     1     -41.697 -47.873  11.824  1.00  0.00    -0.247 OA
HETATM    2  C   UNL     1     -41.457 -48.392  10.742  1.00  0.00     0.320 C 
HETATM    3  N   UNL     1     -42.069 -47.989   9.567  1.00  0.00    -0.342 N 
HETATM    4  N   UNL     1     -40.601 -49.446  10.509  1.00  0.00    -0.308 N 
HETATM    5  H   UNL     1     -41.479 -48.071   8.751  1.00  0.00     0.164 HD
HETATM    6  H   UNL     1     -40.731 -49.920   9.628  1.00  0.00     0.170 HD
ENDROOT
BRANCH   3   7
HETATM    7  C   UNL     1     -42.973 -46.852   9.588  1.00  0.00     0.131 C 
BRANCH   7   8
HETATM    8  C   UNL     1     -44.203 -47.070   8.718  1.00  0.00     0.029 C 
HETATM    9  C   UNL     1     -45.438 -47.560   9.448  1.00  0.00     0.034 C 
HETATM   10  C   UNL     1     -46.179 -48.381   8.406  1.00  0.00     0.168 C 
HETATM   11  O   UNL     1     -45.299 -48.569   7.290  1.00  0.00    -0.391 OA
HETATM   12  C   UNL     1     -43.988 -48.165   7.692  1.00  0.00     0.173 C 
ENDBRANCH   7   8
ENDBRANCH   3   7
BRANCH   4  13
HETATM   13  C   UNL     1     -39.767 -50.080  11.456  1.00  0.00     0.051 A 
HETATM   14  C   UNL     1     -38.417 -49.787  11.631  1.00  0.00     0.032 A 
HETATM   15  C   UNL     1     -37.679 -50.462  12.604  1.00  0.00     0.019 A 
HETATM   16  C   UNL     1     -38.317 -51.422  13.371  1.00  0.00     0.088 A 
HETATM   17  N   UNL     1     -39.616 -51.755  13.220  1.00  0.00    -0.373 N 
HETATM   18  C   UNL     1     -40.305 -51.079  12.269  1.00  0.00     0.117 A 
ATOM     19  HN  UNL     1     -40.055 -52.476  13.792  1.00  0.00     0.164 HD
ENDBRANCH   4  13
TORSDOF 3
ENDMDL
MODEL 2
REMARK VINA RESULT:      -5.8      3.769      6.998
REMARK  3 active torsions:
REMARK  status: ('A' for Active; 'I' for Inactive)
REMARK       I    between atoms: C_2  and  N_3 
REMARK       I    between atoms: C_2  and  N_10 
REMARK    1  A    between atoms: N_3  and  C_4 
REMARK    2  A    between atoms: C_4  and  C_5 
REMARK    3  A    between atoms: N_10  and  C_11 
ROOT
HETATM    1  O   UNL     1     -42.953 -44.853  10.056  1.00  0.00    -0.247 OA
HETATM    2  C   UNL     1     -42.165 -45.776   9.898  1.00  0.00     0.320 C 
HETATM    3  N   UNL     1     -40.822 -45.676  10.221  1.00  0.00    -0.342 N 
HETATM    4  N   UNL     1     -42.446 -47.013   9.361  1.00  0.00    -0.308 N 
HETATM    5  H   UNL     1     -40.416 -46.541  10.547  1.00  0.00     0.164 HD
HETATM    6  H   UNL     1     -41.644 -47.541   9.051  1.00  0.00     0.170 HD
ENDROOT
BRANCH   3   7
HETATM    7  C   UNL     1     -40.329 -44.463  10.851  1.00  0.00     0.131 C 
BRANCH   7   8
HETATM    8  C   UNL     1     -39.471 -44.750  12.074  1.00  0.00     0.029 C 
HETATM    9  C   UNL     1     -39.828 -46.010  12.838  1.00  0.00     0.034 C 
HETATM   10  C   UNL     1     -39.441 -45.692  14.273  1.00  0.00     0.168 C 
HETATM   11  O   UNL     1     -39.164 -44.288  14.351  1.00  0.00    -0.391 OA
HETATM   12  C   UNL     1     -39.624 -43.682  13.140  1.00  0.00     0.173 C 
ENDBRANCH   7   8
ENDBRANCH   3   7
BRANCH   4  13
HETATM   13  C   UNL     1     -43.716 -47.493   8.967  1.00  0.00     0.051 A 
HETATM   14  C   UNL     1     -44.844 -47.480   9.783  1.00  0.00     0.032 A 
HETATM   15  C   UNL     1     -46.059 -47.967   9.298  1.00  0.00     0.019 A 
HETATM   16  C   UNL     1     -46.103 -48.463   8.006  1.00  0.00     0.088 A 
HETATM   17  N   UNL     1     -45.031 -48.515   7.189  1.00  0.00    -0.373 N 
HETATM   18  C   UNL     1     -43.868 -48.032   7.689  1.00  0.00     0.117 A 
ATOM     19  HN  UNL     1     -45.092 -48.898   6.246  1.00  0.00     0.164 HD
ENDBRANCH   4  13
TORSDOF 3
ENDMDL
MODEL 3
REMARK VINA RESULT:      -5.5      3.806      5.621
REMARK  3 active torsions:
REMARK  status: ('A' for Active; 'I' for Inactive)
REMARK       I    between atoms: C_2  and  N_3 
REMARK       I    between atoms: C_2  and  N_10 
REMARK    1  A    between atoms: N_3  and  C_4 
REMARK    2  A    between atoms: C_4  and  C_5 
REMARK    3  A    between atoms: N_10  and  C_11 
ROOT
HETATM    1  O   UNL     1     -41.824 -51.114  13.457  1.00  0.00    -0.247 OA
HETATM    2  C   UNL     1     -41.890 -51.565  12.321  1.00  0.00     0.320 C 
HETATM    3  N   UNL     1     -41.100 -51.098  11.284  1.00  0.00    -0.342 N 
HETATM    4  N   UNL     1     -42.747 -52.548  11.876  1.00  0.00    -0.308 N 
HETATM    5  H   UNL     1     -40.848 -51.809  10.612  1.00  0.00     0.164 HD
HETATM    6  H   UNL     1     -42.861 -52.599  10.875  1.00  0.00     0.170 HD
ENDROOT
BRANCH   3   7
HETATM    7  C   UNL     1     -40.089 -50.091  11.556  1.00  0.00     0.131 C 
BRANCH   7   8
HETATM    8  C   UNL     1     -40.682 -48.699  11.714  1.00  0.00     0.029 C 
HETATM    9  C   UNL     1     -41.604 -48.253  10.595  1.00  0.00     0.034 C 
HETATM   10  C   UNL     1     -41.434 -46.743  10.559  1.00  0.00     0.168 C 
HETATM   11  O   UNL     1     -40.310 -46.408  11.384  1.00  0.00    -0.391 OA
HETATM   12  C   UNL     1     -39.616 -47.620  11.692  1.00  0.00     0.173 C 
ENDBRANCH   7   8
ENDBRANCH   3   7
BRANCH   4  13
HETATM   13  C   UNL     1     -43.658 -53.290  12.661  1.00  0.00     0.051 A 
HETATM   14  C   UNL     1     -43.286 -54.290  13.556  1.00  0.00     0.032 A 
HETATM   15  C   UNL     1     -44.262 -54.960  14.295  1.00  0.00     0.019 A 
HETATM   16  C   UNL     1     -45.589 -54.612  14.107  1.00  0.00     0.088 A 
HETATM   17  N   UNL     1     -45.996 -53.667  13.235  1.00  0.00    -0.373 N 
HETATM   18  C   UNL     1     -45.024 -53.033  12.535  1.00  0.00     0.117 A 
ATOM     19  HN  UNL     1     -46.983 -53.442  13.109  1.00  0.00     0.164 HD
ENDBRANCH   4  13
TORSDOF 3
ENDMDL
MODEL 4
REMARK VINA RESULT:      -5.3      2.502      3.399
REMARK  3 active torsions:
REMARK  status: ('A' for Active; 'I' for Inactive)
REMARK       I    between atoms: C_2  and  N_3 
REMARK       I    between atoms: C_2  and  N_10 
REMARK    1  A    between atoms: N_3  and  C_4 
REMARK    2  A    between atoms: C_4  and  C_5 
REMARK    3  A    between atoms: N_10  and  C_11 
ROOT
HETATM    1  O   UNL     1     -41.847 -49.439  12.844  1.00  0.00    -0.247 OA
HETATM    2  C   UNL     1     -41.520 -49.907  11.761  1.00  0.00     0.320 C 
HETATM    3  N   UNL     1     -41.181 -49.116  10.676  1.00  0.00    -0.342 N 
HETATM    4  N   UNL     1     -41.466 -51.242  11.426  1.00  0.00    -0.308 N 
HETATM    5  H   UNL     1     -40.475 -49.522  10.080  1.00  0.00     0.164 HD
HETATM    6  H   UNL     1     -41.450 -51.438  10.436  1.00  0.00     0.170 HD
ENDROOT
BRANCH   3   7
HETATM    7  C   UNL     1     -41.127 -47.673  10.836  1.00  0.00     0.131 C 
BRANCH   7   8
HETATM    8  C   UNL     1     -42.444 -46.998  10.485  1.00  0.00     0.029 C 
HETATM    9  C   UNL     1     -43.115 -47.498   9.220  1.00  0.00     0.034 C 
HETATM   10  C   UNL     1     -43.870 -46.286   8.700  1.00  0.00     0.168 C 
HETATM   11  O   UNL     1     -43.431 -45.143   9.446  1.00  0.00    -0.391 OA
HETATM   12  C   UNL     1     -42.266 -45.522  10.184  1.00  0.00     0.173 C 
ENDBRANCH   7   8
ENDBRANCH   3   7
BRANCH   4  13
HETATM   13  C   UNL     1     -41.693 -52.338  12.289  1.00  0.00     0.051 A 
HETATM   14  C   UNL     1     -40.682 -53.066  12.911  1.00  0.00     0.032 A 
HETATM   15  C   UNL     1     -41.009 -54.127  13.757  1.00  0.00     0.019 A 
HETATM   16  C   UNL     1     -42.345 -54.434  13.947  1.00  0.00     0.088 A 
HETATM   17  N   UNL     1     -43.356 -53.771  13.346  1.00  0.00    -0.373 N 
HETATM   18  C   UNL     1     -43.005 -52.745  12.534  1.00  0.00     0.117 A 
ATOM     19  HN  UNL     1     -44.331 -54.029  13.496  1.00  0.00     0.164 HD
ENDBRANCH   4  13
TORSDOF 3
ENDMDL
MODEL 5
REMARK VINA RESULT:      -5.3      3.836      6.503
REMARK  3 active torsions:
REMARK  status: ('A' for Active; 'I' for Inactive)
REMARK       I    between atoms: C_2  and  N_3 
REMARK       I    between atoms: C_2  and  N_10 
REMARK    1  A    between atoms: N_3  and  C_4 
REMARK    2  A    between atoms: C_4  and  C_5 
REMARK    3  A    between atoms: N_10  and  C_11 
ROOT
HETATM    1  O   UNL     1     -42.323 -50.646  12.863  1.00  0.00    -0.247 OA
HETATM    2  C   UNL     1     -41.736 -51.448  12.148  1.00  0.00     0.320 C 
HETATM    3  N   UNL     1     -40.752 -51.070  11.251  1.00  0.00    -0.342 N 
HETATM    4  N   UNL     1     -41.962 -52.806  12.081  1.00  0.00    -0.308 N 
HETATM    5  H   UNL     1     -40.024 -51.760  11.129  1.00  0.00     0.164 HD
HETATM    6  H   UNL     1     -41.597 -53.263  11.259  1.00  0.00     0.170 HD
ENDROOT
BRANCH   3   7
HETATM    7  C   UNL     1     -40.327 -49.682  11.203  1.00  0.00     0.131 C 
BRANCH   7   8
HETATM    8  C   UNL     1     -39.027 -49.444  11.957  1.00  0.00     0.029 C 
HETATM    9  C   UNL     1     -38.226 -50.689  12.282  1.00  0.00     0.034 C 
HETATM   10  C   UNL     1     -37.503 -50.335  13.572  1.00  0.00     0.168 C 
HETATM   11  O   UNL     1     -38.069 -49.117  14.071  1.00  0.00    -0.391 OA
HETATM   12  C   UNL     1     -39.267 -48.855  13.334  1.00  0.00     0.173 C 
ENDBRANCH   7   8
ENDBRANCH   3   7
BRANCH   4  13
HETATM   13  C   UNL     1     -42.852 -53.553  12.884  1.00  0.00     0.051 A 
HETATM   14  C   UNL     1     -42.470 -54.277  14.010  1.00  0.00     0.032 A 
HETATM   15  C   UNL     1     -43.429 -54.977  14.746  1.00  0.00     0.019 A 
HETATM   16  C   UNL     1     -44.746 -54.935  14.323  1.00  0.00     0.088 A 
HETATM   17  N   UNL     1     -45.157 -54.266  13.226  1.00  0.00    -0.373 N 
HETATM   18  C   UNL     1     -44.203 -53.596  12.536  1.00  0.00     0.117 A 
ATOM     19  HN  UNL     1     -46.133 -54.265  12.932  1.00  0.00     0.164 HD
ENDBRANCH   4  13
TORSDOF 3
ENDMDL
MODEL 6
REMARK VINA RESULT:      -5.3      2.033      6.817
REMARK  3 active torsions:
REMARK  status: ('A' for Active; 'I' for Inactive)
REMARK       I    between atoms: C_2  and  N_3 
REMARK       I    between atoms: C_2  and  N_10 
REMARK    1  A    between atoms: N_3  and  C_4 
REMARK    2  A    between atoms: C_4  and  C_5 
REMARK    3  A    between atoms: N_10  and  C_11 
ROOT
HETATM    1  O   UNL     1     -42.338 -48.177  11.966  1.00  0.00    -0.247 OA
HETATM    2  C   UNL     1     -41.861 -48.468  10.876  1.00  0.00     0.320 C 
HETATM    3  N   UNL     1     -40.716 -49.235  10.742  1.00  0.00    -0.342 N 
HETATM    4  N   UNL     1     -42.332 -48.075   9.643  1.00  0.00    -0.308 N 
HETATM    5  H   UNL     1     -40.713 -49.822   9.920  1.00  0.00     0.164 HD
HETATM    6  H   UNL     1     -41.676 -48.167   8.882  1.00  0.00     0.170 HD
ENDROOT
BRANCH   3   7
HETATM    7  C   UNL     1     -40.089 -49.793  11.927  1.00  0.00     0.131 C 
BRANCH   7   8
HETATM    8  C   UNL     1     -40.089 -51.315  11.923  1.00  0.00     0.029 C 
HETATM    9  C   UNL     1     -41.455 -51.967  12.006  1.00  0.00     0.034 C 
HETATM   10  C   UNL     1     -41.193 -53.281  12.724  1.00  0.00     0.168 C 
HETATM   11  O   UNL     1     -39.859 -53.236  13.246  1.00  0.00    -0.391 OA
HETATM   12  C   UNL     1     -39.392 -51.888  13.142  1.00  0.00     0.173 C 
ENDBRANCH   7   8
ENDBRANCH   3   7
BRANCH   4  13
HETATM   13  C   UNL     1     -43.506 -47.332   9.386  1.00  0.00     0.051 A 
HETATM   14  C   UNL     1     -44.765 -47.898   9.203  1.00  0.00     0.032 A 
HETATM   15  C   UNL     1     -45.869 -47.076   8.965  1.00  0.00     0.019 A 
HETATM   16  C   UNL     1     -45.674 -45.707   8.909  1.00  0.00     0.088 A 
HETATM   17  N   UNL     1     -44.470 -45.118   9.058  1.00  0.00    -0.373 N 
HETATM   18  C   UNL     1     -43.420 -45.943   9.291  1.00  0.00     0.117 A 
ATOM     19  HN  UNL     1     -44.355 -44.106   8.999  1.00  0.00     0.164 HD
ENDBRANCH   4  13
TORSDOF 3
ENDMDL
MODEL 7
REMARK VINA RESULT:      -5.2      4.366      6.186
REMARK  3 active torsions:
REMARK  status: ('A' for Active; 'I' for Inactive)
REMARK       I    between atoms: C_2  and  N_3 
REMARK       I    between atoms: C_2  and  N_10 
REMARK    1  A    between atoms: N_3  and  C_4 
REMARK    2  A    between atoms: C_4  and  C_5 
REMARK    3  A    between atoms: N_10  and  C_11 
ROOT
HETATM    1  O   UNL     1     -42.403 -51.042  14.015  1.00  0.00    -0.247 OA
HETATM    2  C   UNL     1     -42.711 -51.318  12.862  1.00  0.00     0.320 C 
HETATM    3  N   UNL     1     -41.861 -51.103  11.790  1.00  0.00    -0.342 N 
HETATM    4  N   UNL     1     -43.914 -51.835  12.435  1.00  0.00    -0.308 N 
HETATM    5  H   UNL     1     -41.955 -51.787  11.052  1.00  0.00     0.164 HD
HETATM    6  H   UNL     1     -44.097 -51.741  11.447  1.00  0.00     0.170 HD
ENDROOT
BRANCH   3   7
HETATM    7  C   UNL     1     -40.517 -50.608  12.034  1.00  0.00     0.131 C 
BRANCH   7   8
HETATM    8  C   UNL     1     -40.220 -49.328  11.266  1.00  0.00     0.029 C 
HETATM    9  C   UNL     1     -39.465 -48.266  12.039  1.00  0.00     0.034 C 
HETATM   10  C   UNL     1     -39.946 -46.958  11.433  1.00  0.00     0.168 C 
HETATM   11  O   UNL     1     -41.074 -47.251  10.599  1.00  0.00    -0.391 OA
HETATM   12  C   UNL     1     -41.486 -48.592  10.874  1.00  0.00     0.173 C 
ENDBRANCH   7   8
ENDBRANCH   3   7
BRANCH   4  13
HETATM   13  C   UNL     1     -44.999 -52.230  13.249  1.00  0.00     0.051 A 
HETATM   14  C   UNL     1     -45.773 -51.351  14.002  1.00  0.00     0.032 A 
HETATM   15  C   UNL     1     -46.833 -51.838  14.768  1.00  0.00     0.019 A 
HETATM   16  C   UNL     1     -47.081 -53.200  14.763  1.00  0.00     0.088 A 
HETATM   17  N   UNL     1     -46.344 -54.090  14.067  1.00  0.00    -0.373 N 
HETATM   18  C   UNL     1     -45.324 -53.584  13.331  1.00  0.00     0.117 A 
ATOM     19  HN  UNL     1     -46.543 -55.090  14.093  1.00  0.00     0.164 HD
ENDBRANCH   4  13
TORSDOF 3
ENDMDL
MODEL 8
REMARK VINA RESULT:      -5.0      3.937      6.454
REMARK  3 active torsions:
REMARK  status: ('A' for Active; 'I' for Inactive)
REMARK       I    between atoms: C_2  and  N_3 
REMARK       I    between atoms: C_2  and  N_10 
REMARK    1  A    between atoms: N_3  and  C_4 
REMARK    2  A    between atoms: C_4  and  C_5 
REMARK    3  A    between atoms: N_10  and  C_11 
ROOT
HETATM    1  O   UNL     1     -42.510 -49.602  13.725  1.00  0.00    -0.247 OA
HETATM    2  C   UNL     1     -42.488 -50.212  12.664  1.00  0.00     0.320 C 
HETATM    3  N   UNL     1     -42.592 -51.591  12.592  1.00  0.00    -0.342 N 
HETATM    4  N   UNL     1     -42.327 -49.669  11.408  1.00  0.00    -0.308 N 
HETATM    5  H   UNL     1     -43.070 -51.921  11.765  1.00  0.00     0.164 HD
HETATM    6  H   UNL     1     -42.057 -50.321  10.688  1.00  0.00     0.170 HD
ENDROOT
BRANCH   3   7
HETATM    7  C   UNL     1     -42.819 -52.353  13.807  1.00  0.00     0.131 C 
BRANCH   7   8
HETATM    8  C   UNL     1     -43.443 -53.714  13.533  1.00  0.00     0.029 C 
HETATM    9  C   UNL     1     -44.925 -53.698  13.213  1.00  0.00     0.034 C 
HETATM   10  C   UNL     1     -45.425 -55.039  13.724  1.00  0.00     0.168 C 
HETATM   11  O   UNL     1     -44.381 -55.625  14.512  1.00  0.00    -0.391 OA
HETATM   12  C   UNL     1     -43.393 -54.619  14.749  1.00  0.00     0.173 C 
ENDBRANCH   7   8
ENDBRANCH   3   7
BRANCH   4  13
HETATM   13  C   UNL     1     -42.244 -48.295  11.088  1.00  0.00     0.051 A 
HETATM   14  C   UNL     1     -41.051 -47.582  11.005  1.00  0.00     0.032 A 
HETATM   15  C   UNL     1     -41.072 -46.227  10.670  1.00  0.00     0.019 A 
HETATM   16  C   UNL     1     -42.295 -45.623  10.436  1.00  0.00     0.088 A 
HETATM   17  N   UNL     1     -43.476 -46.269  10.527  1.00  0.00    -0.373 N 
HETATM   18  C   UNL     1     -43.421 -47.584  10.851  1.00  0.00     0.117 A 
ATOM     19  HN  UNL     1     -44.362 -45.794  10.361  1.00  0.00     0.164 HD
ENDBRANCH   4  13
TORSDOF 3
ENDMDL
MODEL 9
REMARK VINA RESULT:      -5.0      4.428      6.940
REMARK  3 active torsions:
REMARK  status: ('A' for Active; 'I' for Inactive)
REMARK       I    between atoms: C_2  and  N_3 
REMARK       I    between atoms: C_2  and  N_10 
REMARK    1  A    between atoms: N_3  and  C_4 
REMARK    2  A    between atoms: C_4  and  C_5 
REMARK    3  A    between atoms: N_10  and  C_11 
ROOT
HETATM    1  O   UNL     1     -42.746 -50.942  14.136  1.00  0.00    -0.247 OA
HETATM    2  C   UNL     1     -42.915 -51.218  12.956  1.00  0.00     0.320 C 
HETATM    3  N   UNL     1     -42.161 -50.654  11.941  1.00  0.00    -0.342 N 
HETATM    4  N   UNL     1     -43.864 -52.073  12.440  1.00  0.00    -0.308 N 
HETATM    5  H   UNL     1     -42.002 -51.273  11.159  1.00  0.00     0.164 HD
HETATM    6  H   UNL     1     -44.044 -51.972  11.453  1.00  0.00     0.170 HD
ENDROOT
BRANCH   3   7
HETATM    7  C   UNL     1     -41.067 -49.759  12.279  1.00  0.00     0.131 C 
BRANCH   7   8
HETATM    8  C   UNL     1     -39.706 -50.351  11.940  1.00  0.00     0.029 C 
HETATM    9  C   UNL     1     -39.061 -51.171  13.040  1.00  0.00     0.034 C 
HETATM   10  C   UNL     1     -37.570 -50.985  12.812  1.00  0.00     0.168 C 
HETATM   11  O   UNL     1     -37.402 -49.932  11.854  1.00  0.00    -0.391 OA
HETATM   12  C   UNL     1     -38.663 -49.277  11.696  1.00  0.00     0.173 C 
ENDBRANCH   7   8
ENDBRANCH   3   7
BRANCH   4  13
HETATM   13  C   UNL     1     -44.773 -52.866  13.176  1.00  0.00     0.051 A 
HETATM   14  C   UNL     1     -45.878 -52.362  13.857  1.00  0.00     0.032 A 
HETATM   15  C   UNL     1     -46.725 -53.230  14.548  1.00  0.00     0.019 A 
HETATM   16  C   UNL     1     -46.433 -54.583  14.541  1.00  0.00     0.088 A 
HETATM   17  N   UNL     1     -45.362 -55.112  13.914  1.00  0.00    -0.373 N 
HETATM   18  C   UNL     1     -44.561 -54.243  13.251  1.00  0.00     0.117 A 
ATOM     19  HN  UNL     1     -45.165 -56.113  13.938  1.00  0.00     0.164 HD
ENDBRANCH   4  13
TORSDOF 3
ENDMDL
