MODEL 1
REMARK VINA RESULT:      -4.8      0.000      0.000
REMARK  7 active torsions:
REMARK  status: ('A' for Active; 'I' for Inactive)
REMARK    1  A    between atoms: C_2  and  C_3 
REMARK    2  A    between atoms: C_3  and  C_4 
REMARK    3  A    between atoms: C_4  and  S_5 
REMARK    4  A    between atoms: S_5  and  N_8 
REMARK    5  A    between atoms: N_8  and  C_9 
REMARK    6  A    between atoms: C_9  and  C_10 
REMARK    7  A    between atoms: C_10  and  C_13 
ROOT
HETATM    1  C   UNL     1     -42.894 -49.814  13.835  1.00  0.00     0.019 A 
HETATM    2  C   UNL     1     -42.554 -49.112  12.519  1.00  0.00     0.018 A 
HETATM    3  C   UNL     1     -42.877 -48.283  13.713  1.00  0.00     0.018 A 
ENDROOT
BRANCH   1   4
HETATM    4  C   UNL     1     -41.786 -50.612  14.519  1.00  0.00     0.147 C 
BRANCH   4   5
HETATM    5  N   UNL     1     -40.808 -51.236  13.609  1.00  0.00    -0.318 N 
HETATM    6  H   UNL     1     -40.324 -50.592  12.988  1.00  0.00     0.172 HD
BRANCH   5   7
HETATM    7  S   UNL     1     -41.174 -52.736  12.961  1.00  0.00     0.226 S 
HETATM    8  O   UNL     1     -39.949 -53.478  12.772  1.00  0.00    -0.206 OA
HETATM    9  O   UNL     1     -42.098 -52.501  11.870  1.00  0.00    -0.206 OA
BRANCH   7  10
HETATM   10  C   UNL     1     -42.099 -53.560  14.247  1.00  0.00     0.163 C 
BRANCH  10  11
HETATM   11  C   UNL     1     -43.330 -54.178  13.590  1.00  0.00     0.016 C 
BRANCH  11  12
HETATM   12  C   UNL     1     -44.353 -54.696  14.580  1.00  0.00    -0.004 C 
HETATM   13  C   UNL     1     -45.534 -55.289  13.824  1.00  0.00     0.005 C 
ENDBRANCH  11  12
ENDBRANCH  10  11
ENDBRANCH   7  10
ENDBRANCH   5   7
ENDBRANCH   4   5
ENDBRANCH   1   4
BRANCH   1  14
HETATM   14  C   UNL     1     -44.252 -50.505  13.923  1.00  0.00     0.019 A 
HETATM   15  C   UNL     1     -44.869 -50.716  15.159  1.00  0.00     0.026 A 
HETATM   16  C   UNL     1     -46.089 -51.383  15.226  1.00  0.00     0.003 A 
HETATM   17  C   UNL     1     -46.686 -51.813  14.051  1.00  0.00     0.017 A 
HETATM   18  C   UNL     1     -46.026 -51.566  12.862  1.00  0.00     0.088 A 
HETATM   19  N   UNL     1     -44.831 -50.941  12.777  1.00  0.00    -0.368 N 
ATOM     20  HN  UNL     1     -44.377 -50.802  11.874  1.00  0.00     0.165 HD
ENDBRANCH   1  14
TORSDOF 7
ENDMDL
MODEL 2
REMARK VINA RESULT:      -4.6      2.215      3.908
REMARK  7 active torsions:
REMARK  status: ('A' for Active; 'I' for Inactive)
REMARK    1  A    between atoms: C_2  and  C_3 
REMARK    2  A    between atoms: C_3  and  C_4 
REMARK    3  A    between atoms: C_4  and  S_5 
REMARK    4  A    between atoms: S_5  and  N_8 
REMARK    5  A    between atoms: N_8  and  C_9 
REMARK    6  A    between atoms: C_9  and  C_10 
REMARK    7  A    between atoms: C_10  and  C_13 
ROOT
HETATM    1  C   UNL     1     -40.901 -51.093  12.466  1.00  0.00     0.019 A 
HETATM    2  C   UNL     1     -39.430 -50.951  12.862  1.00  0.00     0.018 A 
HETATM    3  C   UNL     1     -40.456 -51.057  13.936  1.00  0.00     0.018 A 
ENDROOT
BRANCH   1   4
HETATM    4  C   UNL     1     -41.322 -52.373  11.750  1.00  0.00     0.147 C 
BRANCH   4   5
HETATM    5  N   UNL     1     -42.768 -52.659  11.772  1.00  0.00    -0.318 N 
HETATM    6  H   UNL     1     -43.367 -51.880  11.506  1.00  0.00     0.172 HD
BRANCH   5   7
HETATM    7  S   UNL     1     -43.360 -53.651  12.984  1.00  0.00     0.226 S 
HETATM    8  O   UNL     1     -42.257 -54.347  13.603  1.00  0.00    -0.206 OA
HETATM    9  O   UNL     1     -44.489 -54.363  12.420  1.00  0.00    -0.206 OA
BRANCH   7  10
HETATM   10  C   UNL     1     -44.021 -52.521  14.198  1.00  0.00     0.163 C 
BRANCH  10  11
HETATM   11  C   UNL     1     -45.541 -52.562  14.070  1.00  0.00     0.016 C 
BRANCH  11  12
HETATM   12  C   UNL     1     -46.129 -51.338  13.398  1.00  0.00    -0.004 C 
HETATM   13  C   UNL     1     -46.789 -51.747  12.088  1.00  0.00     0.005 C 
ENDBRANCH  11  12
ENDBRANCH  10  11
ENDBRANCH   7  10
ENDBRANCH   5   7
ENDBRANCH   4   5
ENDBRANCH   1   4
BRANCH   1  14
HETATM   14  C   UNL     1     -41.591 -49.854  11.903  1.00  0.00     0.019 A 
HETATM   15  C   UNL     1     -42.736 -49.333  12.512  1.00  0.00     0.026 A 
HETATM   16  C   UNL     1     -43.377 -48.225  11.962  1.00  0.00     0.003 A 
HETATM   17  C   UNL     1     -42.851 -47.641  10.821  1.00  0.00     0.017 A 
HETATM   18  C   UNL     1     -41.713 -48.202  10.273  1.00  0.00     0.088 A 
HETATM   19  N   UNL     1     -41.088 -49.289  10.776  1.00  0.00    -0.368 N 
ATOM     20  HN  UNL     1     -40.261 -49.676  10.321  1.00  0.00     0.165 HD
ENDBRANCH   1  14
TORSDOF 7
ENDMDL
MODEL 3
REMARK VINA RESULT:      -4.6      4.821      6.002
REMARK  7 active torsions:
REMARK  status: ('A' for Active; 'I' for Inactive)
REMARK    1  A    between atoms: C_2  and  C_3 
REMARK    2  A    between atoms: C_3  and  C_4 
REMARK    3  A    between atoms: C_4  and  S_5 
REMARK    4  A    between atoms: S_5  and  N_8 
REMARK    5  A    between atoms: N_8  and  C_9 
REMARK    6  A    between atoms: C_9  and  C_10 
REMARK    7  A    between atoms: C_10  and  C_13 
ROOT
HETATM    1  C   UNL     1     -41.538 -47.843  11.106  1.00  0.00     0.019 A 
HETATM    2  C   UNL     1     -40.393 -46.855  10.878  1.00  0.00     0.018 A 
HETATM    3  C   UNL     1     -41.299 -46.648  12.041  1.00  0.00     0.018 A 
ENDROOT
BRANCH   1   4
HETATM    4  C   UNL     1     -41.173 -49.279  11.472  1.00  0.00     0.147 C 
BRANCH   4   5
HETATM    5  N   UNL     1     -39.897 -49.764  10.916  1.00  0.00    -0.318 N 
HETATM    6  H   UNL     1     -39.982 -50.373  10.105  1.00  0.00     0.172 HD
BRANCH   5   7
HETATM    7  S   UNL     1     -38.660 -50.139  11.981  1.00  0.00     0.226 S 
HETATM    8  O   UNL     1     -37.414 -49.638  11.449  1.00  0.00    -0.206 OA
HETATM    9  O   UNL     1     -38.830 -51.533  12.337  1.00  0.00    -0.206 OA
BRANCH   7  10
HETATM   10  C   UNL     1     -39.032 -49.187  13.445  1.00  0.00     0.163 C 
BRANCH  10  11
HETATM   11  C   UNL     1     -37.744 -48.483  13.862  1.00  0.00     0.016 C 
BRANCH  11  12
HETATM   12  C   UNL     1     -37.094 -49.083  15.092  1.00  0.00    -0.004 C 
HETATM   13  C   UNL     1     -36.511 -47.969  15.951  1.00  0.00     0.005 C 
ENDBRANCH  11  12
ENDBRANCH  10  11
ENDBRANCH   7  10
ENDBRANCH   5   7
ENDBRANCH   4   5
ENDBRANCH   1   4
BRANCH   1  14
HETATM   14  C   UNL     1     -42.722 -47.767  10.146  1.00  0.00     0.019 A 
HETATM   15  C   UNL     1     -44.023 -47.599  10.626  1.00  0.00     0.026 A 
HETATM   16  C   UNL     1     -45.097 -47.572   9.739  1.00  0.00     0.003 A 
HETATM   17  C   UNL     1     -44.851 -47.693   8.381  1.00  0.00     0.017 A 
HETATM   18  C   UNL     1     -43.540 -47.850   7.973  1.00  0.00     0.088 A 
HETATM   19  N   UNL     1     -42.486 -47.902   8.817  1.00  0.00    -0.368 N 
ATOM     20  HN  UNL     1     -41.539 -48.039   8.464  1.00  0.00     0.165 HD
ENDBRANCH   1  14
TORSDOF 7
ENDMDL
MODEL 4
REMARK VINA RESULT:      -4.5      2.438      3.976
REMARK  7 active torsions:
REMARK  status: ('A' for Active; 'I' for Inactive)
REMARK    1  A    between atoms: C_2  and  C_3 
REMARK    2  A    between atoms: C_3  and  C_4 
REMARK    3  A    between atoms: C_4  and  S_5 
REMARK    4  A    between atoms: S_5  and  N_8 
REMARK    5  A    between atoms: N_8  and  C_9 
REMARK    6  A    between atoms: C_9  and  C_10 
REMARK    7  A    between atoms: C_10  and  C_13 
ROOT
HETATM    1  C   UNL     1     -44.942 -53.844  13.724  1.00  0.00     0.019 A 
HETATM    2  C   UNL     1     -44.102 -55.006  14.256  1.00  0.00     0.018 A 
HETATM    3  C   UNL     1     -45.501 -55.271  13.820  1.00  0.00     0.018 A 
ENDROOT
BRANCH   1   4
HETATM    4  C   UNL     1     -44.510 -53.200  12.408  1.00  0.00     0.147 C 
BRANCH   4   5
HETATM    5  N   UNL     1     -43.067 -53.275  12.117  1.00  0.00    -0.318 N 
HETATM    6  H   UNL     1     -42.667 -54.210  12.150  1.00  0.00     0.172 HD
BRANCH   5   7
HETATM    7  S   UNL     1     -42.082 -52.042  12.676  1.00  0.00     0.226 S 
HETATM    8  O   UNL     1     -42.903 -51.028  13.295  1.00  0.00    -0.206 OA
HETATM    9  O   UNL     1     -41.163 -51.727  11.601  1.00  0.00    -0.206 OA
BRANCH   7  10
HETATM   10  C   UNL     1     -41.114 -52.802  13.971  1.00  0.00     0.163 C 
BRANCH  10  11
HETATM   11  C   UNL     1     -40.544 -54.099  13.404  1.00  0.00     0.016 C 
BRANCH  11  12
HETATM   12  C   UNL     1     -39.292 -54.573  14.112  1.00  0.00    -0.004 C 
HETATM   13  C   UNL     1     -39.641 -54.994  15.533  1.00  0.00     0.005 C 
ENDBRANCH  11  12
ENDBRANCH  10  11
ENDBRANCH   7  10
ENDBRANCH   5   7
ENDBRANCH   4   5
ENDBRANCH   1   4
BRANCH   1  14
HETATM   14  C   UNL     1     -45.433 -52.819  14.742  1.00  0.00     0.019 A 
HETATM   15  C   UNL     1     -46.760 -52.382  14.735  1.00  0.00     0.026 A 
HETATM   16  C   UNL     1     -47.183 -51.416  15.646  1.00  0.00     0.003 A 
HETATM   17  C   UNL     1     -46.275 -50.916  16.566  1.00  0.00     0.017 A 
HETATM   18  C   UNL     1     -44.980 -51.396  16.523  1.00  0.00     0.088 A 
HETATM   19  N   UNL     1     -44.543 -52.315  15.634  1.00  0.00    -0.368 N 
ATOM     20  HN  UNL     1     -43.570 -52.622  15.632  1.00  0.00     0.165 HD
ENDBRANCH   1  14
TORSDOF 7
ENDMDL
MODEL 5
REMARK VINA RESULT:      -4.5      2.114      3.872
REMARK  7 active torsions:
REMARK  status: ('A' for Active; 'I' for Inactive)
REMARK    1  A    between atoms: C_2  and  C_3 
REMARK    2  A    between atoms: C_3  and  C_4 
REMARK    3  A    between atoms: C_4  and  S_5 
REMARK    4  A    between atoms: S_5  and  N_8 
REMARK    5  A    between atoms: N_8  and  C_9 
REMARK    6  A    between atoms: C_9  and  C_10 
REMARK    7  A    between atoms: C_10  and  C_13 
ROOT
HETATM    1  C   UNL     1     -45.171 -51.632  13.779  1.00  0.00     0.019 A 
HETATM    2  C   UNL     1     -46.359 -51.961  12.874  1.00  0.00     0.018 A 
HETATM    3  C   UNL     1     -46.622 -51.399  14.227  1.00  0.00     0.018 A 
ENDROOT
BRANCH   1   4
HETATM    4  C   UNL     1     -44.238 -50.505  13.343  1.00  0.00     0.147 C 
BRANCH   4   5
HETATM    5  N   UNL     1     -43.029 -50.936  12.618  1.00  0.00    -0.318 N 
HETATM    6  H   UNL     1     -43.067 -51.878  12.235  1.00  0.00     0.172 HD
BRANCH   5   7
HETATM    7  S   UNL     1     -41.538 -50.450  13.205  1.00  0.00     0.226 S 
HETATM    8  O   UNL     1     -41.523 -50.611  14.641  1.00  0.00    -0.206 OA
HETATM    9  O   UNL     1     -41.242 -49.178  12.579  1.00  0.00    -0.206 OA
BRANCH   7  10
HETATM   10  C   UNL     1     -40.387 -51.635  12.527  1.00  0.00     0.163 C 
BRANCH  10  11
HETATM   11  C   UNL     1     -41.182 -52.897  12.202  1.00  0.00     0.016 C 
BRANCH  11  12
HETATM   12  C   UNL     1     -40.728 -54.118  12.976  1.00  0.00    -0.004 C 
HETATM   13  C   UNL     1     -39.665 -53.710  13.987  1.00  0.00     0.005 C 
ENDBRANCH  11  12
ENDBRANCH  10  11
ENDBRANCH   7  10
ENDBRANCH   5   7
ENDBRANCH   4   5
ENDBRANCH   1   4
BRANCH   1  14
HETATM   14  C   UNL     1     -44.419 -52.809  14.393  1.00  0.00     0.019 A 
HETATM   15  C   UNL     1     -44.530 -54.092  13.850  1.00  0.00     0.026 A 
HETATM   16  C   UNL     1     -43.869 -55.163  14.445  1.00  0.00     0.003 A 
HETATM   17  C   UNL     1     -43.088 -54.933  15.567  1.00  0.00     0.017 A 
HETATM   18  C   UNL     1     -43.016 -53.639  16.049  1.00  0.00     0.088 A 
HETATM   19  N   UNL     1     -43.667 -52.590  15.501  1.00  0.00    -0.368 N 
ATOM     20  HN  UNL     1     -43.595 -51.658  15.909  1.00  0.00     0.165 HD
ENDBRANCH   1  14
TORSDOF 7
ENDMDL
MODEL 6
REMARK VINA RESULT:      -4.4      4.465      6.436
REMARK  7 active torsions:
REMARK  status: ('A' for Active; 'I' for Inactive)
REMARK    1  A    between atoms: C_2  and  C_3 
REMARK    2  A    between atoms: C_3  and  C_4 
REMARK    3  A    between atoms: C_4  and  S_5 
REMARK    4  A    between atoms: S_5  and  N_8 
REMARK    5  A    between atoms: N_8  and  C_9 
REMARK    6  A    between atoms: C_9  and  C_10 
REMARK    7  A    between atoms: C_10  and  C_13 
ROOT
HETATM    1  C   UNL     1     -38.913 -49.735  11.999  1.00  0.00     0.019 A 
HETATM    2  C   UNL     1     -37.504 -49.630  12.586  1.00  0.00     0.018 A 
HETATM    3  C   UNL     1     -37.657 -49.891  11.128  1.00  0.00     0.018 A 
ENDROOT
BRANCH   1   4
HETATM    4  C   UNL     1     -39.778 -48.477  12.004  1.00  0.00     0.147 C 
BRANCH   4   5
HETATM    5  N   UNL     1     -40.529 -48.227  10.760  1.00  0.00    -0.318 N 
HETATM    6  H   UNL     1     -39.977 -48.272   9.906  1.00  0.00     0.172 HD
BRANCH   5   7
HETATM    7  S   UNL     1     -41.740 -47.072  10.784  1.00  0.00     0.226 S 
HETATM    8  O   UNL     1     -41.193 -45.808  10.349  1.00  0.00    -0.206 OA
HETATM    9  O   UNL     1     -42.418 -47.211  12.057  1.00  0.00    -0.206 OA
BRANCH   7  10
HETATM   10  C   UNL     1     -42.891 -47.611   9.529  1.00  0.00     0.163 C 
BRANCH  10  11
HETATM   11  C   UNL     1     -43.428 -46.357   8.844  1.00  0.00     0.016 C 
BRANCH  11  12
HETATM   12  C   UNL     1     -44.939 -46.245   8.881  1.00  0.00    -0.004 C 
HETATM   13  C   UNL     1     -45.532 -47.548   9.397  1.00  0.00     0.005 C 
ENDBRANCH  11  12
ENDBRANCH  10  11
ENDBRANCH   7  10
ENDBRANCH   5   7
ENDBRANCH   4   5
ENDBRANCH   1   4
BRANCH   1  14
HETATM   14  C   UNL     1     -39.710 -50.994  12.328  1.00  0.00     0.019 A 
HETATM   15  C   UNL     1     -39.391 -51.772  13.445  1.00  0.00     0.026 A 
HETATM   16  C   UNL     1     -40.102 -52.940  13.709  1.00  0.00     0.003 A 
HETATM   17  C   UNL     1     -41.136 -53.304  12.862  1.00  0.00     0.017 A 
HETATM   18  C   UNL     1     -41.403 -52.487  11.779  1.00  0.00     0.088 A 
HETATM   19  N   UNL     1     -40.712 -51.363  11.492  1.00  0.00    -0.368 N 
ATOM     20  HN  UNL     1     -40.937 -50.805  10.667  1.00  0.00     0.165 HD
ENDBRANCH   1  14
TORSDOF 7
ENDMDL
MODEL 7
REMARK VINA RESULT:      -4.3      2.647      4.595
REMARK  7 active torsions:
REMARK  status: ('A' for Active; 'I' for Inactive)
REMARK    1  A    between atoms: C_2  and  C_3 
REMARK    2  A    between atoms: C_3  and  C_4 
REMARK    3  A    between atoms: C_4  and  S_5 
REMARK    4  A    between atoms: S_5  and  N_8 
REMARK    5  A    between atoms: N_8  and  C_9 
REMARK    6  A    between atoms: C_9  and  C_10 
REMARK    7  A    between atoms: C_10  and  C_13 
ROOT
HETATM    1  C   UNL     1     -42.401 -51.159  12.995  1.00  0.00     0.019 A 
HETATM    2  C   UNL     1     -43.013 -50.530  14.248  1.00  0.00     0.018 A 
HETATM    3  C   UNL     1     -43.301 -49.916  12.923  1.00  0.00     0.018 A 
ENDROOT
BRANCH   1   4
HETATM    4  C   UNL     1     -42.872 -52.557  12.603  1.00  0.00     0.147 C 
BRANCH   4   5
HETATM    5  N   UNL     1     -42.833 -53.559  13.683  1.00  0.00    -0.318 N 
HETATM    6  H   UNL     1     -41.965 -54.086  13.753  1.00  0.00     0.172 HD
BRANCH   5   7
HETATM    7  S   UNL     1     -44.233 -54.414  14.021  1.00  0.00     0.226 S 
HETATM    8  O   UNL     1     -43.897 -55.567  14.823  1.00  0.00    -0.206 OA
HETATM    9  O   UNL     1     -44.952 -54.540  12.769  1.00  0.00    -0.206 OA
BRANCH   7  10
HETATM   10  C   UNL     1     -45.187 -53.312  15.052  1.00  0.00     0.163 C 
BRANCH  10  11
HETATM   11  C   UNL     1     -46.484 -53.010  14.307  1.00  0.00     0.016 C 
BRANCH  11  12
HETATM   12  C   UNL     1     -46.594 -51.575  13.833  1.00  0.00    -0.004 C 
HETATM   13  C   UNL     1     -46.636 -51.547  12.311  1.00  0.00     0.005 C 
ENDBRANCH  11  12
ENDBRANCH  10  11
ENDBRANCH   7  10
ENDBRANCH   5   7
ENDBRANCH   4   5
ENDBRANCH   1   4
BRANCH   1  14
HETATM   14  C   UNL     1     -40.903 -50.964  12.782  1.00  0.00     0.019 A 
HETATM   15  C   UNL     1     -39.992 -51.238  13.806  1.00  0.00     0.026 A 
HETATM   16  C   UNL     1     -38.631 -51.017  13.608  1.00  0.00     0.003 A 
HETATM   17  C   UNL     1     -38.198 -50.544  12.380  1.00  0.00     0.017 A 
HETATM   18  C   UNL     1     -39.150 -50.301  11.408  1.00  0.00     0.088 A 
HETATM   19  N   UNL     1     -40.477 -50.486  11.586  1.00  0.00    -0.368 N 
ATOM     20  HN  UNL     1     -41.140 -50.272  10.841  1.00  0.00     0.165 HD
ENDBRANCH   1  14
TORSDOF 7
ENDMDL
MODEL 8
REMARK VINA RESULT:      -4.3      1.721      4.034
REMARK  7 active torsions:
REMARK  status: ('A' for Active; 'I' for Inactive)
REMARK    1  A    between atoms: C_2  and  C_3 
REMARK    2  A    between atoms: C_3  and  C_4 
REMARK    3  A    between atoms: C_4  and  S_5 
REMARK    4  A    between atoms: S_5  and  N_8 
REMARK    5  A    between atoms: N_8  and  C_9 
REMARK    6  A    between atoms: C_9  and  C_10 
REMARK    7  A    between atoms: C_10  and  C_13 
ROOT
HETATM    1  C   UNL     1     -42.572 -53.332  13.417  1.00  0.00     0.019 A 
HETATM    2  C   UNL     1     -41.815 -53.279  14.746  1.00  0.00     0.018 A 
HETATM    3  C   UNL     1     -42.405 -54.574  14.306  1.00  0.00     0.018 A 
ENDROOT
BRANCH   1   4
HETATM    4  C   UNL     1     -41.773 -53.105  12.136  1.00  0.00     0.147 C 
BRANCH   4   5
HETATM    5  N   UNL     1     -41.719 -51.708  11.669  1.00  0.00    -0.318 N 
HETATM    6  H   UNL     1     -42.081 -51.552  10.730  1.00  0.00     0.172 HD
BRANCH   5   7
HETATM    7  S   UNL     1     -40.396 -50.779  12.102  1.00  0.00     0.226 S 
HETATM    8  O   UNL     1     -40.149 -49.801  11.068  1.00  0.00    -0.206 OA
HETATM    9  O   UNL     1     -39.368 -51.701  12.539  1.00  0.00    -0.206 OA
BRANCH   7  10
HETATM   10  C   UNL     1     -40.936 -49.889  13.553  1.00  0.00     0.163 C 
BRANCH  10  11
HETATM   11  C   UNL     1     -41.549 -48.576  13.073  1.00  0.00     0.016 C 
BRANCH  11  12
HETATM   12  C   UNL     1     -43.026 -48.677  12.751  1.00  0.00    -0.004 C 
HETATM   13  C   UNL     1     -43.313 -47.936  11.452  1.00  0.00     0.005 C 
ENDBRANCH  11  12
ENDBRANCH  10  11
ENDBRANCH   7  10
ENDBRANCH   5   7
ENDBRANCH   4   5
ENDBRANCH   1   4
BRANCH   1  14
HETATM   14  C   UNL     1     -43.947 -52.670  13.374  1.00  0.00     0.019 A 
HETATM   15  C   UNL     1     -44.336 -51.764  14.365  1.00  0.00     0.026 A 
HETATM   16  C   UNL     1     -45.608 -51.199  14.333  1.00  0.00     0.003 A 
HETATM   17  C   UNL     1     -46.468 -51.533  13.299  1.00  0.00     0.017 A 
HETATM   18  C   UNL     1     -46.017 -52.430  12.348  1.00  0.00     0.088 A 
HETATM   19  N   UNL     1     -44.796 -53.007  12.372  1.00  0.00    -0.368 N 
ATOM     20  HN  UNL     1     -44.521 -53.679  11.656  1.00  0.00     0.165 HD
ENDBRANCH   1  14
TORSDOF 7
ENDMDL
MODEL 9
REMARK VINA RESULT:      -4.3      2.469      4.771
REMARK  7 active torsions:
REMARK  status: ('A' for Active; 'I' for Inactive)
REMARK    1  A    between atoms: C_2  and  C_3 
REMARK    2  A    between atoms: C_3  and  C_4 
REMARK    3  A    between atoms: C_4  and  S_5 
REMARK    4  A    between atoms: S_5  and  N_8 
REMARK    5  A    between atoms: N_8  and  C_9 
REMARK    6  A    between atoms: C_9  and  C_10 
REMARK    7  A    between atoms: C_10  and  C_13 
ROOT
HETATM    1  C   UNL     1     -44.528 -51.668  13.773  1.00  0.00     0.019 A 
HETATM    2  C   UNL     1     -45.824 -51.939  13.007  1.00  0.00     0.018 A 
HETATM    3  C   UNL     1     -45.900 -51.250  14.325  1.00  0.00     0.018 A 
ENDROOT
BRANCH   1   4
HETATM    4  C   UNL     1     -43.536 -50.681  13.162  1.00  0.00     0.147 C 
BRANCH   4   5
HETATM    5  N   UNL     1     -42.643 -51.245  12.134  1.00  0.00    -0.318 N 
HETATM    6  H   UNL     1     -43.037 -52.012  11.592  1.00  0.00     0.172 HD
BRANCH   5   7
HETATM    7  S   UNL     1     -41.010 -51.365  12.483  1.00  0.00     0.226 S 
HETATM    8  O   UNL     1     -40.532 -52.660  12.057  1.00  0.00    -0.206 OA
HETATM    9  O   UNL     1     -40.844 -50.903  13.846  1.00  0.00    -0.206 OA
BRANCH   7  10
HETATM   10  C   UNL     1     -40.241 -50.145  11.430  1.00  0.00     0.163 C 
BRANCH  10  11
HETATM   11  C   UNL     1     -39.251 -49.367  12.292  1.00  0.00     0.016 C 
BRANCH  11  12
HETATM   12  C   UNL     1     -37.813 -49.496  11.833  1.00  0.00    -0.004 C 
HETATM   13  C   UNL     1     -37.293 -50.884  12.179  1.00  0.00     0.005 C 
ENDBRANCH  11  12
ENDBRANCH  10  11
ENDBRANCH   7  10
ENDBRANCH   5   7
ENDBRANCH   4   5
ENDBRANCH   1   4
BRANCH   1  14
HETATM   14  C   UNL     1     -43.839 -52.867  14.417  1.00  0.00     0.019 A 
HETATM   15  C   UNL     1     -44.136 -54.169  14.006  1.00  0.00     0.026 A 
HETATM   16  C   UNL     1     -43.527 -55.255  14.631  1.00  0.00     0.003 A 
HETATM   17  C   UNL     1     -42.614 -55.022  15.647  1.00  0.00     0.017 A 
HETATM   18  C   UNL     1     -42.361 -53.710  16.000  1.00  0.00     0.088 A 
HETATM   19  N   UNL     1     -42.957 -52.643  15.423  1.00  0.00    -0.368 N 
ATOM     20  HN  UNL     1     -42.749 -51.695  15.736  1.00  0.00     0.165 HD
ENDBRANCH   1  14
TORSDOF 7
ENDMDL
