MODEL 1
REMARK VINA RESULT:      -6.7      0.000      0.000
REMARK  7 active torsions:
REMARK  status: ('A' for Active; 'I' for Inactive)
REMARK    1  A    between atoms: O_2  and  C_3 
REMARK    2  A    between atoms: C_3  and  C_4 
REMARK    3  A    between atoms: C_4  and  N_5 
REMARK    4  A    between atoms: C_8  and  C_13 
REMARK       I    between atoms: C_13  and  N_15 
REMARK    5  A    between atoms: N_15  and  C_16 
REMARK    6  A    between atoms: C_16  and  C_17 
REMARK    7  A    between atoms: C_17  and  C_23 
REMARK       I    between atoms: C_23  and  N_25 
ROOT
HETATM    1  C   UNL     1     -43.048 -49.041  13.052  1.00  0.00     0.269 C 
HETATM    2  O   UNL     1     -42.775 -48.657  14.181  1.00  0.00    -0.266 OA
HETATM    3  N   UNL     1     -43.316 -50.345  12.709  1.00  0.00    -0.354 N 
HETATM    4  H   UNL     1     -43.584 -50.539  11.744  1.00  0.00     0.162 HD
ENDROOT
BRANCH   1   5
HETATM    5  C   UNL     1     -43.089 -48.041  11.890  1.00  0.00     0.116 A 
HETATM    6  N   UNL     1     -43.898 -48.256  10.895  1.00  0.00    -0.290 N 
HETATM    7  N   UNL     1     -43.879 -47.337   9.857  1.00  0.00    -0.255 N 
ATOM      8  HN  UNL     1     -44.519 -49.064  10.879  1.00  0.00     0.187 HD
HETATM    9  C   UNL     1     -43.035 -46.233   9.808  1.00  0.00     0.262 A 
HETATM   10  C   UNL     1     -42.146 -46.040  10.971  1.00  0.00     0.078 A 
HETATM   11  O   UNL     1     -42.980 -45.422   8.886  1.00  0.00    -0.267 OA
HETATM   12  C   UNL     1     -42.170 -46.890  11.997  1.00  0.00     0.042 A 
BRANCH   7  13
HETATM   13  C   UNL     1     -44.858 -47.532   8.789  1.00  0.00     0.178 C 
BRANCH  13  14
HETATM   14  C   UNL     1     -46.232 -46.943   9.109  1.00  0.00     0.189 C 
BRANCH  14  15
HETATM   15  O   UNL     1     -47.251 -47.824   8.625  1.00  0.00    -0.394 OA
HETATM   16  C   UNL     1     -46.693 -49.028   8.112  1.00  0.00     0.201 C 
ENDBRANCH  14  15
ENDBRANCH  13  14
ENDBRANCH   7  13
ENDBRANCH   1   5
BRANCH   3  17
HETATM   17  C   UNL     1     -43.409 -51.417  13.684  1.00  0.00     0.142 C 
BRANCH  17  18
HETATM   18  C   UNL     1     -42.673 -52.725  13.276  1.00  0.00     0.060 C 
HETATM   19  C   UNL     1     -43.611 -53.558  12.363  1.00  0.00     0.047 C 
HETATM   20  C   UNL     1     -44.750 -54.204  13.144  1.00  0.00     0.168 C 
HETATM   21  O   UNL     1     -44.230 -54.994  14.209  1.00  0.00    -0.391 OA
HETATM   22  C   UNL     1     -43.510 -54.214  15.164  1.00  0.00     0.168 C 
HETATM   23  C   UNL     1     -42.291 -53.576  14.508  1.00  0.00     0.047 C 
BRANCH  18  24
HETATM   24  C   UNL     1     -41.410 -52.354  12.480  1.00  0.00     0.226 C 
HETATM   25  O   UNL     1     -40.473 -51.713  12.950  1.00  0.00    -0.273 OA
HETATM   26  N   UNL     1     -41.345 -52.761  11.180  1.00  0.00    -0.369 N 
HETATM   27  H   UNL     1     -42.064 -53.299  10.717  1.00  0.00     0.159 HD
HETATM   28  H   UNL     1     -40.515 -52.519  10.656  1.00  0.00     0.159 HD
ENDBRANCH  18  24
ENDBRANCH  17  18
ENDBRANCH   3  17
TORSDOF 7
ENDMDL
MODEL 2
REMARK VINA RESULT:      -6.6      1.931      2.736
REMARK  7 active torsions:
REMARK  status: ('A' for Active; 'I' for Inactive)
REMARK    1  A    between atoms: O_2  and  C_3 
REMARK    2  A    between atoms: C_3  and  C_4 
REMARK    3  A    between atoms: C_4  and  N_5 
REMARK    4  A    between atoms: C_8  and  C_13 
REMARK       I    between atoms: C_13  and  N_15 
REMARK    5  A    between atoms: N_15  and  C_16 
REMARK    6  A    between atoms: C_16  and  C_17 
REMARK    7  A    between atoms: C_17  and  C_23 
REMARK       I    between atoms: C_23  and  N_25 
ROOT
HETATM    1  C   UNL     1     -40.494 -49.789  11.379  1.00  0.00     0.269 C 
HETATM    2  O   UNL     1     -39.288 -49.814  11.577  1.00  0.00    -0.266 OA
HETATM    3  N   UNL     1     -41.326 -50.881  11.456  1.00  0.00    -0.354 N 
HETATM    4  H   UNL     1     -42.326 -50.729  11.322  1.00  0.00     0.162 HD
ENDROOT
BRANCH   1   5
HETATM    5  C   UNL     1     -41.182 -48.474  10.993  1.00  0.00     0.116 A 
HETATM    6  N   UNL     1     -42.410 -48.500  10.566  1.00  0.00    -0.290 N 
HETATM    7  N   UNL     1     -42.979 -47.288  10.206  1.00  0.00    -0.255 N 
ATOM      8  HN  UNL     1     -42.932 -49.374  10.500  1.00  0.00     0.187 HD
HETATM    9  C   UNL     1     -42.309 -46.069  10.246  1.00  0.00     0.262 A 
HETATM   10  C   UNL     1     -40.922 -46.105  10.747  1.00  0.00     0.078 A 
HETATM   11  O   UNL     1     -42.783 -44.989   9.904  1.00  0.00    -0.267 OA
HETATM   12  C   UNL     1     -40.364 -47.253  11.133  1.00  0.00     0.042 A 
BRANCH   7  13
HETATM   13  C   UNL     1     -44.389 -47.314   9.818  1.00  0.00     0.178 C 
BRANCH  13  14
HETATM   14  C   UNL     1     -44.618 -47.825   8.396  1.00  0.00     0.189 C 
BRANCH  14  15
HETATM   15  O   UNL     1     -45.980 -48.241   8.255  1.00  0.00    -0.394 OA
HETATM   16  C   UNL     1     -46.848 -47.454   9.062  1.00  0.00     0.201 C 
ENDBRANCH  14  15
ENDBRANCH  13  14
ENDBRANCH   7  13
ENDBRANCH   1   5
BRANCH   3  17
HETATM   17  C   UNL     1     -40.875 -52.190  11.890  1.00  0.00     0.142 C 
BRANCH  17  18
HETATM   18  C   UNL     1     -41.650 -52.768  13.110  1.00  0.00     0.060 C 
HETATM   19  C   UNL     1     -41.344 -51.891  14.352  1.00  0.00     0.047 C 
HETATM   20  C   UNL     1     -39.933 -52.118  14.885  1.00  0.00     0.168 C 
HETATM   21  O   UNL     1     -39.731 -53.500  15.164  1.00  0.00    -0.391 OA
HETATM   22  C   UNL     1     -39.830 -54.313  13.995  1.00  0.00     0.168 C 
HETATM   23  C   UNL     1     -41.236 -54.226  13.413  1.00  0.00     0.047 C 
BRANCH  18  24
HETATM   24  C   UNL     1     -43.158 -52.699  12.814  1.00  0.00     0.226 C 
HETATM   25  O   UNL     1     -43.853 -51.713  13.050  1.00  0.00    -0.273 OA
HETATM   26  N   UNL     1     -43.741 -53.802  12.266  1.00  0.00    -0.369 N 
HETATM   27  H   UNL     1     -43.245 -54.650  12.031  1.00  0.00     0.159 HD
HETATM   28  H   UNL     1     -44.732 -53.757  12.069  1.00  0.00     0.159 HD
ENDBRANCH  18  24
ENDBRANCH  17  18
ENDBRANCH   3  17
TORSDOF 7
ENDMDL
MODEL 3
REMARK VINA RESULT:      -6.4      2.295      7.347
REMARK  7 active torsions:
REMARK  status: ('A' for Active; 'I' for Inactive)
REMARK    1  A    between atoms: O_2  and  C_3 
REMARK    2  A    between atoms: C_3  and  C_4 
REMARK    3  A    between atoms: C_4  and  N_5 
REMARK    4  A    between atoms: C_8  and  C_13 
REMARK       I    between atoms: C_13  and  N_15 
REMARK    5  A    between atoms: N_15  and  C_16 
REMARK    6  A    between atoms: C_16  and  C_17 
REMARK    7  A    between atoms: C_17  and  C_23 
REMARK       I    between atoms: C_23  and  N_25 
ROOT
HETATM    1  C   UNL     1     -43.535 -49.958  13.659  1.00  0.00     0.269 C 
HETATM    2  O   UNL     1     -43.272 -49.434  14.732  1.00  0.00    -0.266 OA
HETATM    3  N   UNL     1     -43.412 -49.345  12.434  1.00  0.00    -0.354 N 
HETATM    4  H   UNL     1     -43.611 -49.901  11.601  1.00  0.00     0.162 HD
ENDROOT
BRANCH   1   5
HETATM    5  C   UNL     1     -44.064 -51.397  13.616  1.00  0.00     0.116 A 
HETATM    6  N   UNL     1     -43.307 -52.366  14.040  1.00  0.00    -0.290 N 
HETATM    7  N   UNL     1     -43.822 -53.651  13.957  1.00  0.00    -0.255 N 
ATOM      8  HN  UNL     1     -42.376 -52.188  14.416  1.00  0.00     0.187 HD
HETATM    9  C   UNL     1     -45.070 -53.958  13.426  1.00  0.00     0.262 A 
HETATM   10  C   UNL     1     -45.884 -52.814  12.971  1.00  0.00     0.078 A 
HETATM   11  O   UNL     1     -45.534 -55.090  13.316  1.00  0.00    -0.267 OA
HETATM   12  C   UNL     1     -45.426 -51.567  13.072  1.00  0.00     0.042 A 
BRANCH   7  13
HETATM   13  C   UNL     1     -43.004 -54.723  14.522  1.00  0.00     0.178 C 
BRANCH  13  14
HETATM   14  C   UNL     1     -41.576 -54.288  14.853  1.00  0.00     0.189 C 
BRANCH  14  15
HETATM   15  O   UNL     1     -40.799 -54.261  13.651  1.00  0.00    -0.394 OA
HETATM   16  C   UNL     1     -39.407 -54.327  13.934  1.00  0.00     0.201 C 
ENDBRANCH  14  15
ENDBRANCH  13  14
ENDBRANCH   7  13
ENDBRANCH   1   5
BRANCH   3  17
HETATM   17  C   UNL     1     -42.849 -48.019  12.266  1.00  0.00     0.142 C 
BRANCH  17  18
HETATM   18  C   UNL     1     -41.752 -47.918  11.167  1.00  0.00     0.060 C 
HETATM   19  C   UNL     1     -40.968 -46.594  11.369  1.00  0.00     0.047 C 
HETATM   20  C   UNL     1     -41.782 -45.374  10.952  1.00  0.00     0.168 C 
HETATM   21  O   UNL     1     -42.223 -45.514   9.605  1.00  0.00    -0.391 OA
HETATM   22  C   UNL     1     -43.097 -46.630   9.431  1.00  0.00     0.168 C 
HETATM   23  C   UNL     1     -42.361 -47.927   9.747  1.00  0.00     0.047 C 
BRANCH  18  24
HETATM   24  C   UNL     1     -40.779 -49.098  11.331  1.00  0.00     0.226 C 
HETATM   25  O   UNL     1     -40.260 -49.409  12.401  1.00  0.00    -0.273 OA
HETATM   26  N   UNL     1     -40.483 -49.827  10.218  1.00  0.00    -0.369 N 
HETATM   27  H   UNL     1     -40.872 -49.649   9.302  1.00  0.00     0.159 HD
HETATM   28  H   UNL     1     -39.846 -50.605  10.325  1.00  0.00     0.159 HD
ENDBRANCH  18  24
ENDBRANCH  17  18
ENDBRANCH   3  17
TORSDOF 7
ENDMDL
MODEL 4
REMARK VINA RESULT:      -6.4      2.196      2.888
REMARK  7 active torsions:
REMARK  status: ('A' for Active; 'I' for Inactive)
REMARK    1  A    between atoms: O_2  and  C_3 
REMARK    2  A    between atoms: C_3  and  C_4 
REMARK    3  A    between atoms: C_4  and  N_5 
REMARK    4  A    between atoms: C_8  and  C_13 
REMARK       I    between atoms: C_13  and  N_15 
REMARK    5  A    between atoms: N_15  and  C_16 
REMARK    6  A    between atoms: C_16  and  C_17 
REMARK    7  A    between atoms: C_17  and  C_23 
REMARK       I    between atoms: C_23  and  N_25 
ROOT
HETATM    1  C   UNL     1     -42.915 -50.303  12.881  1.00  0.00     0.269 C 
HETATM    2  O   UNL     1     -42.092 -51.140  12.536  1.00  0.00    -0.266 OA
HETATM    3  N   UNL     1     -43.952 -50.535  13.754  1.00  0.00    -0.354 N 
HETATM    4  H   UNL     1     -44.546 -49.745  14.008  1.00  0.00     0.162 HD
ENDROOT
BRANCH   1   5
HETATM    5  C   UNL     1     -42.847 -48.880  12.314  1.00  0.00     0.116 A 
HETATM    6  N   UNL     1     -42.994 -48.698  11.035  1.00  0.00    -0.290 N 
HETATM    7  N   UNL     1     -42.900 -47.395  10.569  1.00  0.00    -0.255 N 
ATOM      8  HN  UNL     1     -43.170 -49.478  10.403  1.00  0.00     0.187 HD
HETATM    9  C   UNL     1     -42.631 -46.295  11.377  1.00  0.00     0.262 A 
HETATM   10  C   UNL     1     -42.484 -46.567  12.820  1.00  0.00     0.078 A 
HETATM   11  O   UNL     1     -42.515 -45.138  10.982  1.00  0.00    -0.267 OA
HETATM   12  C   UNL     1     -42.605 -47.806  13.297  1.00  0.00     0.042 A 
BRANCH   7  13
HETATM   13  C   UNL     1     -43.160 -47.187   9.145  1.00  0.00     0.178 C 
BRANCH  13  14
HETATM   14  C   UNL     1     -44.609 -46.807   8.842  1.00  0.00     0.189 C 
BRANCH  14  15
HETATM   15  O   UNL     1     -45.486 -47.600   9.650  1.00  0.00    -0.394 OA
HETATM   16  C   UNL     1     -46.478 -48.243   8.860  1.00  0.00     0.201 C 
ENDBRANCH  14  15
ENDBRANCH  13  14
ENDBRANCH   7  13
ENDBRANCH   1   5
BRANCH   3  17
HETATM   17  C   UNL     1     -44.130 -51.792  14.457  1.00  0.00     0.142 C 
BRANCH  17  18
HETATM   18  C   UNL     1     -45.497 -52.489  14.199  1.00  0.00     0.060 C 
HETATM   19  C   UNL     1     -46.632 -51.465  14.465  1.00  0.00     0.047 C 
HETATM   20  C   UNL     1     -46.824 -51.190  15.952  1.00  0.00     0.168 C 
HETATM   21  O   UNL     1     -47.053 -52.409  16.651  1.00  0.00    -0.391 OA
HETATM   22  C   UNL     1     -45.941 -53.301  16.571  1.00  0.00     0.168 C 
HETATM   23  C   UNL     1     -45.700 -53.711  15.123  1.00  0.00     0.047 C 
BRANCH  18  24
HETATM   24  C   UNL     1     -45.558 -52.925  12.726  1.00  0.00     0.226 C 
HETATM   25  O   UNL     1     -44.803 -53.759  12.231  1.00  0.00    -0.273 OA
HETATM   26  N   UNL     1     -46.504 -52.340  11.937  1.00  0.00    -0.369 N 
HETATM   27  H   UNL     1     -47.171 -51.654  12.263  1.00  0.00     0.159 HD
HETATM   28  H   UNL     1     -46.548 -52.628  10.969  1.00  0.00     0.159 HD
ENDBRANCH  18  24
ENDBRANCH  17  18
ENDBRANCH   3  17
TORSDOF 7
ENDMDL
MODEL 5
REMARK VINA RESULT:      -6.3      2.198      3.324
REMARK  7 active torsions:
REMARK  status: ('A' for Active; 'I' for Inactive)
REMARK    1  A    between atoms: O_2  and  C_3 
REMARK    2  A    between atoms: C_3  and  C_4 
REMARK    3  A    between atoms: C_4  and  N_5 
REMARK    4  A    between atoms: C_8  and  C_13 
REMARK       I    between atoms: C_13  and  N_15 
REMARK    5  A    between atoms: N_15  and  C_16 
REMARK    6  A    between atoms: C_16  and  C_17 
REMARK    7  A    between atoms: C_17  and  C_23 
REMARK       I    between atoms: C_23  and  N_25 
ROOT
HETATM    1  C   UNL     1     -41.429 -51.788  12.095  1.00  0.00     0.269 C 
HETATM    2  O   UNL     1     -40.496 -52.577  12.144  1.00  0.00    -0.266 OA
HETATM    3  N   UNL     1     -42.754 -52.127  12.239  1.00  0.00    -0.354 N 
HETATM    4  H   UNL     1     -43.442 -51.374  12.232  1.00  0.00     0.162 HD
ENDROOT
BRANCH   1   5
HETATM    5  C   UNL     1     -41.164 -50.300  11.835  1.00  0.00     0.116 A 
HETATM    6  N   UNL     1     -42.159 -49.520  11.534  1.00  0.00    -0.290 N 
HETATM    7  N   UNL     1     -41.864 -48.188  11.284  1.00  0.00    -0.255 N 
ATOM      8  HN  UNL     1     -43.115 -49.872  11.484  1.00  0.00     0.187 HD
HETATM    9  C   UNL     1     -40.579 -47.657  11.308  1.00  0.00     0.262 A 
HETATM   10  C   UNL     1     -39.494 -48.591  11.664  1.00  0.00     0.078 A 
HETATM   11  O   UNL     1     -40.291 -46.488  11.061  1.00  0.00    -0.267 OA
HETATM   12  C   UNL     1     -39.756 -49.868  11.943  1.00  0.00     0.042 A 
BRANCH   7  13
HETATM   13  C   UNL     1     -42.999 -47.299  11.041  1.00  0.00     0.178 C 
BRANCH  13  14
HETATM   14  C   UNL     1     -43.702 -47.563   9.709  1.00  0.00     0.189 C 
BRANCH  14  15
HETATM   15  O   UNL     1     -45.118 -47.597   9.920  1.00  0.00    -0.394 OA
HETATM   16  C   UNL     1     -45.809 -47.959   8.731  1.00  0.00     0.201 C 
ENDBRANCH  14  15
ENDBRANCH  13  14
ENDBRANCH   7  13
ENDBRANCH   1   5
BRANCH   3  17
HETATM   17  C   UNL     1     -43.196 -53.468  12.575  1.00  0.00     0.142 C 
BRANCH  17  18
HETATM   18  C   UNL     1     -44.241 -53.534  13.725  1.00  0.00     0.060 C 
HETATM   19  C   UNL     1     -43.891 -52.447  14.776  1.00  0.00     0.047 C 
HETATM   20  C   UNL     1     -42.662 -52.817  15.599  1.00  0.00     0.168 C 
HETATM   21  O   UNL     1     -42.847 -54.089  16.213  1.00  0.00    -0.391 OA
HETATM   22  C   UNL     1     -42.992 -55.139  15.257  1.00  0.00     0.168 C 
HETATM   23  C   UNL     1     -44.245 -54.916  14.418  1.00  0.00     0.047 C 
BRANCH  18  24
HETATM   24  C   UNL     1     -45.633 -53.231  13.145  1.00  0.00     0.226 C 
HETATM   25  O   UNL     1     -45.822 -52.851  11.992  1.00  0.00    -0.273 OA
HETATM   26  N   UNL     1     -46.706 -53.394  13.970  1.00  0.00    -0.369 N 
HETATM   27  H   UNL     1     -46.643 -53.713  14.927  1.00  0.00     0.159 HD
HETATM   28  H   UNL     1     -47.622 -53.198  13.589  1.00  0.00     0.159 HD
ENDBRANCH  18  24
ENDBRANCH  17  18
ENDBRANCH   3  17
TORSDOF 7
ENDMDL
MODEL 6
REMARK VINA RESULT:      -6.3      1.775      2.530
REMARK  7 active torsions:
REMARK  status: ('A' for Active; 'I' for Inactive)
REMARK    1  A    between atoms: O_2  and  C_3 
REMARK    2  A    between atoms: C_3  and  C_4 
REMARK    3  A    between atoms: C_4  and  N_5 
REMARK    4  A    between atoms: C_8  and  C_13 
REMARK       I    between atoms: C_13  and  N_15 
REMARK    5  A    between atoms: N_15  and  C_16 
REMARK    6  A    between atoms: C_16  and  C_17 
REMARK    7  A    between atoms: C_17  and  C_23 
REMARK       I    between atoms: C_23  and  N_25 
ROOT
HETATM    1  C   UNL     1     -41.160 -50.304  11.817  1.00  0.00     0.269 C 
HETATM    2  O   UNL     1     -40.070 -50.825  12.005  1.00  0.00    -0.266 OA
HETATM    3  N   UNL     1     -42.371 -50.927  12.004  1.00  0.00    -0.354 N 
HETATM    4  H   UNL     1     -43.218 -50.374  11.865  1.00  0.00     0.162 HD
ENDROOT
BRANCH   1   5
HETATM    5  C   UNL     1     -41.243 -48.857  11.314  1.00  0.00     0.116 A 
HETATM    6  N   UNL     1     -42.265 -48.492  10.597  1.00  0.00    -0.290 N 
HETATM    7  N   UNL     1     -42.282 -47.181  10.145  1.00  0.00    -0.255 N 
ATOM      8  HN  UNL     1     -43.020 -49.140  10.378  1.00  0.00     0.187 HD
HETATM    9  C   UNL     1     -41.268 -46.260  10.387  1.00  0.00     0.262 A 
HETATM   10  C   UNL     1     -40.140 -46.734  11.213  1.00  0.00     0.078 A 
HETATM   11  O   UNL     1     -41.248 -45.103   9.973  1.00  0.00    -0.267 OA
HETATM   12  C   UNL     1     -40.117 -47.978  11.689  1.00  0.00     0.042 A 
BRANCH   7  13
HETATM   13  C   UNL     1     -43.478 -46.751   9.422  1.00  0.00     0.178 C 
BRANCH  13  14
HETATM   14  C   UNL     1     -43.826 -47.650   8.237  1.00  0.00     0.189 C 
BRANCH  14  15
HETATM   15  O   UNL     1     -45.180 -48.098   8.363  1.00  0.00    -0.394 OA
HETATM   16  C   UNL     1     -45.969 -47.163   9.088  1.00  0.00     0.201 C 
ENDBRANCH  14  15
ENDBRANCH  13  14
ENDBRANCH   7  13
ENDBRANCH   1   5
BRANCH   3  17
HETATM   17  C   UNL     1     -42.497 -52.263  12.557  1.00  0.00     0.142 C 
BRANCH  17  18
HETATM   18  C   UNL     1     -43.403 -52.357  13.819  1.00  0.00     0.060 C 
HETATM   19  C   UNL     1     -43.681 -53.854  14.118  1.00  0.00     0.047 C 
HETATM   20  C   UNL     1     -44.659 -54.469  13.123  1.00  0.00     0.168 C 
HETATM   21  O   UNL     1     -45.867 -53.714  13.091  1.00  0.00    -0.391 OA
HETATM   22  C   UNL     1     -45.661 -52.374  12.643  1.00  0.00     0.168 C 
HETATM   23  C   UNL     1     -44.751 -51.630  13.612  1.00  0.00     0.047 C 
BRANCH  18  24
HETATM   24  C   UNL     1     -42.651 -51.745  15.012  1.00  0.00     0.226 C 
HETATM   25  O   UNL     1     -41.442 -51.518  15.012  1.00  0.00    -0.273 OA
HETATM   26  N   UNL     1     -43.378 -51.448  16.127  1.00  0.00    -0.369 N 
HETATM   27  H   UNL     1     -44.374 -51.592  16.210  1.00  0.00     0.159 HD
HETATM   28  H   UNL     1     -42.884 -51.043  16.912  1.00  0.00     0.159 HD
ENDBRANCH  18  24
ENDBRANCH  17  18
ENDBRANCH   3  17
TORSDOF 7
ENDMDL
MODEL 7
REMARK VINA RESULT:      -6.3      2.122      6.898
REMARK  7 active torsions:
REMARK  status: ('A' for Active; 'I' for Inactive)
REMARK    1  A    between atoms: O_2  and  C_3 
REMARK    2  A    between atoms: C_3  and  C_4 
REMARK    3  A    between atoms: C_4  and  N_5 
REMARK    4  A    between atoms: C_8  and  C_13 
REMARK       I    between atoms: C_13  and  N_15 
REMARK    5  A    between atoms: N_15  and  C_16 
REMARK    6  A    between atoms: C_16  and  C_17 
REMARK    7  A    between atoms: C_17  and  C_23 
REMARK       I    between atoms: C_23  and  N_25 
ROOT
HETATM    1  C   UNL     1     -41.497 -51.262  12.168  1.00  0.00     0.269 C 
HETATM    2  O   UNL     1     -40.301 -51.516  12.128  1.00  0.00    -0.266 OA
HETATM    3  N   UNL     1     -42.060 -50.070  11.776  1.00  0.00    -0.354 N 
HETATM    4  H   UNL     1     -43.077 -49.991  11.805  1.00  0.00     0.162 HD
ENDROOT
BRANCH   1   5
HETATM    5  C   UNL     1     -42.486 -52.304  12.705  1.00  0.00     0.116 A 
HETATM    6  N   UNL     1     -43.763 -52.078  12.604  1.00  0.00    -0.290 N 
HETATM    7  N   UNL     1     -44.615 -53.039  13.127  1.00  0.00    -0.255 N 
ATOM      8  HN  UNL     1     -44.121 -51.233  12.160  1.00  0.00     0.187 HD
HETATM    9  C   UNL     1     -44.187 -54.196  13.770  1.00  0.00     0.262 A 
HETATM   10  C   UNL     1     -42.727 -54.397  13.844  1.00  0.00     0.078 A 
HETATM   11  O   UNL     1     -44.923 -55.045  14.266  1.00  0.00    -0.267 OA
HETATM   12  C   UNL     1     -41.887 -53.506  13.318  1.00  0.00     0.042 A 
BRANCH   7  13
HETATM   13  C   UNL     1     -46.048 -52.825  12.925  1.00  0.00     0.178 C 
BRANCH  13  14
HETATM   14  C   UNL     1     -46.578 -51.573  13.624  1.00  0.00     0.189 C 
BRANCH  14  15
HETATM   15  O   UNL     1     -45.640 -51.152  14.620  1.00  0.00    -0.394 OA
HETATM   16  C   UNL     1     -46.203 -51.223  15.924  1.00  0.00     0.201 C 
ENDBRANCH  14  15
ENDBRANCH  13  14
ENDBRANCH   7  13
ENDBRANCH   1   5
BRANCH   3  17
HETATM   17  C   UNL     1     -41.298 -48.998  11.163  1.00  0.00     0.142 C 
BRANCH  17  18
HETATM   18  C   UNL     1     -42.042 -47.632  11.100  1.00  0.00     0.060 C 
HETATM   19  C   UNL     1     -41.033 -46.539  10.659  1.00  0.00     0.047 C 
HETATM   20  C   UNL     1     -40.050 -46.181  11.769  1.00  0.00     0.168 C 
HETATM   21  O   UNL     1     -40.756 -45.792  12.943  1.00  0.00    -0.391 OA
HETATM   22  C   UNL     1     -41.558 -46.847  13.472  1.00  0.00     0.168 C 
HETATM   23  C   UNL     1     -42.637 -47.240  12.471  1.00  0.00     0.047 C 
BRANCH  18  24
HETATM   24  C   UNL     1     -43.159 -47.727  10.047  1.00  0.00     0.226 C 
HETATM   25  O   UNL     1     -44.346 -47.523  10.294  1.00  0.00    -0.273 OA
HETATM   26  N   UNL     1     -42.797 -48.063   8.776  1.00  0.00    -0.369 N 
HETATM   27  H   UNL     1     -41.846 -48.237   8.484  1.00  0.00     0.159 HD
HETATM   28  H   UNL     1     -43.531 -48.123   8.083  1.00  0.00     0.159 HD
ENDBRANCH  18  24
ENDBRANCH  17  18
ENDBRANCH   3  17
TORSDOF 7
ENDMDL
MODEL 8
REMARK VINA RESULT:      -6.2      0.988      2.259
REMARK  7 active torsions:
REMARK  status: ('A' for Active; 'I' for Inactive)
REMARK    1  A    between atoms: O_2  and  C_3 
REMARK    2  A    between atoms: C_3  and  C_4 
REMARK    3  A    between atoms: C_4  and  N_5 
REMARK    4  A    between atoms: C_8  and  C_13 
REMARK       I    between atoms: C_13  and  N_15 
REMARK    5  A    between atoms: N_15  and  C_16 
REMARK    6  A    between atoms: C_16  and  C_17 
REMARK    7  A    between atoms: C_17  and  C_23 
REMARK       I    between atoms: C_23  and  N_25 
ROOT
HETATM    1  C   UNL     1     -43.025 -48.997  13.102  1.00  0.00     0.269 C 
HETATM    2  O   UNL     1     -42.773 -48.634  14.242  1.00  0.00    -0.266 OA
HETATM    3  N   UNL     1     -43.236 -50.301  12.721  1.00  0.00    -0.354 N 
HETATM    4  H   UNL     1     -43.491 -50.479  11.748  1.00  0.00     0.162 HD
ENDROOT
BRANCH   1   5
HETATM    5  C   UNL     1     -43.102 -47.968  11.967  1.00  0.00     0.116 A 
HETATM    6  N   UNL     1     -43.870 -48.205  10.945  1.00  0.00    -0.290 N 
HETATM    7  N   UNL     1     -43.886 -47.255   9.935  1.00  0.00    -0.255 N 
ATOM      8  HN  UNL     1     -44.435 -49.051  10.889  1.00  0.00     0.187 HD
HETATM    9  C   UNL     1     -43.115 -46.097   9.940  1.00  0.00     0.262 A 
HETATM   10  C   UNL     1     -42.272 -45.882  11.132  1.00  0.00     0.078 A 
HETATM   11  O   UNL     1     -43.092 -45.258   9.044  1.00  0.00    -0.267 OA
HETATM   12  C   UNL     1     -42.265 -46.763  12.133  1.00  0.00     0.042 A 
BRANCH   7  13
HETATM   13  C   UNL     1     -44.822 -47.482   8.835  1.00  0.00     0.178 C 
BRANCH  13  14
HETATM   14  C   UNL     1     -46.230 -46.957   9.118  1.00  0.00     0.189 C 
BRANCH  14  15
HETATM   15  O   UNL     1     -47.194 -47.883   8.604  1.00  0.00    -0.394 OA
HETATM   16  C   UNL     1     -46.563 -48.979   7.953  1.00  0.00     0.201 C 
ENDBRANCH  14  15
ENDBRANCH  13  14
ENDBRANCH   7  13
ENDBRANCH   1   5
BRANCH   3  17
HETATM   17  C   UNL     1     -43.288 -51.403  13.664  1.00  0.00     0.142 C 
BRANCH  17  18
HETATM   18  C   UNL     1     -43.061 -52.806  13.030  1.00  0.00     0.060 C 
HETATM   19  C   UNL     1     -42.425 -53.735  14.099  1.00  0.00     0.047 C 
HETATM   20  C   UNL     1     -40.962 -53.393  14.362  1.00  0.00     0.168 C 
HETATM   21  O   UNL     1     -40.224 -53.423  13.144  1.00  0.00    -0.391 OA
HETATM   22  C   UNL     1     -40.679 -52.448  12.207  1.00  0.00     0.168 C 
HETATM   23  C   UNL     1     -42.120 -52.736  11.806  1.00  0.00     0.047 C 
BRANCH  18  24
HETATM   24  C   UNL     1     -44.423 -53.388  12.617  1.00  0.00     0.226 C 
HETATM   25  O   UNL     1     -44.708 -54.581  12.703  1.00  0.00    -0.273 OA
HETATM   26  N   UNL     1     -45.352 -52.521  12.125  1.00  0.00    -0.369 N 
HETATM   27  H   UNL     1     -45.207 -51.526  12.030  1.00  0.00     0.159 HD
HETATM   28  H   UNL     1     -46.250 -52.902  11.855  1.00  0.00     0.159 HD
ENDBRANCH  18  24
ENDBRANCH  17  18
ENDBRANCH   3  17
TORSDOF 7
ENDMDL
MODEL 9
REMARK VINA RESULT:      -6.0      2.574      6.943
REMARK  7 active torsions:
REMARK  status: ('A' for Active; 'I' for Inactive)
REMARK    1  A    between atoms: O_2  and  C_3 
REMARK    2  A    between atoms: C_3  and  C_4 
REMARK    3  A    between atoms: C_4  and  N_5 
REMARK    4  A    between atoms: C_8  and  C_13 
REMARK       I    between atoms: C_13  and  N_15 
REMARK    5  A    between atoms: N_15  and  C_16 
REMARK    6  A    between atoms: C_16  and  C_17 
REMARK    7  A    between atoms: C_17  and  C_23 
REMARK       I    between atoms: C_23  and  N_25 
ROOT
HETATM    1  C   UNL     1     -41.444 -50.959  12.091  1.00  0.00     0.269 C 
HETATM    2  O   UNL     1     -40.237 -51.151  12.142  1.00  0.00    -0.266 OA
HETATM    3  N   UNL     1     -42.036 -49.784  11.690  1.00  0.00    -0.354 N 
HETATM    4  H   UNL     1     -43.055 -49.757  11.638  1.00  0.00     0.162 HD
ENDROOT
BRANCH   1   5
HETATM    5  C   UNL     1     -42.417 -52.067  12.512  1.00  0.00     0.116 A 
HETATM    6  N   UNL     1     -43.697 -51.862  12.407  1.00  0.00    -0.290 N 
HETATM    7  N   UNL     1     -44.535 -52.885  12.824  1.00  0.00    -0.255 N 
ATOM      8  HN  UNL     1     -44.067 -50.989  12.034  1.00  0.00     0.187 HD
HETATM    9  C   UNL     1     -44.090 -54.085  13.368  1.00  0.00     0.262 A 
HETATM   10  C   UNL     1     -42.627 -54.259  13.453  1.00  0.00     0.078 A 
HETATM   11  O   UNL     1     -44.814 -54.992  13.771  1.00  0.00    -0.267 OA
HETATM   12  C   UNL     1     -41.799 -53.306  13.026  1.00  0.00     0.042 A 
BRANCH   7  13
HETATM   13  C   UNL     1     -45.968 -52.686  12.614  1.00  0.00     0.178 C 
BRANCH  13  14
HETATM   14  C   UNL     1     -46.543 -51.519  13.417  1.00  0.00     0.189 C 
BRANCH  14  15
HETATM   15  O   UNL     1     -45.599 -51.122  14.419  1.00  0.00    -0.394 OA
HETATM   16  C   UNL     1     -46.118 -51.324  15.727  1.00  0.00     0.201 C 
ENDBRANCH  14  15
ENDBRANCH  13  14
ENDBRANCH   7  13
ENDBRANCH   1   5
BRANCH   3  17
HETATM   17  C   UNL     1     -41.284 -48.654  11.176  1.00  0.00     0.142 C 
BRANCH  17  18
HETATM   18  C   UNL     1     -41.495 -47.327  11.961  1.00  0.00     0.060 C 
HETATM   19  C   UNL     1     -42.722 -46.588  11.364  1.00  0.00     0.047 C 
HETATM   20  C   UNL     1     -42.418 -45.971  10.004  1.00  0.00     0.168 C 
HETATM   21  O   UNL     1     -41.290 -45.107  10.098  1.00  0.00    -0.391 OA
HETATM   22  C   UNL     1     -40.101 -45.803  10.473  1.00  0.00     0.168 C 
HETATM   23  C   UNL     1     -40.260 -46.403  11.865  1.00  0.00     0.047 C 
BRANCH  18  24
HETATM   24  C   UNL     1     -41.788 -47.665  13.432  1.00  0.00     0.226 C 
HETATM   25  O   UNL     1     -42.917 -47.875  13.871  1.00  0.00    -0.273 OA
HETATM   26  N   UNL     1     -40.727 -47.728  14.285  1.00  0.00    -0.369 N 
HETATM   27  H   UNL     1     -39.766 -47.580  14.008  1.00  0.00     0.159 HD
HETATM   28  H   UNL     1     -40.918 -47.952  15.252  1.00  0.00     0.159 HD
ENDBRANCH  18  24
ENDBRANCH  17  18
ENDBRANCH   3  17
TORSDOF 7
ENDMDL
