MODEL 1
REMARK VINA RESULT:      -6.2      0.000      0.000
REMARK  4 active torsions:
REMARK  status: ('A' for Active; 'I' for Inactive)
REMARK    1  A    between atoms: C_2  and  N_3 
REMARK    2  A    between atoms: C_8  and  N_9 
REMARK       I    between atoms: N_9  and  C_10 
REMARK       I    between atoms: C_10  and  N_12 
REMARK    3  A    between atoms: N_12  and  C_13 
REMARK    4  A    between atoms: C_13  and  C_15 
ROOT
HETATM    1  N   UNL     1     -42.140 -51.178  11.903  1.00  0.00    -0.305 N 
HETATM    2  C   UNL     1     -43.159 -51.196  12.835  1.00  0.00     0.321 C 
HETATM    3  O   UNL     1     -43.238 -50.514  13.845  1.00  0.00    -0.247 OA
HETATM    4  N   UNL     1     -44.115 -52.151  12.533  1.00  0.00    -0.338 N 
HETATM    5  H   UNL     1     -42.070 -51.985  11.306  1.00  0.00     0.171 HD
HETATM    6  H   UNL     1     -44.230 -52.335  11.547  1.00  0.00     0.164 HD
ENDROOT
BRANCH   1   7
HETATM    7  C   UNL     1     -41.055 -50.301  11.888  1.00  0.00     0.084 A 
HETATM    8  C   UNL     1     -40.850 -49.040  11.252  1.00  0.00     0.051 A 
HETATM    9  N   UNL     1     -39.635 -48.544  11.518  1.00  0.00    -0.301 N 
HETATM   10  C   UNL     1     -41.732 -48.253  10.357  1.00  0.00     0.072 C 
HETATM   11  N   UNL     1     -39.055 -49.468  12.287  1.00  0.00    -0.295 N 
ATOM     12  HN  UNL     1     -39.240 -47.658  11.204  1.00  0.00     0.187 HD
HETATM   13  C   UNL     1     -39.853 -50.559  12.538  1.00  0.00     0.053 A 
HETATM   14  C   UNL     1     -39.382 -51.696  13.372  1.00  0.00     0.072 C 
BRANCH  11  15
HETATM   15  C   UNL     1     -37.693 -49.220  12.743  1.00  0.00     0.144 C 
HETATM   16  C   UNL     1     -37.639 -48.393  14.016  1.00  0.00     0.028 C 
ENDBRANCH  11  15
ENDBRANCH   1   7
BRANCH   4  17
HETATM   17  C   UNL     1     -45.291 -52.389  13.400  1.00  0.00     0.086 C 
HETATM   18  C   UNL     1     -46.525 -51.832  12.677  1.00  0.00     0.032 C 
BRANCH  17  19
HETATM   19  C   UNL     1     -45.463 -53.910  13.730  1.00  0.00     0.012 C 
HETATM   20  C   UNL     1     -46.471 -54.220  14.863  1.00  0.00     0.033 C 
HETATM   21  C   UNL     1     -45.906 -54.002  16.266  1.00  0.00     0.168 C 
HETATM   22  O   UNL     1     -44.663 -54.676  16.442  1.00  0.00    -0.391 OA
HETATM   23  C   UNL     1     -43.683 -54.245  15.497  1.00  0.00     0.168 C 
HETATM   24  C   UNL     1     -44.142 -54.616  14.092  1.00  0.00     0.033 C 
ENDBRANCH  17  19
ENDBRANCH   4  17
TORSDOF 4
ENDMDL
MODEL 2
REMARK VINA RESULT:      -6.2      1.860      3.127
REMARK  4 active torsions:
REMARK  status: ('A' for Active; 'I' for Inactive)
REMARK    1  A    between atoms: C_2  and  N_3 
REMARK    2  A    between atoms: C_8  and  N_9 
REMARK       I    between atoms: N_9  and  C_10 
REMARK       I    between atoms: C_10  and  N_12 
REMARK    3  A    between atoms: N_12  and  C_13 
REMARK    4  A    between atoms: C_13  and  C_15 
ROOT
HETATM    1  N   UNL     1     -41.532 -50.377  11.367  1.00  0.00    -0.305 N 
HETATM    2  C   UNL     1     -42.257 -50.856  12.441  1.00  0.00     0.321 C 
HETATM    3  O   UNL     1     -42.437 -50.293  13.510  1.00  0.00    -0.247 OA
HETATM    4  N   UNL     1     -42.748 -52.128  12.203  1.00  0.00    -0.338 N 
HETATM    5  H   UNL     1     -41.231 -51.063  10.694  1.00  0.00     0.171 HD
HETATM    6  H   UNL     1     -42.949 -52.329  11.235  1.00  0.00     0.164 HD
ENDROOT
BRANCH   1   7
HETATM    7  C   UNL     1     -40.950 -49.113  11.265  1.00  0.00     0.084 A 
HETATM    8  C   UNL     1     -39.649 -48.627  11.596  1.00  0.00     0.051 A 
HETATM    9  N   UNL     1     -39.525 -47.322  11.324  1.00  0.00    -0.301 N 
HETATM   10  C   UNL     1     -38.483 -49.317  12.199  1.00  0.00     0.072 C 
HETATM   11  N   UNL     1     -40.720 -46.962  10.851  1.00  0.00    -0.295 N 
ATOM     12  HN  UNL     1     -38.702 -46.734  11.451  1.00  0.00     0.187 HD
HETATM   13  C   UNL     1     -41.628 -47.993  10.801  1.00  0.00     0.053 A 
HETATM   14  C   UNL     1     -43.015 -47.787  10.305  1.00  0.00     0.072 C 
BRANCH  11  15
HETATM   15  C   UNL     1     -40.911 -45.569  10.467  1.00  0.00     0.144 C 
HETATM   16  C   UNL     1     -39.606 -44.862  10.143  1.00  0.00     0.028 C 
ENDBRANCH  11  15
ENDBRANCH   1   7
BRANCH   4  17
HETATM   17  C   UNL     1     -43.529 -52.872  13.218  1.00  0.00     0.086 C 
HETATM   18  C   UNL     1     -44.949 -53.063  12.665  1.00  0.00     0.032 C 
BRANCH  17  19
HETATM   19  C   UNL     1     -42.863 -54.246  13.562  1.00  0.00     0.012 C 
HETATM   20  C   UNL     1     -43.474 -54.977  14.783  1.00  0.00     0.033 C 
HETATM   21  C   UNL     1     -42.995 -54.433  16.127  1.00  0.00     0.168 C 
HETATM   22  O   UNL     1     -41.573 -54.361  16.189  1.00  0.00    -0.391 OA
HETATM   23  C   UNL     1     -41.035 -53.532  15.158  1.00  0.00     0.168 C 
HETATM   24  C   UNL     1     -41.344 -54.152  13.802  1.00  0.00     0.033 C 
ENDBRANCH  17  19
ENDBRANCH   4  17
TORSDOF 4
ENDMDL
MODEL 3
REMARK VINA RESULT:      -6.1      2.423      3.491
REMARK  4 active torsions:
REMARK  status: ('A' for Active; 'I' for Inactive)
REMARK    1  A    between atoms: C_2  and  N_3 
REMARK    2  A    between atoms: C_8  and  N_9 
REMARK       I    between atoms: N_9  and  C_10 
REMARK       I    between atoms: C_10  and  N_12 
REMARK    3  A    between atoms: N_12  and  C_13 
REMARK    4  A    between atoms: C_13  and  C_15 
ROOT
HETATM    1  N   UNL     1     -41.832 -49.591  10.996  1.00  0.00    -0.305 N 
HETATM    2  C   UNL     1     -42.291 -50.107  12.192  1.00  0.00     0.321 C 
HETATM    3  O   UNL     1     -42.540 -49.481  13.211  1.00  0.00    -0.247 OA
HETATM    4  N   UNL     1     -42.402 -51.486  12.148  1.00  0.00    -0.338 N 
HETATM    5  H   UNL     1     -41.400 -50.247  10.367  1.00  0.00     0.171 HD
HETATM    6  H   UNL     1     -42.615 -51.863  11.236  1.00  0.00     0.164 HD
ENDROOT
BRANCH   1   7
HETATM    7  C   UNL     1     -41.660 -48.239  10.695  1.00  0.00     0.084 A 
HETATM    8  C   UNL     1     -42.414 -47.334   9.888  1.00  0.00     0.051 A 
HETATM    9  N   UNL     1     -41.873 -46.108   9.886  1.00  0.00    -0.301 N 
HETATM   10  C   UNL     1     -43.629 -47.550   9.067  1.00  0.00     0.072 C 
HETATM   11  N   UNL     1     -40.785 -46.218  10.650  1.00  0.00    -0.295 N 
ATOM     12  HN  UNL     1     -42.217 -45.276   9.407  1.00  0.00     0.187 HD
HETATM   13  C   UNL     1     -40.593 -47.481  11.159  1.00  0.00     0.053 A 
HETATM   14  C   UNL     1     -39.432 -47.802  12.032  1.00  0.00     0.072 C 
BRANCH  11  15
HETATM   15  C   UNL     1     -39.960 -45.032  10.838  1.00  0.00     0.144 C 
HETATM   16  C   UNL     1     -39.111 -44.704   9.622  1.00  0.00     0.028 C 
ENDBRANCH  11  15
ENDBRANCH   1   7
BRANCH   4  17
HETATM   17  C   UNL     1     -42.842 -52.278  13.319  1.00  0.00     0.086 C 
HETATM   18  C   UNL     1     -44.370 -52.167  13.411  1.00  0.00     0.032 C 
BRANCH  17  19
HETATM   19  C   UNL     1     -42.384 -53.771  13.207  1.00  0.00     0.012 C 
HETATM   20  C   UNL     1     -42.629 -54.623  14.477  1.00  0.00     0.033 C 
HETATM   21  C   UNL     1     -41.586 -54.408  15.572  1.00  0.00     0.168 C 
HETATM   22  O   UNL     1     -40.260 -54.548  15.069  1.00  0.00    -0.391 OA
HETATM   23  C   UNL     1     -39.990 -53.625  14.012  1.00  0.00     0.168 C 
HETATM   24  C   UNL     1     -40.900 -53.935  12.830  1.00  0.00     0.033 C 
ENDBRANCH  17  19
ENDBRANCH   4  17
TORSDOF 4
ENDMDL
MODEL 4
REMARK VINA RESULT:      -5.6      1.123      2.334
REMARK  4 active torsions:
REMARK  status: ('A' for Active; 'I' for Inactive)
REMARK    1  A    between atoms: C_2  and  N_3 
REMARK    2  A    between atoms: C_8  and  N_9 
REMARK       I    between atoms: N_9  and  C_10 
REMARK       I    between atoms: C_10  and  N_12 
REMARK    3  A    between atoms: N_12  and  C_13 
REMARK    4  A    between atoms: C_13  and  C_15 
ROOT
HETATM    1  N   UNL     1     -42.153 -52.265  12.378  1.00  0.00    -0.305 N 
HETATM    2  C   UNL     1     -43.267 -51.907  13.113  1.00  0.00     0.321 C 
HETATM    3  O   UNL     1     -43.287 -51.218  14.121  1.00  0.00    -0.247 OA
HETATM    4  N   UNL     1     -44.422 -52.474  12.603  1.00  0.00    -0.338 N 
HETATM    5  H   UNL     1     -42.260 -53.059  11.769  1.00  0.00     0.171 HD
HETATM    6  H   UNL     1     -44.413 -52.628  11.605  1.00  0.00     0.164 HD
ENDROOT
BRANCH   1   7
HETATM    7  C   UNL     1     -40.848 -51.823  12.595  1.00  0.00     0.084 A 
HETATM    8  C   UNL     1     -39.784 -52.334  13.400  1.00  0.00     0.051 A 
HETATM    9  N   UNL     1     -38.684 -51.577  13.302  1.00  0.00    -0.301 N 
HETATM   10  C   UNL     1     -39.734 -53.505  14.308  1.00  0.00     0.072 C 
HETATM   11  N   UNL     1     -39.028 -50.587  12.476  1.00  0.00    -0.295 N 
ATOM     12  HN  UNL     1     -37.784 -51.724  13.758  1.00  0.00     0.187 HD
HETATM   13  C   UNL     1     -40.324 -50.670  12.023  1.00  0.00     0.053 A 
HETATM   14  C   UNL     1     -40.893 -49.657  11.096  1.00  0.00     0.072 C 
BRANCH  11  15
HETATM   15  C   UNL     1     -38.028 -49.572  12.172  1.00  0.00     0.144 C 
HETATM   16  C   UNL     1     -37.190 -49.915  10.952  1.00  0.00     0.028 C 
ENDBRANCH  11  15
ENDBRANCH   1   7
BRANCH   4  17
HETATM   17  C   UNL     1     -45.745 -52.268  13.236  1.00  0.00     0.086 C 
HETATM   18  C   UNL     1     -46.701 -51.738  12.158  1.00  0.00     0.032 C 
BRANCH  17  19
HETATM   19  C   UNL     1     -46.287 -53.589  13.878  1.00  0.00     0.012 C 
HETATM   20  C   UNL     1     -46.596 -53.498  15.392  1.00  0.00     0.033 C 
HETATM   21  C   UNL     1     -45.357 -53.600  16.279  1.00  0.00     0.168 C 
HETATM   22  O   UNL     1     -44.569 -54.742  15.952  1.00  0.00    -0.391 OA
HETATM   23  C   UNL     1     -44.138 -54.720  14.590  1.00  0.00     0.168 C 
HETATM   24  C   UNL     1     -45.355 -54.800  13.677  1.00  0.00     0.033 C 
ENDBRANCH  17  19
ENDBRANCH   4  17
TORSDOF 4
ENDMDL
MODEL 5
REMARK VINA RESULT:      -5.6      2.294      3.309
REMARK  4 active torsions:
REMARK  status: ('A' for Active; 'I' for Inactive)
REMARK    1  A    between atoms: C_2  and  N_3 
REMARK    2  A    between atoms: C_8  and  N_9 
REMARK       I    between atoms: N_9  and  C_10 
REMARK       I    between atoms: C_10  and  N_12 
REMARK    3  A    between atoms: N_12  and  C_13 
REMARK    4  A    between atoms: C_13  and  C_15 
ROOT
HETATM    1  N   UNL     1     -42.151 -49.369  11.370  1.00  0.00    -0.305 N 
HETATM    2  C   UNL     1     -42.855 -49.617  12.532  1.00  0.00     0.321 C 
HETATM    3  O   UNL     1     -43.262 -48.787  13.331  1.00  0.00    -0.247 OA
HETATM    4  N   UNL     1     -43.026 -50.973  12.750  1.00  0.00    -0.338 N 
HETATM    5  H   UNL     1     -41.640 -50.147  10.986  1.00  0.00     0.171 HD
HETATM    6  H   UNL     1     -43.079 -51.532  11.911  1.00  0.00     0.164 HD
ENDROOT
BRANCH   1   7
HETATM    7  C   UNL     1     -41.856 -48.113  10.838  1.00  0.00     0.084 A 
HETATM    8  C   UNL     1     -42.552 -47.276   9.915  1.00  0.00     0.051 A 
HETATM    9  N   UNL     1     -41.890 -46.134   9.686  1.00  0.00    -0.301 N 
HETATM   10  C   UNL     1     -43.824 -47.490   9.182  1.00  0.00     0.072 C 
HETATM   11  N   UNL     1     -40.781 -46.236  10.422  1.00  0.00    -0.295 N 
ATOM     12  HN  UNL     1     -42.170 -45.361   9.085  1.00  0.00     0.187 HD
HETATM   13  C   UNL     1     -40.694 -47.410  11.132  1.00  0.00     0.053 A 
HETATM   14  C   UNL     1     -39.530 -47.708  12.008  1.00  0.00     0.072 C 
BRANCH  11  15
HETATM   15  C   UNL     1     -39.830 -45.133  10.380  1.00  0.00     0.144 C 
HETATM   16  C   UNL     1     -40.279 -43.933  11.197  1.00  0.00     0.028 C 
ENDBRANCH  11  15
ENDBRANCH   1   7
BRANCH   4  17
HETATM   17  C   UNL     1     -43.720 -51.496  13.948  1.00  0.00     0.086 C 
HETATM   18  C   UNL     1     -43.054 -50.873  15.183  1.00  0.00     0.032 C 
BRANCH  17  19
HETATM   19  C   UNL     1     -45.253 -51.180  13.908  1.00  0.00     0.012 C 
HETATM   20  C   UNL     1     -45.962 -51.221  15.284  1.00  0.00     0.033 C 
HETATM   21  C   UNL     1     -46.288 -52.634  15.766  1.00  0.00     0.168 C 
HETATM   22  O   UNL     1     -46.984 -53.380  14.772  1.00  0.00    -0.391 OA
HETATM   23  C   UNL     1     -46.232 -53.487  13.561  1.00  0.00     0.168 C 
HETATM   24  C   UNL     1     -46.047 -52.099  12.961  1.00  0.00     0.033 C 
ENDBRANCH  17  19
ENDBRANCH   4  17
TORSDOF 4
ENDMDL
MODEL 6
REMARK VINA RESULT:      -5.5      1.641      2.970
REMARK  4 active torsions:
REMARK  status: ('A' for Active; 'I' for Inactive)
REMARK    1  A    between atoms: C_2  and  N_3 
REMARK    2  A    between atoms: C_8  and  N_9 
REMARK       I    between atoms: N_9  and  C_10 
REMARK       I    between atoms: C_10  and  N_12 
REMARK    3  A    between atoms: N_12  and  C_13 
REMARK    4  A    between atoms: C_13  and  C_15 
ROOT
HETATM    1  N   UNL     1     -42.563 -49.992  11.887  1.00  0.00    -0.305 N 
HETATM    2  C   UNL     1     -43.297 -50.053  13.055  1.00  0.00     0.321 C 
HETATM    3  O   UNL     1     -43.194 -49.316  14.023  1.00  0.00    -0.247 OA
HETATM    4  N   UNL     1     -44.179 -51.120  13.052  1.00  0.00    -0.338 N 
HETATM    5  H   UNL     1     -42.554 -50.827  11.324  1.00  0.00     0.171 HD
HETATM    6  H   UNL     1     -44.522 -51.382  12.139  1.00  0.00     0.164 HD
ENDROOT
BRANCH   1   7
HETATM    7  C   UNL     1     -41.629 -49.011  11.552  1.00  0.00     0.084 A 
HETATM    8  C   UNL     1     -40.202 -49.000  11.571  1.00  0.00     0.051 A 
HETATM    9  N   UNL     1     -39.711 -47.824  11.158  1.00  0.00    -0.301 N 
HETATM   10  C   UNL     1     -39.231 -50.040  11.991  1.00  0.00     0.072 C 
HETATM   11  N   UNL     1     -40.790 -47.081  10.901  1.00  0.00    -0.295 N 
ATOM     12  HN  UNL     1     -38.732 -47.556  11.062  1.00  0.00     0.187 HD
HETATM   13  C   UNL     1     -41.978 -47.734  11.129  1.00  0.00     0.053 A 
HETATM   14  C   UNL     1     -43.289 -47.070  10.904  1.00  0.00     0.072 C 
BRANCH  11  15
HETATM   15  C   UNL     1     -40.583 -45.716  10.434  1.00  0.00     0.144 C 
HETATM   16  C   UNL     1     -39.762 -44.879  11.400  1.00  0.00     0.028 C 
ENDBRANCH  11  15
ENDBRANCH   1   7
BRANCH   4  17
HETATM   17  C   UNL     1     -45.055 -51.420  14.208  1.00  0.00     0.086 C 
HETATM   18  C   UNL     1     -46.477 -51.635  13.672  1.00  0.00     0.032 C 
BRANCH  17  19
HETATM   19  C   UNL     1     -44.551 -52.672  15.001  1.00  0.00     0.012 C 
HETATM   20  C   UNL     1     -43.818 -53.733  14.144  1.00  0.00     0.033 C 
HETATM   21  C   UNL     1     -44.758 -54.640  13.353  1.00  0.00     0.168 C 
HETATM   22  O   UNL     1     -45.762 -55.212  14.187  1.00  0.00    -0.391 OA
HETATM   23  C   UNL     1     -46.551 -54.212  14.834  1.00  0.00     0.168 C 
HETATM   24  C   UNL     1     -45.665 -53.403  15.773  1.00  0.00     0.033 C 
ENDBRANCH  17  19
ENDBRANCH   4  17
TORSDOF 4
ENDMDL
MODEL 7
REMARK VINA RESULT:      -5.5      1.760      3.233
REMARK  4 active torsions:
REMARK  status: ('A' for Active; 'I' for Inactive)
REMARK    1  A    between atoms: C_2  and  N_3 
REMARK    2  A    between atoms: C_8  and  N_9 
REMARK       I    between atoms: N_9  and  C_10 
REMARK       I    between atoms: C_10  and  N_12 
REMARK    3  A    between atoms: N_12  and  C_13 
REMARK    4  A    between atoms: C_13  and  C_15 
ROOT
HETATM    1  N   UNL     1     -41.678 -50.434  11.359  1.00  0.00    -0.305 N 
HETATM    2  C   UNL     1     -42.156 -51.025  12.512  1.00  0.00     0.321 C 
HETATM    3  O   UNL     1     -42.018 -50.616  13.654  1.00  0.00    -0.247 OA
HETATM    4  N   UNL     1     -42.800 -52.222  12.247  1.00  0.00    -0.338 N 
HETATM    5  H   UNL     1     -41.613 -51.029  10.550  1.00  0.00     0.171 HD
HETATM    6  H   UNL     1     -43.249 -52.268  11.344  1.00  0.00     0.164 HD
ENDROOT
BRANCH   1   7
HETATM    7  C   UNL     1     -41.031 -49.201  11.274  1.00  0.00     0.084 A 
HETATM    8  C   UNL     1     -39.681 -48.808  11.524  1.00  0.00     0.051 A 
HETATM    9  N   UNL     1     -39.500 -47.498  11.310  1.00  0.00    -0.301 N 
HETATM   10  C   UNL     1     -38.515 -49.594  11.996  1.00  0.00     0.072 C 
HETATM   11  N   UNL     1     -40.704 -47.046  10.953  1.00  0.00    -0.295 N 
ATOM     12  HN  UNL     1     -38.636 -46.965  11.399  1.00  0.00     0.187 HD
HETATM   13  C   UNL     1     -41.674 -48.020  10.923  1.00  0.00     0.053 A 
HETATM   14  C   UNL     1     -43.080 -47.710  10.552  1.00  0.00     0.072 C 
BRANCH  11  15
HETATM   15  C   UNL     1     -40.840 -45.626  10.656  1.00  0.00     0.144 C 
HETATM   16  C   UNL     1     -39.562 -45.011  10.112  1.00  0.00     0.028 C 
ENDBRANCH  11  15
ENDBRANCH   1   7
BRANCH   4  17
HETATM   17  C   UNL     1     -43.370 -53.064  13.323  1.00  0.00     0.086 C 
HETATM   18  C   UNL     1     -42.205 -53.771  14.029  1.00  0.00     0.032 C 
BRANCH  17  19
HETATM   19  C   UNL     1     -44.215 -52.215  14.330  1.00  0.00     0.012 C 
HETATM   20  C   UNL     1     -44.722 -52.991  15.570  1.00  0.00     0.033 C 
HETATM   21  C   UNL     1     -45.954 -53.851  15.295  1.00  0.00     0.168 C 
HETATM   22  O   UNL     1     -46.987 -53.101  14.661  1.00  0.00    -0.391 OA
HETATM   23  C   UNL     1     -46.554 -52.538  13.422  1.00  0.00     0.168 C 
HETATM   24  C   UNL     1     -45.439 -51.535  13.689  1.00  0.00     0.033 C 
ENDBRANCH  17  19
ENDBRANCH   4  17
TORSDOF 4
ENDMDL
MODEL 8
REMARK VINA RESULT:      -5.4      3.153      6.668
REMARK  4 active torsions:
REMARK  status: ('A' for Active; 'I' for Inactive)
REMARK    1  A    between atoms: C_2  and  N_3 
REMARK    2  A    between atoms: C_8  and  N_9 
REMARK       I    between atoms: N_9  and  C_10 
REMARK       I    between atoms: C_10  and  N_12 
REMARK    3  A    between atoms: N_12  and  C_13 
REMARK    4  A    between atoms: C_13  and  C_15 
ROOT
HETATM    1  N   UNL     1     -40.821 -50.671  11.355  1.00  0.00    -0.305 N 
HETATM    2  C   UNL     1     -41.530 -49.501  11.547  1.00  0.00     0.321 C 
HETATM    3  O   UNL     1     -41.919 -49.050  12.613  1.00  0.00    -0.247 OA
HETATM    4  N   UNL     1     -41.821 -48.874  10.348  1.00  0.00    -0.338 N 
HETATM    5  H   UNL     1     -40.835 -51.050  10.423  1.00  0.00     0.171 HD
HETATM    6  H   UNL     1     -41.142 -49.025   9.617  1.00  0.00     0.164 HD
ENDROOT
BRANCH   1   7
HETATM    7  C   UNL     1     -40.329 -51.509  12.356  1.00  0.00     0.084 A 
HETATM    8  C   UNL     1     -39.081 -51.545  13.049  1.00  0.00     0.051 A 
HETATM    9  N   UNL     1     -39.044 -52.537  13.948  1.00  0.00    -0.301 N 
HETATM   10  C   UNL     1     -37.867 -50.706  12.901  1.00  0.00     0.072 C 
HETATM   11  N   UNL     1     -40.226 -53.145  13.828  1.00  0.00    -0.295 N 
ATOM     12  HN  UNL     1     -38.282 -52.775  14.583  1.00  0.00     0.187 HD
HETATM   13  C   UNL     1     -41.043 -52.581  12.877  1.00  0.00     0.053 A 
HETATM   14  C   UNL     1     -42.400 -53.121  12.595  1.00  0.00     0.072 C 
BRANCH  11  15
HETATM   15  C   UNL     1     -40.493 -54.294  14.683  1.00  0.00     0.144 C 
HETATM   16  C   UNL     1     -40.866 -53.900  16.102  1.00  0.00     0.028 C 
ENDBRANCH  11  15
ENDBRANCH   1   7
BRANCH   4  17
HETATM   17  C   UNL     1     -42.604 -47.619  10.287  1.00  0.00     0.086 C 
HETATM   18  C   UNL     1     -41.673 -46.468  10.692  1.00  0.00     0.032 C 
BRANCH  17  19
HETATM   19  C   UNL     1     -43.208 -47.387   8.861  1.00  0.00     0.012 C 
HETATM   20  C   UNL     1     -43.350 -45.902   8.448  1.00  0.00     0.033 C 
HETATM   21  C   UNL     1     -44.570 -45.209   9.054  1.00  0.00     0.168 C 
HETATM   22  O   UNL     1     -45.763 -45.955   8.828  1.00  0.00    -0.391 OA
HETATM   23  C   UNL     1     -45.682 -47.271   9.377  1.00  0.00     0.168 C 
HETATM   24  C   UNL     1     -44.585 -48.048   8.660  1.00  0.00     0.033 C 
ENDBRANCH  17  19
ENDBRANCH   4  17
TORSDOF 4
ENDMDL
MODEL 9
REMARK VINA RESULT:      -5.3      3.267      7.014
REMARK  4 active torsions:
REMARK  status: ('A' for Active; 'I' for Inactive)
REMARK    1  A    between atoms: C_2  and  N_3 
REMARK    2  A    between atoms: C_8  and  N_9 
REMARK       I    between atoms: N_9  and  C_10 
REMARK       I    between atoms: C_10  and  N_12 
REMARK    3  A    between atoms: N_12  and  C_13 
REMARK    4  A    between atoms: C_13  and  C_15 
ROOT
HETATM    1  N   UNL     1     -40.496 -50.723  11.455  1.00  0.00    -0.305 N 
HETATM    2  C   UNL     1     -41.038 -49.468  11.651  1.00  0.00     0.321 C 
HETATM    3  O   UNL     1     -41.322 -48.953  12.721  1.00  0.00    -0.247 OA
HETATM    4  N   UNL     1     -41.295 -48.826  10.451  1.00  0.00    -0.338 N 
HETATM    5  H   UNL     1     -40.598 -51.111  10.532  1.00  0.00     0.171 HD
HETATM    6  H   UNL     1     -40.671 -49.075   9.697  1.00  0.00     0.164 HD
ENDROOT
BRANCH   1   7
HETATM    7  C   UNL     1     -40.078 -51.603  12.453  1.00  0.00     0.084 A 
HETATM    8  C   UNL     1     -38.848 -51.727  13.168  1.00  0.00     0.051 A 
HETATM    9  N   UNL     1     -38.890 -52.730  14.054  1.00  0.00    -0.301 N 
HETATM   10  C   UNL     1     -37.581 -50.964  13.054  1.00  0.00     0.072 C 
HETATM   11  N   UNL     1     -40.105 -53.261  13.903  1.00  0.00    -0.295 N 
ATOM     12  HN  UNL     1     -38.158 -53.024  14.699  1.00  0.00     0.187 HD
HETATM   13  C   UNL     1     -40.868 -52.635  12.946  1.00  0.00     0.053 A 
HETATM   14  C   UNL     1     -42.250 -53.085  12.631  1.00  0.00     0.072 C 
BRANCH  11  15
HETATM   15  C   UNL     1     -40.460 -54.402  14.737  1.00  0.00     0.144 C 
HETATM   16  C   UNL     1     -39.252 -55.067  15.374  1.00  0.00     0.028 C 
ENDBRANCH  11  15
ENDBRANCH   1   7
BRANCH   4  17
HETATM   17  C   UNL     1     -41.909 -47.480  10.395  1.00  0.00     0.086 C 
HETATM   18  C   UNL     1     -43.428 -47.654  10.532  1.00  0.00     0.032 C 
BRANCH  17  19
HETATM   19  C   UNL     1     -41.341 -46.541  11.511  1.00  0.00     0.012 C 
HETATM   20  C   UNL     1     -42.257 -45.353  11.890  1.00  0.00     0.033 C 
HETATM   21  C   UNL     1     -42.190 -44.186  10.906  1.00  0.00     0.168 C 
HETATM   22  O   UNL     1     -40.846 -43.782  10.662  1.00  0.00    -0.391 OA
HETATM   23  C   UNL     1     -40.054 -44.850  10.139  1.00  0.00     0.168 C 
HETATM   24  C   UNL     1     -39.954 -45.958  11.179  1.00  0.00     0.033 C 
ENDBRANCH  17  19
ENDBRANCH   4  17
TORSDOF 4
ENDMDL
