MODEL 1
REMARK VINA RESULT:      -6.3      0.000      0.000
REMARK  4 active torsions:
REMARK  status: ('A' for Active; 'I' for Inactive)
REMARK    1  A    between atoms: C_2  and  C_3 
REMARK       I    between atoms: C_2  and  N_16 
REMARK    2  A    between atoms: C_3  and  N_4 
REMARK    3  A    between atoms: C_8  and  C_12 
REMARK    4  A    between atoms: N_16  and  C_17 
ROOT
HETATM    1  N   UNL     1     -41.560 -47.119  11.008  1.00  0.00    -0.302 N 
HETATM    2  C   UNL     1     -41.913 -48.420  10.759  1.00  0.00     0.186 A 
HETATM    3  N   UNL     1     -41.155 -49.442  10.972  1.00  0.00    -0.355 N 
ATOM      4  HN  UNL     1     -41.466 -50.389  10.754  1.00  0.00     0.166 HD
HETATM    5  C   UNL     1     -39.915 -49.201  11.502  1.00  0.00     0.019 A 
HETATM    6  C   UNL     1     -39.437 -47.977  11.763  1.00  0.00     0.100 A 
HETATM    7  C   UNL     1     -40.317 -46.827  11.519  1.00  0.00     0.250 A 
HETATM    8  O   UNL     1     -39.965 -45.699  11.860  1.00  0.00    -0.268 OA
ENDROOT
BRANCH   1   9
HETATM    9  C   UNL     1     -42.544 -46.056  10.871  1.00  0.00     0.235 C 
BRANCH   9  10
HETATM   10  C   UNL     1     -43.404 -46.299   9.627  1.00  0.00     0.236 C 
HETATM   11  O   UNL     1     -43.074 -45.869   8.523  1.00  0.00    -0.272 OA
HETATM   12  N   UNL     1     -44.584 -46.977   9.864  1.00  0.00    -0.355 N 
HETATM   13  H   UNL     1     -44.837 -47.184  10.831  1.00  0.00     0.162 HD
BRANCH  12  14
HETATM   14  C   UNL     1     -45.527 -47.289   8.840  1.00  0.00     0.084 A 
HETATM   15  C   UNL     1     -47.001 -47.141   9.099  1.00  0.00     0.027 A 
HETATM   16  C   UNL     1     -46.403 -48.509   8.938  1.00  0.00     0.027 A 
ENDBRANCH  12  14
ENDBRANCH   9  10
ENDBRANCH   1   9
BRANCH   5  17
HETATM   17  C   UNL     1     -39.090 -50.373  11.908  1.00  0.00     0.036 C 
HETATM   18  C   UNL     1     -38.775 -50.519  13.421  1.00  0.00     0.011 C 
HETATM   19  C   UNL     1     -37.395 -51.072  13.007  1.00  0.00     0.001 C 
HETATM   20  C   UNL     1     -37.554 -50.276  11.696  1.00  0.00     0.011 C 
ENDBRANCH   5  17
TORSDOF 4
ENDMDL
MODEL 2
REMARK VINA RESULT:      -6.0      2.182      2.479
REMARK  4 active torsions:
REMARK  status: ('A' for Active; 'I' for Inactive)
REMARK    1  A    between atoms: C_2  and  C_3 
REMARK       I    between atoms: C_2  and  N_16 
REMARK    2  A    between atoms: C_3  and  N_4 
REMARK    3  A    between atoms: C_8  and  C_12 
REMARK    4  A    between atoms: N_16  and  C_17 
ROOT
HETATM    1  N   UNL     1     -42.024 -47.915  11.707  1.00  0.00    -0.302 N 
HETATM    2  C   UNL     1     -41.323 -48.603  10.750  1.00  0.00     0.186 A 
HETATM    3  N   UNL     1     -40.986 -49.845  10.835  1.00  0.00    -0.355 N 
ATOM      4  HN  UNL     1     -40.450 -50.303  10.097  1.00  0.00     0.166 HD
HETATM    5  C   UNL     1     -41.377 -50.523  11.959  1.00  0.00     0.019 A 
HETATM    6  C   UNL     1     -42.040 -49.962  12.979  1.00  0.00     0.100 A 
HETATM    7  C   UNL     1     -42.418 -48.548  12.862  1.00  0.00     0.250 A 
HETATM    8  O   UNL     1     -43.133 -48.030  13.717  1.00  0.00    -0.268 OA
ENDROOT
BRANCH   1   9
HETATM    9  C   UNL     1     -42.479 -46.558  11.445  1.00  0.00     0.235 C 
BRANCH   9  10
HETATM   10  C   UNL     1     -43.238 -46.509  10.114  1.00  0.00     0.236 C 
HETATM   11  O   UNL     1     -42.822 -45.853   9.162  1.00  0.00    -0.272 OA
HETATM   12  N   UNL     1     -44.431 -47.206  10.105  1.00  0.00    -0.355 N 
HETATM   13  H   UNL     1     -44.759 -47.616  10.980  1.00  0.00     0.162 HD
BRANCH  12  14
HETATM   14  C   UNL     1     -45.288 -47.271   8.966  1.00  0.00     0.084 A 
HETATM   15  C   UNL     1     -46.740 -46.895   9.091  1.00  0.00     0.027 A 
HETATM   16  C   UNL     1     -46.356 -48.327   8.860  1.00  0.00     0.027 A 
ENDBRANCH  12  14
ENDBRANCH   9  10
ENDBRANCH   1   9
BRANCH   5  17
HETATM   17  C   UNL     1     -41.144 -51.994  12.003  1.00  0.00     0.036 C 
HETATM   18  C   UNL     1     -42.302 -52.873  12.547  1.00  0.00     0.011 C 
HETATM   19  C   UNL     1     -41.223 -53.783  13.170  1.00  0.00     0.001 C 
HETATM   20  C   UNL     1     -40.298 -52.550  13.181  1.00  0.00     0.011 C 
ENDBRANCH   5  17
TORSDOF 4
ENDMDL
MODEL 3
REMARK VINA RESULT:      -6.0      3.144      5.336
REMARK  4 active torsions:
REMARK  status: ('A' for Active; 'I' for Inactive)
REMARK    1  A    between atoms: C_2  and  C_3 
REMARK       I    between atoms: C_2  and  N_16 
REMARK    2  A    between atoms: C_3  and  N_4 
REMARK    3  A    between atoms: C_8  and  C_12 
REMARK    4  A    between atoms: N_16  and  C_17 
ROOT
HETATM    1  N   UNL     1     -41.762 -45.810  11.042  1.00  0.00    -0.302 N 
HETATM    2  C   UNL     1     -42.739 -45.185  11.773  1.00  0.00     0.186 A 
HETATM    3  N   UNL     1     -42.626 -44.015  12.304  1.00  0.00    -0.355 N 
ATOM      4  HN  UNL     1     -43.383 -43.604  12.851  1.00  0.00     0.166 HD
HETATM    5  C   UNL     1     -41.446 -43.348  12.102  1.00  0.00     0.019 A 
HETATM    6  C   UNL     1     -40.404 -43.858  11.433  1.00  0.00     0.100 A 
HETATM    7  C   UNL     1     -40.554 -45.189  10.832  1.00  0.00     0.250 A 
HETATM    8  O   UNL     1     -39.669 -45.640  10.107  1.00  0.00    -0.268 OA
ENDROOT
BRANCH   1   9
HETATM    9  C   UNL     1     -42.047 -47.066  10.365  1.00  0.00     0.235 C 
BRANCH   9  10
HETATM   10  C   UNL     1     -43.167 -46.864   9.339  1.00  0.00     0.236 C 
HETATM   11  O   UNL     1     -43.114 -45.969   8.497  1.00  0.00    -0.272 OA
HETATM   12  N   UNL     1     -44.241 -47.721   9.481  1.00  0.00    -0.355 N 
HETATM   13  H   UNL     1     -44.257 -48.348  10.286  1.00  0.00     0.162 HD
BRANCH  12  14
HETATM   14  C   UNL     1     -45.388 -47.684   8.633  1.00  0.00     0.084 A 
HETATM   15  C   UNL     1     -46.663 -47.047   9.113  1.00  0.00     0.027 A 
HETATM   16  C   UNL     1     -46.595 -48.535   8.925  1.00  0.00     0.027 A 
ENDBRANCH  12  14
ENDBRANCH   9  10
ENDBRANCH   1   9
BRANCH   5  17
HETATM   17  C   UNL     1     -41.357 -41.934  12.564  1.00  0.00     0.036 C 
HETATM   18  C   UNL     1     -41.502 -40.832  11.480  1.00  0.00     0.011 C 
HETATM   19  C   UNL     1     -40.464 -40.013  12.277  1.00  0.00     0.001 C 
HETATM   20  C   UNL     1     -39.939 -41.355  12.824  1.00  0.00     0.011 C 
ENDBRANCH   5  17
TORSDOF 4
ENDMDL
MODEL 4
REMARK VINA RESULT:      -5.9      4.982      6.042
REMARK  4 active torsions:
REMARK  status: ('A' for Active; 'I' for Inactive)
REMARK    1  A    between atoms: C_2  and  C_3 
REMARK       I    between atoms: C_2  and  N_16 
REMARK    2  A    between atoms: C_3  and  N_4 
REMARK    3  A    between atoms: C_8  and  C_12 
REMARK    4  A    between atoms: N_16  and  C_17 
ROOT
HETATM    1  N   UNL     1     -41.924 -53.154  13.633  1.00  0.00    -0.302 N 
HETATM    2  C   UNL     1     -41.317 -53.030  12.410  1.00  0.00     0.186 A 
HETATM    3  N   UNL     1     -40.438 -52.133  12.113  1.00  0.00    -0.355 N 
ATOM      4  HN  UNL     1     -40.028 -52.080  11.180  1.00  0.00     0.166 HD
HETATM    5  C   UNL     1     -40.079 -51.257  13.103  1.00  0.00     0.019 A 
HETATM    6  C   UNL     1     -40.618 -51.252  14.329  1.00  0.00     0.100 A 
HETATM    7  C   UNL     1     -41.613 -52.283  14.650  1.00  0.00     0.250 A 
HETATM    8  O   UNL     1     -42.039 -52.391  15.799  1.00  0.00    -0.268 OA
ENDROOT
BRANCH   1   9
HETATM    9  C   UNL     1     -42.791 -54.290  13.906  1.00  0.00     0.235 C 
BRANCH   9  10
HETATM   10  C   UNL     1     -44.228 -53.965  13.484  1.00  0.00     0.236 C 
HETATM   11  O   UNL     1     -44.690 -54.362  12.416  1.00  0.00    -0.272 OA
HETATM   12  N   UNL     1     -44.918 -53.156  14.366  1.00  0.00    -0.355 N 
HETATM   13  H   UNL     1     -44.414 -52.769  15.164  1.00  0.00     0.162 HD
BRANCH  12  14
HETATM   14  C   UNL     1     -46.262 -52.731  14.147  1.00  0.00     0.084 A 
HETATM   15  C   UNL     1     -46.543 -51.517  13.303  1.00  0.00     0.027 A 
HETATM   16  C   UNL     1     -46.790 -51.472  14.783  1.00  0.00     0.027 A 
ENDBRANCH  12  14
ENDBRANCH   9  10
ENDBRANCH   1   9
BRANCH   5  17
HETATM   17  C   UNL     1     -38.950 -50.323  12.832  1.00  0.00     0.036 C 
HETATM   18  C   UNL     1     -38.908 -49.662  11.428  1.00  0.00     0.011 C 
HETATM   19  C   UNL     1     -37.370 -49.766  11.505  1.00  0.00     0.001 C 
HETATM   20  C   UNL     1     -37.575 -50.949  12.472  1.00  0.00     0.011 C 
ENDBRANCH   5  17
TORSDOF 4
ENDMDL
MODEL 5
REMARK VINA RESULT:      -5.8      3.096      3.568
REMARK  4 active torsions:
REMARK  status: ('A' for Active; 'I' for Inactive)
REMARK    1  A    between atoms: C_2  and  C_3 
REMARK       I    between atoms: C_2  and  N_16 
REMARK    2  A    between atoms: C_3  and  N_4 
REMARK    3  A    between atoms: C_8  and  C_12 
REMARK    4  A    between atoms: N_16  and  C_17 
ROOT
HETATM    1  N   UNL     1     -42.457 -49.139  12.093  1.00  0.00    -0.302 N 
HETATM    2  C   UNL     1     -43.402 -49.670  12.932  1.00  0.00     0.186 A 
HETATM    3  N   UNL     1     -43.309 -50.817  13.515  1.00  0.00    -0.355 N 
ATOM      4  HN  UNL     1     -44.052 -51.168  14.119  1.00  0.00     0.166 HD
HETATM    5  C   UNL     1     -42.170 -51.543  13.286  1.00  0.00     0.019 A 
HETATM    6  C   UNL     1     -41.185 -51.153  12.466  1.00  0.00     0.100 A 
HETATM    7  C   UNL     1     -41.308 -49.842  11.816  1.00  0.00     0.250 A 
HETATM    8  O   UNL     1     -40.373 -49.393  11.156  1.00  0.00    -0.268 OA
ENDROOT
BRANCH   1   9
HETATM    9  C   UNL     1     -42.595 -47.775  11.607  1.00  0.00     0.235 C 
BRANCH   9  10
HETATM   10  C   UNL     1     -43.253 -47.777  10.223  1.00  0.00     0.236 C 
HETATM   11  O   UNL     1     -42.587 -47.882   9.195  1.00  0.00    -0.272 OA
HETATM   12  N   UNL     1     -44.623 -47.597  10.236  1.00  0.00    -0.355 N 
HETATM   13  H   UNL     1     -45.075 -47.391  11.127  1.00  0.00     0.162 HD
BRANCH  12  14
HETATM   14  C   UNL     1     -45.417 -47.557   9.051  1.00  0.00     0.084 A 
HETATM   15  C   UNL     1     -46.814 -47.000   9.097  1.00  0.00     0.027 A 
HETATM   16  C   UNL     1     -46.601 -48.470   8.881  1.00  0.00     0.027 A 
ENDBRANCH  12  14
ENDBRANCH   9  10
ENDBRANCH   1   9
BRANCH   5  17
HETATM   17  C   UNL     1     -41.968 -52.791  14.075  1.00  0.00     0.036 C 
HETATM   18  C   UNL     1     -42.098 -54.135  13.309  1.00  0.00     0.011 C 
HETATM   19  C   UNL     1     -42.725 -54.722  14.591  1.00  0.00     0.001 C 
HETATM   20  C   UNL     1     -43.155 -53.285  14.948  1.00  0.00     0.011 C 
ENDBRANCH   5  17
TORSDOF 4
ENDMDL
MODEL 6
REMARK VINA RESULT:      -5.7      3.852      6.075
REMARK  4 active torsions:
REMARK  status: ('A' for Active; 'I' for Inactive)
REMARK    1  A    between atoms: C_2  and  C_3 
REMARK       I    between atoms: C_2  and  N_16 
REMARK    2  A    between atoms: C_3  and  N_4 
REMARK    3  A    between atoms: C_8  and  C_12 
REMARK    4  A    between atoms: N_16  and  C_17 
ROOT
HETATM    1  N   UNL     1     -41.304 -50.706  11.955  1.00  0.00    -0.302 N 
HETATM    2  C   UNL     1     -42.364 -49.873  12.206  1.00  0.00     0.186 A 
HETATM    3  N   UNL     1     -43.496 -50.250  12.699  1.00  0.00    -0.355 N 
ATOM      4  HN  UNL     1     -44.256 -49.588  12.851  1.00  0.00     0.166 HD
HETATM    5  C   UNL     1     -43.631 -51.578  13.008  1.00  0.00     0.019 A 
HETATM    6  C   UNL     1     -42.684 -52.499  12.785  1.00  0.00     0.100 A 
HETATM    7  C   UNL     1     -41.402 -52.049  12.228  1.00  0.00     0.250 A 
HETATM    8  O   UNL     1     -40.465 -52.839  12.125  1.00  0.00    -0.268 OA
ENDROOT
BRANCH   1   9
HETATM    9  C   UNL     1     -40.025 -50.153  11.537  1.00  0.00     0.235 C 
BRANCH   9  10
HETATM   10  C   UNL     1     -39.884 -48.716  12.050  1.00  0.00     0.236 C 
HETATM   11  O   UNL     1     -39.643 -48.476  13.232  1.00  0.00    -0.272 OA
HETATM   12  N   UNL     1     -40.103 -47.739  11.098  1.00  0.00    -0.355 N 
HETATM   13  H   UNL     1     -40.422 -48.028  10.173  1.00  0.00     0.162 HD
BRANCH  12  14
HETATM   14  C   UNL     1     -40.030 -46.343  11.380  1.00  0.00     0.084 A 
HETATM   15  C   UNL     1     -41.078 -45.407  10.841  1.00  0.00     0.027 A 
HETATM   16  C   UNL     1     -39.678 -45.352  10.303  1.00  0.00     0.027 A 
ENDBRANCH  12  14
ENDBRANCH   9  10
ENDBRANCH   1   9
BRANCH   5  17
HETATM   17  C   UNL     1     -44.864 -52.004  13.729  1.00  0.00     0.036 C 
HETATM   18  C   UNL     1     -46.220 -51.531  13.139  1.00  0.00     0.011 C 
HETATM   19  C   UNL     1     -46.725 -51.408  14.592  1.00  0.00     0.001 C 
HETATM   20  C   UNL     1     -45.253 -51.213  15.007  1.00  0.00     0.011 C 
ENDBRANCH   5  17
TORSDOF 4
ENDMDL
MODEL 7
REMARK VINA RESULT:      -5.6      5.530      8.058
REMARK  4 active torsions:
REMARK  status: ('A' for Active; 'I' for Inactive)
REMARK    1  A    between atoms: C_2  and  C_3 
REMARK       I    between atoms: C_2  and  N_16 
REMARK    2  A    between atoms: C_3  and  N_4 
REMARK    3  A    between atoms: C_8  and  C_12 
REMARK    4  A    between atoms: N_16  and  C_17 
ROOT
HETATM    1  N   UNL     1     -42.178 -53.490  13.042  1.00  0.00    -0.302 N 
HETATM    2  C   UNL     1     -43.036 -52.654  12.375  1.00  0.00     0.186 A 
HETATM    3  N   UNL     1     -44.278 -52.478  12.680  1.00  0.00    -0.355 N 
ATOM      4  HN  UNL     1     -44.874 -51.853  12.139  1.00  0.00     0.166 HD
HETATM    5  C   UNL     1     -44.759 -53.168  13.762  1.00  0.00     0.019 A 
HETATM    6  C   UNL     1     -44.034 -54.037  14.479  1.00  0.00     0.100 A 
HETATM    7  C   UNL     1     -42.622 -54.219  14.119  1.00  0.00     0.250 A 
HETATM    8  O   UNL     1     -41.892 -54.911  14.826  1.00  0.00    -0.268 OA
ENDROOT
BRANCH   1   9
HETATM    9  C   UNL     1     -40.762 -53.501  12.706  1.00  0.00     0.235 C 
BRANCH   9  10
HETATM   10  C   UNL     1     -40.091 -52.225  13.224  1.00  0.00     0.236 C 
HETATM   11  O   UNL     1     -40.170 -51.892  14.405  1.00  0.00    -0.272 OA
HETATM   12  N   UNL     1     -39.456 -51.473  12.255  1.00  0.00    -0.355 N 
HETATM   13  H   UNL     1     -39.550 -51.760  11.281  1.00  0.00     0.162 HD
BRANCH  12  14
HETATM   14  C   UNL     1     -38.784 -50.246  12.535  1.00  0.00     0.084 A 
HETATM   15  C   UNL     1     -39.130 -49.002  11.762  1.00  0.00     0.027 A 
HETATM   16  C   UNL     1     -37.797 -49.663  11.558  1.00  0.00     0.027 A 
ENDBRANCH  12  14
ENDBRANCH   9  10
ENDBRANCH   1   9
BRANCH   5  17
HETATM   17  C   UNL     1     -46.138 -52.855  14.230  1.00  0.00     0.036 C 
HETATM   18  C   UNL     1     -46.515 -51.354  14.348  1.00  0.00     0.011 C 
HETATM   19  C   UNL     1     -47.355 -51.737  15.585  1.00  0.00     0.001 C 
HETATM   20  C   UNL     1     -46.413 -52.945  15.756  1.00  0.00     0.011 C 
ENDBRANCH   5  17
TORSDOF 4
ENDMDL
MODEL 8
REMARK VINA RESULT:      -5.5      5.039      7.613
REMARK  4 active torsions:
REMARK  status: ('A' for Active; 'I' for Inactive)
REMARK    1  A    between atoms: C_2  and  C_3 
REMARK       I    between atoms: C_2  and  N_16 
REMARK    2  A    between atoms: C_3  and  N_4 
REMARK    3  A    between atoms: C_8  and  C_12 
REMARK    4  A    between atoms: N_16  and  C_17 
ROOT
HETATM    1  N   UNL     1     -42.456 -52.049  13.102  1.00  0.00    -0.302 N 
HETATM    2  C   UNL     1     -43.066 -52.919  13.967  1.00  0.00     0.186 A 
HETATM    3  N   UNL     1     -44.012 -52.603  14.785  1.00  0.00    -0.355 N 
ATOM      4  HN  UNL     1     -44.421 -53.291  15.417  1.00  0.00     0.166 HD
HETATM    5  C   UNL     1     -44.444 -51.303  14.767  1.00  0.00     0.019 A 
HETATM    6  C   UNL     1     -43.913 -50.348  13.992  1.00  0.00     0.100 A 
HETATM    7  C   UNL     1     -42.840 -50.729  13.065  1.00  0.00     0.250 A 
HETATM    8  O   UNL     1     -42.412 -49.914  12.250  1.00  0.00    -0.268 OA
ENDROOT
BRANCH   1   9
HETATM    9  C   UNL     1     -41.502 -52.543  12.121  1.00  0.00     0.235 C 
BRANCH   9  10
HETATM   10  C   UNL     1     -40.073 -52.236  12.580  1.00  0.00     0.236 C 
HETATM   11  O   UNL     1     -39.517 -52.911  13.445  1.00  0.00    -0.272 OA
HETATM   12  N   UNL     1     -39.503 -51.124  11.991  1.00  0.00    -0.355 N 
HETATM   13  H   UNL     1     -40.084 -50.550  11.379  1.00  0.00     0.162 HD
BRANCH  12  14
HETATM   14  C   UNL     1     -38.186 -50.667  12.294  1.00  0.00     0.084 A 
HETATM   15  C   UNL     1     -37.927 -49.201  12.516  1.00  0.00     0.027 A 
HETATM   16  C   UNL     1     -37.388 -49.879  11.290  1.00  0.00     0.027 A 
ENDBRANCH  12  14
ENDBRANCH   9  10
ENDBRANCH   1   9
BRANCH   5  17
HETATM   17  C   UNL     1     -45.644 -50.955  15.580  1.00  0.00     0.036 C 
HETATM   18  C   UNL     1     -45.938 -51.851  16.813  1.00  0.00     0.011 C 
HETATM   19  C   UNL     1     -47.438 -51.654  16.508  1.00  0.00     0.001 C 
HETATM   20  C   UNL     1     -47.029 -51.407  15.042  1.00  0.00     0.011 C 
ENDBRANCH   5  17
TORSDOF 4
ENDMDL
MODEL 9
REMARK VINA RESULT:      -5.4      4.304      7.261
REMARK  4 active torsions:
REMARK  status: ('A' for Active; 'I' for Inactive)
REMARK    1  A    between atoms: C_2  and  C_3 
REMARK       I    between atoms: C_2  and  N_16 
REMARK    2  A    between atoms: C_3  and  N_4 
REMARK    3  A    between atoms: C_8  and  C_12 
REMARK    4  A    between atoms: N_16  and  C_17 
ROOT
HETATM    1  N   UNL     1     -41.203 -50.992  12.148  1.00  0.00    -0.302 N 
HETATM    2  C   UNL     1     -42.191 -50.087  12.441  1.00  0.00     0.186 A 
HETATM    3  N   UNL     1     -43.377 -50.396  12.844  1.00  0.00    -0.355 N 
ATOM      4  HN  UNL     1     -44.078 -49.680  13.034  1.00  0.00     0.166 HD
HETATM    5  C   UNL     1     -43.654 -51.728  13.006  1.00  0.00     0.019 A 
HETATM    6  C   UNL     1     -42.789 -52.712  12.727  1.00  0.00     0.100 A 
HETATM    7  C   UNL     1     -41.443 -52.340  12.274  1.00  0.00     0.250 A 
HETATM    8  O   UNL     1     -40.582 -53.205  12.127  1.00  0.00    -0.268 OA
ENDROOT
BRANCH   1   9
HETATM    9  C   UNL     1     -39.858 -50.531  11.843  1.00  0.00     0.235 C 
BRANCH   9  10
HETATM   10  C   UNL     1     -39.105 -50.219  13.141  1.00  0.00     0.236 C 
HETATM   11  O   UNL     1     -38.635 -51.113  13.842  1.00  0.00    -0.272 OA
HETATM   12  N   UNL     1     -39.056 -48.879  13.472  1.00  0.00    -0.355 N 
HETATM   13  H   UNL     1     -39.583 -48.219  12.899  1.00  0.00     0.162 HD
BRANCH  12  14
HETATM   14  C   UNL     1     -38.413 -48.387  14.647  1.00  0.00     0.084 A 
HETATM   15  C   UNL     1     -38.381 -46.909  14.928  1.00  0.00     0.027 A 
HETATM   16  C   UNL     1     -37.115 -47.628  14.560  1.00  0.00     0.027 A 
ENDBRANCH  12  14
ENDBRANCH   9  10
ENDBRANCH   1   9
BRANCH   5  17
HETATM   17  C   UNL     1     -44.957 -52.099  13.627  1.00  0.00     0.036 C 
HETATM   18  C   UNL     1     -46.241 -51.566  12.935  1.00  0.00     0.011 C 
HETATM   19  C   UNL     1     -46.852 -51.420  14.344  1.00  0.00     0.001 C 
HETATM   20  C   UNL     1     -45.410 -51.292  14.874  1.00  0.00     0.011 C 
ENDBRANCH   5  17
TORSDOF 4
ENDMDL
