MODEL 1
REMARK VINA RESULT:      -6.7      0.000      0.000
REMARK  4 active torsions:
REMARK  status: ('A' for Active; 'I' for Inactive)
REMARK    1  A    between atoms: O_1  and  C_2 
REMARK    2  A    between atoms: C_2  and  C_3 
REMARK    3  A    between atoms: C_3  and  N_4 
REMARK       I    between atoms: N_4  and  C_5 
REMARK       I    between atoms: C_5  and  N_7 
REMARK    4  A    between atoms: N_7  and  C_8 
ROOT
HETATM    1  N   UNL     1     -41.927 -48.274   9.787  1.00  0.00    -0.340 N 
HETATM    2  C   UNL     1     -41.227 -48.685  10.898  1.00  0.00     0.320 C 
HETATM    3  O   UNL     1     -41.374 -48.167  11.996  1.00  0.00    -0.247 OA
HETATM    4  N   UNL     1     -40.420 -49.768  10.621  1.00  0.00    -0.309 N 
HETATM    5  H   UNL     1     -41.411 -48.319   8.917  1.00  0.00     0.164 HD
HETATM    6  H   UNL     1     -40.812 -50.393   9.930  1.00  0.00     0.170 HD
ENDROOT
BRANCH   1   7
HETATM    7  C   UNL     1     -42.874 -47.180   9.951  1.00  0.00     0.162 C 
BRANCH   7   8
HETATM    8  C   UNL     1     -43.576 -46.753   8.646  1.00  0.00     0.074 C 
HETATM    9  C   UNL     1     -44.099 -47.978   7.879  1.00  0.00     0.039 C 
HETATM   10  C   UNL     1     -45.554 -48.166   8.307  1.00  0.00     0.003 C 
HETATM   11  C   UNL     1     -45.914 -46.966   9.176  1.00  0.00     0.003 C 
HETATM   12  C   UNL     1     -44.843 -45.929   8.877  1.00  0.00     0.039 C 
BRANCH   8  13
HETATM   13  O   UNL     1     -42.675 -46.011   7.828  1.00  0.00    -0.388 OA
HETATM   14  H   UNL     1     -41.770 -46.250   8.093  1.00  0.00     0.210 HD
ENDBRANCH   8  13
ENDBRANCH   7   8
ENDBRANCH   1   7
BRANCH   4  15
HETATM   15  C   UNL     1     -39.591 -50.336  11.614  1.00  0.00     0.038 A 
HETATM   16  C   UNL     1     -38.240 -50.009  11.639  1.00  0.00     0.046 A 
HETATM   17  C   UNL     1     -37.438 -50.649  12.570  1.00  0.00     0.090 A 
HETATM   18  N   UNL     1     -37.896 -51.526  13.489  1.00  0.00    -0.375 N 
HETATM   19  C   UNL     1     -39.219 -51.790  13.464  1.00  0.00     0.090 A 
ATOM     20  HN  UNL     1     -37.273 -51.966  14.166  1.00  0.00     0.164 HD
HETATM   21  C   UNL     1     -40.097 -51.230  12.555  1.00  0.00     0.046 A 
ENDBRANCH   4  15
TORSDOF 4
ENDMDL
MODEL 2
REMARK VINA RESULT:      -6.5      4.317      6.697
REMARK  4 active torsions:
REMARK  status: ('A' for Active; 'I' for Inactive)
REMARK    1  A    between atoms: O_1  and  C_2 
REMARK    2  A    between atoms: C_2  and  C_3 
REMARK    3  A    between atoms: C_3  and  N_4 
REMARK       I    between atoms: N_4  and  C_5 
REMARK       I    between atoms: C_5  and  N_7 
REMARK    4  A    between atoms: N_7  and  C_8 
ROOT
HETATM    1  N   UNL     1     -41.222 -52.053  11.658  1.00  0.00    -0.340 N 
HETATM    2  C   UNL     1     -42.234 -52.314  12.552  1.00  0.00     0.320 C 
HETATM    3  O   UNL     1     -42.156 -52.024  13.738  1.00  0.00    -0.247 OA
HETATM    4  N   UNL     1     -43.335 -52.866  11.931  1.00  0.00    -0.309 N 
HETATM    5  H   UNL     1     -41.105 -52.747  10.931  1.00  0.00     0.164 HD
HETATM    6  H   UNL     1     -43.478 -52.523  10.992  1.00  0.00     0.170 HD
ENDROOT
BRANCH   1   7
HETATM    7  C   UNL     1     -40.023 -51.402  12.166  1.00  0.00     0.162 C 
BRANCH   7   8
HETATM    8  C   UNL     1     -39.745 -50.019  11.543  1.00  0.00     0.074 C 
HETATM    9  C   UNL     1     -40.303 -48.895  12.430  1.00  0.00     0.039 C 
HETATM   10  C   UNL     1     -39.151 -48.444  13.329  1.00  0.00     0.003 C 
HETATM   11  C   UNL     1     -37.905 -49.179  12.847  1.00  0.00     0.003 C 
HETATM   12  C   UNL     1     -38.257 -49.677  11.455  1.00  0.00     0.039 C 
BRANCH   8  13
HETATM   13  O   UNL     1     -40.322 -49.946  10.241  1.00  0.00    -0.388 OA
HETATM   14  H   UNL     1     -39.610 -50.092   9.594  1.00  0.00     0.210 HD
ENDBRANCH   8  13
ENDBRANCH   7   8
ENDBRANCH   1   7
BRANCH   4  15
HETATM   15  C   UNL     1     -44.480 -53.240  12.668  1.00  0.00     0.038 A 
HETATM   16  C   UNL     1     -45.512 -52.322  12.831  1.00  0.00     0.046 A 
HETATM   17  C   UNL     1     -46.582 -52.688  13.632  1.00  0.00     0.090 A 
HETATM   18  N   UNL     1     -46.711 -53.899  14.216  1.00  0.00    -0.375 N 
HETATM   19  C   UNL     1     -45.713 -54.781  14.003  1.00  0.00     0.090 A 
ATOM     20  HN  UNL     1     -47.522 -54.135  14.788  1.00  0.00     0.164 HD
HETATM   21  C   UNL     1     -44.588 -54.502  13.249  1.00  0.00     0.046 A 
ENDBRANCH   4  15
TORSDOF 4
ENDMDL
MODEL 3
REMARK VINA RESULT:      -6.2      2.475      6.792
REMARK  4 active torsions:
REMARK  status: ('A' for Active; 'I' for Inactive)
REMARK    1  A    between atoms: O_1  and  C_2 
REMARK    2  A    between atoms: C_2  and  C_3 
REMARK    3  A    between atoms: C_3  and  N_4 
REMARK       I    between atoms: N_4  and  C_5 
REMARK       I    between atoms: C_5  and  N_7 
REMARK    4  A    between atoms: N_7  and  C_8 
ROOT
HETATM    1  N   UNL     1     -40.399 -50.870  11.602  1.00  0.00    -0.340 N 
HETATM    2  C   UNL     1     -41.157 -49.723  11.650  1.00  0.00     0.320 C 
HETATM    3  O   UNL     1     -41.801 -49.401  12.639  1.00  0.00    -0.247 OA
HETATM    4  N   UNL     1     -41.037 -48.983  10.493  1.00  0.00    -0.309 N 
HETATM    5  H   UNL     1     -40.376 -51.329  10.701  1.00  0.00     0.164 HD
HETATM    6  H   UNL     1     -40.121 -49.042  10.073  1.00  0.00     0.170 HD
ENDROOT
BRANCH   1   7
HETATM    7  C   UNL     1     -40.375 -51.714  12.788  1.00  0.00     0.162 C 
BRANCH   7   8
HETATM    8  C   UNL     1     -40.852 -53.159  12.542  1.00  0.00     0.074 C 
HETATM    9  C   UNL     1     -40.170 -54.135  13.514  1.00  0.00     0.039 C 
HETATM   10  C   UNL     1     -41.117 -54.290  14.704  1.00  0.00     0.003 C 
HETATM   11  C   UNL     1     -42.400 -53.549  14.343  1.00  0.00     0.003 C 
HETATM   12  C   UNL     1     -42.338 -53.369  12.835  1.00  0.00     0.039 C 
BRANCH   8  13
HETATM   13  O   UNL     1     -40.580 -53.540  11.195  1.00  0.00    -0.388 OA
HETATM   14  H   UNL     1     -40.437 -54.503  11.184  1.00  0.00     0.210 HD
ENDBRANCH   8  13
ENDBRANCH   7   8
ENDBRANCH   1   7
BRANCH   4  15
HETATM   15  C   UNL     1     -41.755 -47.779  10.317  1.00  0.00     0.038 A 
HETATM   16  C   UNL     1     -41.211 -46.589  10.786  1.00  0.00     0.046 A 
HETATM   17  C   UNL     1     -41.978 -45.440  10.676  1.00  0.00     0.090 A 
HETATM   18  N   UNL     1     -43.194 -45.394  10.091  1.00  0.00    -0.375 N 
HETATM   19  C   UNL     1     -43.675 -46.559   9.608  1.00  0.00     0.090 A 
ATOM     20  HN  UNL     1     -43.721 -44.524  10.018  1.00  0.00     0.164 HD
HETATM   21  C   UNL     1     -43.004 -47.764   9.698  1.00  0.00     0.046 A 
ENDBRANCH   4  15
TORSDOF 4
ENDMDL
MODEL 4
REMARK VINA RESULT:      -6.0      1.809      7.074
REMARK  4 active torsions:
REMARK  status: ('A' for Active; 'I' for Inactive)
REMARK    1  A    between atoms: O_1  and  C_2 
REMARK    2  A    between atoms: C_2  and  C_3 
REMARK    3  A    between atoms: C_3  and  N_4 
REMARK       I    between atoms: N_4  and  C_5 
REMARK       I    between atoms: C_5  and  N_7 
REMARK    4  A    between atoms: N_7  and  C_8 
ROOT
HETATM    1  N   UNL     1     -40.674 -49.789  10.644  1.00  0.00    -0.340 N 
HETATM    2  C   UNL     1     -41.722 -48.905  10.752  1.00  0.00     0.320 C 
HETATM    3  O   UNL     1     -42.330 -48.731  11.799  1.00  0.00    -0.247 OA
HETATM    4  N   UNL     1     -41.936 -48.219   9.575  1.00  0.00    -0.309 N 
HETATM    5  H   UNL     1     -40.609 -50.267   9.754  1.00  0.00     0.164 HD
HETATM    6  H   UNL     1     -41.088 -48.036   9.059  1.00  0.00     0.170 HD
ENDROOT
BRANCH   1   7
HETATM    7  C   UNL     1     -40.290 -50.531  11.836  1.00  0.00     0.162 C 
BRANCH   7   8
HETATM    8  C   UNL     1     -39.177 -49.859  12.665  1.00  0.00     0.074 C 
HETATM    9  C   UNL     1     -38.320 -50.910  13.387  1.00  0.00     0.039 C 
HETATM   10  C   UNL     1     -37.125 -51.193  12.476  1.00  0.00     0.003 C 
HETATM   11  C   UNL     1     -37.205 -50.194  11.327  1.00  0.00     0.003 C 
HETATM   12  C   UNL     1     -38.151 -49.109  11.815  1.00  0.00     0.039 C 
BRANCH   8  13
HETATM   13  O   UNL     1     -39.749 -48.960  13.612  1.00  0.00    -0.388 OA
HETATM   14  H   UNL     1     -40.521 -49.402  14.009  1.00  0.00     0.210 HD
ENDBRANCH   8  13
ENDBRANCH   7   8
ENDBRANCH   1   7
BRANCH   4  15
HETATM   15  C   UNL     1     -42.984 -47.280   9.456  1.00  0.00     0.038 A 
HETATM   16  C   UNL     1     -44.278 -47.732   9.217  1.00  0.00     0.046 A 
HETATM   17  C   UNL     1     -45.267 -46.782   9.018  1.00  0.00     0.090 A 
HETATM   18  N   UNL     1     -45.065 -45.450   9.098  1.00  0.00    -0.375 N 
HETATM   19  C   UNL     1     -43.807 -45.045   9.373  1.00  0.00     0.090 A 
ATOM     20  HN  UNL     1     -45.824 -44.783   8.958  1.00  0.00     0.164 HD
HETATM   21  C   UNL     1     -42.745 -45.911   9.555  1.00  0.00     0.046 A 
ENDBRANCH   4  15
TORSDOF 4
ENDMDL
MODEL 5
REMARK VINA RESULT:      -5.9      4.214      6.059
REMARK  4 active torsions:
REMARK  status: ('A' for Active; 'I' for Inactive)
REMARK    1  A    between atoms: O_1  and  C_2 
REMARK    2  A    between atoms: C_2  and  C_3 
REMARK    3  A    between atoms: C_3  and  N_4 
REMARK       I    between atoms: N_4  and  C_5 
REMARK       I    between atoms: C_5  and  N_7 
REMARK    4  A    between atoms: N_7  and  C_8 
ROOT
HETATM    1  N   UNL     1     -42.978 -51.455  12.569  1.00  0.00    -0.340 N 
HETATM    2  C   UNL     1     -42.810 -50.097  12.428  1.00  0.00     0.320 C 
HETATM    3  O   UNL     1     -43.350 -49.287  13.168  1.00  0.00    -0.247 OA
HETATM    4  N   UNL     1     -41.925 -49.795  11.414  1.00  0.00    -0.309 N 
HETATM    5  H   UNL     1     -42.997 -51.975  11.702  1.00  0.00     0.164 HD
HETATM    6  H   UNL     1     -41.185 -50.474  11.314  1.00  0.00     0.170 HD
ENDROOT
BRANCH   1   7
HETATM    7  C   UNL     1     -43.833 -51.921  13.652  1.00  0.00     0.162 C 
BRANCH   7   8
HETATM    8  C   UNL     1     -45.195 -52.473  13.185  1.00  0.00     0.074 C 
HETATM    9  C   UNL     1     -45.699 -53.566  14.140  1.00  0.00     0.039 C 
HETATM   10  C   UNL     1     -46.610 -52.869  15.151  1.00  0.00     0.003 C 
HETATM   11  C   UNL     1     -46.764 -51.427  14.681  1.00  0.00     0.003 C 
HETATM   12  C   UNL     1     -46.320 -51.439  13.227  1.00  0.00     0.039 C 
BRANCH   8  13
HETATM   13  O   UNL     1     -45.083 -52.993  11.863  1.00  0.00    -0.388 OA
HETATM   14  H   UNL     1     -44.272 -52.627  11.470  1.00  0.00     0.210 HD
ENDBRANCH   8  13
ENDBRANCH   7   8
ENDBRANCH   1   7
BRANCH   4  15
HETATM   15  C   UNL     1     -41.628 -48.456  11.077  1.00  0.00     0.038 A 
HETATM   16  C   UNL     1     -42.541 -47.725  10.325  1.00  0.00     0.046 A 
HETATM   17  C   UNL     1     -42.181 -46.445   9.937  1.00  0.00     0.090 A 
HETATM   18  N   UNL     1     -41.025 -45.843  10.293  1.00  0.00    -0.375 N 
HETATM   19  C   UNL     1     -40.180 -46.564  11.058  1.00  0.00     0.090 A 
ATOM     20  HN  UNL     1     -40.803 -44.892   9.997  1.00  0.00     0.164 HD
HETATM   21  C   UNL     1     -40.431 -47.859  11.469  1.00  0.00     0.046 A 
ENDBRANCH   4  15
TORSDOF 4
ENDMDL
MODEL 6
REMARK VINA RESULT:      -5.8      4.522      5.958
REMARK  4 active torsions:
REMARK  status: ('A' for Active; 'I' for Inactive)
REMARK    1  A    between atoms: O_1  and  C_2 
REMARK    2  A    between atoms: C_2  and  C_3 
REMARK    3  A    between atoms: C_3  and  N_4 
REMARK       I    between atoms: N_4  and  C_5 
REMARK       I    between atoms: C_5  and  N_7 
REMARK    4  A    between atoms: N_7  and  C_8 
ROOT
HETATM    1  N   UNL     1     -43.193 -52.777  12.740  1.00  0.00    -0.340 N 
HETATM    2  C   UNL     1     -42.522 -51.581  12.841  1.00  0.00     0.320 C 
HETATM    3  O   UNL     1     -42.549 -50.895  13.853  1.00  0.00    -0.247 OA
HETATM    4  N   UNL     1     -41.786 -51.311  11.707  1.00  0.00    -0.309 N 
HETATM    5  H   UNL     1     -43.574 -52.977  11.824  1.00  0.00     0.164 HD
HETATM    6  H   UNL     1     -41.412 -52.139  11.266  1.00  0.00     0.170 HD
ENDROOT
BRANCH   1   7
HETATM    7  C   UNL     1     -43.956 -53.224  13.897  1.00  0.00     0.162 C 
BRANCH   7   8
HETATM    8  C   UNL     1     -45.442 -53.512  13.599  1.00  0.00     0.074 C 
HETATM    9  C   UNL     1     -46.305 -53.286  14.850  1.00  0.00     0.039 C 
HETATM   10  C   UNL     1     -46.824 -51.851  14.762  1.00  0.00     0.003 C 
HETATM   11  C   UNL     1     -46.406 -51.316  13.397  1.00  0.00     0.003 C 
HETATM   12  C   UNL     1     -46.057 -52.551  12.582  1.00  0.00     0.039 C 
BRANCH   8  13
HETATM   13  O   UNL     1     -45.595 -54.851  13.134  1.00  0.00    -0.388 OA
HETATM   14  H   UNL     1     -44.722 -55.279  13.175  1.00  0.00     0.210 HD
ENDBRANCH   8  13
ENDBRANCH   7   8
ENDBRANCH   1   7
BRANCH   4  15
HETATM   15  C   UNL     1     -41.040 -50.118  11.585  1.00  0.00     0.038 A 
HETATM   16  C   UNL     1     -39.681 -50.133  11.878  1.00  0.00     0.046 A 
HETATM   17  C   UNL     1     -38.997 -48.929  11.834  1.00  0.00     0.090 A 
HETATM   18  N   UNL     1     -39.554 -47.755  11.468  1.00  0.00    -0.375 N 
HETATM   19  C   UNL     1     -40.865 -47.782  11.149  1.00  0.00     0.090 A 
ATOM     20  HN  UNL     1     -39.011 -46.891  11.435  1.00  0.00     0.164 HD
HETATM   21  C   UNL     1     -41.643 -48.924  11.194  1.00  0.00     0.046 A 
ENDBRANCH   4  15
TORSDOF 4
ENDMDL
MODEL 7
REMARK VINA RESULT:      -5.7      4.362      6.637
REMARK  4 active torsions:
REMARK  status: ('A' for Active; 'I' for Inactive)
REMARK    1  A    between atoms: O_1  and  C_2 
REMARK    2  A    between atoms: C_2  and  C_3 
REMARK    3  A    between atoms: C_3  and  N_4 
REMARK       I    between atoms: N_4  and  C_5 
REMARK       I    between atoms: C_5  and  N_7 
REMARK    4  A    between atoms: N_7  and  C_8 
ROOT
HETATM    1  N   UNL     1     -40.511 -51.289  11.398  1.00  0.00    -0.340 N 
HETATM    2  C   UNL     1     -41.465 -51.682  12.308  1.00  0.00     0.320 C 
HETATM    3  O   UNL     1     -41.832 -50.965  13.228  1.00  0.00    -0.247 OA
HETATM    4  N   UNL     1     -41.978 -52.926  12.004  1.00  0.00    -0.309 N 
HETATM    5  H   UNL     1     -39.901 -52.028  11.073  1.00  0.00     0.164 HD
HETATM    6  H   UNL     1     -42.027 -53.106  11.012  1.00  0.00     0.170 HD
ENDROOT
BRANCH   1   7
HETATM    7  C   UNL     1     -39.933 -49.961  11.557  1.00  0.00     0.162 C 
BRANCH   7   8
HETATM    8  C   UNL     1     -38.407 -49.961  11.773  1.00  0.00     0.074 C 
HETATM    9  C   UNL     1     -37.964 -48.713  12.553  1.00  0.00     0.039 C 
HETATM   10  C   UNL     1     -37.921 -49.118  14.027  1.00  0.00     0.003 C 
HETATM   11  C   UNL     1     -38.169 -50.621  14.075  1.00  0.00     0.003 C 
HETATM   12  C   UNL     1     -37.915 -51.107  12.658  1.00  0.00     0.039 C 
BRANCH   8  13
HETATM   13  O   UNL     1     -37.736 -50.016  10.516  1.00  0.00    -0.388 OA
HETATM   14  H   UNL     1     -37.491 -50.944  10.353  1.00  0.00     0.210 HD
ENDBRANCH   8  13
ENDBRANCH   7   8
ENDBRANCH   1   7
BRANCH   4  15
HETATM   15  C   UNL     1     -42.952 -53.536  12.824  1.00  0.00     0.038 A 
HETATM   16  C   UNL     1     -42.546 -54.250  13.946  1.00  0.00     0.046 A 
HETATM   17  C   UNL     1     -43.519 -54.910  14.680  1.00  0.00     0.090 A 
HETATM   18  N   UNL     1     -44.841 -54.854  14.407  1.00  0.00    -0.375 N 
HETATM   19  C   UNL     1     -45.206 -54.117  13.337  1.00  0.00     0.090 A 
ATOM     20  HN  UNL     1     -45.527 -55.343  14.981  1.00  0.00     0.164 HD
HETATM   21  C   UNL     1     -44.310 -53.450  12.522  1.00  0.00     0.046 A 
ENDBRANCH   4  15
TORSDOF 4
ENDMDL
MODEL 8
REMARK VINA RESULT:      -5.5      2.049      6.880
REMARK  4 active torsions:
REMARK  status: ('A' for Active; 'I' for Inactive)
REMARK    1  A    between atoms: O_1  and  C_2 
REMARK    2  A    between atoms: C_2  and  C_3 
REMARK    3  A    between atoms: C_3  and  N_4 
REMARK       I    between atoms: N_4  and  C_5 
REMARK       I    between atoms: C_5  and  N_7 
REMARK    4  A    between atoms: N_7  and  C_8 
ROOT
HETATM    1  N   UNL     1     -40.468 -50.694  11.415  1.00  0.00    -0.340 N 
HETATM    2  C   UNL     1     -41.263 -49.573  11.467  1.00  0.00     0.320 C 
HETATM    3  O   UNL     1     -41.885 -49.254  12.471  1.00  0.00    -0.247 OA
HETATM    4  N   UNL     1     -41.207 -48.851  10.294  1.00  0.00    -0.309 N 
HETATM    5  H   UNL     1     -40.458 -51.169  10.522  1.00  0.00     0.164 HD
HETATM    6  H   UNL     1     -40.303 -48.888   9.845  1.00  0.00     0.170 HD
ENDROOT
BRANCH   1   7
HETATM    7  C   UNL     1     -40.376 -51.514  12.614  1.00  0.00     0.162 C 
BRANCH   7   8
HETATM    8  C   UNL     1     -38.978 -51.523  13.266  1.00  0.00     0.074 C 
HETATM    9  C   UNL     1     -37.985 -50.689  12.442  1.00  0.00     0.039 C 
HETATM   10  C   UNL     1     -37.987 -49.288  13.054  1.00  0.00     0.003 C 
HETATM   11  C   UNL     1     -38.839 -49.363  14.316  1.00  0.00     0.003 C 
HETATM   12  C   UNL     1     -38.940 -50.845  14.636  1.00  0.00     0.039 C 
BRANCH   8  13
HETATM   13  O   UNL     1     -38.507 -52.863  13.391  1.00  0.00    -0.388 OA
HETATM   14  H   UNL     1     -37.535 -52.839  13.347  1.00  0.00     0.210 HD
ENDBRANCH   8  13
ENDBRANCH   7   8
ENDBRANCH   1   7
BRANCH   4  15
HETATM   15  C   UNL     1     -41.971 -47.676  10.120  1.00  0.00     0.038 A 
HETATM   16  C   UNL     1     -41.523 -46.485  10.682  1.00  0.00     0.046 A 
HETATM   17  C   UNL     1     -42.338 -45.370  10.568  1.00  0.00     0.090 A 
HETATM   18  N   UNL     1     -43.510 -45.354   9.898  1.00  0.00    -0.375 N 
HETATM   19  C   UNL     1     -43.895 -46.515   9.328  1.00  0.00     0.090 A 
ATOM     20  HN  UNL     1     -44.075 -44.508   9.826  1.00  0.00     0.164 HD
HETATM   21  C   UNL     1     -43.171 -47.690   9.413  1.00  0.00     0.046 A 
ENDBRANCH   4  15
TORSDOF 4
ENDMDL
MODEL 9
REMARK VINA RESULT:      -5.5      2.492      3.450
REMARK  4 active torsions:
REMARK  status: ('A' for Active; 'I' for Inactive)
REMARK    1  A    between atoms: O_1  and  C_2 
REMARK    2  A    between atoms: C_2  and  C_3 
REMARK    3  A    between atoms: C_3  and  N_4 
REMARK       I    between atoms: N_4  and  C_5 
REMARK       I    between atoms: C_5  and  N_7 
REMARK    4  A    between atoms: N_7  and  C_8 
ROOT
HETATM    1  N   UNL     1     -40.429 -49.097  10.920  1.00  0.00    -0.340 N 
HETATM    2  C   UNL     1     -40.837 -49.982  11.891  1.00  0.00     0.320 C 
HETATM    3  O   UNL     1     -41.007 -49.649  13.055  1.00  0.00    -0.247 OA
HETATM    4  N   UNL     1     -41.085 -51.234  11.369  1.00  0.00    -0.309 N 
HETATM    5  H   UNL     1     -39.816 -49.487  10.217  1.00  0.00     0.164 HD
HETATM    6  H   UNL     1     -41.452 -51.209  10.428  1.00  0.00     0.170 HD
ENDROOT
BRANCH   1   7
HETATM    7  C   UNL     1     -40.200 -47.715  11.320  1.00  0.00     0.162 C 
BRANCH   7   8
HETATM    8  C   UNL     1     -41.238 -46.719  10.764  1.00  0.00     0.074 C 
HETATM    9  C   UNL     1     -42.367 -47.457  10.027  1.00  0.00     0.039 C 
HETATM   10  C   UNL     1     -43.484 -47.667  11.049  1.00  0.00     0.003 C 
HETATM   11  C   UNL     1     -43.075 -46.910  12.308  1.00  0.00     0.003 C 
HETATM   12  C   UNL     1     -41.988 -45.950  11.852  1.00  0.00     0.039 C 
BRANCH   8  13
HETATM   13  O   UNL     1     -40.604 -45.793   9.885  1.00  0.00    -0.388 OA
HETATM   14  H   UNL     1     -40.033 -45.218  10.425  1.00  0.00     0.210 HD
ENDBRANCH   8  13
ENDBRANCH   7   8
ENDBRANCH   1   7
BRANCH   4  15
HETATM   15  C   UNL     1     -41.488 -52.306  12.196  1.00  0.00     0.038 A 
HETATM   16  C   UNL     1     -40.520 -53.078  12.827  1.00  0.00     0.046 A 
HETATM   17  C   UNL     1     -40.944 -54.174  13.561  1.00  0.00     0.090 A 
HETATM   18  N   UNL     1     -42.240 -54.504  13.747  1.00  0.00    -0.375 N 
HETATM   19  C   UNL     1     -43.157 -53.710  13.155  1.00  0.00     0.090 A 
ATOM     20  HN  UNL     1     -42.513 -55.313  14.306  1.00  0.00     0.164 HD
HETATM   21  C   UNL     1     -42.835 -52.614  12.376  1.00  0.00     0.046 A 
ENDBRANCH   4  15
TORSDOF 4
ENDMDL
