MODEL 1
REMARK VINA RESULT:      -5.8      0.000      0.000
REMARK  6 active torsions:
REMARK  status: ('A' for Active; 'I' for Inactive)
REMARK    1  A    between atoms: C_2  and  C_3 
REMARK    2  A    between atoms: C_2  and  N_15 
REMARK       I    between atoms: C_3  and  N_5 
REMARK    3  A    between atoms: N_5  and  C_6 
REMARK    4  A    between atoms: C_6  and  C_7 
REMARK    5  A    between atoms: C_7  and  C_8 
REMARK    6  A    between atoms: C_8  and  O_9 
ROOT
HETATM    1  C   UNL     1     -43.429 -53.942  13.269  1.00  0.00     0.240 C 
HETATM    2  O   UNL     1     -44.090 -54.236  12.275  1.00  0.00    -0.271 OA
HETATM    3  N   UNL     1     -43.994 -53.371  14.390  1.00  0.00    -0.358 N 
HETATM    4  H   UNL     1     -43.396 -53.042  15.137  1.00  0.00     0.162 HD
ENDROOT
BRANCH   3   5
HETATM    5  C   UNL     1     -45.423 -53.160  14.525  1.00  0.00     0.134 C 
BRANCH   5   6
HETATM    6  C   UNL     1     -45.867 -51.696  14.257  1.00  0.00    -0.003 C 
HETATM    7  C   UNL     1     -44.771 -50.672  14.645  1.00  0.00     0.013 C 
HETATM    8  C   UNL     1     -44.450 -50.665  16.139  1.00  0.00     0.001 C 
HETATM    9  C   UNL     1     -45.696 -50.479  17.001  1.00  0.00     0.000 C 
HETATM   10  C   UNL     1     -46.838 -51.417  16.619  1.00  0.00     0.001 C 
HETATM   11  C   UNL     1     -47.125 -51.390  15.116  1.00  0.00     0.013 C 
BRANCH   6  12
HETATM   12  C   UNL     1     -46.206 -51.508  12.757  1.00  0.00     0.175 C 
BRANCH  12  13
HETATM   13  O   UNL     1     -46.514 -52.743  12.123  1.00  0.00    -0.400 OA
HETATM   14  H   UNL     1     -45.679 -53.242  12.022  1.00  0.00     0.209 HD
ENDBRANCH  12  13
ENDBRANCH   6  12
ENDBRANCH   5   6
ENDBRANCH   3   5
BRANCH   1  15
HETATM   15  C   UNL     1     -41.915 -54.145  13.324  1.00  0.00     0.177 C 
HETATM   16  C   UNL     1     -41.475 -54.613  14.715  1.00  0.00     0.043 C 
BRANCH  15  17
HETATM   17  N   UNL     1     -41.235 -52.953  12.832  1.00  0.00    -0.338 N 
HETATM   18  C   UNL     1     -40.224 -52.248  13.421  1.00  0.00     0.109 A 
HETATM   19  C   UNL     1     -39.943 -51.220  12.550  1.00  0.00     0.106 A 
HETATM   20  N   UNL     1     -40.765 -51.278  11.456  1.00  0.00    -0.361 N 
HETATM   21  C   UNL     1     -41.519 -52.339  11.640  1.00  0.00     0.183 A 
ATOM     22  HN  UNL     1     -40.787 -50.634  10.665  1.00  0.00     0.166 HD
ENDBRANCH  15  17
ENDBRANCH   1  15
TORSDOF 6
ENDMDL
MODEL 2
REMARK VINA RESULT:      -5.7      4.091      5.316
REMARK  6 active torsions:
REMARK  status: ('A' for Active; 'I' for Inactive)
REMARK    1  A    between atoms: C_2  and  C_3 
REMARK    2  A    between atoms: C_2  and  N_15 
REMARK       I    between atoms: C_3  and  N_5 
REMARK    3  A    between atoms: N_5  and  C_6 
REMARK    4  A    between atoms: C_6  and  C_7 
REMARK    5  A    between atoms: C_7  and  C_8 
REMARK    6  A    between atoms: C_8  and  O_9 
ROOT
HETATM    1  C   UNL     1     -42.969 -48.424  12.137  1.00  0.00     0.240 C 
HETATM    2  O   UNL     1     -43.124 -47.545  12.982  1.00  0.00    -0.271 OA
HETATM    3  N   UNL     1     -43.226 -49.754  12.397  1.00  0.00    -0.358 N 
HETATM    4  H   UNL     1     -42.977 -50.453  11.710  1.00  0.00     0.162 HD
ENDROOT
BRANCH   3   5
HETATM    5  C   UNL     1     -43.790 -50.210  13.654  1.00  0.00     0.134 C 
BRANCH   5   6
HETATM    6  C   UNL     1     -44.105 -51.731  13.681  1.00  0.00    -0.003 C 
HETATM    7  C   UNL     1     -45.362 -52.083  12.846  1.00  0.00     0.013 C 
HETATM    8  C   UNL     1     -46.645 -51.457  13.390  1.00  0.00     0.001 C 
HETATM    9  C   UNL     1     -46.868 -51.775  14.866  1.00  0.00     0.000 C 
HETATM   10  C   UNL     1     -45.639 -51.512  15.731  1.00  0.00     0.001 C 
HETATM   11  C   UNL     1     -44.378 -52.158  15.149  1.00  0.00     0.013 C 
BRANCH   6  12
HETATM   12  C   UNL     1     -42.903 -52.534  13.123  1.00  0.00     0.175 C 
BRANCH  12  13
HETATM   13  O   UNL     1     -42.942 -52.629  11.705  1.00  0.00    -0.400 OA
HETATM   14  H   UNL     1     -43.136 -53.560  11.474  1.00  0.00     0.209 HD
ENDBRANCH  12  13
ENDBRANCH   6  12
ENDBRANCH   5   6
ENDBRANCH   3   5
BRANCH   1  15
HETATM   15  C   UNL     1     -42.435 -48.117  10.738  1.00  0.00     0.177 C 
HETATM   16  C   UNL     1     -40.975 -47.657  10.798  1.00  0.00     0.043 C 
BRANCH  15  17
HETATM   17  N   UNL     1     -43.339 -47.204  10.050  1.00  0.00    -0.338 N 
HETATM   18  C   UNL     1     -43.075 -45.959   9.553  1.00  0.00     0.109 A 
HETATM   19  C   UNL     1     -44.260 -45.528   9.002  1.00  0.00     0.106 A 
HETATM   20  N   UNL     1     -45.237 -46.475   9.160  1.00  0.00    -0.361 N 
HETATM   21  C   UNL     1     -44.654 -47.480   9.776  1.00  0.00     0.183 A 
ATOM     22  HN  UNL     1     -46.211 -46.413   8.864  1.00  0.00     0.166 HD
ENDBRANCH  15  17
ENDBRANCH   1  15
TORSDOF 6
ENDMDL
MODEL 3
REMARK VINA RESULT:      -5.6      1.656      2.390
REMARK  6 active torsions:
REMARK  status: ('A' for Active; 'I' for Inactive)
REMARK    1  A    between atoms: C_2  and  C_3 
REMARK    2  A    between atoms: C_2  and  N_15 
REMARK       I    between atoms: C_3  and  N_5 
REMARK    3  A    between atoms: N_5  and  C_6 
REMARK    4  A    between atoms: C_6  and  C_7 
REMARK    5  A    between atoms: C_7  and  C_8 
REMARK    6  A    between atoms: C_8  and  O_9 
ROOT
HETATM    1  C   UNL     1     -42.385 -51.604  13.308  1.00  0.00     0.240 C 
HETATM    2  O   UNL     1     -42.028 -51.483  14.478  1.00  0.00    -0.271 OA
HETATM    3  N   UNL     1     -43.686 -51.391  12.906  1.00  0.00    -0.358 N 
HETATM    4  H   UNL     1     -43.958 -51.612  11.957  1.00  0.00     0.162 HD
ENDROOT
BRANCH   3   5
HETATM    5  C   UNL     1     -44.716 -50.915  13.810  1.00  0.00     0.134 C 
BRANCH   5   6
HETATM    6  C   UNL     1     -46.007 -51.777  13.797  1.00  0.00    -0.003 C 
HETATM    7  C   UNL     1     -47.001 -51.360  14.911  1.00  0.00     0.013 C 
HETATM    8  C   UNL     1     -46.457 -51.581  16.321  1.00  0.00     0.001 C 
HETATM    9  C   UNL     1     -45.965 -53.009  16.539  1.00  0.00     0.000 C 
HETATM   10  C   UNL     1     -45.034 -53.501  15.435  1.00  0.00     0.001 C 
HETATM   11  C   UNL     1     -45.620 -53.261  14.041  1.00  0.00     0.013 C 
BRANCH   6  12
HETATM   12  C   UNL     1     -46.722 -51.647  12.428  1.00  0.00     0.175 C 
BRANCH  12  13
HETATM   13  O   UNL     1     -46.382 -52.711  11.548  1.00  0.00    -0.400 OA
HETATM   14  H   UNL     1     -47.146 -53.321  11.509  1.00  0.00     0.209 HD
ENDBRANCH  12  13
ENDBRANCH   6  12
ENDBRANCH   5   6
ENDBRANCH   3   5
BRANCH   1  15
HETATM   15  C   UNL     1     -41.419 -52.046  12.209  1.00  0.00     0.177 C 
HETATM   16  C   UNL     1     -40.843 -53.433  12.509  1.00  0.00     0.043 C 
BRANCH  15  17
HETATM   17  N   UNL     1     -40.425 -51.006  11.973  1.00  0.00    -0.338 N 
HETATM   18  C   UNL     1     -39.136 -50.945  12.421  1.00  0.00     0.109 A 
HETATM   19  C   UNL     1     -38.631 -49.768  11.919  1.00  0.00     0.106 A 
HETATM   20  N   UNL     1     -39.584 -49.109  11.187  1.00  0.00    -0.361 N 
HETATM   21  C   UNL     1     -40.646 -49.883  11.219  1.00  0.00     0.183 A 
ATOM     22  HN  UNL     1     -39.489 -48.209  10.717  1.00  0.00     0.166 HD
ENDBRANCH  15  17
ENDBRANCH   1  15
TORSDOF 6
ENDMDL
MODEL 4
REMARK VINA RESULT:      -5.4      3.361      5.183
REMARK  6 active torsions:
REMARK  status: ('A' for Active; 'I' for Inactive)
REMARK    1  A    between atoms: C_2  and  C_3 
REMARK    2  A    between atoms: C_2  and  N_15 
REMARK       I    between atoms: C_3  and  N_5 
REMARK    3  A    between atoms: N_5  and  C_6 
REMARK    4  A    between atoms: C_6  and  C_7 
REMARK    5  A    between atoms: C_7  and  C_8 
REMARK    6  A    between atoms: C_8  and  O_9 
ROOT
HETATM    1  C   UNL     1     -41.626 -49.828  12.133  1.00  0.00     0.240 C 
HETATM    2  O   UNL     1     -42.119 -49.291  13.122  1.00  0.00    -0.271 OA
HETATM    3  N   UNL     1     -41.843 -51.154  11.825  1.00  0.00    -0.358 N 
HETATM    4  H   UNL     1     -41.328 -51.581  11.067  1.00  0.00     0.162 HD
ENDROOT
BRANCH   3   5
HETATM    5  C   UNL     1     -42.747 -51.996  12.587  1.00  0.00     0.134 C 
BRANCH   5   6
HETATM    6  C   UNL     1     -42.024 -53.026  13.496  1.00  0.00    -0.003 C 
HETATM    7  C   UNL     1     -42.759 -54.390  13.535  1.00  0.00     0.013 C 
HETATM    8  C   UNL     1     -44.154 -54.308  14.153  1.00  0.00     0.001 C 
HETATM    9  C   UNL     1     -44.142 -53.658  15.533  1.00  0.00     0.000 C 
HETATM   10  C   UNL     1     -43.372 -52.342  15.573  1.00  0.00     0.001 C 
HETATM   11  C   UNL     1     -41.982 -52.471  14.946  1.00  0.00     0.013 C 
BRANCH   6  12
HETATM   12  C   UNL     1     -40.578 -53.262  12.990  1.00  0.00     0.175 C 
BRANCH  12  13
HETATM   13  O   UNL     1     -40.550 -53.617  11.613  1.00  0.00    -0.400 OA
HETATM   14  H   UNL     1     -39.975 -54.404  11.521  1.00  0.00     0.209 HD
ENDBRANCH  12  13
ENDBRANCH   6  12
ENDBRANCH   5   6
ENDBRANCH   3   5
BRANCH   1  15
HETATM   15  C   UNL     1     -40.691 -49.075  11.185  1.00  0.00     0.177 C 
HETATM   16  C   UNL     1     -39.351 -48.773  11.863  1.00  0.00     0.043 C 
BRANCH  15  17
HETATM   17  N   UNL     1     -41.375 -47.914  10.630  1.00  0.00    -0.338 N 
HETATM   18  C   UNL     1     -42.574 -47.867   9.977  1.00  0.00     0.109 A 
HETATM   19  C   UNL     1     -42.765 -46.540   9.663  1.00  0.00     0.106 A 
HETATM   20  N   UNL     1     -41.709 -45.786  10.100  1.00  0.00    -0.361 N 
HETATM   21  C   UNL     1     -40.897 -46.632  10.694  1.00  0.00     0.183 A 
ATOM     22  HN  UNL     1     -41.580 -44.780   9.988  1.00  0.00     0.166 HD
ENDBRANCH  15  17
ENDBRANCH   1  15
TORSDOF 6
ENDMDL
MODEL 5
REMARK VINA RESULT:      -5.4      3.192      5.087
REMARK  6 active torsions:
REMARK  status: ('A' for Active; 'I' for Inactive)
REMARK    1  A    between atoms: C_2  and  C_3 
REMARK    2  A    between atoms: C_2  and  N_15 
REMARK       I    between atoms: C_3  and  N_5 
REMARK    3  A    between atoms: N_5  and  C_6 
REMARK    4  A    between atoms: C_6  and  C_7 
REMARK    5  A    between atoms: C_7  and  C_8 
REMARK    6  A    between atoms: C_8  and  O_9 
ROOT
HETATM    1  C   UNL     1     -41.351 -49.491  13.796  1.00  0.00     0.240 C 
HETATM    2  O   UNL     1     -40.192 -49.779  14.087  1.00  0.00    -0.271 OA
HETATM    3  N   UNL     1     -42.366 -50.425  13.788  1.00  0.00    -0.358 N 
HETATM    4  H   UNL     1     -43.278 -50.167  13.434  1.00  0.00     0.162 HD
ENDROOT
BRANCH   3   5
HETATM    5  C   UNL     1     -42.168 -51.798  14.214  1.00  0.00     0.134 C 
BRANCH   5   6
HETATM    6  C   UNL     1     -42.285 -52.832  13.061  1.00  0.00    -0.003 C 
HETATM    7  C   UNL     1     -43.734 -52.946  12.522  1.00  0.00     0.013 C 
HETATM    8  C   UNL     1     -44.725 -53.475  13.558  1.00  0.00     0.001 C 
HETATM    9  C   UNL     1     -44.271 -54.793  14.179  1.00  0.00     0.000 C 
HETATM   10  C   UNL     1     -42.826 -54.762  14.668  1.00  0.00     0.001 C 
HETATM   11  C   UNL     1     -41.869 -54.229  13.599  1.00  0.00     0.013 C 
BRANCH   6  12
HETATM   12  C   UNL     1     -41.355 -52.431  11.889  1.00  0.00     0.175 C 
BRANCH  12  13
HETATM   13  O   UNL     1     -40.543 -53.517  11.459  1.00  0.00    -0.400 OA
HETATM   14  H   UNL     1     -40.306 -53.358  10.523  1.00  0.00     0.209 HD
ENDBRANCH  12  13
ENDBRANCH   6  12
ENDBRANCH   5   6
ENDBRANCH   3   5
BRANCH   1  15
HETATM   15  C   UNL     1     -41.753 -48.077  13.375  1.00  0.00     0.177 C 
HETATM   16  C   UNL     1     -42.871 -47.535  14.270  1.00  0.00     0.043 C 
BRANCH  15  17
HETATM   17  N   UNL     1     -42.040 -48.047  11.946  1.00  0.00    -0.338 N 
HETATM   18  C   UNL     1     -43.137 -47.538  11.311  1.00  0.00     0.109 A 
HETATM   19  C   UNL     1     -42.915 -47.758   9.970  1.00  0.00     0.106 A 
HETATM   20  N   UNL     1     -41.718 -48.395   9.779  1.00  0.00    -0.361 N 
HETATM   21  C   UNL     1     -41.203 -48.540  10.980  1.00  0.00     0.183 A 
ATOM     22  HN  UNL     1     -41.312 -48.694   8.892  1.00  0.00     0.166 HD
ENDBRANCH  15  17
ENDBRANCH   1  15
TORSDOF 6
ENDMDL
MODEL 6
REMARK VINA RESULT:      -5.4      3.048      4.611
REMARK  6 active torsions:
REMARK  status: ('A' for Active; 'I' for Inactive)
REMARK    1  A    between atoms: C_2  and  C_3 
REMARK    2  A    between atoms: C_2  and  N_15 
REMARK       I    between atoms: C_3  and  N_5 
REMARK    3  A    between atoms: N_5  and  C_6 
REMARK    4  A    between atoms: C_6  and  C_7 
REMARK    5  A    between atoms: C_7  and  C_8 
REMARK    6  A    between atoms: C_8  and  O_9 
ROOT
HETATM    1  C   UNL     1     -40.718 -50.412  14.495  1.00  0.00     0.240 C 
HETATM    2  O   UNL     1     -40.204 -50.764  15.555  1.00  0.00    -0.271 OA
HETATM    3  N   UNL     1     -41.705 -51.147  13.872  1.00  0.00    -0.358 N 
HETATM    4  H   UNL     1     -42.017 -50.879  12.948  1.00  0.00     0.162 HD
ENDROOT
BRANCH   3   5
HETATM    5  C   UNL     1     -42.283 -52.340  14.462  1.00  0.00     0.134 C 
BRANCH   5   6
HETATM    6  C   UNL     1     -42.271 -53.573  13.518  1.00  0.00    -0.003 C 
HETATM    7  C   UNL     1     -43.213 -53.387  12.301  1.00  0.00     0.013 C 
HETATM    8  C   UNL     1     -44.686 -53.267  12.689  1.00  0.00     0.001 C 
HETATM    9  C   UNL     1     -45.153 -54.425  13.566  1.00  0.00     0.000 C 
HETATM   10  C   UNL     1     -44.226 -54.701  14.745  1.00  0.00     0.001 C 
HETATM   11  C   UNL     1     -42.762 -54.814  14.311  1.00  0.00     0.013 C 
BRANCH   6  12
HETATM   12  C   UNL     1     -40.835 -53.828  12.993  1.00  0.00     0.175 C 
BRANCH  12  13
HETATM   13  O   UNL     1     -40.638 -53.278  11.697  1.00  0.00    -0.400 OA
HETATM   14  H   UNL     1     -41.090 -53.861  11.054  1.00  0.00     0.209 HD
ENDBRANCH  12  13
ENDBRANCH   6  12
ENDBRANCH   5   6
ENDBRANCH   3   5
BRANCH   1  15
HETATM   15  C   UNL     1     -40.270 -49.150  13.758  1.00  0.00     0.177 C 
HETATM   16  C   UNL     1     -41.477 -48.346  13.265  1.00  0.00     0.043 C 
BRANCH  15  17
HETATM   17  N   UNL     1     -39.298 -49.494  12.728  1.00  0.00    -0.338 N 
HETATM   18  C   UNL     1     -37.953 -49.690  12.861  1.00  0.00     0.109 A 
HETATM   19  C   UNL     1     -37.503 -49.994  11.597  1.00  0.00     0.106 A 
HETATM   20  N   UNL     1     -38.538 -49.976  10.700  1.00  0.00    -0.361 N 
HETATM   21  C   UNL     1     -39.609 -49.693  11.408  1.00  0.00     0.183 A 
ATOM     22  HN  UNL     1     -38.488 -50.148   9.696  1.00  0.00     0.166 HD
ENDBRANCH  15  17
ENDBRANCH   1  15
TORSDOF 6
ENDMDL
MODEL 7
REMARK VINA RESULT:      -5.3      2.168      3.433
REMARK  6 active torsions:
REMARK  status: ('A' for Active; 'I' for Inactive)
REMARK    1  A    between atoms: C_2  and  C_3 
REMARK    2  A    between atoms: C_2  and  N_15 
REMARK       I    between atoms: C_3  and  N_5 
REMARK    3  A    between atoms: N_5  and  C_6 
REMARK    4  A    between atoms: C_6  and  C_7 
REMARK    5  A    between atoms: C_7  and  C_8 
REMARK    6  A    between atoms: C_8  and  O_9 
ROOT
HETATM    1  C   UNL     1     -40.760 -52.526  12.976  1.00  0.00     0.240 C 
HETATM    2  O   UNL     1     -40.463 -53.367  12.130  1.00  0.00    -0.271 OA
HETATM    3  N   UNL     1     -42.064 -52.286  13.354  1.00  0.00    -0.358 N 
HETATM    4  H   UNL     1     -42.270 -51.509  13.969  1.00  0.00     0.162 HD
ENDROOT
BRANCH   3   5
HETATM    5  C   UNL     1     -43.180 -53.070  12.858  1.00  0.00     0.134 C 
BRANCH   5   6
HETATM    6  C   UNL     1     -44.170 -53.519  13.966  1.00  0.00    -0.003 C 
HETATM    7  C   UNL     1     -45.596 -53.767  13.412  1.00  0.00     0.013 C 
HETATM    8  C   UNL     1     -46.256 -52.506  12.854  1.00  0.00     0.001 C 
HETATM    9  C   UNL     1     -46.255 -51.357  13.858  1.00  0.00     0.000 C 
HETATM   10  C   UNL     1     -44.889 -51.109  14.490  1.00  0.00     0.001 C 
HETATM   11  C   UNL     1     -44.267 -52.397  15.036  1.00  0.00     0.013 C 
BRANCH   6  12
HETATM   12  C   UNL     1     -43.668 -54.826  14.631  1.00  0.00     0.175 C 
BRANCH  12  13
HETATM   13  O   UNL     1     -42.258 -54.820  14.815  1.00  0.00    -0.400 OA
HETATM   14  H   UNL     1     -42.025 -54.003  15.300  1.00  0.00     0.209 HD
ENDBRANCH  12  13
ENDBRANCH   6  12
ENDBRANCH   5   6
ENDBRANCH   3   5
BRANCH   1  15
HETATM   15  C   UNL     1     -39.706 -51.645  13.646  1.00  0.00     0.177 C 
HETATM   16  C   UNL     1     -40.334 -50.769  14.734  1.00  0.00     0.043 C 
BRANCH  15  17
HETATM   17  N   UNL     1     -38.949 -50.919  12.634  1.00  0.00    -0.338 N 
HETATM   18  C   UNL     1     -37.594 -50.862  12.464  1.00  0.00     0.109 A 
HETATM   19  C   UNL     1     -37.399 -50.048  11.371  1.00  0.00     0.106 A 
HETATM   20  N   UNL     1     -38.598 -49.603  10.881  1.00  0.00    -0.361 N 
HETATM   21  C   UNL     1     -39.514 -50.156  11.645  1.00  0.00     0.183 A 
ATOM     22  HN  UNL     1     -38.748 -48.976  10.091  1.00  0.00     0.166 HD
ENDBRANCH  15  17
ENDBRANCH   1  15
TORSDOF 6
ENDMDL
MODEL 8
REMARK VINA RESULT:      -5.3      2.324      6.020
REMARK  6 active torsions:
REMARK  status: ('A' for Active; 'I' for Inactive)
REMARK    1  A    between atoms: C_2  and  C_3 
REMARK    2  A    between atoms: C_2  and  N_15 
REMARK       I    between atoms: C_3  and  N_5 
REMARK    3  A    between atoms: N_5  and  C_6 
REMARK    4  A    between atoms: C_6  and  C_7 
REMARK    5  A    between atoms: C_7  and  C_8 
REMARK    6  A    between atoms: C_8  and  O_9 
ROOT
HETATM    1  C   UNL     1     -41.947 -53.332  13.554  1.00  0.00     0.240 C 
HETATM    2  O   UNL     1     -41.495 -54.266  12.895  1.00  0.00    -0.271 OA
HETATM    3  N   UNL     1     -41.318 -52.107  13.630  1.00  0.00    -0.358 N 
HETATM    4  H   UNL     1     -41.665 -51.408  14.273  1.00  0.00     0.162 HD
ENDROOT
BRANCH   3   5
HETATM    5  C   UNL     1     -40.127 -51.791  12.863  1.00  0.00     0.134 C 
BRANCH   5   6
HETATM    6  C   UNL     1     -38.840 -51.683  13.724  1.00  0.00    -0.003 C 
HETATM    7  C   UNL     1     -38.976 -50.626  14.850  1.00  0.00     0.013 C 
HETATM    8  C   UNL     1     -39.158 -49.203  14.326  1.00  0.00     0.001 C 
HETATM    9  C   UNL     1     -38.067 -48.804  13.336  1.00  0.00     0.000 C 
HETATM   10  C   UNL     1     -37.839 -49.840  12.240  1.00  0.00     0.001 C 
HETATM   11  C   UNL     1     -37.661 -51.250  12.810  1.00  0.00     0.013 C 
BRANCH   6  12
HETATM   12  C   UNL     1     -38.516 -53.053  14.373  1.00  0.00     0.175 C 
BRANCH  12  13
HETATM   13  O   UNL     1     -38.613 -54.119  13.438  1.00  0.00    -0.400 OA
HETATM   14  H   UNL     1     -39.563 -54.315  13.308  1.00  0.00     0.209 HD
ENDBRANCH  12  13
ENDBRANCH   6  12
ENDBRANCH   5   6
ENDBRANCH   3   5
BRANCH   1  15
HETATM   15  C   UNL     1     -43.224 -53.470  14.383  1.00  0.00     0.177 C 
HETATM   16  C   UNL     1     -43.490 -54.935  14.742  1.00  0.00     0.043 C 
BRANCH  15  17
HETATM   17  N   UNL     1     -44.327 -52.792  13.712  1.00  0.00    -0.338 N 
HETATM   18  C   UNL     1     -45.068 -51.734  14.155  1.00  0.00     0.109 A 
HETATM   19  C   UNL     1     -45.974 -51.479  13.150  1.00  0.00     0.106 A 
HETATM   20  N   UNL     1     -45.807 -52.362  12.116  1.00  0.00    -0.361 N 
HETATM   21  C   UNL     1     -44.799 -53.128  12.470  1.00  0.00     0.183 A 
ATOM     22  HN  UNL     1     -46.350 -52.414  11.255  1.00  0.00     0.166 HD
ENDBRANCH  15  17
ENDBRANCH   1  15
TORSDOF 6
ENDMDL
MODEL 9
REMARK VINA RESULT:      -5.2      2.189      3.282
REMARK  6 active torsions:
REMARK  status: ('A' for Active; 'I' for Inactive)
REMARK    1  A    between atoms: C_2  and  C_3 
REMARK    2  A    between atoms: C_2  and  N_15 
REMARK       I    between atoms: C_3  and  N_5 
REMARK    3  A    between atoms: N_5  and  C_6 
REMARK    4  A    between atoms: C_6  and  C_7 
REMARK    5  A    between atoms: C_7  and  C_8 
REMARK    6  A    between atoms: C_8  and  O_9 
ROOT
HETATM    1  C   UNL     1     -41.903 -50.929  14.618  1.00  0.00     0.240 C 
HETATM    2  O   UNL     1     -42.662 -50.202  15.256  1.00  0.00    -0.271 OA
HETATM    3  N   UNL     1     -42.170 -52.263  14.393  1.00  0.00    -0.358 N 
HETATM    4  H   UNL     1     -41.466 -52.847  13.962  1.00  0.00     0.162 HD
ENDROOT
BRANCH   3   5
HETATM    5  C   UNL     1     -43.411 -52.892  14.807  1.00  0.00     0.134 C 
BRANCH   5   6
HETATM    6  C   UNL     1     -44.398 -53.156  13.638  1.00  0.00    -0.003 C 
HETATM    7  C   UNL     1     -45.179 -51.879  13.233  1.00  0.00     0.013 C 
HETATM    8  C   UNL     1     -46.091 -51.352  14.339  1.00  0.00     0.001 C 
HETATM    9  C   UNL     1     -47.039 -52.422  14.872  1.00  0.00     0.000 C 
HETATM   10  C   UNL     1     -46.335 -53.729  15.225  1.00  0.00     0.001 C 
HETATM   11  C   UNL     1     -45.435 -54.221  14.089  1.00  0.00     0.013 C 
BRANCH   6  12
HETATM   12  C   UNL     1     -43.629 -53.675  12.397  1.00  0.00     0.175 C 
BRANCH  12  13
HETATM   13  O   UNL     1     -43.010 -52.617  11.675  1.00  0.00    -0.400 OA
HETATM   14  H   UNL     1     -43.353 -52.641  10.759  1.00  0.00     0.209 HD
ENDBRANCH  12  13
ENDBRANCH   6  12
ENDBRANCH   5   6
ENDBRANCH   3   5
BRANCH   1  15
HETATM   15  C   UNL     1     -40.575 -50.419  14.058  1.00  0.00     0.177 C 
HETATM   16  C   UNL     1     -39.937 -49.397  15.005  1.00  0.00     0.043 C 
BRANCH  15  17
HETATM   17  N   UNL     1     -40.757 -49.958  12.688  1.00  0.00    -0.338 N 
HETATM   18  C   UNL     1     -41.491 -48.897  12.239  1.00  0.00     0.109 A 
HETATM   19  C   UNL     1     -41.330 -48.896  10.872  1.00  0.00     0.106 A 
HETATM   20  N   UNL     1     -40.527 -49.934  10.481  1.00  0.00    -0.361 N 
HETATM   21  C   UNL     1     -40.180 -50.546  11.592  1.00  0.00     0.183 A 
ATOM     22  HN  UNL     1     -40.256 -50.181   9.529  1.00  0.00     0.166 HD
ENDBRANCH  15  17
ENDBRANCH   1  15
TORSDOF 6
ENDMDL
