MODEL 1
REMARK VINA RESULT:      -7.0      0.000      0.000
REMARK  5 active torsions:
REMARK  status: ('A' for Active; 'I' for Inactive)
REMARK       I    between atoms: C_2  and  N_3 
REMARK       I    between atoms: C_2  and  N_13 
REMARK    1  A    between atoms: N_3  and  C_4 
REMARK    2  A    between atoms: C_4  and  C_5 
REMARK    3  A    between atoms: C_5  and  N_6 
REMARK    4  A    between atoms: N_13  and  C_14 
REMARK    5  A    between atoms: C_17  and  N_21 
ROOT
HETATM    1  O   UNL     1     -41.303 -50.783  13.213  1.00  0.00    -0.247 OA
HETATM    2  C   UNL     1     -41.138 -51.202  12.076  1.00  0.00     0.320 C 
HETATM    3  N   UNL     1     -41.169 -52.549  11.778  1.00  0.00    -0.341 N 
HETATM    4  N   UNL     1     -40.908 -50.433  10.954  1.00  0.00    -0.308 N 
HETATM    5  H   UNL     1     -41.482 -52.788  10.850  1.00  0.00     0.164 HD
HETATM    6  H   UNL     1     -40.904 -50.910  10.066  1.00  0.00     0.170 HD
ENDROOT
BRANCH   4   7
HETATM    7  C   UNL     1     -40.845 -49.023  10.929  1.00  0.00     0.051 A 
HETATM    8  C   UNL     1     -39.881 -48.279  11.587  1.00  0.00     0.035 A 
HETATM    9  C   UNL     1     -39.937 -46.882  11.568  1.00  0.00     0.051 A 
HETATM   10  C   UNL     1     -40.967 -46.216  10.911  1.00  0.00     0.103 A 
HETATM   11  N   UNL     1     -41.879 -46.943  10.221  1.00  0.00    -0.350 N 
HETATM   12  C   UNL     1     -41.795 -48.298  10.228  1.00  0.00     0.119 A 
ATOM     13  HN  UNL     1     -42.623 -46.476   9.702  1.00  0.00     0.166 HD
BRANCH  10  14
HETATM   14  N   UNL     1     -41.091 -44.845  10.909  1.00  0.00    -0.363 N 
HETATM   15  C   UNL     1     -39.989 -43.889  11.067  1.00  0.00     0.150 C 
HETATM   16  C   UNL     1     -40.147 -43.112  12.384  1.00  0.00     0.187 C 
HETATM   17  O   UNL     1     -41.427 -42.466  12.464  1.00  0.00    -0.388 OA
HETATM   18  C   UNL     1     -42.481 -43.443  12.385  1.00  0.00     0.187 C 
HETATM   19  C   UNL     1     -42.422 -44.238  11.068  1.00  0.00     0.150 C 
ENDBRANCH  10  14
ENDBRANCH   4   7
BRANCH   3  20
HETATM   20  C   UNL     1     -41.540 -53.484  12.833  1.00  0.00     0.154 C 
BRANCH  20  21
HETATM   21  C   UNL     1     -43.045 -53.805  12.839  1.00  0.00     0.292 C 
BRANCH  21  22
HETATM   22  N   UNL     1     -43.928 -52.689  13.259  1.00  0.00     0.090 N 
HETATM   23  C   UNL     1     -43.931 -52.599  14.731  1.00  0.00     0.272 C 
HETATM   24  C   UNL     1     -44.424 -51.250  15.254  1.00  0.00     0.030 C 
HETATM   25  C   UNL     1     -45.932 -51.130  15.455  1.00  0.00     0.002 C 
HETATM   26  C   UNL     1     -46.807 -51.824  14.421  1.00  0.00     0.002 C 
HETATM   27  C   UNL     1     -46.278 -51.716  13.000  1.00  0.00     0.030 C 
HETATM   28  C   UNL     1     -45.263 -52.809  12.658  1.00  0.00     0.272 C 
ENDBRANCH  21  22
ENDBRANCH  20  21
ENDBRANCH   3  20
TORSDOF 5
ENDMDL
MODEL 2
REMARK VINA RESULT:      -6.7      1.515      1.775
REMARK  5 active torsions:
REMARK  status: ('A' for Active; 'I' for Inactive)
REMARK       I    between atoms: C_2  and  N_3 
REMARK       I    between atoms: C_2  and  N_13 
REMARK    1  A    between atoms: N_3  and  C_4 
REMARK    2  A    between atoms: C_4  and  C_5 
REMARK    3  A    between atoms: C_5  and  N_6 
REMARK    4  A    between atoms: N_13  and  C_14 
REMARK    5  A    between atoms: C_17  and  N_21 
ROOT
HETATM    1  O   UNL     1     -42.094 -49.362  13.295  1.00  0.00    -0.247 OA
HETATM    2  C   UNL     1     -42.070 -49.784  12.148  1.00  0.00     0.320 C 
HETATM    3  N   UNL     1     -42.201 -51.126  11.856  1.00  0.00    -0.341 N 
HETATM    4  N   UNL     1     -41.918 -49.024  11.007  1.00  0.00    -0.308 N 
HETATM    5  H   UNL     1     -42.620 -51.345  10.966  1.00  0.00     0.164 HD
HETATM    6  H   UNL     1     -42.031 -49.497  10.124  1.00  0.00     0.170 HD
ENDROOT
BRANCH   4   7
HETATM    7  C   UNL     1     -41.786 -47.619  10.974  1.00  0.00     0.051 A 
HETATM    8  C   UNL     1     -40.572 -46.954  10.990  1.00  0.00     0.035 A 
HETATM    9  C   UNL     1     -40.537 -45.557  11.028  1.00  0.00     0.051 A 
HETATM   10  C   UNL     1     -41.711 -44.811  11.072  1.00  0.00     0.103 A 
HETATM   11  N   UNL     1     -42.899 -45.460  11.001  1.00  0.00    -0.350 N 
HETATM   12  C   UNL     1     -42.915 -46.816  10.937  1.00  0.00     0.119 A 
ATOM     13  HN  UNL     1     -43.773 -44.934  10.994  1.00  0.00     0.166 HD
BRANCH  10  14
HETATM   14  N   UNL     1     -41.724 -43.438  11.162  1.00  0.00    -0.363 N 
HETATM   15  C   UNL     1     -40.616 -42.605  11.643  1.00  0.00     0.150 C 
HETATM   16  C   UNL     1     -41.009 -41.906  12.955  1.00  0.00     0.187 C 
HETATM   17  O   UNL     1     -42.219 -41.147  12.806  1.00  0.00    -0.388 OA
HETATM   18  C   UNL     1     -43.300 -42.011  12.410  1.00  0.00     0.187 C 
HETATM   19  C   UNL     1     -43.005 -42.718  11.075  1.00  0.00     0.150 C 
ENDBRANCH  10  14
ENDBRANCH   4   7
BRANCH   3  20
HETATM   20  C   UNL     1     -42.507 -52.046  12.945  1.00  0.00     0.154 C 
BRANCH  20  21
HETATM   21  C   UNL     1     -43.499 -53.148  12.530  1.00  0.00     0.292 C 
BRANCH  21  22
HETATM   22  N   UNL     1     -44.831 -53.076  13.180  1.00  0.00     0.090 N 
HETATM   23  C   UNL     1     -45.070 -51.698  13.646  1.00  0.00     0.272 C 
HETATM   24  C   UNL     1     -46.544 -51.398  13.917  1.00  0.00     0.030 C 
HETATM   25  C   UNL     1     -47.041 -51.734  15.320  1.00  0.00     0.002 C 
HETATM   26  C   UNL     1     -46.474 -52.997  15.952  1.00  0.00     0.002 C 
HETATM   27  C   UNL     1     -46.304 -54.148  14.974  1.00  0.00     0.030 C 
HETATM   28  C   UNL     1     -44.972 -54.101  14.223  1.00  0.00     0.272 C 
ENDBRANCH  21  22
ENDBRANCH  20  21
ENDBRANCH   3  20
TORSDOF 5
ENDMDL
MODEL 3
REMARK VINA RESULT:      -6.7      1.247      1.691
REMARK  5 active torsions:
REMARK  status: ('A' for Active; 'I' for Inactive)
REMARK       I    between atoms: C_2  and  N_3 
REMARK       I    between atoms: C_2  and  N_13 
REMARK    1  A    between atoms: N_3  and  C_4 
REMARK    2  A    between atoms: C_4  and  C_5 
REMARK    3  A    between atoms: C_5  and  N_6 
REMARK    4  A    between atoms: N_13  and  C_14 
REMARK    5  A    between atoms: C_17  and  N_21 
ROOT
HETATM    1  O   UNL     1     -41.907 -51.279  13.529  1.00  0.00    -0.247 OA
HETATM    2  C   UNL     1     -41.662 -51.721  12.416  1.00  0.00     0.320 C 
HETATM    3  N   UNL     1     -42.001 -53.006  12.044  1.00  0.00    -0.341 N 
HETATM    4  N   UNL     1     -41.038 -51.039  11.392  1.00  0.00    -0.308 N 
HETATM    5  H   UNL     1     -42.196 -53.145  11.065  1.00  0.00     0.164 HD
HETATM    6  H   UNL     1     -41.004 -51.494  10.493  1.00  0.00     0.170 HD
ENDROOT
BRANCH   4   7
HETATM    7  C   UNL     1     -40.594 -49.700  11.454  1.00  0.00     0.051 A 
HETATM    8  C   UNL     1     -39.524 -49.273  12.221  1.00  0.00     0.035 A 
HETATM    9  C   UNL     1     -39.199 -47.915  12.279  1.00  0.00     0.051 A 
HETATM   10  C   UNL     1     -39.951 -46.968  11.590  1.00  0.00     0.103 A 
HETATM   11  N   UNL     1     -40.964 -47.392  10.796  1.00  0.00    -0.350 N 
HETATM   12  C   UNL     1     -41.250 -48.717  10.730  1.00  0.00     0.119 A 
ATOM     13  HN  UNL     1     -41.507 -46.720  10.253  1.00  0.00     0.166 HD
BRANCH  10  14
HETATM   14  N   UNL     1     -39.700 -45.617  11.659  1.00  0.00    -0.363 N 
HETATM   15  C   UNL     1     -39.210 -44.900  12.842  1.00  0.00     0.150 C 
HETATM   16  C   UNL     1     -40.284 -43.925  13.354  1.00  0.00     0.187 C 
HETATM   17  O   UNL     1     -40.708 -43.021  12.322  1.00  0.00    -0.388 OA
HETATM   18  C   UNL     1     -41.254 -43.757  11.212  1.00  0.00     0.187 C 
HETATM   19  C   UNL     1     -40.224 -44.728  10.610  1.00  0.00     0.150 C 
ENDBRANCH  10  14
ENDBRANCH   4   7
BRANCH   3  20
HETATM   20  C   UNL     1     -42.791 -53.809  12.970  1.00  0.00     0.154 C 
BRANCH  20  21
HETATM   21  C   UNL     1     -44.251 -53.975  12.513  1.00  0.00     0.292 C 
BRANCH  21  22
HETATM   22  N   UNL     1     -45.273 -53.540  13.497  1.00  0.00     0.090 N 
HETATM   23  C   UNL     1     -45.386 -52.070  13.462  1.00  0.00     0.272 C 
HETATM   24  C   UNL     1     -46.683 -51.548  14.081  1.00  0.00     0.030 C 
HETATM   25  C   UNL     1     -46.643 -51.298  15.586  1.00  0.00     0.002 C 
HETATM   26  C   UNL     1     -45.842 -52.292  16.415  1.00  0.00     0.002 C 
HETATM   27  C   UNL     1     -45.983 -53.731  15.946  1.00  0.00     0.030 C 
HETATM   28  C   UNL     1     -45.001 -54.094  14.830  1.00  0.00     0.272 C 
ENDBRANCH  21  22
ENDBRANCH  20  21
ENDBRANCH   3  20
TORSDOF 5
ENDMDL
MODEL 4
REMARK VINA RESULT:      -6.5      1.701      2.730
REMARK  5 active torsions:
REMARK  status: ('A' for Active; 'I' for Inactive)
REMARK       I    between atoms: C_2  and  N_3 
REMARK       I    between atoms: C_2  and  N_13 
REMARK    1  A    between atoms: N_3  and  C_4 
REMARK    2  A    between atoms: C_4  and  C_5 
REMARK    3  A    between atoms: C_5  and  N_6 
REMARK    4  A    between atoms: N_13  and  C_14 
REMARK    5  A    between atoms: C_17  and  N_21 
ROOT
HETATM    1  O   UNL     1     -40.404 -48.663  12.592  1.00  0.00    -0.247 OA
HETATM    2  C   UNL     1     -40.684 -48.927  11.431  1.00  0.00     0.320 C 
HETATM    3  N   UNL     1     -40.685 -50.221  10.952  1.00  0.00    -0.341 N 
HETATM    4  N   UNL     1     -41.031 -48.018  10.453  1.00  0.00    -0.308 N 
HETATM    5  H   UNL     1     -41.328 -50.412  10.199  1.00  0.00     0.164 HD
HETATM    6  H   UNL     1     -41.345 -48.392   9.572  1.00  0.00     0.170 HD
ENDROOT
BRANCH   4   7
HETATM    7  C   UNL     1     -41.144 -46.623  10.639  1.00  0.00     0.051 A 
HETATM    8  C   UNL     1     -40.064 -45.757  10.681  1.00  0.00     0.035 A 
HETATM    9  C   UNL     1     -40.263 -44.398  10.941  1.00  0.00     0.051 A 
HETATM   10  C   UNL     1     -41.538 -43.894  11.183  1.00  0.00     0.103 A 
HETATM   11  N   UNL     1     -42.599 -44.731  11.087  1.00  0.00    -0.350 N 
HETATM   12  C   UNL     1     -42.391 -46.043  10.807  1.00  0.00     0.119 A 
ATOM     13  HN  UNL     1     -43.546 -44.378  11.224  1.00  0.00     0.166 HD
BRANCH  10  14
HETATM   14  N   UNL     1     -41.775 -42.575  11.493  1.00  0.00    -0.363 N 
HETATM   15  C   UNL     1     -40.768 -41.613  11.956  1.00  0.00     0.150 C 
HETATM   16  C   UNL     1     -41.066 -41.188  13.403  1.00  0.00     0.187 C 
HETATM   17  O   UNL     1     -42.399 -40.667  13.534  1.00  0.00    -0.388 OA
HETATM   18  C   UNL     1     -43.361 -41.664  13.146  1.00  0.00     0.187 C 
HETATM   19  C   UNL     1     -43.159 -42.114  11.689  1.00  0.00     0.150 C 
ENDBRANCH  10  14
ENDBRANCH   4   7
BRANCH   3  20
HETATM   20  C   UNL     1     -40.473 -51.310  11.897  1.00  0.00     0.154 C 
BRANCH  20  21
HETATM   21  C   UNL     1     -41.471 -52.467  11.704  1.00  0.00     0.292 C 
BRANCH  21  22
HETATM   22  N   UNL     1     -42.178 -52.902  12.933  1.00  0.00     0.090 N 
HETATM   23  C   UNL     1     -41.568 -54.150  13.428  1.00  0.00     0.272 C 
HETATM   24  C   UNL     1     -41.899 -54.446  14.892  1.00  0.00     0.030 C 
HETATM   25  C   UNL     1     -43.186 -55.229  15.133  1.00  0.00     0.002 C 
HETATM   26  C   UNL     1     -44.359 -54.897  14.221  1.00  0.00     0.002 C 
HETATM   27  C   UNL     1     -44.487 -53.416  13.904  1.00  0.00     0.030 C 
HETATM   28  C   UNL     1     -43.628 -52.984  12.713  1.00  0.00     0.272 C 
ENDBRANCH  21  22
ENDBRANCH  20  21
ENDBRANCH   3  20
TORSDOF 5
ENDMDL
MODEL 5
REMARK VINA RESULT:      -6.1      1.944      2.393
REMARK  5 active torsions:
REMARK  status: ('A' for Active; 'I' for Inactive)
REMARK       I    between atoms: C_2  and  N_3 
REMARK       I    between atoms: C_2  and  N_13 
REMARK    1  A    between atoms: N_3  and  C_4 
REMARK    2  A    between atoms: C_4  and  C_5 
REMARK    3  A    between atoms: C_5  and  N_6 
REMARK    4  A    between atoms: N_13  and  C_14 
REMARK    5  A    between atoms: C_17  and  N_21 
ROOT
HETATM    1  O   UNL     1     -40.594 -50.785  14.953  1.00  0.00    -0.247 OA
HETATM    2  C   UNL     1     -39.885 -51.446  14.207  1.00  0.00     0.320 C 
HETATM    3  N   UNL     1     -39.494 -52.733  14.515  1.00  0.00    -0.341 N 
HETATM    4  N   UNL     1     -39.382 -51.035  12.990  1.00  0.00    -0.308 N 
HETATM    5  H   UNL     1     -39.332 -53.344  13.730  1.00  0.00     0.164 HD
HETATM    6  H   UNL     1     -38.906 -51.728  12.435  1.00  0.00     0.170 HD
ENDROOT
BRANCH   4   7
HETATM    7  C   UNL     1     -39.625 -49.780  12.389  1.00  0.00     0.051 A 
HETATM    8  C   UNL     1     -39.116 -48.583  12.862  1.00  0.00     0.035 A 
HETATM    9  C   UNL     1     -39.466 -47.378  12.246  1.00  0.00     0.051 A 
HETATM   10  C   UNL     1     -40.343 -47.354  11.166  1.00  0.00     0.103 A 
HETATM   11  N   UNL     1     -40.798 -48.530  10.669  1.00  0.00    -0.350 N 
HETATM   12  C   UNL     1     -40.426 -49.693  11.263  1.00  0.00     0.119 A 
ATOM     13  HN  UNL     1     -41.413 -48.541   9.855  1.00  0.00     0.166 HD
BRANCH  10  14
HETATM   14  N   UNL     1     -40.756 -46.189  10.562  1.00  0.00    -0.363 N 
HETATM   15  C   UNL     1     -39.886 -45.067  10.191  1.00  0.00     0.150 C 
HETATM   16  C   UNL     1     -40.235 -43.826  11.030  1.00  0.00     0.187 C 
HETATM   17  O   UNL     1     -41.625 -43.484  10.911  1.00  0.00    -0.388 OA
HETATM   18  C   UNL     1     -42.445 -44.580  11.358  1.00  0.00     0.187 C 
HETATM   19  C   UNL     1     -42.189 -45.855  10.535  1.00  0.00     0.150 C 
ENDBRANCH  10  14
ENDBRANCH   4   7
BRANCH   3  20
HETATM   20  C   UNL     1     -40.056 -53.363  15.704  1.00  0.00     0.154 C 
BRANCH  20  21
HETATM   21  C   UNL     1     -41.058 -54.481  15.366  1.00  0.00     0.292 C 
BRANCH  21  22
HETATM   22  N   UNL     1     -42.410 -54.018  14.968  1.00  0.00     0.090 N 
HETATM   23  C   UNL     1     -43.408 -54.572  15.901  1.00  0.00     0.272 C 
HETATM   24  C   UNL     1     -44.743 -53.828  15.872  1.00  0.00     0.030 C 
HETATM   25  C   UNL     1     -45.751 -54.318  14.837  1.00  0.00     0.002 C 
HETATM   26  C   UNL     1     -45.181 -54.752  13.493  1.00  0.00     0.002 C 
HETATM   27  C   UNL     1     -44.039 -53.878  13.002  1.00  0.00     0.030 C 
HETATM   28  C   UNL     1     -42.678 -54.309  13.553  1.00  0.00     0.272 C 
ENDBRANCH  21  22
ENDBRANCH  20  21
ENDBRANCH   3  20
TORSDOF 5
ENDMDL
MODEL 6
REMARK VINA RESULT:      -5.9      3.964      9.461
REMARK  5 active torsions:
REMARK  status: ('A' for Active; 'I' for Inactive)
REMARK       I    between atoms: C_2  and  N_3 
REMARK       I    between atoms: C_2  and  N_13 
REMARK    1  A    between atoms: N_3  and  C_4 
REMARK    2  A    between atoms: C_4  and  C_5 
REMARK    3  A    between atoms: C_5  and  N_6 
REMARK    4  A    between atoms: N_13  and  C_14 
REMARK    5  A    between atoms: C_17  and  N_21 
ROOT
HETATM    1  O   UNL     1     -39.932 -51.018  13.462  1.00  0.00    -0.247 OA
HETATM    2  C   UNL     1     -40.437 -51.687  12.572  1.00  0.00     0.320 C 
HETATM    3  N   UNL     1     -40.820 -51.135  11.366  1.00  0.00    -0.341 N 
HETATM    4  N   UNL     1     -40.693 -53.041  12.620  1.00  0.00    -0.308 N 
HETATM    5  H   UNL     1     -40.784 -51.751  10.569  1.00  0.00     0.164 HD
HETATM    6  H   UNL     1     -41.008 -53.478  11.769  1.00  0.00     0.170 HD
ENDROOT
BRANCH   4   7
HETATM    7  C   UNL     1     -40.391 -53.890  13.708  1.00  0.00     0.051 A 
HETATM    8  C   UNL     1     -41.297 -54.234  14.697  1.00  0.00     0.035 A 
HETATM    9  C   UNL     1     -40.892 -55.023  15.777  1.00  0.00     0.051 A 
HETATM   10  C   UNL     1     -39.575 -55.459  15.891  1.00  0.00     0.103 A 
HETATM   11  N   UNL     1     -38.703 -55.169  14.896  1.00  0.00    -0.350 N 
HETATM   12  C   UNL     1     -39.120 -54.423  13.841  1.00  0.00     0.119 A 
ATOM     13  HN  UNL     1     -37.741 -55.507  14.940  1.00  0.00     0.166 HD
BRANCH  10  14
HETATM   14  N   UNL     1     -39.120 -56.194  16.962  1.00  0.00    -0.363 N 
HETATM   15  C   UNL     1     -39.964 -56.860  17.960  1.00  0.00     0.150 C 
HETATM   16  C   UNL     1     -39.773 -56.206  19.338  1.00  0.00     0.187 C 
HETATM   17  O   UNL     1     -38.392 -56.199  19.731  1.00  0.00    -0.388 OA
HETATM   18  C   UNL     1     -37.607 -55.470  18.769  1.00  0.00     0.187 C 
HETATM   19  C   UNL     1     -37.707 -56.089  17.364  1.00  0.00     0.150 C 
ENDBRANCH  10  14
ENDBRANCH   4   7
BRANCH   3  20
HETATM   20  C   UNL     1     -40.489 -49.739  11.106  1.00  0.00     0.154 C 
BRANCH  20  21
HETATM   21  C   UNL     1     -41.701 -48.803  11.264  1.00  0.00     0.292 C 
BRANCH  21  22
HETATM   22  N   UNL     1     -41.508 -47.427  10.743  1.00  0.00     0.090 N 
HETATM   23  C   UNL     1     -40.265 -46.866  11.301  1.00  0.00     0.272 C 
HETATM   24  C   UNL     1     -39.735 -45.667  10.514  1.00  0.00     0.030 C 
HETATM   25  C   UNL     1     -40.286 -44.307  10.930  1.00  0.00     0.002 C 
HETATM   26  C   UNL     1     -41.754 -44.267  11.330  1.00  0.00     0.002 C 
HETATM   27  C   UNL     1     -42.645 -45.153  10.475  1.00  0.00     0.030 C 
HETATM   28  C   UNL     1     -42.700 -46.599  10.970  1.00  0.00     0.272 C 
ENDBRANCH  21  22
ENDBRANCH  20  21
ENDBRANCH   3  20
TORSDOF 5
ENDMDL
MODEL 7
REMARK VINA RESULT:      -5.7      2.722      9.037
REMARK  5 active torsions:
REMARK  status: ('A' for Active; 'I' for Inactive)
REMARK       I    between atoms: C_2  and  N_3 
REMARK       I    between atoms: C_2  and  N_13 
REMARK    1  A    between atoms: N_3  and  C_4 
REMARK    2  A    between atoms: C_4  and  C_5 
REMARK    3  A    between atoms: C_5  and  N_6 
REMARK    4  A    between atoms: N_13  and  C_14 
REMARK    5  A    between atoms: C_17  and  N_21 
ROOT
HETATM    1  O   UNL     1     -41.519 -46.991  11.699  1.00  0.00    -0.247 OA
HETATM    2  C   UNL     1     -40.433 -47.025  11.136  1.00  0.00     0.320 C 
HETATM    3  N   UNL     1     -39.919 -45.932  10.468  1.00  0.00    -0.341 N 
HETATM    4  N   UNL     1     -39.581 -48.107  11.081  1.00  0.00    -0.308 N 
HETATM    5  H   UNL     1     -38.914 -45.865  10.441  1.00  0.00     0.164 HD
HETATM    6  H   UNL     1     -38.670 -47.952  10.678  1.00  0.00     0.170 HD
ENDROOT
BRANCH   4   7
HETATM    7  C   UNL     1     -39.813 -49.360  11.689  1.00  0.00     0.051 A 
HETATM    8  C   UNL     1     -39.180 -49.791  12.843  1.00  0.00     0.035 A 
HETATM    9  C   UNL     1     -39.418 -51.077  13.336  1.00  0.00     0.051 A 
HETATM   10  C   UNL     1     -40.271 -51.953  12.671  1.00  0.00     0.103 A 
HETATM   11  N   UNL     1     -40.932 -51.512  11.573  1.00  0.00    -0.350 N 
HETATM   12  C   UNL     1     -40.710 -50.251  11.123  1.00  0.00     0.119 A 
ATOM     13  HN  UNL     1     -41.590 -52.123  11.089  1.00  0.00     0.166 HD
BRANCH  10  14
HETATM   14  N   UNL     1     -40.494 -53.244  13.091  1.00  0.00    -0.363 N 
HETATM   15  C   UNL     1     -41.773 -53.960  13.006  1.00  0.00     0.150 C 
HETATM   16  C   UNL     1     -42.315 -54.246  14.416  1.00  0.00     0.187 C 
HETATM   17  O   UNL     1     -41.357 -54.961  15.213  1.00  0.00    -0.388 OA
HETATM   18  C   UNL     1     -40.146 -54.194  15.339  1.00  0.00     0.187 C 
HETATM   19  C   UNL     1     -39.511 -53.901  13.968  1.00  0.00     0.150 C 
ENDBRANCH  10  14
ENDBRANCH   4   7
BRANCH   3  20
HETATM   20  C   UNL     1     -40.638 -44.667  10.551  1.00  0.00     0.154 C 
BRANCH  20  21
HETATM   21  C   UNL     1     -40.104 -43.753  11.669  1.00  0.00     0.292 C 
BRANCH  21  22
HETATM   22  N   UNL     1     -41.038 -42.690  12.116  1.00  0.00     0.090 N 
HETATM   23  C   UNL     1     -42.236 -42.704  11.258  1.00  0.00     0.272 C 
HETATM   24  C   UNL     1     -43.434 -41.983  11.878  1.00  0.00     0.030 C 
HETATM   25  C   UNL     1     -43.515 -40.483  11.606  1.00  0.00     0.002 C 
HETATM   26  C   UNL     1     -42.194 -39.727  11.591  1.00  0.00     0.002 C 
HETATM   27  C   UNL     1     -41.209 -40.196  12.650  1.00  0.00     0.030 C 
HETATM   28  C   UNL     1     -40.365 -41.387  12.194  1.00  0.00     0.272 C 
ENDBRANCH  21  22
ENDBRANCH  20  21
ENDBRANCH   3  20
TORSDOF 5
ENDMDL
MODEL 8
REMARK VINA RESULT:      -5.5      6.024      9.794
REMARK  5 active torsions:
REMARK  status: ('A' for Active; 'I' for Inactive)
REMARK       I    between atoms: C_2  and  N_3 
REMARK       I    between atoms: C_2  and  N_13 
REMARK    1  A    between atoms: N_3  and  C_4 
REMARK    2  A    between atoms: C_4  and  C_5 
REMARK    3  A    between atoms: C_5  and  N_6 
REMARK    4  A    between atoms: N_13  and  C_14 
REMARK    5  A    between atoms: C_17  and  N_21 
ROOT
HETATM    1  O   UNL     1     -38.909 -53.646  13.761  1.00  0.00    -0.247 OA
HETATM    2  C   UNL     1     -39.886 -53.548  14.488  1.00  0.00     0.320 C 
HETATM    3  N   UNL     1     -41.107 -53.104  14.022  1.00  0.00    -0.341 N 
HETATM    4  N   UNL     1     -39.932 -53.855  15.832  1.00  0.00    -0.308 N 
HETATM    5  H   UNL     1     -41.919 -53.467  14.496  1.00  0.00     0.164 HD
HETATM    6  H   UNL     1     -40.837 -53.832  16.276  1.00  0.00     0.170 HD
ENDROOT
BRANCH   4   7
HETATM    7  C   UNL     1     -38.853 -54.357  16.592  1.00  0.00     0.051 A 
HETATM    8  C   UNL     1     -38.083 -53.587  17.447  1.00  0.00     0.035 A 
HETATM    9  C   UNL     1     -36.987 -54.152  18.106  1.00  0.00     0.051 A 
HETATM   10  C   UNL     1     -36.636 -55.483  17.901  1.00  0.00     0.103 A 
HETATM   11  N   UNL     1     -37.422 -56.250  17.107  1.00  0.00    -0.350 N 
HETATM   12  C   UNL     1     -38.498 -55.693  16.496  1.00  0.00     0.119 A 
ATOM     13  HN  UNL     1     -37.206 -57.238  16.970  1.00  0.00     0.166 HD
BRANCH  10  14
HETATM   14  N   UNL     1     -35.537 -56.067  18.487  1.00  0.00    -0.363 N 
HETATM   15  C   UNL     1     -34.137 -55.755  18.175  1.00  0.00     0.150 C 
HETATM   16  C   UNL     1     -33.454 -56.971  17.529  1.00  0.00     0.187 C 
HETATM   17  O   UNL     1     -33.566 -58.139  18.357  1.00  0.00    -0.388 OA
HETATM   18  C   UNL     1     -34.952 -58.460  18.576  1.00  0.00     0.187 C 
HETATM   19  C   UNL     1     -35.702 -57.306  19.265  1.00  0.00     0.150 C 
ENDBRANCH  10  14
ENDBRANCH   4   7
BRANCH   3  20
HETATM   20  C   UNL     1     -41.259 -52.870  12.591  1.00  0.00     0.154 C 
BRANCH  20  21
HETATM   21  C   UNL     1     -42.674 -52.394  12.214  1.00  0.00     0.292 C 
BRANCH  21  22
HETATM   22  N   UNL     1     -43.683 -52.495  13.297  1.00  0.00     0.090 N 
HETATM   23  C   UNL     1     -44.764 -53.402  12.871  1.00  0.00     0.272 C 
HETATM   24  C   UNL     1     -45.606 -53.930  14.033  1.00  0.00     0.030 C 
HETATM   25  C   UNL     1     -46.788 -53.056  14.443  1.00  0.00     0.002 C 
HETATM   26  C   UNL     1     -46.566 -51.551  14.388  1.00  0.00     0.002 C 
HETATM   27  C   UNL     1     -45.183 -51.119  14.845  1.00  0.00     0.030 C 
HETATM   28  C   UNL     1     -44.142 -51.167  13.725  1.00  0.00     0.272 C 
ENDBRANCH  21  22
ENDBRANCH  20  21
ENDBRANCH   3  20
TORSDOF 5
ENDMDL
MODEL 9
REMARK VINA RESULT:      -5.5      2.016      8.439
REMARK  5 active torsions:
REMARK  status: ('A' for Active; 'I' for Inactive)
REMARK       I    between atoms: C_2  and  N_3 
REMARK       I    between atoms: C_2  and  N_13 
REMARK    1  A    between atoms: N_3  and  C_4 
REMARK    2  A    between atoms: C_4  and  C_5 
REMARK    3  A    between atoms: C_5  and  N_6 
REMARK    4  A    between atoms: N_13  and  C_14 
REMARK    5  A    between atoms: C_17  and  N_21 
ROOT
HETATM    1  O   UNL     1     -40.339 -46.708  12.453  1.00  0.00    -0.247 OA
HETATM    2  C   UNL     1     -40.458 -46.911  11.252  1.00  0.00     0.320 C 
HETATM    3  N   UNL     1     -40.114 -45.963  10.310  1.00  0.00    -0.341 N 
HETATM    4  N   UNL     1     -40.929 -48.068  10.667  1.00  0.00    -0.308 N 
HETATM    5  H   UNL     1     -39.803 -46.319   9.420  1.00  0.00     0.164 HD
HETATM    6  H   UNL     1     -40.864 -48.132   9.664  1.00  0.00     0.170 HD
ENDROOT
BRANCH   4   7
HETATM    7  C   UNL     1     -41.336 -49.227  11.363  1.00  0.00     0.051 A 
HETATM    8  C   UNL     1     -40.555 -50.361  11.503  1.00  0.00     0.035 A 
HETATM    9  C   UNL     1     -41.067 -51.491  12.148  1.00  0.00     0.051 A 
HETATM   10  C   UNL     1     -42.368 -51.508  12.640  1.00  0.00     0.103 A 
HETATM   11  N   UNL     1     -43.113 -50.379  12.552  1.00  0.00    -0.350 N 
HETATM   12  C   UNL     1     -42.592 -49.282  11.946  1.00  0.00     0.119 A 
ATOM     13  HN  UNL     1     -44.057 -50.355  12.937  1.00  0.00     0.166 HD
BRANCH  10  14
HETATM   14  N   UNL     1     -42.930 -52.614  13.235  1.00  0.00    -0.363 N 
HETATM   15  C   UNL     1     -43.918 -53.506  12.616  1.00  0.00     0.150 C 
HETATM   16  C   UNL     1     -45.262 -53.403  13.356  1.00  0.00     0.187 C 
HETATM   17  O   UNL     1     -45.112 -53.668  14.759  1.00  0.00    -0.388 OA
HETATM   18  C   UNL     1     -44.197 -52.725  15.347  1.00  0.00     0.187 C 
HETATM   19  C   UNL     1     -42.807 -52.794  14.691  1.00  0.00     0.150 C 
ENDBRANCH  10  14
ENDBRANCH   4   7
BRANCH   3  20
HETATM   20  C   UNL     1     -39.470 -44.736  10.764  1.00  0.00     0.154 C 
BRANCH  20  21
HETATM   21  C   UNL     1     -40.450 -43.554  10.867  1.00  0.00     0.292 C 
BRANCH  21  22
HETATM   22  N   UNL     1     -41.095 -43.383  12.192  1.00  0.00     0.090 N 
HETATM   23  C   UNL     1     -41.998 -42.219  12.146  1.00  0.00     0.272 C 
HETATM   24  C   UNL     1     -43.031 -42.209  13.274  1.00  0.00     0.030 C 
HETATM   25  C   UNL     1     -42.585 -41.544  14.573  1.00  0.00     0.002 C 
HETATM   26  C   UNL     1     -41.133 -41.759  14.977  1.00  0.00     0.002 C 
HETATM   27  C   UNL     1     -40.622 -43.162  14.696  1.00  0.00     0.030 C 
HETATM   28  C   UNL     1     -40.096 -43.330  13.268  1.00  0.00     0.272 C 
ENDBRANCH  21  22
ENDBRANCH  20  21
ENDBRANCH   3  20
TORSDOF 5
ENDMDL
