MODEL 1
REMARK VINA RESULT:      -6.0      0.000      0.000
REMARK  4 active torsions:
REMARK  status: ('A' for Active; 'I' for Inactive)
REMARK       I    between atoms: C_2  and  N_4 
REMARK    1  A    between atoms: N_4  and  C_5 
REMARK       I    between atoms: N_9  and  C_11 
REMARK       I    between atoms: C_11  and  N_13 
REMARK    2  A    between atoms: N_13  and  C_14 
REMARK    3  A    between atoms: C_14  and  C_15 
REMARK    4  A    between atoms: C_15  and  C_16 
ROOT
HETATM    1  C   UNL     1     -42.378 -46.790  11.095  1.00  0.00     0.102 C 
HETATM    2  C   UNL     1     -41.002 -46.109  11.056  1.00  0.00     0.028 C 
HETATM    3  C   UNL     1     -39.853 -47.115  11.172  1.00  0.00     0.022 C 
HETATM    4  C   UNL     1     -40.033 -48.038  12.376  1.00  0.00     0.127 C 
HETATM    5  N   UNL     1     -41.355 -48.663  12.365  1.00  0.00    -0.332 N 
HETATM    6  C   UNL     1     -42.482 -47.718  12.322  1.00  0.00     0.152 C 
HETATM    7  C   UNL     1     -41.642 -50.012  12.307  1.00  0.00     0.318 C 
HETATM    8  O   UNL     1     -42.792 -50.442  12.281  1.00  0.00    -0.247 OA
HETATM    9  N   UNL     1     -40.560 -50.851  12.219  1.00  0.00    -0.343 N 
HETATM   10  H   UNL     1     -39.777 -50.582  12.791  1.00  0.00     0.164 HD
ENDROOT
BRANCH   9  11
HETATM   11  C   UNL     1     -40.760 -52.293  12.111  1.00  0.00     0.130 C 
BRANCH  11  12
HETATM   12  C   UNL     1     -40.979 -52.982  13.462  1.00  0.00     0.076 C 
BRANCH  12  13
HETATM   13  C   UNL     1     -42.329 -53.641  13.539  1.00  0.00     0.010 A 
HETATM   14  C   UNL     1     -42.666 -54.436  14.633  1.00  0.00     0.025 A 
HETATM   15  C   UNL     1     -43.932 -55.009  14.687  1.00  0.00     0.003 A 
HETATM   16  C   UNL     1     -44.828 -54.776  13.651  1.00  0.00     0.017 A 
HETATM   17  C   UNL     1     -44.416 -53.975  12.599  1.00  0.00     0.088 A 
HETATM   18  N   UNL     1     -43.193 -53.405  12.520  1.00  0.00    -0.369 N 
ATOM     19  HN  UNL     1     -42.930 -52.821  11.726  1.00  0.00     0.165 HD
ENDBRANCH  12  13
ENDBRANCH  11  12
ENDBRANCH   9  11
BRANCH   1  20
HETATM   20  N   UNL     1     -42.618 -47.508   9.845  1.00  0.00    -0.355 N 
HETATM   21  C   UNL     1     -43.276 -46.912   8.791  1.00  0.00     0.213 C 
HETATM   22  C   UNL     1     -43.448 -47.826   7.607  1.00  0.00     0.117 C 
HETATM   23  O   UNL     1     -43.643 -45.743   8.786  1.00  0.00    -0.274 OA
HETATM   24  H   UNL     1     -42.645 -48.521   9.887  1.00  0.00     0.162 HD
ENDBRANCH   1  20
TORSDOF 4
ENDMDL
MODEL 2
REMARK VINA RESULT:      -6.0      2.032      3.099
REMARK  4 active torsions:
REMARK  status: ('A' for Active; 'I' for Inactive)
REMARK       I    between atoms: C_2  and  N_4 
REMARK    1  A    between atoms: N_4  and  C_5 
REMARK       I    between atoms: N_9  and  C_11 
REMARK       I    between atoms: C_11  and  N_13 
REMARK    2  A    between atoms: N_13  and  C_14 
REMARK    3  A    between atoms: C_14  and  C_15 
REMARK    4  A    between atoms: C_15  and  C_16 
ROOT
HETATM    1  C   UNL     1     -42.343 -45.275  10.755  1.00  0.00     0.102 C 
HETATM    2  C   UNL     1     -43.451 -45.504   9.718  1.00  0.00     0.028 C 
HETATM    3  C   UNL     1     -43.878 -46.973   9.639  1.00  0.00     0.022 C 
HETATM    4  C   UNL     1     -42.678 -47.898   9.450  1.00  0.00     0.127 C 
HETATM    5  N   UNL     1     -41.654 -47.643  10.463  1.00  0.00    -0.332 N 
HETATM    6  C   UNL     1     -41.175 -46.253  10.516  1.00  0.00     0.152 C 
HETATM    7  C   UNL     1     -41.167 -48.530  11.401  1.00  0.00     0.318 C 
HETATM    8  O   UNL     1     -40.317 -48.215  12.229  1.00  0.00    -0.247 OA
HETATM    9  N   UNL     1     -41.736 -49.779  11.397  1.00  0.00    -0.343 N 
HETATM   10  H   UNL     1     -41.918 -50.150  10.479  1.00  0.00     0.164 HD
ENDROOT
BRANCH   9  11
HETATM   11  C   UNL     1     -41.319 -50.775  12.378  1.00  0.00     0.130 C 
BRANCH  11  12
HETATM   12  C   UNL     1     -41.344 -52.210  11.841  1.00  0.00     0.076 C 
BRANCH  12  13
HETATM   13  C   UNL     1     -42.370 -53.052  12.549  1.00  0.00     0.010 A 
HETATM   14  C   UNL     1     -42.016 -53.799  13.671  1.00  0.00     0.025 A 
HETATM   15  C   UNL     1     -42.994 -54.546  14.321  1.00  0.00     0.003 A 
HETATM   16  C   UNL     1     -44.296 -54.528  13.836  1.00  0.00     0.017 A 
HETATM   17  C   UNL     1     -44.565 -53.760  12.715  1.00  0.00     0.088 A 
HETATM   18  N   UNL     1     -43.636 -53.025  12.064  1.00  0.00    -0.369 N 
ATOM     19  HN  UNL     1     -43.878 -52.472  11.241  1.00  0.00     0.165 HD
ENDBRANCH  12  13
ENDBRANCH  11  12
ENDBRANCH   9  11
BRANCH   1  20
HETATM   20  N   UNL     1     -42.887 -45.395  12.107  1.00  0.00    -0.355 N 
HETATM   21  C   UNL     1     -42.431 -44.601  13.136  1.00  0.00     0.213 C 
HETATM   22  C   UNL     1     -43.096 -44.898  14.454  1.00  0.00     0.117 C 
HETATM   23  O   UNL     1     -41.605 -43.707  12.996  1.00  0.00    -0.274 OA
HETATM   24  H   UNL     1     -43.304 -46.282  12.364  1.00  0.00     0.162 HD
ENDBRANCH   1  20
TORSDOF 4
ENDMDL
MODEL 3
REMARK VINA RESULT:      -5.9      2.819      4.538
REMARK  4 active torsions:
REMARK  status: ('A' for Active; 'I' for Inactive)
REMARK       I    between atoms: C_2  and  N_4 
REMARK    1  A    between atoms: N_4  and  C_5 
REMARK       I    between atoms: N_9  and  C_11 
REMARK       I    between atoms: C_11  and  N_13 
REMARK    2  A    between atoms: N_13  and  C_14 
REMARK    3  A    between atoms: C_14  and  C_15 
REMARK    4  A    between atoms: C_15  and  C_16 
ROOT
HETATM    1  C   UNL     1     -38.854 -48.552  12.341  1.00  0.00     0.102 C 
HETATM    2  C   UNL     1     -39.761 -47.367  11.980  1.00  0.00     0.028 C 
HETATM    3  C   UNL     1     -41.243 -47.751  11.972  1.00  0.00     0.022 C 
HETATM    4  C   UNL     1     -41.499 -48.987  11.113  1.00  0.00     0.127 C 
HETATM    5  N   UNL     1     -40.615 -50.087  11.498  1.00  0.00    -0.332 N 
HETATM    6  C   UNL     1     -39.180 -49.767  11.450  1.00  0.00     0.152 C 
HETATM    7  C   UNL     1     -40.983 -51.330  11.969  1.00  0.00     0.318 C 
HETATM    8  O   UNL     1     -40.162 -52.185  12.289  1.00  0.00    -0.247 OA
HETATM    9  N   UNL     1     -42.331 -51.539  12.120  1.00  0.00    -0.343 N 
HETATM   10  H   UNL     1     -42.897 -51.151  11.382  1.00  0.00     0.164 HD
ENDROOT
BRANCH   9  11
HETATM   11  C   UNL     1     -42.820 -52.807  12.651  1.00  0.00     0.130 C 
BRANCH  11  12
HETATM   12  C   UNL     1     -44.234 -53.163  12.179  1.00  0.00     0.076 C 
BRANCH  12  13
HETATM   13  C   UNL     1     -45.261 -52.885  13.242  1.00  0.00     0.010 A 
HETATM   14  C   UNL     1     -45.573 -51.574  13.597  1.00  0.00     0.025 A 
HETATM   15  C   UNL     1     -46.548 -51.350  14.565  1.00  0.00     0.003 A 
HETATM   16  C   UNL     1     -47.185 -52.436  15.151  1.00  0.00     0.017 A 
HETATM   17  C   UNL     1     -46.816 -53.707  14.743  1.00  0.00     0.088 A 
HETATM   18  N   UNL     1     -45.874 -53.956  13.807  1.00  0.00    -0.369 N 
ATOM     19  HN  UNL     1     -45.634 -54.909  13.535  1.00  0.00     0.165 HD
ENDBRANCH  12  13
ENDBRANCH  11  12
ENDBRANCH   9  11
BRANCH   1  20
HETATM   20  N   UNL     1     -38.984 -48.867  13.763  1.00  0.00    -0.355 N 
HETATM   21  C   UNL     1     -38.058 -48.424  14.683  1.00  0.00     0.213 C 
HETATM   22  C   UNL     1     -38.353 -48.878  16.087  1.00  0.00     0.117 C 
HETATM   23  O   UNL     1     -37.115 -47.692  14.406  1.00  0.00    -0.274 OA
HETATM   24  H   UNL     1     -39.513 -49.695  14.011  1.00  0.00     0.162 HD
ENDBRANCH   1  20
TORSDOF 4
ENDMDL
MODEL 4
REMARK VINA RESULT:      -5.7      1.732      2.084
REMARK  4 active torsions:
REMARK  status: ('A' for Active; 'I' for Inactive)
REMARK       I    between atoms: C_2  and  N_4 
REMARK    1  A    between atoms: N_4  and  C_5 
REMARK       I    between atoms: N_9  and  C_11 
REMARK       I    between atoms: C_11  and  N_13 
REMARK    2  A    between atoms: N_13  and  C_14 
REMARK    3  A    between atoms: C_14  and  C_15 
REMARK    4  A    between atoms: C_15  and  C_16 
ROOT
HETATM    1  C   UNL     1     -42.172 -45.270  11.064  1.00  0.00     0.102 C 
HETATM    2  C   UNL     1     -40.724 -45.005  10.627  1.00  0.00     0.028 C 
HETATM    3  C   UNL     1     -39.784 -46.153  11.005  1.00  0.00     0.022 C 
HETATM    4  C   UNL     1     -39.908 -46.519  12.482  1.00  0.00     0.127 C 
HETATM    5  N   UNL     1     -41.303 -46.766  12.846  1.00  0.00    -0.332 N 
HETATM    6  C   UNL     1     -42.220 -45.652  12.557  1.00  0.00     0.152 C 
HETATM    7  C   UNL     1     -41.844 -47.935  13.341  1.00  0.00     0.318 C 
HETATM    8  O   UNL     1     -43.039 -48.052  13.598  1.00  0.00    -0.247 OA
HETATM    9  N   UNL     1     -40.975 -48.988  13.473  1.00  0.00    -0.343 N 
HETATM   10  H   UNL     1     -40.062 -48.734  13.816  1.00  0.00     0.164 HD
ENDROOT
BRANCH   9  11
HETATM   11  C   UNL     1     -41.458 -50.280  13.950  1.00  0.00     0.130 C 
BRANCH  11  12
HETATM   12  C   UNL     1     -41.709 -51.291  12.826  1.00  0.00     0.076 C 
BRANCH  12  13
HETATM   13  C   UNL     1     -43.133 -51.776  12.821  1.00  0.00     0.010 A 
HETATM   14  C   UNL     1     -43.421 -53.116  12.568  1.00  0.00     0.025 A 
HETATM   15  C   UNL     1     -44.746 -53.539  12.597  1.00  0.00     0.003 A 
HETATM   16  C   UNL     1     -45.747 -52.617  12.878  1.00  0.00     0.017 A 
HETATM   17  C   UNL     1     -45.377 -51.304  13.117  1.00  0.00     0.088 A 
HETATM   18  N   UNL     1     -44.099 -50.864  13.096  1.00  0.00    -0.369 N 
ATOM     19  HN  UNL     1     -43.871 -49.887  13.278  1.00  0.00     0.165 HD
ENDBRANCH  12  13
ENDBRANCH  11  12
ENDBRANCH   9  11
BRANCH   1  20
HETATM   20  N   UNL     1     -42.770 -46.302  10.217  1.00  0.00    -0.355 N 
HETATM   21  C   UNL     1     -43.669 -45.980   9.224  1.00  0.00     0.213 C 
HETATM   22  C   UNL     1     -44.191 -47.183   8.485  1.00  0.00     0.117 C 
HETATM   23  O   UNL     1     -43.981 -44.833   8.928  1.00  0.00    -0.274 OA
HETATM   24  H   UNL     1     -42.821 -47.241  10.593  1.00  0.00     0.162 HD
ENDBRANCH   1  20
TORSDOF 4
ENDMDL
MODEL 5
REMARK VINA RESULT:      -5.7      2.118      6.960
REMARK  4 active torsions:
REMARK  status: ('A' for Active; 'I' for Inactive)
REMARK       I    between atoms: C_2  and  N_4 
REMARK    1  A    between atoms: N_4  and  C_5 
REMARK       I    between atoms: N_9  and  C_11 
REMARK       I    between atoms: C_11  and  N_13 
REMARK    2  A    between atoms: N_13  and  C_14 
REMARK    3  A    between atoms: C_14  and  C_15 
REMARK    4  A    between atoms: C_15  and  C_16 
ROOT
HETATM    1  C   UNL     1     -45.109 -53.532  13.941  1.00  0.00     0.102 C 
HETATM    2  C   UNL     1     -44.458 -54.875  14.303  1.00  0.00     0.028 C 
HETATM    3  C   UNL     1     -42.940 -54.759  14.465  1.00  0.00     0.022 C 
HETATM    4  C   UNL     1     -42.294 -54.086  13.257  1.00  0.00     0.127 C 
HETATM    5  N   UNL     1     -42.947 -52.811  12.956  1.00  0.00    -0.332 N 
HETATM    6  C   UNL     1     -44.397 -52.902  12.727  1.00  0.00     0.152 C 
HETATM    7  C   UNL     1     -42.369 -51.558  12.947  1.00  0.00     0.318 C 
HETATM    8  O   UNL     1     -43.007 -50.538  12.702  1.00  0.00    -0.247 OA
HETATM    9  N   UNL     1     -41.042 -51.508  13.292  1.00  0.00    -0.343 N 
HETATM   10  H   UNL     1     -40.486 -52.262  12.921  1.00  0.00     0.164 HD
ENDROOT
BRANCH   9  11
HETATM   11  C   UNL     1     -40.350 -50.224  13.353  1.00  0.00     0.130 C 
BRANCH  11  12
HETATM   12  C   UNL     1     -39.746 -49.791  12.013  1.00  0.00     0.076 C 
BRANCH  12  13
HETATM   13  C   UNL     1     -40.469 -48.606  11.434  1.00  0.00     0.010 A 
HETATM   14  C   UNL     1     -39.978 -47.316  11.627  1.00  0.00     0.025 A 
HETATM   15  C   UNL     1     -40.654 -46.243  11.055  1.00  0.00     0.003 A 
HETATM   16  C   UNL     1     -41.799 -46.484  10.306  1.00  0.00     0.017 A 
HETATM   17  C   UNL     1     -42.221 -47.795  10.162  1.00  0.00     0.088 A 
HETATM   18  N   UNL     1     -41.586 -48.857  10.706  1.00  0.00    -0.369 N 
ATOM     19  HN  UNL     1     -41.931 -49.807  10.574  1.00  0.00     0.165 HD
ENDBRANCH  12  13
ENDBRANCH  11  12
ENDBRANCH   9  11
BRANCH   1  20
HETATM   20  N   UNL     1     -45.102 -52.642  15.101  1.00  0.00    -0.355 N 
HETATM   21  C   UNL     1     -45.962 -51.568  15.186  1.00  0.00     0.213 C 
HETATM   22  C   UNL     1     -45.778 -50.760  16.442  1.00  0.00     0.117 C 
HETATM   23  O   UNL     1     -46.826 -51.316  14.354  1.00  0.00    -0.274 OA
HETATM   24  H   UNL     1     -44.245 -52.585  15.639  1.00  0.00     0.162 HD
ENDBRANCH   1  20
TORSDOF 4
ENDMDL
MODEL 6
REMARK VINA RESULT:      -5.6      3.113      7.473
REMARK  4 active torsions:
REMARK  status: ('A' for Active; 'I' for Inactive)
REMARK       I    between atoms: C_2  and  N_4 
REMARK    1  A    between atoms: N_4  and  C_5 
REMARK       I    between atoms: N_9  and  C_11 
REMARK       I    between atoms: C_11  and  N_13 
REMARK    2  A    between atoms: N_13  and  C_14 
REMARK    3  A    between atoms: C_14  and  C_15 
REMARK    4  A    between atoms: C_15  and  C_16 
ROOT
HETATM    1  C   UNL     1     -44.238 -54.115  15.241  1.00  0.00     0.102 C 
HETATM    2  C   UNL     1     -44.837 -54.876  14.049  1.00  0.00     0.028 C 
HETATM    3  C   UNL     1     -44.516 -54.203  12.711  1.00  0.00     0.022 C 
HETATM    4  C   UNL     1     -44.883 -52.721  12.724  1.00  0.00     0.127 C 
HETATM    5  N   UNL     1     -44.287 -52.042  13.874  1.00  0.00    -0.332 N 
HETATM    6  C   UNL     1     -44.633 -52.625  15.180  1.00  0.00     0.152 C 
HETATM    7  C   UNL     1     -43.392 -50.992  13.853  1.00  0.00     0.318 C 
HETATM    8  O   UNL     1     -42.928 -50.500  14.878  1.00  0.00    -0.247 OA
HETATM    9  N   UNL     1     -42.998 -50.565  12.610  1.00  0.00    -0.343 N 
HETATM   10  H   UNL     1     -43.736 -50.540  11.926  1.00  0.00     0.164 HD
ENDROOT
BRANCH   9  11
HETATM   11  C   UNL     1     -42.023 -49.487  12.483  1.00  0.00     0.130 C 
BRANCH  11  12
HETATM   12  C   UNL     1     -41.059 -49.671  11.306  1.00  0.00     0.076 C 
BRANCH  12  13
HETATM   13  C   UNL     1     -39.694 -50.105  11.767  1.00  0.00     0.010 A 
HETATM   14  C   UNL     1     -39.543 -50.807  12.961  1.00  0.00     0.025 A 
HETATM   15  C   UNL     1     -38.270 -51.219  13.345  1.00  0.00     0.003 A 
HETATM   16  C   UNL     1     -37.185 -50.920  12.531  1.00  0.00     0.017 A 
HETATM   17  C   UNL     1     -37.421 -50.218  11.361  1.00  0.00     0.088 A 
HETATM   18  N   UNL     1     -38.644 -49.806  10.961  1.00  0.00    -0.369 N 
ATOM     19  HN  UNL     1     -38.773 -49.291  10.090  1.00  0.00     0.165 HD
ENDBRANCH  12  13
ENDBRANCH  11  12
ENDBRANCH   9  11
BRANCH   1  20
HETATM   20  N   UNL     1     -42.788 -54.294  15.273  1.00  0.00    -0.355 N 
HETATM   21  C   UNL     1     -42.200 -55.239  16.086  1.00  0.00     0.213 C 
HETATM   22  C   UNL     1     -40.697 -55.247  15.996  1.00  0.00     0.117 C 
HETATM   23  O   UNL     1     -42.828 -56.033  16.777  1.00  0.00    -0.274 OA
HETATM   24  H   UNL     1     -42.214 -53.503  15.004  1.00  0.00     0.162 HD
ENDBRANCH   1  20
TORSDOF 4
ENDMDL
MODEL 7
REMARK VINA RESULT:      -5.6      4.001      5.698
REMARK  4 active torsions:
REMARK  status: ('A' for Active; 'I' for Inactive)
REMARK       I    between atoms: C_2  and  N_4 
REMARK    1  A    between atoms: N_4  and  C_5 
REMARK       I    between atoms: N_9  and  C_11 
REMARK       I    between atoms: C_11  and  N_13 
REMARK    2  A    between atoms: N_13  and  C_14 
REMARK    3  A    between atoms: C_14  and  C_15 
REMARK    4  A    between atoms: C_15  and  C_16 
ROOT
HETATM    1  C   UNL     1     -37.252 -48.345  14.822  1.00  0.00     0.102 C 
HETATM    2  C   UNL     1     -38.378 -47.428  15.319  1.00  0.00     0.028 C 
HETATM    3  C   UNL     1     -39.712 -48.168  15.454  1.00  0.00     0.022 C 
HETATM    4  C   UNL     1     -40.070 -48.920  14.175  1.00  0.00     0.127 C 
HETATM    5  N   UNL     1     -38.968 -49.781  13.746  1.00  0.00    -0.332 N 
HETATM    6  C   UNL     1     -37.688 -49.085  13.542  1.00  0.00     0.152 C 
HETATM    7  C   UNL     1     -38.987 -51.153  13.599  1.00  0.00     0.318 C 
HETATM    8  O   UNL     1     -37.999 -51.794  13.252  1.00  0.00    -0.247 OA
HETATM    9  N   UNL     1     -40.167 -51.774  13.925  1.00  0.00    -0.343 N 
HETATM   10  H   UNL     1     -40.993 -51.279  13.631  1.00  0.00     0.164 HD
ENDROOT
BRANCH   9  11
HETATM   11  C   UNL     1     -40.275 -53.227  13.842  1.00  0.00     0.130 C 
BRANCH  11  12
HETATM   12  C   UNL     1     -41.096 -53.712  12.643  1.00  0.00     0.076 C 
BRANCH  12  13
HETATM   13  C   UNL     1     -42.562 -53.796  12.970  1.00  0.00     0.010 A 
HETATM   14  C   UNL     1     -42.995 -54.487  14.099  1.00  0.00     0.025 A 
HETATM   15  C   UNL     1     -44.356 -54.523  14.389  1.00  0.00     0.003 A 
HETATM   16  C   UNL     1     -45.247 -53.868  13.547  1.00  0.00     0.017 A 
HETATM   17  C   UNL     1     -44.735 -53.205  12.445  1.00  0.00     0.088 A 
HETATM   18  N   UNL     1     -43.420 -53.153  12.138  1.00  0.00    -0.369 N 
ATOM     19  HN  UNL     1     -43.086 -52.651  11.315  1.00  0.00     0.165 HD
ENDBRANCH  12  13
ENDBRANCH  11  12
ENDBRANCH   9  11
BRANCH   1  20
HETATM   20  N   UNL     1     -36.856 -49.273  15.881  1.00  0.00    -0.355 N 
HETATM   21  C   UNL     1     -35.634 -49.166  16.508  1.00  0.00     0.213 C 
HETATM   22  C   UNL     1     -35.405 -50.231  17.547  1.00  0.00     0.117 C 
HETATM   23  O   UNL     1     -34.827 -48.270  16.287  1.00  0.00    -0.274 OA
HETATM   24  H   UNL     1     -37.294 -50.187  15.888  1.00  0.00     0.162 HD
ENDBRANCH   1  20
TORSDOF 4
ENDMDL
MODEL 8
REMARK VINA RESULT:      -5.5      3.573      6.846
REMARK  4 active torsions:
REMARK  status: ('A' for Active; 'I' for Inactive)
REMARK       I    between atoms: C_2  and  N_4 
REMARK    1  A    between atoms: N_4  and  C_5 
REMARK       I    between atoms: N_9  and  C_11 
REMARK       I    between atoms: C_11  and  N_13 
REMARK    2  A    between atoms: N_13  and  C_14 
REMARK    3  A    between atoms: C_14  and  C_15 
REMARK    4  A    between atoms: C_15  and  C_16 
ROOT
HETATM    1  C   UNL     1     -46.264 -52.091  14.176  1.00  0.00     0.102 C 
HETATM    2  C   UNL     1     -46.818 -53.416  14.719  1.00  0.00     0.028 C 
HETATM    3  C   UNL     1     -45.757 -54.519  14.749  1.00  0.00     0.022 C 
HETATM    4  C   UNL     1     -45.060 -54.668  13.399  1.00  0.00     0.127 C 
HETATM    5  N   UNL     1     -44.548 -53.381  12.928  1.00  0.00    -0.332 N 
HETATM    6  C   UNL     1     -45.560 -52.318  12.823  1.00  0.00     0.152 C 
HETATM    7  C   UNL     1     -43.235 -53.051  12.661  1.00  0.00     0.318 C 
HETATM    8  O   UNL     1     -42.899 -51.930  12.287  1.00  0.00    -0.247 OA
HETATM    9  N   UNL     1     -42.310 -54.036  12.896  1.00  0.00    -0.343 N 
HETATM   10  H   UNL     1     -42.606 -54.959  12.623  1.00  0.00     0.164 HD
ENDROOT
BRANCH   9  11
HETATM   11  C   UNL     1     -40.890 -53.772  12.683  1.00  0.00     0.130 C 
BRANCH  11  12
HETATM   12  C   UNL     1     -40.226 -53.028  13.845  1.00  0.00     0.076 C 
BRANCH  12  13
HETATM   13  C   UNL     1     -39.466 -51.819  13.370  1.00  0.00     0.010 A 
HETATM   14  C   UNL     1     -38.389 -51.328  14.107  1.00  0.00     0.025 A 
HETATM   15  C   UNL     1     -37.690 -50.226  13.627  1.00  0.00     0.003 A 
HETATM   16  C   UNL     1     -38.081 -49.643  12.427  1.00  0.00     0.017 A 
HETATM   17  C   UNL     1     -39.162 -50.190  11.757  1.00  0.00     0.088 A 
HETATM   18  N   UNL     1     -39.860 -51.260  12.199  1.00  0.00    -0.369 N 
ATOM     19  HN  UNL     1     -40.651 -51.632  11.672  1.00  0.00     0.165 HD
ENDBRANCH  12  13
ENDBRANCH  11  12
ENDBRANCH   9  11
BRANCH   1  20
HETATM   20  N   UNL     1     -45.372 -51.479  15.160  1.00  0.00    -0.355 N 
HETATM   21  C   UNL     1     -45.864 -50.881  16.299  1.00  0.00     0.213 C 
HETATM   22  C   UNL     1     -44.789 -50.286  17.169  1.00  0.00     0.117 C 
HETATM   23  O   UNL     1     -47.050 -50.872  16.610  1.00  0.00    -0.274 OA
HETATM   24  H   UNL     1     -44.464 -51.166  14.835  1.00  0.00     0.162 HD
ENDBRANCH   1  20
TORSDOF 4
ENDMDL
MODEL 9
REMARK VINA RESULT:      -5.4      1.890      2.610
REMARK  4 active torsions:
REMARK  status: ('A' for Active; 'I' for Inactive)
REMARK       I    between atoms: C_2  and  N_4 
REMARK    1  A    between atoms: N_4  and  C_5 
REMARK       I    between atoms: N_9  and  C_11 
REMARK       I    between atoms: C_11  and  N_13 
REMARK    2  A    between atoms: N_13  and  C_14 
REMARK    3  A    between atoms: C_14  and  C_15 
REMARK    4  A    between atoms: C_15  and  C_16 
ROOT
HETATM    1  C   UNL     1     -43.361 -47.232  11.099  1.00  0.00     0.102 C 
HETATM    2  C   UNL     1     -42.045 -47.256  10.310  1.00  0.00     0.028 C 
HETATM    3  C   UNL     1     -41.397 -48.643  10.304  1.00  0.00     0.022 C 
HETATM    4  C   UNL     1     -41.261 -49.208  11.716  1.00  0.00     0.127 C 
HETATM    5  N   UNL     1     -42.541 -49.167  12.422  1.00  0.00    -0.332 N 
HETATM    6  C   UNL     1     -43.155 -47.833  12.505  1.00  0.00     0.152 C 
HETATM    7  C   UNL     1     -43.249 -50.236  12.932  1.00  0.00     0.318 C 
HETATM    8  O   UNL     1     -44.332 -50.102  13.494  1.00  0.00    -0.247 OA
HETATM    9  N   UNL     1     -42.699 -51.475  12.719  1.00  0.00    -0.343 N 
HETATM   10  H   UNL     1     -41.698 -51.509  12.821  1.00  0.00     0.164 HD
ENDROOT
BRANCH   9  11
HETATM   11  C   UNL     1     -43.393 -52.672  13.183  1.00  0.00     0.130 C 
BRANCH  11  12
HETATM   12  C   UNL     1     -42.688 -53.976  12.796  1.00  0.00     0.076 C 
BRANCH  12  13
HETATM   13  C   UNL     1     -41.527 -54.273  13.706  1.00  0.00     0.010 A 
HETATM   14  C   UNL     1     -41.744 -54.580  15.048  1.00  0.00     0.025 A 
HETATM   15  C   UNL     1     -40.652 -54.877  15.857  1.00  0.00     0.003 A 
HETATM   16  C   UNL     1     -39.375 -54.861  15.308  1.00  0.00     0.017 A 
HETATM   17  C   UNL     1     -39.246 -54.545  13.966  1.00  0.00     0.088 A 
HETATM   18  N   UNL     1     -40.287 -54.252  13.156  1.00  0.00    -0.369 N 
ATOM     19  HN  UNL     1     -40.147 -54.026  12.171  1.00  0.00     0.165 HD
ENDBRANCH  12  13
ENDBRANCH  11  12
ENDBRANCH   9  11
BRANCH   1  20
HETATM   20  N   UNL     1     -44.405 -47.934  10.354  1.00  0.00    -0.355 N 
HETATM   21  C   UNL     1     -45.111 -47.309   9.349  1.00  0.00     0.213 C 
HETATM   22  C   UNL     1     -46.160 -48.190   8.724  1.00  0.00     0.117 C 
HETATM   23  O   UNL     1     -44.884 -46.170   8.959  1.00  0.00    -0.274 OA
HETATM   24  H   UNL     1     -44.858 -48.718  10.810  1.00  0.00     0.162 HD
ENDBRANCH   1  20
TORSDOF 4
ENDMDL
