MODEL 1
REMARK VINA RESULT:      -5.0      0.000      0.000
REMARK  3 active torsions:
REMARK  status: ('A' for Active; 'I' for Inactive)
REMARK    1  A    between atoms: O_3  and  C_4 
REMARK    2  A    between atoms: C_4  and  C_6 
REMARK    3  A    between atoms: C_12  and  N_13 
ROOT
HETATM    1  C   UNL     2     -45.626 -52.254  14.073  1.00  0.00     0.081 A 
HETATM    2  C   UNL     2     -46.858 -51.865  14.636  1.00  0.00     0.023 A 
HETATM    3  C   UNL     2     -46.915 -51.198  15.855  1.00  0.00     0.018 A 
HETATM    4  C   UNL     2     -45.735 -50.915  16.526  1.00  0.00     0.090 A 
HETATM    5  N   UNL     2     -44.544 -51.274  15.983  1.00  0.00    -0.352 N 
ATOM      6  HN  UNL     2     -43.692 -51.053  16.497  1.00  0.00     0.166 HD
HETATM    7  C   UNL     2     -44.426 -51.917  14.782  1.00  0.00     0.120 A 
ENDROOT
BRANCH   7   8
HETATM    8  N   UNL     2     -43.090 -52.192  14.303  1.00  0.00    -0.362 N 
HETATM    9  C   UNL     2     -42.488 -51.378  13.259  1.00  0.00     0.150 C 
HETATM   10  C   UNL     2     -42.071 -52.285  12.095  1.00  0.00     0.187 C 
HETATM   11  O   UNL     2     -41.197 -53.303  12.551  1.00  0.00    -0.388 OA
HETATM   12  C   UNL     2     -41.882 -54.138  13.467  1.00  0.00     0.187 C 
HETATM   13  C   UNL     2     -42.296 -53.346  14.714  1.00  0.00     0.150 C 
ENDBRANCH   7   8
BRANCH   1  14
HETATM   14  C   UNL     2     -45.671 -53.077  12.827  1.00  0.00     0.179 C 
HETATM   15  O   UNL     2     -45.270 -54.228  12.845  1.00  0.00    -0.646 OA
BRANCH  14  16
HETATM   16  O   UNL     2     -46.227 -52.618  11.683  1.00  0.00    -0.773 OA
HETATM   17  H   UNL     2     -46.465 -53.184  10.938  1.00  0.00     0.167 HD
ENDBRANCH  14  16
ENDBRANCH   1  14
TORSDOF 3
ENDMDL
MODEL 2
REMARK VINA RESULT:      -5.0      1.039      1.693
REMARK  3 active torsions:
REMARK  status: ('A' for Active; 'I' for Inactive)
REMARK    1  A    between atoms: O_3  and  C_4 
REMARK    2  A    between atoms: C_4  and  C_6 
REMARK    3  A    between atoms: C_12  and  N_13 
ROOT
HETATM    1  C   UNL     2     -45.059 -52.231  13.780  1.00  0.00     0.081 A 
HETATM    2  C   UNL     2     -46.017 -51.625  14.619  1.00  0.00     0.023 A 
HETATM    3  C   UNL     2     -45.635 -50.902  15.743  1.00  0.00     0.018 A 
HETATM    4  C   UNL     2     -44.287 -50.777  16.042  1.00  0.00     0.090 A 
HETATM    5  N   UNL     2     -43.359 -51.347  15.231  1.00  0.00    -0.352 N 
ATOM      6  HN  UNL     2     -42.374 -51.240  15.474  1.00  0.00     0.166 HD
HETATM    7  C   UNL     2     -43.673 -52.055  14.105  1.00  0.00     0.120 A 
ENDROOT
BRANCH   7   8
HETATM    8  N   UNL     2     -42.578 -52.561  13.308  1.00  0.00    -0.362 N 
HETATM    9  C   UNL     2     -41.962 -53.841  13.612  1.00  0.00     0.150 C 
HETATM   10  C   UNL     2     -40.459 -53.633  13.834  1.00  0.00     0.187 C 
HETATM   11  O   UNL     2     -39.874 -53.013  12.701  1.00  0.00    -0.388 OA
HETATM   12  C   UNL     2     -40.424 -51.719  12.535  1.00  0.00     0.187 C 
HETATM   13  C   UNL     2     -41.927 -51.805  12.242  1.00  0.00     0.150 C 
ENDBRANCH   7   8
BRANCH   1  14
HETATM   14  C   UNL     2     -45.567 -53.094  12.672  1.00  0.00     0.179 C 
HETATM   15  O   UNL     2     -45.345 -54.292  12.684  1.00  0.00    -0.646 OA
BRANCH  14  16
HETATM   16  O   UNL     2     -46.350 -52.605  11.683  1.00  0.00    -0.773 OA
HETATM   17  H   UNL     2     -47.287 -52.400  11.793  1.00  0.00     0.167 HD
ENDBRANCH  14  16
ENDBRANCH   1  14
TORSDOF 3
ENDMDL
MODEL 3
REMARK VINA RESULT:      -4.9      2.148      4.952
REMARK  3 active torsions:
REMARK  status: ('A' for Active; 'I' for Inactive)
REMARK    1  A    between atoms: O_3  and  C_4 
REMARK    2  A    between atoms: C_4  and  C_6 
REMARK    3  A    between atoms: C_12  and  N_13 
ROOT
HETATM    1  C   UNL     2     -41.348 -53.403  13.377  1.00  0.00     0.081 A 
HETATM    2  C   UNL     2     -39.986 -53.704  13.583  1.00  0.00     0.023 A 
HETATM    3  C   UNL     2     -39.574 -54.469  14.668  1.00  0.00     0.018 A 
HETATM    4  C   UNL     2     -40.522 -54.942  15.563  1.00  0.00     0.090 A 
HETATM    5  N   UNL     2     -41.837 -54.666  15.363  1.00  0.00    -0.352 N 
ATOM      6  HN  UNL     2     -42.513 -55.026  16.036  1.00  0.00     0.166 HD
HETATM    7  C   UNL     2     -42.302 -53.934  14.307  1.00  0.00     0.120 A 
ENDROOT
BRANCH   7   8
HETATM    8  N   UNL     2     -43.734 -53.765  14.194  1.00  0.00    -0.362 N 
HETATM    9  C   UNL     2     -44.479 -53.018  15.193  1.00  0.00     0.150 C 
HETATM   10  C   UNL     2     -45.584 -53.914  15.766  1.00  0.00     0.187 C 
HETATM   11  O   UNL     2     -46.418 -54.396  14.726  1.00  0.00    -0.388 OA
HETATM   12  C   UNL     2     -45.660 -55.221  13.858  1.00  0.00     0.187 C 
HETATM   13  C   UNL     2     -44.554 -54.410  13.173  1.00  0.00     0.150 C 
ENDBRANCH   7   8
BRANCH   1  14
HETATM   14  C   UNL     2     -41.683 -52.469  12.261  1.00  0.00     0.179 C 
HETATM   15  O   UNL     2     -42.247 -51.415  12.498  1.00  0.00    -0.646 OA
BRANCH  14  16
HETATM   16  O   UNL     2     -41.301 -52.710  10.985  1.00  0.00    -0.773 OA
HETATM   17  H   UNL     2     -40.575 -53.300  10.745  1.00  0.00     0.167 HD
ENDBRANCH  14  16
ENDBRANCH   1  14
TORSDOF 3
ENDMDL
MODEL 4
REMARK VINA RESULT:      -4.8      2.685      3.797
REMARK  3 active torsions:
REMARK  status: ('A' for Active; 'I' for Inactive)
REMARK    1  A    between atoms: O_3  and  C_4 
REMARK    2  A    between atoms: C_4  and  C_6 
REMARK    3  A    between atoms: C_12  and  N_13 
ROOT
HETATM    1  C   UNL     2     -42.712 -52.750  12.640  1.00  0.00     0.081 A 
HETATM    2  C   UNL     2     -43.851 -53.579  12.575  1.00  0.00     0.023 A 
HETATM    3  C   UNL     2     -45.129 -53.063  12.763  1.00  0.00     0.018 A 
HETATM    4  C   UNL     2     -45.281 -51.709  13.022  1.00  0.00     0.090 A 
HETATM    5  N   UNL     2     -44.189 -50.904  13.073  1.00  0.00    -0.352 N 
ATOM      6  HN  UNL     2     -44.329 -49.912  13.265  1.00  0.00     0.166 HD
HETATM    7  C   UNL     2     -42.912 -51.350  12.881  1.00  0.00     0.120 A 
ENDROOT
BRANCH   7   8
HETATM    8  N   UNL     2     -41.851 -50.369  12.913  1.00  0.00    -0.362 N 
HETATM    9  C   UNL     2     -41.498 -49.611  11.724  1.00  0.00     0.150 C 
HETATM   10  C   UNL     2     -40.009 -49.820  11.421  1.00  0.00     0.187 C 
HETATM   11  O   UNL     2     -39.221 -49.456  12.541  1.00  0.00    -0.388 OA
HETATM   12  C   UNL     2     -39.520 -50.314  13.627  1.00  0.00     0.187 C 
HETATM   13  C   UNL     2     -40.981 -50.144  14.063  1.00  0.00     0.150 C 
ENDBRANCH   7   8
BRANCH   1  14
HETATM   14  C   UNL     2     -41.377 -53.413  12.554  1.00  0.00     0.179 C 
HETATM   15  O   UNL     2     -40.994 -54.129  13.463  1.00  0.00    -0.646 OA
BRANCH  14  16
HETATM   16  O   UNL     2     -40.599 -53.319  11.451  1.00  0.00    -0.773 OA
HETATM   17  H   UNL     2     -39.811 -53.857  11.304  1.00  0.00     0.167 HD
ENDBRANCH  14  16
ENDBRANCH   1  14
TORSDOF 3
ENDMDL
MODEL 5
REMARK VINA RESULT:      -4.8      3.176      4.336
REMARK  3 active torsions:
REMARK  status: ('A' for Active; 'I' for Inactive)
REMARK    1  A    between atoms: O_3  and  C_4 
REMARK    2  A    between atoms: C_4  and  C_6 
REMARK    3  A    between atoms: C_12  and  N_13 
ROOT
HETATM    1  C   UNL     2     -42.389 -53.343  12.995  1.00  0.00     0.081 A 
HETATM    2  C   UNL     2     -43.730 -53.572  12.625  1.00  0.00     0.023 A 
HETATM    3  C   UNL     2     -44.563 -54.376  13.396  1.00  0.00     0.018 A 
HETATM    4  C   UNL     2     -44.060 -54.964  14.547  1.00  0.00     0.090 A 
HETATM    5  N   UNL     2     -42.773 -54.736  14.916  1.00  0.00    -0.352 N 
ATOM      6  HN  UNL     2     -42.429 -55.180  15.767  1.00  0.00     0.166 HD
HETATM    7  C   UNL     2     -41.914 -53.943  14.208  1.00  0.00     0.120 A 
ENDROOT
BRANCH   7   8
HETATM    8  N   UNL     2     -40.588 -53.749  14.749  1.00  0.00    -0.362 N 
HETATM    9  C   UNL     2     -39.483 -54.603  14.344  1.00  0.00     0.150 C 
HETATM   10  C   UNL     2     -38.869 -55.251  15.591  1.00  0.00     0.187 C 
HETATM   11  O   UNL     2     -38.464 -54.256  16.515  1.00  0.00    -0.388 OA
HETATM   12  C   UNL     2     -39.601 -53.544  16.969  1.00  0.00     0.187 C 
HETATM   13  C   UNL     2     -40.268 -52.796  15.808  1.00  0.00     0.150 C 
ENDBRANCH   7   8
BRANCH   1  14
HETATM   14  C   UNL     2     -41.537 -52.573  12.040  1.00  0.00     0.179 C 
HETATM   15  O   UNL     2     -41.609 -51.357  12.006  1.00  0.00    -0.646 OA
BRANCH  14  16
HETATM   16  O   UNL     2     -40.610 -53.175  11.259  1.00  0.00    -0.773 OA
HETATM   17  H   UNL     2     -40.829 -53.745  10.511  1.00  0.00     0.167 HD
ENDBRANCH  14  16
ENDBRANCH   1  14
TORSDOF 3
ENDMDL
MODEL 6
REMARK VINA RESULT:      -4.7      1.496      2.263
REMARK  3 active torsions:
REMARK  status: ('A' for Active; 'I' for Inactive)
REMARK    1  A    between atoms: O_3  and  C_4 
REMARK    2  A    between atoms: C_4  and  C_6 
REMARK    3  A    between atoms: C_12  and  N_13 
ROOT
HETATM    1  C   UNL     2     -46.008 -51.474  13.925  1.00  0.00     0.081 A 
HETATM    2  C   UNL     2     -46.966 -51.531  14.959  1.00  0.00     0.023 A 
HETATM    3  C   UNL     2     -46.656 -51.125  16.251  1.00  0.00     0.018 A 
HETATM    4  C   UNL     2     -45.379 -50.659  16.526  1.00  0.00     0.090 A 
HETATM    5  N   UNL     2     -44.456 -50.589  15.533  1.00  0.00    -0.352 N 
ATOM      6  HN  UNL     2     -43.525 -50.242  15.762  1.00  0.00     0.166 HD
HETATM    7  C   UNL     2     -44.708 -50.958  14.241  1.00  0.00     0.120 A 
ENDROOT
BRANCH   7   8
HETATM    8  N   UNL     2     -43.645 -50.781  13.278  1.00  0.00    -0.362 N 
HETATM    9  C   UNL     2     -42.800 -51.895  12.884  1.00  0.00     0.150 C 
HETATM   10  C   UNL     2     -41.334 -51.532  13.152  1.00  0.00     0.187 C 
HETATM   11  O   UNL     2     -40.991 -50.334  12.476  1.00  0.00    -0.388 OA
HETATM   12  C   UNL     2     -41.758 -49.262  12.994  1.00  0.00     0.187 C 
HETATM   13  C   UNL     2     -43.251 -49.488  12.725  1.00  0.00     0.150 C 
ENDBRANCH   7   8
BRANCH   1  14
HETATM   14  C   UNL     2     -46.393 -52.051  12.602  1.00  0.00     0.179 C 
HETATM   15  O   UNL     2     -46.998 -51.368  11.794  1.00  0.00    -0.646 OA
BRANCH  14  16
HETATM   16  O   UNL     2     -46.015 -53.294  12.224  1.00  0.00    -0.773 OA
HETATM   17  H   UNL     2     -45.321 -53.469  11.576  1.00  0.00     0.167 HD
ENDBRANCH  14  16
ENDBRANCH   1  14
TORSDOF 3
ENDMDL
MODEL 7
REMARK VINA RESULT:      -4.7      2.530      3.263
REMARK  3 active torsions:
REMARK  status: ('A' for Active; 'I' for Inactive)
REMARK    1  A    between atoms: O_3  and  C_4 
REMARK    2  A    between atoms: C_4  and  C_6 
REMARK    3  A    between atoms: C_12  and  N_13 
ROOT
HETATM    1  C   UNL     2     -44.154 -51.570  14.209  1.00  0.00     0.081 A 
HETATM    2  C   UNL     2     -45.499 -51.213  14.440  1.00  0.00     0.023 A 
HETATM    3  C   UNL     2     -46.506 -51.594  13.560  1.00  0.00     0.018 A 
HETATM    4  C   UNL     2     -46.178 -52.336  12.435  1.00  0.00     0.090 A 
HETATM    5  N   UNL     2     -44.886 -52.695  12.215  1.00  0.00    -0.352 N 
ATOM      6  HN  UNL     2     -44.673 -53.241  11.380  1.00  0.00     0.166 HD
HETATM    7  C   UNL     2     -43.858 -52.363  13.051  1.00  0.00     0.120 A 
ENDROOT
BRANCH   7   8
HETATM    8  N   UNL     2     -42.541 -52.858  12.717  1.00  0.00    -0.362 N 
HETATM    9  C   UNL     2     -42.053 -54.113  13.264  1.00  0.00     0.150 C 
HETATM   10  C   UNL     2     -40.733 -53.857  14.002  1.00  0.00     0.187 C 
HETATM   11  O   UNL     2     -39.792 -53.250  13.133  1.00  0.00    -0.388 OA
HETATM   12  C   UNL     2     -40.268 -51.976  12.737  1.00  0.00     0.187 C 
HETATM   13  C   UNL     2     -41.564 -52.112  11.929  1.00  0.00     0.150 C 
ENDBRANCH   7   8
BRANCH   1  14
HETATM   14  C   UNL     2     -43.127 -51.008  15.137  1.00  0.00     0.179 C 
HETATM   15  O   UNL     2     -42.806 -51.628  16.136  1.00  0.00    -0.646 OA
BRANCH  14  16
HETATM   16  O   UNL     2     -42.464 -49.860  14.864  1.00  0.00    -0.773 OA
HETATM   17  H   UNL     2     -42.602 -49.035  15.345  1.00  0.00     0.167 HD
ENDBRANCH  14  16
ENDBRANCH   1  14
TORSDOF 3
ENDMDL
MODEL 8
REMARK VINA RESULT:      -4.7      1.945      4.677
REMARK  3 active torsions:
REMARK  status: ('A' for Active; 'I' for Inactive)
REMARK    1  A    between atoms: O_3  and  C_4 
REMARK    2  A    between atoms: C_4  and  C_6 
REMARK    3  A    between atoms: C_12  and  N_13 
ROOT
HETATM    1  C   UNL     2     -42.897 -53.760  13.911  1.00  0.00     0.081 A 
HETATM    2  C   UNL     2     -41.615 -54.237  13.569  1.00  0.00     0.023 A 
HETATM    3  C   UNL     2     -40.851 -53.611  12.591  1.00  0.00     0.018 A 
HETATM    4  C   UNL     2     -41.363 -52.498  11.942  1.00  0.00     0.090 A 
HETATM    5  N   UNL     2     -42.591 -52.025  12.276  1.00  0.00    -0.352 N 
ATOM      6  HN  UNL     2     -42.943 -51.205  11.783  1.00  0.00     0.166 HD
HETATM    7  C   UNL     2     -43.380 -52.589  13.239  1.00  0.00     0.120 A 
ENDROOT
BRANCH   7   8
HETATM    8  N   UNL     2     -44.643 -51.946  13.525  1.00  0.00    -0.362 N 
HETATM    9  C   UNL     2     -44.727 -50.853  14.479  1.00  0.00     0.150 C 
HETATM   10  C   UNL     2     -45.744 -51.215  15.568  1.00  0.00     0.187 C 
HETATM   11  O   UNL     2     -47.002 -51.516  14.988  1.00  0.00    -0.388 OA
HETATM   12  C   UNL     2     -46.882 -52.667  14.171  1.00  0.00     0.187 C 
HETATM   13  C   UNL     2     -45.928 -52.400  13.000  1.00  0.00     0.150 C 
ENDBRANCH   7   8
BRANCH   1  14
HETATM   14  C   UNL     2     -43.695 -54.572  14.878  1.00  0.00     0.179 C 
HETATM   15  O   UNL     2     -43.582 -54.375  16.076  1.00  0.00    -0.646 OA
BRANCH  14  16
HETATM   16  O   UNL     2     -44.618 -55.472  14.469  1.00  0.00    -0.773 OA
HETATM   17  H   UNL     2     -45.556 -55.416  14.691  1.00  0.00     0.167 HD
ENDBRANCH  14  16
ENDBRANCH   1  14
TORSDOF 3
ENDMDL
MODEL 9
REMARK VINA RESULT:      -4.7      3.029      3.835
REMARK  3 active torsions:
REMARK  status: ('A' for Active; 'I' for Inactive)
REMARK    1  A    between atoms: O_3  and  C_4 
REMARK    2  A    between atoms: C_4  and  C_6 
REMARK    3  A    between atoms: C_12  and  N_13 
ROOT
HETATM    1  C   UNL     2     -42.779 -53.353  12.981  1.00  0.00     0.081 A 
HETATM    2  C   UNL     2     -44.046 -53.573  12.402  1.00  0.00     0.023 A 
HETATM    3  C   UNL     2     -45.016 -54.324  13.057  1.00  0.00     0.018 A 
HETATM    4  C   UNL     2     -44.727 -54.866  14.301  1.00  0.00     0.090 A 
HETATM    5  N   UNL     2     -43.513 -54.646  14.869  1.00  0.00    -0.352 N 
ATOM      6  HN  UNL     2     -43.327 -55.056  15.784  1.00  0.00     0.166 HD
HETATM    7  C   UNL     2     -42.528 -53.904  14.280  1.00  0.00     0.120 A 
ENDROOT
BRANCH   7   8
HETATM    8  N   UNL     2     -41.304 -53.710  15.026  1.00  0.00    -0.362 N 
HETATM    9  C   UNL     2     -41.093 -52.510  15.817  1.00  0.00     0.150 C 
HETATM   10  C   UNL     2     -39.802 -51.825  15.351  1.00  0.00     0.187 C 
HETATM   11  O   UNL     2     -38.708 -52.721  15.437  1.00  0.00    -0.388 OA
HETATM   12  C   UNL     2     -38.915 -53.805  14.549  1.00  0.00     0.187 C 
HETATM   13  C   UNL     2     -40.155 -54.609  14.957  1.00  0.00     0.150 C 
ENDBRANCH   7   8
BRANCH   1  14
HETATM   14  C   UNL     2     -41.760 -52.645  12.149  1.00  0.00     0.179 C 
HETATM   15  O   UNL     2     -41.792 -51.430  12.052  1.00  0.00    -0.646 OA
BRANCH  14  16
HETATM   16  O   UNL     2     -40.734 -53.301  11.558  1.00  0.00    -0.773 OA
HETATM   17  H   UNL     2     -40.842 -53.900  10.809  1.00  0.00     0.167 HD
ENDBRANCH  14  16
ENDBRANCH   1  14
TORSDOF 3
ENDMDL
