MODEL 1
REMARK VINA RESULT:      -5.8      0.000      0.000
REMARK  8 active torsions:
REMARK  status: ('A' for Active; 'I' for Inactive)
REMARK    1  A    between atoms: O_1  and  C_2 
REMARK    2  A    between atoms: C_2  and  C_3 
REMARK    3  A    between atoms: C_3  and  C_4 
REMARK    4  A    between atoms: C_4  and  C_5 
REMARK    5  A    between atoms: N_14  and  C_15 
REMARK    6  A    between atoms: C_15  and  C_16 
REMARK    7  A    between atoms: C_16  and  O_17 
REMARK    8  A    between atoms: C_16  and  C_18 
ROOT
HETATM    1  C   UNL     1     -41.337 -52.721  12.630  1.00  0.00     0.084 A 
HETATM    2  N   UNL     1     -40.375 -51.992  12.102  1.00  0.00    -0.344 N 
ATOM      3  HN  UNL     1     -39.431 -52.299  11.867  1.00  0.00     0.167 HD
HETATM    4  C   UNL     1     -40.898 -50.740  11.934  1.00  0.00     0.060 A 
HETATM    5  C   UNL     1     -40.289 -49.590  11.406  1.00  0.00     0.032 A 
HETATM    6  C   UNL     1     -41.030 -48.408  11.336  1.00  0.00     0.002 A 
HETATM    7  C   UNL     1     -42.350 -48.370  11.789  1.00  0.00     0.002 A 
HETATM    8  C   UNL     1     -42.972 -49.503  12.321  1.00  0.00     0.032 A 
HETATM    9  C   UNL     1     -42.215 -50.681  12.380  1.00  0.00     0.062 A 
HETATM   10  N   UNL     1     -42.473 -51.960  12.827  1.00  0.00    -0.332 N 
ENDROOT
BRANCH  10  11
HETATM   11  C   UNL     1     -43.698 -52.396  13.476  1.00  0.00     0.171 C 
BRANCH  11  12
HETATM   12  C   UNL     1     -44.729 -52.984  12.512  1.00  0.00     0.243 C 
BRANCH  12  13
HETATM   13  O   UNL     1     -44.830 -54.415  12.689  1.00  0.00    -0.385 OA
HETATM   14  H   UNL     1     -43.927 -54.786  12.718  1.00  0.00     0.210 HD
ENDBRANCH  12  13
BRANCH  12  15
HETATM   15  C   UNL     1     -46.083 -52.281  12.705  1.00  0.00     0.414 C 
HETATM   16  F   UNL     1     -46.851 -52.885  13.639  1.00  0.00    -0.168 F 
HETATM   17  F   UNL     1     -45.922 -50.994  13.080  1.00  0.00    -0.168 F 
HETATM   18  F   UNL     1     -46.794 -52.288  11.550  1.00  0.00    -0.168 F 
ENDBRANCH  12  15
ENDBRANCH  11  12
ENDBRANCH  10  11
BRANCH   1  19
HETATM   19  C   UNL     1     -41.199 -54.171  12.974  1.00  0.00     0.079 C 
BRANCH  19  20
HETATM   20  C   UNL     1     -40.755 -54.383  14.421  1.00  0.00     0.033 C 
BRANCH  20  21
HETATM   21  C   UNL     1     -39.244 -54.507  14.582  1.00  0.00     0.164 C 
BRANCH  21  22
HETATM   22  O   UNL     1     -38.617 -54.536  13.304  1.00  0.00    -0.401 OA
HETATM   23  H   UNL     1     -39.202 -55.054  12.724  1.00  0.00     0.209 HD
ENDBRANCH  21  22
ENDBRANCH  20  21
ENDBRANCH  19  20
ENDBRANCH   1  19
TORSDOF 8
ENDMDL
MODEL 2
REMARK VINA RESULT:      -5.6      4.398      6.593
REMARK  8 active torsions:
REMARK  status: ('A' for Active; 'I' for Inactive)
REMARK    1  A    between atoms: O_1  and  C_2 
REMARK    2  A    between atoms: C_2  and  C_3 
REMARK    3  A    between atoms: C_3  and  C_4 
REMARK    4  A    between atoms: C_4  and  C_5 
REMARK    5  A    between atoms: N_14  and  C_15 
REMARK    6  A    between atoms: C_15  and  C_16 
REMARK    7  A    between atoms: C_16  and  O_17 
REMARK    8  A    between atoms: C_16  and  C_18 
ROOT
HETATM    1  C   UNL     1     -42.522 -49.708  12.662  1.00  0.00     0.084 A 
HETATM    2  N   UNL     1     -43.620 -50.436  12.717  1.00  0.00    -0.344 N 
ATOM      3  HN  UNL     1     -44.580 -50.107  12.611  1.00  0.00     0.167 HD
HETATM    4  C   UNL     1     -43.211 -51.720  12.945  1.00  0.00     0.060 A 
HETATM    5  C   UNL     1     -43.985 -52.883  13.084  1.00  0.00     0.032 A 
HETATM    6  C   UNL     1     -43.338 -54.099  13.321  1.00  0.00     0.002 A 
HETATM    7  C   UNL     1     -41.946 -54.152  13.421  1.00  0.00     0.002 A 
HETATM    8  C   UNL     1     -41.159 -53.005  13.289  1.00  0.00     0.032 A 
HETATM    9  C   UNL     1     -41.825 -51.796  13.049  1.00  0.00     0.062 A 
HETATM   10  N   UNL     1     -41.405 -50.494  12.870  1.00  0.00    -0.332 N 
ENDROOT
BRANCH  10  11
HETATM   11  C   UNL     1     -40.034 -50.027  12.977  1.00  0.00     0.171 C 
BRANCH  11  12
HETATM   12  C   UNL     1     -39.155 -50.425  11.790  1.00  0.00     0.243 C 
BRANCH  12  13
HETATM   13  O   UNL     1     -39.691 -49.888  10.561  1.00  0.00    -0.385 OA
HETATM   14  H   UNL     1     -39.811 -50.623   9.929  1.00  0.00     0.210 HD
ENDBRANCH  12  13
BRANCH  12  15
HETATM   15  C   UNL     1     -37.708 -49.969  12.039  1.00  0.00     0.414 C 
HETATM   16  F   UNL     1     -37.059 -49.658  10.894  1.00  0.00    -0.168 F 
HETATM   17  F   UNL     1     -37.662 -48.883  12.840  1.00  0.00    -0.168 F 
HETATM   18  F   UNL     1     -36.993 -50.953  12.638  1.00  0.00    -0.168 F 
ENDBRANCH  12  15
ENDBRANCH  11  12
ENDBRANCH  10  11
BRANCH   1  19
HETATM   19  C   UNL     1     -42.506 -48.232  12.417  1.00  0.00     0.079 C 
BRANCH  19  20
HETATM   20  C   UNL     1     -43.314 -47.841  11.180  1.00  0.00     0.033 C 
BRANCH  20  21
HETATM   21  C   UNL     1     -42.478 -47.754   9.909  1.00  0.00     0.164 C 
BRANCH  21  22
HETATM   22  O   UNL     1     -41.124 -47.454  10.235  1.00  0.00    -0.401 OA
HETATM   23  H   UNL     1     -41.153 -46.713  10.866  1.00  0.00     0.209 HD
ENDBRANCH  21  22
ENDBRANCH  20  21
ENDBRANCH  19  20
ENDBRANCH   1  19
TORSDOF 8
ENDMDL
MODEL 3
REMARK VINA RESULT:      -5.6      3.834      6.018
REMARK  8 active torsions:
REMARK  status: ('A' for Active; 'I' for Inactive)
REMARK    1  A    between atoms: O_1  and  C_2 
REMARK    2  A    between atoms: C_2  and  C_3 
REMARK    3  A    between atoms: C_3  and  C_4 
REMARK    4  A    between atoms: C_4  and  C_5 
REMARK    5  A    between atoms: N_14  and  C_15 
REMARK    6  A    between atoms: C_15  and  C_16 
REMARK    7  A    between atoms: C_16  and  O_17 
REMARK    8  A    between atoms: C_16  and  C_18 
ROOT
HETATM    1  C   UNL     1     -41.391 -52.066  12.591  1.00  0.00     0.084 A 
HETATM    2  N   UNL     1     -42.589 -52.037  12.042  1.00  0.00    -0.344 N 
ATOM      3  HN  UNL     1     -42.899 -51.438  11.277  1.00  0.00     0.167 HD
HETATM    4  C   UNL     1     -43.332 -52.973  12.706  1.00  0.00     0.060 A 
HETATM    5  C   UNL     1     -44.672 -53.342  12.508  1.00  0.00     0.032 A 
HETATM    6  C   UNL     1     -45.225 -54.334  13.322  1.00  0.00     0.002 A 
HETATM    7  C   UNL     1     -44.457 -54.943  14.317  1.00  0.00     0.002 A 
HETATM    8  C   UNL     1     -43.123 -54.588  14.531  1.00  0.00     0.032 A 
HETATM    9  C   UNL     1     -42.585 -53.593  13.703  1.00  0.00     0.062 A 
HETATM   10  N   UNL     1     -41.346 -52.992  13.615  1.00  0.00    -0.332 N 
ENDROOT
BRANCH  10  11
HETATM   11  C   UNL     1     -40.226 -53.232  14.509  1.00  0.00     0.171 C 
BRANCH  11  12
HETATM   12  C   UNL     1     -39.562 -54.595  14.310  1.00  0.00     0.243 C 
BRANCH  12  13
HETATM   13  O   UNL     1     -38.461 -54.491  13.381  1.00  0.00    -0.385 OA
HETATM   14  H   UNL     1     -38.817 -54.243  12.506  1.00  0.00     0.210 HD
ENDBRANCH  12  13
BRANCH  12  15
HETATM   15  C   UNL     1     -39.120 -55.161  15.670  1.00  0.00     0.414 C 
HETATM   16  F   UNL     1     -39.978 -56.091  16.147  1.00  0.00    -0.168 F 
HETATM   17  F   UNL     1     -37.900 -55.733  15.595  1.00  0.00    -0.168 F 
HETATM   18  F   UNL     1     -39.056 -54.175  16.600  1.00  0.00    -0.168 F 
ENDBRANCH  12  15
ENDBRANCH  11  12
ENDBRANCH  10  11
BRANCH   1  19
HETATM   19  C   UNL     1     -40.250 -51.200  12.159  1.00  0.00     0.079 C 
BRANCH  19  20
HETATM   20  C   UNL     1     -40.438 -49.742  12.579  1.00  0.00     0.033 C 
BRANCH  20  21
HETATM   21  C   UNL     1     -40.711 -48.803  11.410  1.00  0.00     0.164 C 
BRANCH  21  22
HETATM   22  O   UNL     1     -40.736 -49.536  10.189  1.00  0.00    -0.401 OA
HETATM   23  H   UNL     1     -39.841 -49.470   9.812  1.00  0.00     0.209 HD
ENDBRANCH  21  22
ENDBRANCH  20  21
ENDBRANCH  19  20
ENDBRANCH   1  19
TORSDOF 8
ENDMDL
MODEL 4
REMARK VINA RESULT:      -5.6      4.366      5.678
REMARK  8 active torsions:
REMARK  status: ('A' for Active; 'I' for Inactive)
REMARK    1  A    between atoms: O_1  and  C_2 
REMARK    2  A    between atoms: C_2  and  C_3 
REMARK    3  A    between atoms: C_3  and  C_4 
REMARK    4  A    between atoms: C_4  and  C_5 
REMARK    5  A    between atoms: N_14  and  C_15 
REMARK    6  A    between atoms: C_15  and  C_16 
REMARK    7  A    between atoms: C_16  and  O_17 
REMARK    8  A    between atoms: C_16  and  C_18 
ROOT
HETATM    1  C   UNL     1     -42.360 -49.691  12.693  1.00  0.00     0.084 A 
HETATM    2  N   UNL     1     -43.415 -49.235  12.048  1.00  0.00    -0.344 N 
ATOM      3  HN  UNL     1     -44.356 -49.630  12.054  1.00  0.00     0.167 HD
HETATM    4  C   UNL     1     -42.994 -48.126  11.371  1.00  0.00     0.060 A 
HETATM    5  C   UNL     1     -43.726 -47.267  10.536  1.00  0.00     0.032 A 
HETATM    6  C   UNL     1     -43.072 -46.186   9.940  1.00  0.00     0.002 A 
HETATM    7  C   UNL     1     -41.713 -45.967  10.170  1.00  0.00     0.002 A 
HETATM    8  C   UNL     1     -40.965 -46.812  10.995  1.00  0.00     0.032 A 
HETATM    9  C   UNL     1     -41.639 -47.889  11.585  1.00  0.00     0.062 A 
HETATM   10  N   UNL     1     -41.252 -48.909  12.431  1.00  0.00    -0.332 N 
ENDROOT
BRANCH  10  11
HETATM   11  C   UNL     1     -39.895 -49.159  12.886  1.00  0.00     0.171 C 
BRANCH  11  12
HETATM   12  C   UNL     1     -39.133 -50.162  12.019  1.00  0.00     0.243 C 
BRANCH  12  13
HETATM   13  O   UNL     1     -39.595 -50.103  10.651  1.00  0.00    -0.385 OA
HETATM   14  H   UNL     1     -40.043 -50.946  10.440  1.00  0.00     0.210 HD
ENDBRANCH  12  13
BRANCH  12  15
HETATM   15  C   UNL     1     -37.621 -49.901  12.130  1.00  0.00     0.414 C 
HETATM   16  F   UNL     1     -37.053 -49.631  10.934  1.00  0.00    -0.168 F 
HETATM   17  F   UNL     1     -37.357 -48.862  12.950  1.00  0.00    -0.168 F 
HETATM   18  F   UNL     1     -36.984 -50.990  12.629  1.00  0.00    -0.168 F 
ENDBRANCH  12  15
ENDBRANCH  11  12
ENDBRANCH  10  11
BRANCH   1  19
HETATM   19  C   UNL     1     -42.374 -50.900  13.575  1.00  0.00     0.079 C 
BRANCH  19  20
HETATM   20  C   UNL     1     -42.701 -52.177  12.802  1.00  0.00     0.033 C 
BRANCH  20  21
HETATM   21  C   UNL     1     -41.467 -52.935  12.328  1.00  0.00     0.164 C 
BRANCH  21  22
HETATM   22  O   UNL     1     -41.221 -52.657  10.953  1.00  0.00    -0.401 OA
HETATM   23  H   UNL     1     -41.802 -53.251  10.445  1.00  0.00     0.209 HD
ENDBRANCH  21  22
ENDBRANCH  20  21
ENDBRANCH  19  20
ENDBRANCH   1  19
TORSDOF 8
ENDMDL
MODEL 5
REMARK VINA RESULT:      -5.5      2.126      4.649
REMARK  8 active torsions:
REMARK  status: ('A' for Active; 'I' for Inactive)
REMARK    1  A    between atoms: O_1  and  C_2 
REMARK    2  A    between atoms: C_2  and  C_3 
REMARK    3  A    between atoms: C_3  and  C_4 
REMARK    4  A    between atoms: C_4  and  C_5 
REMARK    5  A    between atoms: N_14  and  C_15 
REMARK    6  A    between atoms: C_15  and  C_16 
REMARK    7  A    between atoms: C_16  and  O_17 
REMARK    8  A    between atoms: C_16  and  C_18 
ROOT
HETATM    1  C   UNL     1     -41.604 -52.998  12.997  1.00  0.00     0.084 A 
HETATM    2  N   UNL     1     -40.584 -53.142  13.821  1.00  0.00    -0.344 N 
ATOM      3  HN  UNL     1     -39.684 -52.666  13.771  1.00  0.00     0.167 HD
HETATM    4  C   UNL     1     -40.980 -54.058  14.754  1.00  0.00     0.060 A 
HETATM    5  C   UNL     1     -40.269 -54.563  15.855  1.00  0.00     0.032 A 
HETATM    6  C   UNL     1     -40.885 -55.509  16.679  1.00  0.00     0.002 A 
HETATM    7  C   UNL     1     -42.182 -55.946  16.407  1.00  0.00     0.002 A 
HETATM    8  C   UNL     1     -42.905 -55.459  15.314  1.00  0.00     0.032 A 
HETATM    9  C   UNL     1     -42.272 -54.509  14.502  1.00  0.00     0.062 A 
HETATM   10  N   UNL     1     -42.650 -53.819  13.368  1.00  0.00    -0.332 N 
ENDROOT
BRANCH  10  11
HETATM   11  C   UNL     1     -43.897 -54.004  12.645  1.00  0.00     0.171 C 
BRANCH  11  12
HETATM   12  C   UNL     1     -44.981 -52.992  13.021  1.00  0.00     0.243 C 
BRANCH  12  13
HETATM   13  O   UNL     1     -45.729 -52.593  11.852  1.00  0.00    -0.385 OA
HETATM   14  H   UNL     1     -46.365 -53.303  11.636  1.00  0.00     0.210 HD
ENDBRANCH  12  13
BRANCH  12  15
HETATM   15  C   UNL     1     -45.886 -53.584  14.114  1.00  0.00     0.414 C 
HETATM   16  F   UNL     1     -47.138 -53.075  14.080  1.00  0.00    -0.168 F 
HETATM   17  F   UNL     1     -45.989 -54.925  14.000  1.00  0.00    -0.168 F 
HETATM   18  F   UNL     1     -45.388 -53.313  15.346  1.00  0.00    -0.168 F 
ENDBRANCH  12  15
ENDBRANCH  11  12
ENDBRANCH  10  11
BRANCH   1  19
HETATM   19  C   UNL     1     -41.607 -52.073  11.821  1.00  0.00     0.079 C 
BRANCH  19  20
HETATM   20  C   UNL     1     -41.748 -50.609  12.235  1.00  0.00     0.033 C 
BRANCH  20  21
HETATM   21  C   UNL     1     -40.699 -49.696  11.612  1.00  0.00     0.164 C 
BRANCH  21  22
HETATM   22  O   UNL     1     -40.483 -50.057  10.251  1.00  0.00    -0.401 OA
HETATM   23  H   UNL     1     -40.111 -50.956  10.263  1.00  0.00     0.209 HD
ENDBRANCH  21  22
ENDBRANCH  20  21
ENDBRANCH  19  20
ENDBRANCH   1  19
TORSDOF 8
ENDMDL
MODEL 6
REMARK VINA RESULT:      -5.4      3.565      5.247
REMARK  8 active torsions:
REMARK  status: ('A' for Active; 'I' for Inactive)
REMARK    1  A    between atoms: O_1  and  C_2 
REMARK    2  A    between atoms: C_2  and  C_3 
REMARK    3  A    between atoms: C_3  and  C_4 
REMARK    4  A    between atoms: C_4  and  C_5 
REMARK    5  A    between atoms: N_14  and  C_15 
REMARK    6  A    between atoms: C_15  and  C_16 
REMARK    7  A    between atoms: C_16  and  O_17 
REMARK    8  A    between atoms: C_16  and  C_18 
ROOT
HETATM    1  C   UNL     1     -44.673 -51.311  14.630  1.00  0.00     0.084 A 
HETATM    2  N   UNL     1     -44.382 -50.447  15.582  1.00  0.00    -0.344 N 
ATOM      3  HN  UNL     1     -43.528 -49.897  15.672  1.00  0.00     0.167 HD
HETATM    4  C   UNL     1     -45.458 -50.438  16.425  1.00  0.00     0.060 A 
HETATM    5  C   UNL     1     -45.659 -49.688  17.595  1.00  0.00     0.032 A 
HETATM    6  C   UNL     1     -46.852 -49.852  18.304  1.00  0.00     0.002 A 
HETATM    7  C   UNL     1     -47.823 -50.749  17.857  1.00  0.00     0.002 A 
HETATM    8  C   UNL     1     -47.641 -51.508  16.697  1.00  0.00     0.032 A 
HETATM    9  C   UNL     1     -46.439 -51.327  15.998  1.00  0.00     0.062 A 
HETATM   10  N   UNL     1     -45.912 -51.879  14.849  1.00  0.00    -0.332 N 
ENDROOT
BRANCH  10  11
HETATM   11  C   UNL     1     -46.521 -52.941  14.066  1.00  0.00     0.171 C 
BRANCH  11  12
HETATM   12  C   UNL     1     -46.341 -54.333  14.673  1.00  0.00     0.243 C 
BRANCH  12  13
HETATM   13  O   UNL     1     -47.610 -55.020  14.751  1.00  0.00    -0.385 OA
HETATM   14  H   UNL     1     -47.810 -55.399  13.874  1.00  0.00     0.210 HD
ENDBRANCH  12  13
BRANCH  12  15
HETATM   15  C   UNL     1     -45.304 -55.125  13.859  1.00  0.00     0.414 C 
HETATM   16  F   UNL     1     -44.950 -54.493  12.718  1.00  0.00    -0.168 F 
HETATM   17  F   UNL     1     -44.177 -55.341  14.570  1.00  0.00    -0.168 F 
HETATM   18  F   UNL     1     -45.801 -56.334  13.499  1.00  0.00    -0.168 F 
ENDBRANCH  12  15
ENDBRANCH  11  12
ENDBRANCH  10  11
BRANCH   1  19
HETATM   19  C   UNL     1     -43.768 -51.628  13.481  1.00  0.00     0.079 C 
BRANCH  19  20
HETATM   20  C   UNL     1     -42.561 -52.464  13.909  1.00  0.00     0.033 C 
BRANCH  20  21
HETATM   21  C   UNL     1     -41.667 -52.880  12.747  1.00  0.00     0.164 C 
BRANCH  21  22
HETATM   22  O   UNL     1     -42.320 -52.617  11.509  1.00  0.00    -0.401 OA
HETATM   23  H   UNL     1     -41.626 -52.329  10.890  1.00  0.00     0.209 HD
ENDBRANCH  21  22
ENDBRANCH  20  21
ENDBRANCH  19  20
ENDBRANCH   1  19
TORSDOF 8
ENDMDL
MODEL 7
REMARK VINA RESULT:      -5.4      3.566      5.421
REMARK  8 active torsions:
REMARK  status: ('A' for Active; 'I' for Inactive)
REMARK    1  A    between atoms: O_1  and  C_2 
REMARK    2  A    between atoms: C_2  and  C_3 
REMARK    3  A    between atoms: C_3  and  C_4 
REMARK    4  A    between atoms: C_4  and  C_5 
REMARK    5  A    between atoms: N_14  and  C_15 
REMARK    6  A    between atoms: C_15  and  C_16 
REMARK    7  A    between atoms: C_16  and  O_17 
REMARK    8  A    between atoms: C_16  and  C_18 
ROOT
HETATM    1  C   UNL     1     -42.580 -52.196  12.622  1.00  0.00     0.084 A 
HETATM    2  N   UNL     1     -43.551 -51.305  12.602  1.00  0.00    -0.344 N 
ATOM      3  HN  UNL     1     -43.556 -50.415  12.104  1.00  0.00     0.167 HD
HETATM    4  C   UNL     1     -44.549 -51.815  13.384  1.00  0.00     0.060 A 
HETATM    5  C   UNL     1     -45.803 -51.263  13.691  1.00  0.00     0.032 A 
HETATM    6  C   UNL     1     -46.666 -51.975  14.527  1.00  0.00     0.002 A 
HETATM    7  C   UNL     1     -46.286 -53.211  15.051  1.00  0.00     0.002 A 
HETATM    8  C   UNL     1     -45.040 -53.777  14.761  1.00  0.00     0.032 A 
HETATM    9  C   UNL     1     -44.189 -53.049  13.918  1.00  0.00     0.062 A 
HETATM   10  N   UNL     1     -42.921 -53.271  13.420  1.00  0.00    -0.332 N 
ENDROOT
BRANCH  10  11
HETATM   11  C   UNL     1     -42.067 -54.396  13.759  1.00  0.00     0.171 C 
BRANCH  11  12
HETATM   12  C   UNL     1     -41.229 -54.174  15.019  1.00  0.00     0.243 C 
BRANCH  12  13
HETATM   13  O   UNL     1     -41.602 -55.117  16.048  1.00  0.00    -0.385 OA
HETATM   14  H   UNL     1     -42.569 -55.066  16.177  1.00  0.00     0.210 HD
ENDBRANCH  12  13
BRANCH  12  15
HETATM   15  C   UNL     1     -39.733 -54.260  14.670  1.00  0.00     0.414 C 
HETATM   16  F   UNL     1     -39.084 -53.093  14.884  1.00  0.00    -0.168 F 
HETATM   17  F   UNL     1     -39.110 -55.211  15.396  1.00  0.00    -0.168 F 
HETATM   18  F   UNL     1     -39.565 -54.566  13.359  1.00  0.00    -0.168 F 
ENDBRANCH  12  15
ENDBRANCH  11  12
ENDBRANCH  10  11
BRANCH   1  19
HETATM   19  C   UNL     1     -41.287 -52.045  11.884  1.00  0.00     0.079 C 
BRANCH  19  20
HETATM   20  C   UNL     1     -40.365 -51.017  12.538  1.00  0.00     0.033 C 
BRANCH  20  21
HETATM   21  C   UNL     1     -40.073 -49.811  11.653  1.00  0.00     0.164 C 
BRANCH  21  22
HETATM   22  O   UNL     1     -40.432 -50.096  10.304  1.00  0.00    -0.401 OA
HETATM   23  H   UNL     1     -40.115 -49.345   9.772  1.00  0.00     0.209 HD
ENDBRANCH  21  22
ENDBRANCH  20  21
ENDBRANCH  19  20
ENDBRANCH   1  19
TORSDOF 8
ENDMDL
MODEL 8
REMARK VINA RESULT:      -5.3      4.830      7.280
REMARK  8 active torsions:
REMARK  status: ('A' for Active; 'I' for Inactive)
REMARK    1  A    between atoms: O_1  and  C_2 
REMARK    2  A    between atoms: C_2  and  C_3 
REMARK    3  A    between atoms: C_3  and  C_4 
REMARK    4  A    between atoms: C_4  and  C_5 
REMARK    5  A    between atoms: N_14  and  C_15 
REMARK    6  A    between atoms: C_15  and  C_16 
REMARK    7  A    between atoms: C_16  and  O_17 
REMARK    8  A    between atoms: C_16  and  C_18 
ROOT
HETATM    1  C   UNL     1     -43.141 -46.563  10.337  1.00  0.00     0.084 A 
HETATM    2  N   UNL     1     -43.241 -45.257  10.484  1.00  0.00    -0.344 N 
ATOM      3  HN  UNL     1     -44.054 -44.676  10.278  1.00  0.00     0.167 HD
HETATM    4  C   UNL     1     -42.034 -44.838  10.970  1.00  0.00     0.060 A 
HETATM    5  C   UNL     1     -41.616 -43.540  11.303  1.00  0.00     0.032 A 
HETATM    6  C   UNL     1     -40.318 -43.352  11.783  1.00  0.00     0.002 A 
HETATM    7  C   UNL     1     -39.451 -44.437  11.924  1.00  0.00     0.002 A 
HETATM    8  C   UNL     1     -39.846 -45.737  11.594  1.00  0.00     0.032 A 
HETATM    9  C   UNL     1     -41.153 -45.906  11.118  1.00  0.00     0.062 A 
HETATM   10  N   UNL     1     -41.883 -47.000  10.701  1.00  0.00    -0.332 N 
ENDROOT
BRANCH  10  11
HETATM   11  C   UNL     1     -41.376 -48.357  10.581  1.00  0.00     0.171 C 
BRANCH  11  12
HETATM   12  C   UNL     1     -41.409 -49.144  11.891  1.00  0.00     0.243 C 
BRANCH  12  13
HETATM   13  O   UNL     1     -42.105 -50.397  11.712  1.00  0.00    -0.385 OA
HETATM   14  H   UNL     1     -42.880 -50.241  11.139  1.00  0.00     0.210 HD
ENDBRANCH  12  13
BRANCH  12  15
HETATM   15  C   UNL     1     -39.977 -49.346  12.413  1.00  0.00     0.414 C 
HETATM   16  F   UNL     1     -39.041 -49.007  11.498  1.00  0.00    -0.168 F 
HETATM   17  F   UNL     1     -39.746 -48.614  13.523  1.00  0.00    -0.168 F 
HETATM   18  F   UNL     1     -39.762 -50.648  12.727  1.00  0.00    -0.168 F 
ENDBRANCH  12  15
ENDBRANCH  11  12
ENDBRANCH  10  11
BRANCH   1  19
HETATM   19  C   UNL     1     -44.247 -47.437   9.834  1.00  0.00     0.079 C 
BRANCH  19  20
HETATM   20  C   UNL     1     -45.277 -46.655   9.018  1.00  0.00     0.033 C 
BRANCH  20  21
HETATM   21  C   UNL     1     -46.659 -47.298   9.005  1.00  0.00     0.164 C 
BRANCH  21  22
HETATM   22  O   UNL     1     -46.764 -48.210   7.916  1.00  0.00    -0.401 OA
HETATM   23  H   UNL     1     -45.896 -48.209   7.475  1.00  0.00     0.209 HD
ENDBRANCH  21  22
ENDBRANCH  20  21
ENDBRANCH  19  20
ENDBRANCH   1  19
TORSDOF 8
ENDMDL
MODEL 9
REMARK VINA RESULT:      -5.3      3.252      4.863
REMARK  8 active torsions:
REMARK  status: ('A' for Active; 'I' for Inactive)
REMARK    1  A    between atoms: O_1  and  C_2 
REMARK    2  A    between atoms: C_2  and  C_3 
REMARK    3  A    between atoms: C_3  and  C_4 
REMARK    4  A    between atoms: C_4  and  C_5 
REMARK    5  A    between atoms: N_14  and  C_15 
REMARK    6  A    between atoms: C_15  and  C_16 
REMARK    7  A    between atoms: C_16  and  O_17 
REMARK    8  A    between atoms: C_16  and  C_18 
ROOT
HETATM    1  C   UNL     1     -42.778 -53.652  13.790  1.00  0.00     0.084 A 
HETATM    2  N   UNL     1     -43.854 -54.395  13.954  1.00  0.00    -0.344 N 
ATOM      3  HN  UNL     1     -43.915 -55.411  13.884  1.00  0.00     0.167 HD
HETATM    4  C   UNL     1     -44.873 -53.528  14.236  1.00  0.00     0.060 A 
HETATM    5  C   UNL     1     -46.223 -53.805  14.498  1.00  0.00     0.032 A 
HETATM    6  C   UNL     1     -47.091 -52.742  14.759  1.00  0.00     0.002 A 
HETATM    7  C   UNL     1     -46.622 -51.427  14.754  1.00  0.00     0.002 A 
HETATM    8  C   UNL     1     -45.282 -51.130  14.491  1.00  0.00     0.032 A 
HETATM    9  C   UNL     1     -44.426 -52.210  14.235  1.00  0.00     0.062 A 
HETATM   10  N   UNL     1     -43.082 -52.313  13.941  1.00  0.00    -0.332 N 
ENDROOT
BRANCH  10  11
HETATM   11  C   UNL     1     -42.174 -51.197  13.736  1.00  0.00     0.171 C 
BRANCH  11  12
HETATM   12  C   UNL     1     -41.891 -50.898  12.264  1.00  0.00     0.243 C 
BRANCH  12  13
HETATM   13  O   UNL     1     -42.747 -49.834  11.790  1.00  0.00    -0.385 OA
HETATM   14  H   UNL     1     -42.818 -49.159  12.492  1.00  0.00     0.210 HD
ENDBRANCH  12  13
BRANCH  12  15
HETATM   15  C   UNL     1     -40.401 -50.568  12.077  1.00  0.00     0.414 C 
HETATM   16  F   UNL     1     -39.965 -49.630  12.949  1.00  0.00    -0.168 F 
HETATM   17  F   UNL     1     -39.628 -51.662  12.237  1.00  0.00    -0.168 F 
HETATM   18  F   UNL     1     -40.171 -50.080  10.832  1.00  0.00    -0.168 F 
ENDBRANCH  12  15
ENDBRANCH  11  12
ENDBRANCH  10  11
BRANCH   1  19
HETATM   19  C   UNL     1     -41.422 -54.199  13.472  1.00  0.00     0.079 C 
BRANCH  19  20
HETATM   20  C   UNL     1     -40.573 -54.407  14.727  1.00  0.00     0.033 C 
BRANCH  20  21
HETATM   21  C   UNL     1     -39.089 -54.141  14.508  1.00  0.00     0.164 C 
BRANCH  21  22
HETATM   22  O   UNL     1     -38.632 -54.839  13.354  1.00  0.00    -0.401 OA
HETATM   23  H   UNL     1     -37.955 -54.273  12.942  1.00  0.00     0.209 HD
ENDBRANCH  21  22
ENDBRANCH  20  21
ENDBRANCH  19  20
ENDBRANCH   1  19
TORSDOF 8
ENDMDL
