MODEL 1
REMARK VINA RESULT:      -5.6      0.000      0.000
REMARK  6 active torsions:
REMARK  status: ('A' for Active; 'I' for Inactive)
REMARK    1  A    between atoms: C_2  and  C_3 
REMARK    2  A    between atoms: C_2  and  N_13 
REMARK    3  A    between atoms: C_3  and  C_4 
REMARK       I    between atoms: N_13  and  C_14 
REMARK    4  A    between atoms: C_14  and  C_16 
REMARK    5  A    between atoms: C_16  and  C_17 
REMARK    6  A    between atoms: C_17  and  C_18 
ROOT
HETATM    1  C   UNL     1     -46.102 -52.659  17.866  1.00  0.00     0.032 C 
HETATM    2  C   UNL     1     -46.304 -52.897  16.362  1.00  0.00     0.084 C 
ENDROOT
BRANCH   2   3
HETATM    3  C   UNL     1     -46.631 -51.584  15.618  1.00  0.00     0.067 C 
BRANCH   3   4
HETATM    4  C   UNL     1     -45.594 -51.133  14.640  1.00  0.00    -0.009 A 
HETATM    5  C   UNL     1     -45.600 -51.308  13.229  1.00  0.00     0.030 A 
HETATM    6  C   UNL     1     -46.631 -51.949  12.370  1.00  0.00     0.070 C 
HETATM    7  N   UNL     1     -44.485 -50.831  12.667  1.00  0.00    -0.303 N 
HETATM    8  N   UNL     1     -43.755 -50.386  13.703  1.00  0.00    -0.300 N 
ATOM      9  HN  UNL     1     -44.244 -50.809  11.676  1.00  0.00     0.186 HD
HETATM   10  C   UNL     1     -42.432 -49.868  13.453  1.00  0.00     0.177 C 
HETATM   11  C   UNL     1     -44.382 -50.521  14.914  1.00  0.00     0.032 A 
HETATM   12  C   UNL     1     -43.791 -50.098  16.210  1.00  0.00     0.070 C 
ENDBRANCH   3   4
ENDBRANCH   2   3
BRANCH   2  13
HETATM   13  N   UNL     1     -45.085 -53.551  15.858  1.00  0.00    -0.357 N 
HETATM   14  C   UNL     1     -45.068 -54.594  14.958  1.00  0.00     0.217 C 
HETATM   15  O   UNL     1     -46.053 -55.060  14.400  1.00  0.00    -0.274 OA
HETATM   16  H   UNL     1     -44.261 -53.453  16.437  1.00  0.00     0.162 HD
BRANCH  14  17
HETATM   17  C   UNL     1     -43.686 -55.141  14.693  1.00  0.00     0.103 C 
BRANCH  17  18
HETATM   18  C   UNL     1     -42.914 -54.211  13.764  1.00  0.00     0.014 C 
BRANCH  18  19
HETATM   19  C   UNL     1     -41.542 -53.838  14.318  1.00  0.00    -0.014 C 
HETATM   20  C   UNL     1     -40.432 -54.025  13.274  1.00  0.00     0.004 C 
HETATM   21  C   UNL     1     -39.228 -54.591  14.025  1.00  0.00     0.000 C 
HETATM   22  C   UNL     1     -39.591 -54.533  15.501  1.00  0.00     0.000 C 
HETATM   23  C   UNL     1     -41.100 -54.690  15.507  1.00  0.00     0.004 C 
ENDBRANCH  18  19
ENDBRANCH  17  18
ENDBRANCH  14  17
ENDBRANCH   2  13
TORSDOF 6
ENDMDL
MODEL 2
REMARK VINA RESULT:      -5.5      3.503      5.900
REMARK  6 active torsions:
REMARK  status: ('A' for Active; 'I' for Inactive)
REMARK    1  A    between atoms: C_2  and  C_3 
REMARK    2  A    between atoms: C_2  and  N_13 
REMARK    3  A    between atoms: C_3  and  C_4 
REMARK       I    between atoms: N_13  and  C_14 
REMARK    4  A    between atoms: C_14  and  C_16 
REMARK    5  A    between atoms: C_16  and  C_17 
REMARK    6  A    between atoms: C_17  and  C_18 
ROOT
HETATM    1  C   UNL     1     -40.881 -50.121  11.297  1.00  0.00     0.032 C 
HETATM    2  C   UNL     1     -41.910 -49.907  12.417  1.00  0.00     0.084 C 
ENDROOT
BRANCH   2   3
HETATM    3  C   UNL     1     -42.837 -48.709  12.116  1.00  0.00     0.067 C 
BRANCH   3   4
HETATM    4  C   UNL     1     -42.178 -47.549  11.441  1.00  0.00    -0.009 A 
HETATM    5  C   UNL     1     -42.357 -47.113  10.099  1.00  0.00     0.030 A 
HETATM    6  C   UNL     1     -43.247 -47.667   9.045  1.00  0.00     0.070 C 
HETATM    7  N   UNL     1     -41.566 -46.075   9.808  1.00  0.00    -0.303 N 
HETATM    8  N   UNL     1     -40.863 -45.868  10.933  1.00  0.00    -0.300 N 
ATOM      9  HN  UNL     1     -41.509 -45.559   8.930  1.00  0.00     0.186 HD
HETATM   10  C   UNL     1     -39.840 -44.849  10.939  1.00  0.00     0.177 C 
HETATM   11  C   UNL     1     -41.205 -46.710  11.957  1.00  0.00     0.032 A 
HETATM   12  C   UNL     1     -40.581 -46.679  13.306  1.00  0.00     0.070 C 
ENDBRANCH   3   4
ENDBRANCH   2   3
BRANCH   2  13
HETATM   13  N   UNL     1     -42.647 -51.171  12.578  1.00  0.00    -0.357 N 
HETATM   14  C   UNL     1     -42.267 -52.202  13.411  1.00  0.00     0.217 C 
HETATM   15  O   UNL     1     -41.317 -52.171  14.183  1.00  0.00    -0.274 OA
HETATM   16  H   UNL     1     -43.261 -51.423  11.814  1.00  0.00     0.162 HD
BRANCH  14  17
HETATM   17  C   UNL     1     -43.149 -53.423  13.301  1.00  0.00     0.103 C 
BRANCH  17  18
HETATM   18  C   UNL     1     -44.270 -53.181  12.297  1.00  0.00     0.014 C 
BRANCH  18  19
HETATM   19  C   UNL     1     -45.634 -53.042  12.966  1.00  0.00    -0.014 C 
HETATM   20  C   UNL     1     -46.112 -51.583  12.997  1.00  0.00     0.004 C 
HETATM   21  C   UNL     1     -46.788 -51.382  14.352  1.00  0.00     0.000 C 
HETATM   22  C   UNL     1     -46.866 -52.761  14.989  1.00  0.00     0.000 C 
HETATM   23  C   UNL     1     -45.656 -53.486  14.428  1.00  0.00     0.004 C 
ENDBRANCH  18  19
ENDBRANCH  17  18
ENDBRANCH  14  17
ENDBRANCH   2  13
TORSDOF 6
ENDMDL
MODEL 3
REMARK VINA RESULT:      -5.4      2.636      5.512
REMARK  6 active torsions:
REMARK  status: ('A' for Active; 'I' for Inactive)
REMARK    1  A    between atoms: C_2  and  C_3 
REMARK    2  A    between atoms: C_2  and  N_13 
REMARK    3  A    between atoms: C_3  and  C_4 
REMARK       I    between atoms: N_13  and  C_14 
REMARK    4  A    between atoms: C_14  and  C_16 
REMARK    5  A    between atoms: C_16  and  C_17 
REMARK    6  A    between atoms: C_17  and  C_18 
ROOT
HETATM    1  C   UNL     1     -39.032 -52.901  14.113  1.00  0.00     0.032 C 
HETATM    2  C   UNL     1     -40.236 -52.041  14.525  1.00  0.00     0.084 C 
ENDROOT
BRANCH   2   3
HETATM    3  C   UNL     1     -39.944 -50.535  14.352  1.00  0.00     0.067 C 
BRANCH   3   4
HETATM    4  C   UNL     1     -40.246 -49.980  12.997  1.00  0.00    -0.009 A 
HETATM    5  C   UNL     1     -39.352 -49.845  11.899  1.00  0.00     0.030 A 
HETATM    6  C   UNL     1     -37.921 -50.236  11.803  1.00  0.00     0.070 C 
HETATM    7  N   UNL     1     -39.941 -49.254  10.854  1.00  0.00    -0.303 N 
HETATM    8  N   UNL     1     -41.183 -48.981  11.283  1.00  0.00    -0.300 N 
ATOM      9  HN  UNL     1     -39.537 -49.056   9.938  1.00  0.00     0.186 HD
HETATM   10  C   UNL     1     -42.080 -48.259  10.412  1.00  0.00     0.177 C 
HETATM   11  C   UNL     1     -41.432 -49.415  12.558  1.00  0.00     0.032 A 
HETATM   12  C   UNL     1     -42.730 -49.243  13.260  1.00  0.00     0.070 C 
ENDBRANCH   3   4
ENDBRANCH   2   3
BRANCH   2  13
HETATM   13  N   UNL     1     -41.387 -52.494  13.725  1.00  0.00    -0.357 N 
HETATM   14  C   UNL     1     -42.282 -53.465  14.118  1.00  0.00     0.217 C 
HETATM   15  O   UNL     1     -42.288 -54.020  15.209  1.00  0.00    -0.274 OA
HETATM   16  H   UNL     1     -41.325 -52.326  12.729  1.00  0.00     0.162 HD
BRANCH  14  17
HETATM   17  C   UNL     1     -43.305 -53.807  13.059  1.00  0.00     0.103 C 
BRANCH  17  18
HETATM   18  C   UNL     1     -44.503 -54.510  13.685  1.00  0.00     0.014 C 
BRANCH  18  19
HETATM   19  C   UNL     1     -45.752 -53.633  13.703  1.00  0.00    -0.014 C 
HETATM   20  C   UNL     1     -45.806 -52.686  12.495  1.00  0.00     0.004 C 
HETATM   21  C   UNL     1     -46.353 -51.358  13.016  1.00  0.00     0.000 C 
HETATM   22  C   UNL     1     -46.788 -51.618  14.450  1.00  0.00     0.000 C 
HETATM   23  C   UNL     1     -45.847 -52.712  14.919  1.00  0.00     0.004 C 
ENDBRANCH  18  19
ENDBRANCH  17  18
ENDBRANCH  14  17
ENDBRANCH   2  13
TORSDOF 6
ENDMDL
MODEL 4
REMARK VINA RESULT:      -5.4      2.986      5.433
REMARK  6 active torsions:
REMARK  status: ('A' for Active; 'I' for Inactive)
REMARK    1  A    between atoms: C_2  and  C_3 
REMARK    2  A    between atoms: C_2  and  N_13 
REMARK    3  A    between atoms: C_3  and  C_4 
REMARK       I    between atoms: N_13  and  C_14 
REMARK    4  A    between atoms: C_14  and  C_16 
REMARK    5  A    between atoms: C_16  and  C_17 
REMARK    6  A    between atoms: C_17  and  C_18 
ROOT
HETATM    1  C   UNL     1     -39.481 -53.980  14.027  1.00  0.00     0.032 C 
HETATM    2  C   UNL     1     -40.424 -53.296  15.027  1.00  0.00     0.084 C 
ENDROOT
BRANCH   2   3
HETATM    3  C   UNL     1     -40.291 -51.758  14.973  1.00  0.00     0.067 C 
BRANCH   3   4
HETATM    4  C   UNL     1     -39.800 -51.208  13.673  1.00  0.00    -0.009 A 
HETATM    5  C   UNL     1     -40.504 -51.146  12.439  1.00  0.00     0.030 A 
HETATM    6  C   UNL     1     -41.894 -51.577  12.130  1.00  0.00     0.070 C 
HETATM    7  N   UNL     1     -39.744 -50.642  11.461  1.00  0.00    -0.303 N 
HETATM    8  N   UNL     1     -38.557 -50.417  12.047  1.00  0.00    -0.300 N 
ATOM      9  HN  UNL     1     -40.006 -50.470  10.491  1.00  0.00     0.186 HD
HETATM   10  C   UNL     1     -37.460 -49.937  11.241  1.00  0.00     0.177 C 
HETATM   11  C   UNL     1     -38.538 -50.717  13.383  1.00  0.00     0.032 A 
HETATM   12  C   UNL     1     -37.350 -50.549  14.260  1.00  0.00     0.070 C 
ENDBRANCH   3   4
ENDBRANCH   2   3
BRANCH   2  13
HETATM   13  N   UNL     1     -41.789 -53.761  14.725  1.00  0.00    -0.357 N 
HETATM   14  C   UNL     1     -42.405 -54.834  15.331  1.00  0.00     0.217 C 
HETATM   15  O   UNL     1     -41.934 -55.490  16.252  1.00  0.00    -0.274 OA
HETATM   16  H   UNL     1     -42.155 -53.494  13.820  1.00  0.00     0.162 HD
BRANCH  14  17
HETATM   17  C   UNL     1     -43.764 -55.154  14.757  1.00  0.00     0.103 C 
BRANCH  17  18
HETATM   18  C   UNL     1     -44.069 -54.242  13.574  1.00  0.00     0.014 C 
BRANCH  18  19
HETATM   19  C   UNL     1     -45.402 -53.514  13.725  1.00  0.00    -0.014 C 
HETATM   20  C   UNL     1     -45.787 -52.752  12.449  1.00  0.00     0.004 C 
HETATM   21  C   UNL     1     -46.408 -51.434  12.907  1.00  0.00     0.000 C 
HETATM   22  C   UNL     1     -46.551 -51.542  14.418  1.00  0.00     0.000 C 
HETATM   23  C   UNL     1     -45.407 -52.452  14.824  1.00  0.00     0.004 C 
ENDBRANCH  18  19
ENDBRANCH  17  18
ENDBRANCH  14  17
ENDBRANCH   2  13
TORSDOF 6
ENDMDL
MODEL 5
REMARK VINA RESULT:      -5.4      3.464      6.726
REMARK  6 active torsions:
REMARK  status: ('A' for Active; 'I' for Inactive)
REMARK    1  A    between atoms: C_2  and  C_3 
REMARK    2  A    between atoms: C_2  and  N_13 
REMARK    3  A    between atoms: C_3  and  C_4 
REMARK       I    between atoms: N_13  and  C_14 
REMARK    4  A    between atoms: C_14  and  C_16 
REMARK    5  A    between atoms: C_16  and  C_17 
REMARK    6  A    between atoms: C_17  and  C_18 
ROOT
HETATM    1  C   UNL     1     -45.869 -51.515  13.409  1.00  0.00     0.032 C 
HETATM    2  C   UNL     1     -44.345 -51.335  13.368  1.00  0.00     0.084 C 
ENDROOT
BRANCH   2   3
HETATM    3  C   UNL     1     -43.647 -52.549  12.715  1.00  0.00     0.067 C 
BRANCH   3   4
HETATM    4  C   UNL     1     -43.170 -53.597  13.668  1.00  0.00    -0.009 A 
HETATM    5  C   UNL     1     -43.904 -54.706  14.172  1.00  0.00     0.030 A 
HETATM    6  C   UNL     1     -45.299 -55.121  13.871  1.00  0.00     0.070 C 
HETATM    7  N   UNL     1     -43.187 -55.413  15.052  1.00  0.00    -0.303 N 
HETATM    8  N   UNL     1     -42.022 -54.750  15.140  1.00  0.00    -0.300 N 
ATOM      9  HN  UNL     1     -43.462 -56.262  15.545  1.00  0.00     0.186 HD
HETATM   10  C   UNL     1     -41.027 -55.209  16.079  1.00  0.00     0.177 C 
HETATM   11  C   UNL     1     -41.946 -53.662  14.312  1.00  0.00     0.032 A 
HETATM   12  C   UNL     1     -40.762 -52.769  14.215  1.00  0.00     0.070 C 
ENDBRANCH   3   4
ENDBRANCH   2   3
BRANCH   2  13
HETATM   13  N   UNL     1     -44.074 -50.073  12.659  1.00  0.00    -0.357 N 
HETATM   14  C   UNL     1     -42.980 -49.265  12.883  1.00  0.00     0.217 C 
HETATM   15  O   UNL     1     -42.053 -49.528  13.638  1.00  0.00    -0.274 OA
HETATM   16  H   UNL     1     -44.878 -49.624  12.238  1.00  0.00     0.162 HD
BRANCH  14  17
HETATM   17  C   UNL     1     -43.007 -47.980  12.091  1.00  0.00     0.103 C 
BRANCH  17  18
HETATM   18  C   UNL     1     -42.374 -48.186  10.720  1.00  0.00     0.014 C 
BRANCH  18  19
HETATM   19  C   UNL     1     -43.232 -47.627   9.589  1.00  0.00    -0.014 C 
HETATM   20  C   UNL     1     -42.892 -46.162   9.281  1.00  0.00     0.004 C 
HETATM   21  C   UNL     1     -44.220 -45.464   8.992  1.00  0.00     0.000 C 
HETATM   22  C   UNL     1     -45.268 -46.566   8.942  1.00  0.00     0.000 C 
HETATM   23  C   UNL     1     -44.730 -47.619   9.893  1.00  0.00     0.004 C 
ENDBRANCH  18  19
ENDBRANCH  17  18
ENDBRANCH  14  17
ENDBRANCH   2  13
TORSDOF 6
ENDMDL
MODEL 6
REMARK VINA RESULT:      -5.3      1.542      1.895
REMARK  6 active torsions:
REMARK  status: ('A' for Active; 'I' for Inactive)
REMARK    1  A    between atoms: C_2  and  C_3 
REMARK    2  A    between atoms: C_2  and  N_13 
REMARK    3  A    between atoms: C_3  and  C_4 
REMARK       I    between atoms: N_13  and  C_14 
REMARK    4  A    between atoms: C_14  and  C_16 
REMARK    5  A    between atoms: C_16  and  C_17 
REMARK    6  A    between atoms: C_17  and  C_18 
ROOT
HETATM    1  C   UNL     1     -45.170 -50.380  16.622  1.00  0.00     0.032 C 
HETATM    2  C   UNL     1     -45.491 -51.650  15.820  1.00  0.00     0.084 C 
ENDROOT
BRANCH   2   3
HETATM    3  C   UNL     1     -45.674 -51.341  14.317  1.00  0.00     0.067 C 
BRANCH   3   4
HETATM    4  C   UNL     1     -44.471 -51.590  13.465  1.00  0.00    -0.009 A 
HETATM    5  C   UNL     1     -44.132 -52.785  12.775  1.00  0.00     0.030 A 
HETATM    6  C   UNL     1     -44.882 -54.067  12.697  1.00  0.00     0.070 C 
HETATM    7  N   UNL     1     -42.953 -52.679  12.153  1.00  0.00    -0.303 N 
HETATM    8  N   UNL     1     -42.522 -51.447  12.467  1.00  0.00    -0.300 N 
ATOM      9  HN  UNL     1     -42.487 -53.376  11.572  1.00  0.00     0.186 HD
HETATM   10  C   UNL     1     -41.218 -51.026  12.014  1.00  0.00     0.177 C 
HETATM   11  C   UNL     1     -43.405 -50.736  13.236  1.00  0.00     0.032 A 
HETATM   12  C   UNL     1     -43.169 -49.347  13.709  1.00  0.00     0.070 C 
ENDBRANCH   3   4
ENDBRANCH   2   3
BRANCH   2  13
HETATM   13  N   UNL     1     -44.405 -52.611  16.075  1.00  0.00    -0.357 N 
HETATM   14  C   UNL     1     -44.590 -53.943  16.375  1.00  0.00     0.217 C 
HETATM   15  O   UNL     1     -45.670 -54.520  16.389  1.00  0.00    -0.274 OA
HETATM   16  H   UNL     1     -43.521 -52.211  16.365  1.00  0.00     0.162 HD
BRANCH  14  17
HETATM   17  C   UNL     1     -43.307 -54.674  16.694  1.00  0.00     0.103 C 
BRANCH  17  18
HETATM   18  C   UNL     1     -42.544 -54.992  15.413  1.00  0.00     0.014 C 
BRANCH  18  19
HETATM   19  C   UNL     1     -41.112 -54.465  15.440  1.00  0.00    -0.014 C 
HETATM   20  C   UNL     1     -40.564 -54.221  14.026  1.00  0.00     0.004 C 
HETATM   21  C   UNL     1     -39.103 -54.668  14.050  1.00  0.00     0.000 C 
HETATM   22  C   UNL     1     -38.782 -54.970  15.505  1.00  0.00     0.000 C 
HETATM   23  C   UNL     1     -40.110 -55.425  16.081  1.00  0.00     0.004 C 
ENDBRANCH  18  19
ENDBRANCH  17  18
ENDBRANCH  14  17
ENDBRANCH   2  13
TORSDOF 6
ENDMDL
MODEL 7
REMARK VINA RESULT:      -5.2      3.533      6.633
REMARK  6 active torsions:
REMARK  status: ('A' for Active; 'I' for Inactive)
REMARK    1  A    between atoms: C_2  and  C_3 
REMARK    2  A    between atoms: C_2  and  N_13 
REMARK    3  A    between atoms: C_3  and  C_4 
REMARK       I    between atoms: N_13  and  C_14 
REMARK    4  A    between atoms: C_14  and  C_16 
REMARK    5  A    between atoms: C_16  and  C_17 
REMARK    6  A    between atoms: C_17  and  C_18 
ROOT
HETATM    1  C   UNL     1     -41.943 -48.205  10.254  1.00  0.00     0.032 C 
HETATM    2  C   UNL     1     -41.066 -49.120  11.121  1.00  0.00     0.084 C 
ENDROOT
BRANCH   2   3
HETATM    3  C   UNL     1     -40.126 -48.306  12.037  1.00  0.00     0.067 C 
BRANCH   3   4
HETATM    4  C   UNL     1     -39.231 -49.120  12.915  1.00  0.00    -0.009 A 
HETATM    5  C   UNL     1     -38.041 -49.803  12.542  1.00  0.00     0.030 A 
HETATM    6  C   UNL     1     -37.373 -49.864  11.215  1.00  0.00     0.070 C 
HETATM    7  N   UNL     1     -37.520 -50.482  13.569  1.00  0.00    -0.303 N 
HETATM    8  N   UNL     1     -38.379 -50.269  14.578  1.00  0.00    -0.300 N 
ATOM      9  HN  UNL     1     -36.664 -51.037  13.582  1.00  0.00     0.186 HD
HETATM   10  C   UNL     1     -38.153 -50.935  15.839  1.00  0.00     0.177 C 
HETATM   11  C   UNL     1     -39.417 -49.438  14.250  1.00  0.00     0.032 A 
HETATM   12  C   UNL     1     -40.496 -49.039  15.191  1.00  0.00     0.070 C 
ENDBRANCH   3   4
ENDBRANCH   2   3
BRANCH   2  13
HETATM   13  N   UNL     1     -41.972 -50.003  11.875  1.00  0.00    -0.357 N 
HETATM   14  C   UNL     1     -41.762 -51.349  12.084  1.00  0.00     0.217 C 
HETATM   15  O   UNL     1     -40.763 -51.969  11.743  1.00  0.00    -0.274 OA
HETATM   16  H   UNL     1     -42.930 -49.687  11.954  1.00  0.00     0.162 HD
BRANCH  14  17
HETATM   17  C   UNL     1     -42.902 -52.034  12.800  1.00  0.00     0.103 C 
BRANCH  17  18
HETATM   18  C   UNL     1     -43.880 -51.002  13.351  1.00  0.00     0.014 C 
BRANCH  18  19
HETATM   19  C   UNL     1     -44.770 -51.570  14.453  1.00  0.00    -0.014 C 
HETATM   20  C   UNL     1     -46.235 -51.680  14.006  1.00  0.00     0.004 C 
HETATM   21  C   UNL     1     -47.082 -51.281  15.213  1.00  0.00     0.000 C 
HETATM   22  C   UNL     1     -46.113 -51.142  16.377  1.00  0.00     0.000 C 
HETATM   23  C   UNL     1     -44.816 -50.712  15.716  1.00  0.00     0.004 C 
ENDBRANCH  18  19
ENDBRANCH  17  18
ENDBRANCH  14  17
ENDBRANCH   2  13
TORSDOF 6
ENDMDL
MODEL 8
REMARK VINA RESULT:      -5.2      3.508      5.985
REMARK  6 active torsions:
REMARK  status: ('A' for Active; 'I' for Inactive)
REMARK    1  A    between atoms: C_2  and  C_3 
REMARK    2  A    between atoms: C_2  and  N_13 
REMARK    3  A    between atoms: C_3  and  C_4 
REMARK       I    between atoms: N_13  and  C_14 
REMARK    4  A    between atoms: C_14  and  C_16 
REMARK    5  A    between atoms: C_16  and  C_17 
REMARK    6  A    between atoms: C_17  and  C_18 
ROOT
HETATM    1  C   UNL     1     -38.280 -49.818  11.651  1.00  0.00     0.032 C 
HETATM    2  C   UNL     1     -39.795 -49.801  11.901  1.00  0.00     0.084 C 
ENDROOT
BRANCH   2   3
HETATM    3  C   UNL     1     -40.534 -48.937  10.855  1.00  0.00     0.067 C 
BRANCH   3   4
HETATM    4  C   UNL     1     -41.330 -47.803  11.415  1.00  0.00    -0.009 A 
HETATM    5  C   UNL     1     -42.551 -47.878  12.141  1.00  0.00     0.030 A 
HETATM    6  C   UNL     1     -43.326 -49.080  12.548  1.00  0.00     0.070 C 
HETATM    7  N   UNL     1     -43.021 -46.663  12.443  1.00  0.00    -0.303 N 
HETATM    8  N   UNL     1     -42.136 -45.818  11.890  1.00  0.00    -0.300 N 
ATOM      9  HN  UNL     1     -43.862 -46.431  12.972  1.00  0.00     0.186 HD
HETATM   10  C   UNL     1     -42.388 -44.398  11.962  1.00  0.00     0.177 C 
HETATM   11  C   UNL     1     -41.085 -46.447  11.278  1.00  0.00     0.032 A 
HETATM   12  C   UNL     1     -39.969 -45.738  10.600  1.00  0.00     0.070 C 
ENDBRANCH   3   4
ENDBRANCH   2   3
BRANCH   2  13
HETATM   13  N   UNL     1     -40.251 -51.201  11.908  1.00  0.00    -0.357 N 
HETATM   14  C   UNL     1     -40.486 -51.945  13.044  1.00  0.00     0.217 C 
HETATM   15  O   UNL     1     -40.426 -51.520  14.191  1.00  0.00    -0.274 OA
HETATM   16  H   UNL     1     -40.066 -51.728  11.064  1.00  0.00     0.162 HD
BRANCH  14  17
HETATM   17  C   UNL     1     -40.844 -53.384  12.760  1.00  0.00     0.103 C 
BRANCH  17  18
HETATM   18  C   UNL     1     -41.753 -53.932  13.854  1.00  0.00     0.014 C 
BRANCH  18  19
HETATM   19  C   UNL     1     -43.111 -54.378  13.318  1.00  0.00    -0.014 C 
HETATM   20  C   UNL     1     -43.889 -53.215  12.686  1.00  0.00     0.004 C 
HETATM   21  C   UNL     1     -45.350 -53.409  13.086  1.00  0.00     0.000 C 
HETATM   22  C   UNL     1     -45.421 -54.769  13.763  1.00  0.00     0.000 C 
HETATM   23  C   UNL     1     -44.049 -54.931  14.390  1.00  0.00     0.004 C 
ENDBRANCH  18  19
ENDBRANCH  17  18
ENDBRANCH  14  17
ENDBRANCH   2  13
TORSDOF 6
ENDMDL
MODEL 9
REMARK VINA RESULT:      -5.2      2.619      5.747
REMARK  6 active torsions:
REMARK  status: ('A' for Active; 'I' for Inactive)
REMARK    1  A    between atoms: C_2  and  C_3 
REMARK    2  A    between atoms: C_2  and  N_13 
REMARK    3  A    between atoms: C_3  and  C_4 
REMARK       I    between atoms: N_13  and  C_14 
REMARK    4  A    between atoms: C_14  and  C_16 
REMARK    5  A    between atoms: C_16  and  C_17 
REMARK    6  A    between atoms: C_17  and  C_18 
ROOT
HETATM    1  C   UNL     1     -41.137 -52.436  11.681  1.00  0.00     0.032 C 
HETATM    2  C   UNL     1     -41.748 -52.115  13.053  1.00  0.00     0.084 C 
ENDROOT
BRANCH   2   3
HETATM    3  C   UNL     1     -41.110 -50.856  13.679  1.00  0.00     0.067 C 
BRANCH   3   4
HETATM    4  C   UNL     1     -40.730 -49.786  12.707  1.00  0.00    -0.009 A 
HETATM    5  C   UNL     1     -39.446 -49.544  12.145  1.00  0.00     0.030 A 
HETATM    6  C   UNL     1     -38.177 -50.292  12.351  1.00  0.00     0.070 C 
HETATM    7  N   UNL     1     -39.448 -48.467  11.353  1.00  0.00    -0.303 N 
HETATM    8  N   UNL     1     -40.705 -48.000  11.431  1.00  0.00    -0.300 N 
ATOM      9  HN  UNL     1     -38.672 -48.085  10.813  1.00  0.00     0.186 HD
HETATM   10  C   UNL     1     -41.039 -46.776  10.744  1.00  0.00     0.177 C 
HETATM   11  C   UNL     1     -41.528 -48.767  12.213  1.00  0.00     0.032 A 
HETATM   12  C   UNL     1     -42.964 -48.471  12.453  1.00  0.00     0.070 C 
ENDBRANCH   3   4
ENDBRANCH   2   3
BRANCH   2  13
HETATM   13  N   UNL     1     -43.202 -51.981  12.860  1.00  0.00    -0.357 N 
HETATM   14  C   UNL     1     -44.105 -53.018  12.950  1.00  0.00     0.217 C 
HETATM   15  O   UNL     1     -43.832 -54.165  13.280  1.00  0.00    -0.274 OA
HETATM   16  H   UNL     1     -43.503 -51.178  12.322  1.00  0.00     0.162 HD
BRANCH  14  17
HETATM   17  C   UNL     1     -45.520 -52.619  12.602  1.00  0.00     0.103 C 
BRANCH  17  18
HETATM   18  C   UNL     1     -45.955 -51.422  13.439  1.00  0.00     0.014 C 
BRANCH  18  19
HETATM   19  C   UNL     1     -45.920 -51.711  14.937  1.00  0.00    -0.014 C 
HETATM   20  C   UNL     1     -47.309 -51.584  15.579  1.00  0.00     0.004 C 
HETATM   21  C   UNL     1     -47.093 -50.925  16.940  1.00  0.00     0.000 C 
HETATM   22  C   UNL     1     -45.587 -50.867  17.143  1.00  0.00     0.000 C 
HETATM   23  C   UNL     1     -45.038 -50.750  15.733  1.00  0.00     0.004 C 
ENDBRANCH  18  19
ENDBRANCH  17  18
ENDBRANCH  14  17
ENDBRANCH   2  13
TORSDOF 6
ENDMDL
