MODEL 1
REMARK VINA RESULT:      -6.1      0.000      0.000
REMARK  6 active torsions:
REMARK  status: ('A' for Active; 'I' for Inactive)
REMARK    1  A    between atoms: C_4  and  N_5 
REMARK       I    between atoms: N_5  and  C_6 
REMARK       I    between atoms: C_6  and  N_8 
REMARK    2  A    between atoms: N_8  and  C_9 
REMARK    3  A    between atoms: C_9  and  C_10 
REMARK    4  A    between atoms: N_13  and  C_14 
REMARK    5  A    between atoms: C_14  and  C_15 
REMARK    6  A    between atoms: C_15  and  O_16 
ROOT
HETATM    1  N   UNL     1     -42.601 -52.721  11.768  1.00  0.00    -0.293 N 
HETATM    2  C   UNL     1     -41.922 -51.594  12.166  1.00  0.00     0.321 C 
HETATM    3  O   UNL     1     -42.268 -50.800  13.032  1.00  0.00    -0.247 OA
HETATM    4  N   UNL     1     -40.737 -51.438  11.468  1.00  0.00    -0.342 N 
HETATM    5  H   UNL     1     -42.215 -53.290  11.034  1.00  0.00     0.172 HD
HETATM    6  H   UNL     1     -40.548 -52.018  10.666  1.00  0.00     0.164 HD
ENDROOT
BRANCH   4   7
HETATM    7  C   UNL     1     -39.920 -50.260  11.666  1.00  0.00     0.129 C 
BRANCH   7   8
HETATM    8  C   UNL     1     -38.508 -50.591  12.183  1.00  0.00     0.007 C 
HETATM    9  C   UNL     1     -38.505 -51.414  13.482  1.00  0.00     0.036 C 
HETATM   10  C   UNL     1     -38.926 -50.595  14.712  1.00  0.00     0.273 C 
HETATM   11  N   UNL     1     -38.198 -49.319  14.876  1.00  0.00     0.090 N 
HETATM   12  C   UNL     1     -38.253 -48.533  13.636  1.00  0.00     0.273 C 
HETATM   13  C   UNL     1     -37.725 -49.292  12.415  1.00  0.00     0.036 C 
BRANCH  11  14
HETATM   14  C   UNL     1     -36.829 -49.533  15.391  1.00  0.00     0.298 C 
BRANCH  14  15
HETATM   15  C   UNL     1     -36.267 -48.309  16.139  1.00  0.00     0.194 C 
BRANCH  15  16
HETATM   16  O   UNL     1     -34.867 -48.456  16.355  1.00  0.00    -0.399 OA
HETATM   17  H   UNL     1     -34.497 -48.709  15.485  1.00  0.00     0.209 HD
ENDBRANCH  15  16
ENDBRANCH  14  15
ENDBRANCH  11  14
ENDBRANCH   7   8
ENDBRANCH   4   7
BRANCH   1  18
HETATM   18  C   UNL     1     -43.812 -53.117  12.309  1.00  0.00     0.132 A 
HETATM   19  C   UNL     1     -43.953 -54.208  13.201  1.00  0.00     0.084 A 
HETATM   20  C   UNL     1     -45.298 -54.263  13.469  1.00  0.00     0.076 A 
HETATM   21  C   UNL     1     -46.157 -55.137  14.283  1.00  0.00     0.079 C 
HETATM   22  O   UNL     1     -45.924 -53.266  12.798  1.00  0.00    -0.241 OA
HETATM   23  N   UNL     1     -44.996 -52.551  12.074  1.00  0.00    -0.245 N 
ATOM     24  HN  UNL     1     -45.178 -51.745  11.476  1.00  0.00     0.196 HD
ENDBRANCH   1  18
TORSDOF 6
ENDMDL
MODEL 2
REMARK VINA RESULT:      -6.1      3.445      7.117
REMARK  6 active torsions:
REMARK  status: ('A' for Active; 'I' for Inactive)
REMARK    1  A    between atoms: C_4  and  N_5 
REMARK       I    between atoms: N_5  and  C_6 
REMARK       I    between atoms: C_6  and  N_8 
REMARK    2  A    between atoms: N_8  and  C_9 
REMARK    3  A    between atoms: C_9  and  C_10 
REMARK    4  A    between atoms: N_13  and  C_14 
REMARK    5  A    between atoms: C_14  and  C_15 
REMARK    6  A    between atoms: C_15  and  O_16 
ROOT
HETATM    1  N   UNL     1     -41.246 -49.107  10.279  1.00  0.00    -0.293 N 
HETATM    2  C   UNL     1     -41.299 -49.749  11.494  1.00  0.00     0.321 C 
HETATM    3  O   UNL     1     -41.814 -49.328  12.521  1.00  0.00    -0.247 OA
HETATM    4  N   UNL     1     -40.694 -50.993  11.440  1.00  0.00    -0.342 N 
HETATM    5  H   UNL     1     -40.783 -49.557   9.508  1.00  0.00     0.172 HD
HETATM    6  H   UNL     1     -40.153 -51.253  10.630  1.00  0.00     0.164 HD
ENDROOT
BRANCH   4   7
HETATM    7  C   UNL     1     -40.554 -51.791  12.639  1.00  0.00     0.129 C 
BRANCH   7   8
HETATM    8  C   UNL     1     -41.310 -53.129  12.558  1.00  0.00     0.007 C 
HETATM    9  C   UNL     1     -42.827 -52.970  12.360  1.00  0.00     0.036 C 
HETATM   10  C   UNL     1     -43.546 -52.467  13.620  1.00  0.00     0.273 C 
HETATM   11  N   UNL     1     -43.238 -53.231  14.848  1.00  0.00     0.090 N 
HETATM   12  C   UNL     1     -41.784 -53.332  15.038  1.00  0.00     0.273 C 
HETATM   13  C   UNL     1     -41.058 -53.943  13.836  1.00  0.00     0.036 C 
BRANCH  11  14
HETATM   14  C   UNL     1     -43.939 -54.532  14.873  1.00  0.00     0.298 C 
BRANCH  14  15
HETATM   15  C   UNL     1     -45.459 -54.403  14.661  1.00  0.00     0.194 C 
BRANCH  15  16
HETATM   16  O   UNL     1     -45.844 -55.006  13.429  1.00  0.00    -0.399 OA
HETATM   17  H   UNL     1     -46.814 -55.117  13.489  1.00  0.00     0.209 HD
ENDBRANCH  15  16
ENDBRANCH  14  15
ENDBRANCH  11  14
ENDBRANCH   7   8
ENDBRANCH   4   7
BRANCH   1  18
HETATM   18  C   UNL     1     -41.782 -47.851  10.053  1.00  0.00     0.132 A 
HETATM   19  C   UNL     1     -43.107 -47.634   9.604  1.00  0.00     0.084 A 
HETATM   20  C   UNL     1     -43.216 -46.270   9.494  1.00  0.00     0.076 A 
HETATM   21  C   UNL     1     -44.279 -45.345   9.072  1.00  0.00     0.079 C 
HETATM   22  O   UNL     1     -42.041 -45.702   9.864  1.00  0.00    -0.241 OA
HETATM   23  N   UNL     1     -41.148 -46.690  10.213  1.00  0.00    -0.245 N 
ATOM     24  HN  UNL     1     -40.188 -46.558  10.532  1.00  0.00     0.196 HD
ENDBRANCH   1  18
TORSDOF 6
ENDMDL
MODEL 3
REMARK VINA RESULT:      -6.1      3.965      5.386
REMARK  6 active torsions:
REMARK  status: ('A' for Active; 'I' for Inactive)
REMARK    1  A    between atoms: C_4  and  N_5 
REMARK       I    between atoms: N_5  and  C_6 
REMARK       I    between atoms: C_6  and  N_8 
REMARK    2  A    between atoms: N_8  and  C_9 
REMARK    3  A    between atoms: C_9  and  C_10 
REMARK    4  A    between atoms: N_13  and  C_14 
REMARK    5  A    between atoms: C_14  and  C_15 
REMARK    6  A    between atoms: C_15  and  O_16 
ROOT
HETATM    1  N   UNL     1     -41.569 -47.538   9.854  1.00  0.00    -0.293 N 
HETATM    2  C   UNL     1     -41.258 -47.929  11.135  1.00  0.00     0.321 C 
HETATM    3  O   UNL     1     -42.030 -48.386  11.967  1.00  0.00    -0.247 OA
HETATM    4  N   UNL     1     -39.911 -47.761  11.406  1.00  0.00    -0.342 N 
HETATM    5  H   UNL     1     -40.843 -47.167   9.266  1.00  0.00     0.172 HD
HETATM    6  H   UNL     1     -39.330 -47.251  10.761  1.00  0.00     0.164 HD
ENDROOT
BRANCH   4   7
HETATM    7  C   UNL     1     -39.394 -48.019  12.734  1.00  0.00     0.129 C 
BRANCH   7   8
HETATM    8  C   UNL     1     -38.395 -49.189  12.769  1.00  0.00     0.007 C 
HETATM    9  C   UNL     1     -38.848 -50.412  11.955  1.00  0.00     0.036 C 
HETATM   10  C   UNL     1     -40.001 -51.180  12.618  1.00  0.00     0.273 C 
HETATM   11  N   UNL     1     -39.770 -51.529  14.036  1.00  0.00     0.090 N 
HETATM   12  C   UNL     1     -39.380 -50.336  14.800  1.00  0.00     0.273 C 
HETATM   13  C   UNL     1     -38.156 -49.620  14.223  1.00  0.00     0.036 C 
BRANCH  11  14
HETATM   14  C   UNL     1     -38.832 -52.664  14.173  1.00  0.00     0.298 C 
BRANCH  14  15
HETATM   15  C   UNL     1     -39.519 -54.035  14.034  1.00  0.00     0.194 C 
BRANCH  15  16
HETATM   16  O   UNL     1     -38.664 -54.956  13.363  1.00  0.00    -0.399 OA
HETATM   17  H   UNL     1     -39.209 -55.756  13.220  1.00  0.00     0.209 HD
ENDBRANCH  15  16
ENDBRANCH  14  15
ENDBRANCH  11  14
ENDBRANCH   7   8
ENDBRANCH   4   7
BRANCH   1  18
HETATM   18  C   UNL     1     -42.845 -47.608   9.320  1.00  0.00     0.132 A 
HETATM   19  C   UNL     1     -43.992 -47.079   9.958  1.00  0.00     0.084 A 
HETATM   20  C   UNL     1     -45.028 -47.378   9.110  1.00  0.00     0.076 A 
HETATM   21  C   UNL     1     -46.483 -47.159   9.133  1.00  0.00     0.079 C 
HETATM   22  O   UNL     1     -44.539 -48.031   8.027  1.00  0.00    -0.241 OA
HETATM   23  N   UNL     1     -43.176 -48.173   8.159  1.00  0.00    -0.245 N 
ATOM     24  HN  UNL     1     -42.543 -48.623   7.498  1.00  0.00     0.196 HD
ENDBRANCH   1  18
TORSDOF 6
ENDMDL
MODEL 4
REMARK VINA RESULT:      -6.0      3.783      4.831
REMARK  6 active torsions:
REMARK  status: ('A' for Active; 'I' for Inactive)
REMARK    1  A    between atoms: C_4  and  N_5 
REMARK       I    between atoms: N_5  and  C_6 
REMARK       I    between atoms: C_6  and  N_8 
REMARK    2  A    between atoms: N_8  and  C_9 
REMARK    3  A    between atoms: C_9  and  C_10 
REMARK    4  A    between atoms: N_13  and  C_14 
REMARK    5  A    between atoms: C_14  and  C_15 
REMARK    6  A    between atoms: C_15  and  O_16 
ROOT
HETATM    1  N   UNL     1     -41.890 -48.273   9.427  1.00  0.00    -0.293 N 
HETATM    2  C   UNL     1     -41.562 -48.835  10.638  1.00  0.00     0.321 C 
HETATM    3  O   UNL     1     -42.163 -48.693  11.695  1.00  0.00    -0.247 OA
HETATM    4  N   UNL     1     -40.434 -49.631  10.544  1.00  0.00    -0.342 N 
HETATM    5  H   UNL     1     -41.307 -48.460   8.628  1.00  0.00     0.172 HD
HETATM    6  H   UNL     1     -39.878 -49.615   9.704  1.00  0.00     0.164 HD
ENDROOT
BRANCH   4   7
HETATM    7  C   UNL     1     -39.863 -50.236  11.729  1.00  0.00     0.129 C 
BRANCH   7   8
HETATM    8  C   UNL     1     -38.487 -49.652  12.094  1.00  0.00     0.007 C 
HETATM    9  C   UNL     1     -37.577 -50.640  12.844  1.00  0.00     0.036 C 
HETATM   10  C   UNL     1     -38.025 -50.886  14.292  1.00  0.00     0.273 C 
HETATM   11  N   UNL     1     -38.255 -49.656  15.080  1.00  0.00     0.090 N 
HETATM   12  C   UNL     1     -39.160 -48.749  14.362  1.00  0.00     0.273 C 
HETATM   13  C   UNL     1     -38.672 -48.394  12.955  1.00  0.00     0.036 C 
BRANCH  11  14
HETATM   14  C   UNL     1     -36.983 -49.029  15.498  1.00  0.00     0.298 C 
BRANCH  14  15
HETATM   15  C   UNL     1     -36.137 -49.932  16.415  1.00  0.00     0.194 C 
BRANCH  15  16
HETATM   16  O   UNL     1     -34.748 -49.683  16.217  1.00  0.00    -0.399 OA
HETATM   17  H   UNL     1     -34.348 -50.563  16.063  1.00  0.00     0.209 HD
ENDBRANCH  15  16
ENDBRANCH  14  15
ENDBRANCH  11  14
ENDBRANCH   7   8
ENDBRANCH   4   7
BRANCH   1  18
HETATM   18  C   UNL     1     -42.978 -47.439   9.237  1.00  0.00     0.132 A 
HETATM   19  C   UNL     1     -44.323 -47.877   9.306  1.00  0.00     0.084 A 
HETATM   20  C   UNL     1     -45.066 -46.754   9.042  1.00  0.00     0.076 A 
HETATM   21  C   UNL     1     -46.504 -46.466   8.927  1.00  0.00     0.079 C 
HETATM   22  O   UNL     1     -44.228 -45.707   8.842  1.00  0.00    -0.241 OA
HETATM   23  N   UNL     1     -42.926 -46.136   8.965  1.00  0.00    -0.245 N 
ATOM     24  HN  UNL     1     -42.085 -45.567   8.867  1.00  0.00     0.196 HD
ENDBRANCH   1  18
TORSDOF 6
ENDMDL
MODEL 5
REMARK VINA RESULT:      -5.7      3.978      6.826
REMARK  6 active torsions:
REMARK  status: ('A' for Active; 'I' for Inactive)
REMARK    1  A    between atoms: C_4  and  N_5 
REMARK       I    between atoms: N_5  and  C_6 
REMARK       I    between atoms: C_6  and  N_8 
REMARK    2  A    between atoms: N_8  and  C_9 
REMARK    3  A    between atoms: C_9  and  C_10 
REMARK    4  A    between atoms: N_13  and  C_14 
REMARK    5  A    between atoms: C_14  and  C_15 
REMARK    6  A    between atoms: C_15  and  O_16 
ROOT
HETATM    1  N   UNL     1     -39.949 -47.966  11.201  1.00  0.00    -0.293 N 
HETATM    2  C   UNL     1     -40.816 -49.029  11.293  1.00  0.00     0.321 C 
HETATM    3  O   UNL     1     -42.034 -48.991  11.182  1.00  0.00    -0.247 OA
HETATM    4  N   UNL     1     -40.144 -50.217  11.524  1.00  0.00    -0.342 N 
HETATM    5  H   UNL     1     -38.964 -48.127  11.322  1.00  0.00     0.172 HD
HETATM    6  H   UNL     1     -39.163 -50.202  11.757  1.00  0.00     0.164 HD
ENDROOT
BRANCH   4   7
HETATM    7  C   UNL     1     -40.880 -51.442  11.753  1.00  0.00     0.129 C 
BRANCH   7   8
HETATM    8  C   UNL     1     -41.184 -51.688  13.241  1.00  0.00     0.007 C 
HETATM    9  C   UNL     1     -39.961 -51.511  14.158  1.00  0.00     0.036 C 
HETATM   10  C   UNL     1     -38.941 -52.651  14.023  1.00  0.00     0.273 C 
HETATM   11  N   UNL     1     -39.517 -54.007  14.145  1.00  0.00     0.090 N 
HETATM   12  C   UNL     1     -40.655 -54.165  13.228  1.00  0.00     0.273 C 
HETATM   13  C   UNL     1     -41.743 -53.106  13.427  1.00  0.00     0.036 C 
BRANCH  11  14
HETATM   14  C   UNL     1     -39.826 -54.346  15.550  1.00  0.00     0.298 C 
BRANCH  14  15
HETATM   15  C   UNL     1     -38.970 -55.506  16.094  1.00  0.00     0.194 C 
BRANCH  15  16
HETATM   16  O   UNL     1     -37.973 -55.877  15.147  1.00  0.00    -0.399 OA
HETATM   17  H   UNL     1     -37.402 -56.521  15.613  1.00  0.00     0.209 HD
ENDBRANCH  15  16
ENDBRANCH  14  15
ENDBRANCH  11  14
ENDBRANCH   7   8
ENDBRANCH   4   7
BRANCH   1  18
HETATM   18  C   UNL     1     -40.355 -46.664  10.967  1.00  0.00     0.132 A 
HETATM   19  C   UNL     1     -39.865 -45.548  11.686  1.00  0.00     0.084 A 
HETATM   20  C   UNL     1     -40.535 -44.474  11.155  1.00  0.00     0.076 A 
HETATM   21  C   UNL     1     -40.549 -43.027  11.421  1.00  0.00     0.079 C 
HETATM   22  O   UNL     1     -41.362 -44.910  10.174  1.00  0.00    -0.241 OA
HETATM   23  N   UNL     1     -41.249 -46.277  10.057  1.00  0.00    -0.245 N 
ATOM     24  HN  UNL     1     -41.750 -46.876   9.401  1.00  0.00     0.196 HD
ENDBRANCH   1  18
TORSDOF 6
ENDMDL
MODEL 6
REMARK VINA RESULT:      -5.6      2.476      3.461
REMARK  6 active torsions:
REMARK  status: ('A' for Active; 'I' for Inactive)
REMARK    1  A    between atoms: C_4  and  N_5 
REMARK       I    between atoms: N_5  and  C_6 
REMARK       I    between atoms: C_6  and  N_8 
REMARK    2  A    between atoms: N_8  and  C_9 
REMARK    3  A    between atoms: C_9  and  C_10 
REMARK    4  A    between atoms: N_13  and  C_14 
REMARK    5  A    between atoms: C_14  and  C_15 
REMARK    6  A    between atoms: C_15  and  O_16 
ROOT
HETATM    1  N   UNL     1     -42.705 -52.873  11.971  1.00  0.00    -0.293 N 
HETATM    2  C   UNL     1     -41.788 -52.112  12.658  1.00  0.00     0.321 C 
HETATM    3  O   UNL     1     -41.935 -51.618  13.768  1.00  0.00    -0.247 OA
HETATM    4  N   UNL     1     -40.613 -51.961  11.944  1.00  0.00    -0.342 N 
HETATM    5  H   UNL     1     -42.467 -53.216  11.056  1.00  0.00     0.172 HD
HETATM    6  H   UNL     1     -40.571 -52.251  10.980  1.00  0.00     0.164 HD
ENDROOT
BRANCH   4   7
HETATM    7  C   UNL     1     -39.555 -51.111  12.448  1.00  0.00     0.129 C 
BRANCH   7   8
HETATM    8  C   UNL     1     -39.187 -49.975  11.477  1.00  0.00     0.007 C 
HETATM    9  C   UNL     1     -38.256 -48.915  12.091  1.00  0.00     0.036 C 
HETATM   10  C   UNL     1     -38.965 -48.015  13.114  1.00  0.00     0.273 C 
HETATM   11  N   UNL     1     -40.226 -47.413  12.631  1.00  0.00     0.090 N 
HETATM   12  C   UNL     1     -41.115 -48.450  12.089  1.00  0.00     0.273 C 
HETATM   13  C   UNL     1     -40.466 -49.285  10.981  1.00  0.00     0.036 C 
BRANCH  11  14
HETATM   14  C   UNL     1     -39.975 -46.291  11.702  1.00  0.00     0.298 C 
BRANCH  14  15
HETATM   15  C   UNL     1     -41.267 -45.707  11.098  1.00  0.00     0.194 C 
BRANCH  15  16
HETATM   16  O   UNL     1     -41.141 -45.574   9.685  1.00  0.00    -0.399 OA
HETATM   17  H   UNL     1     -40.951 -46.476   9.358  1.00  0.00     0.209 HD
ENDBRANCH  15  16
ENDBRANCH  14  15
ENDBRANCH  11  14
ENDBRANCH   7   8
ENDBRANCH   4   7
BRANCH   1  18
HETATM   18  C   UNL     1     -43.962 -53.186  12.460  1.00  0.00     0.132 A 
HETATM   19  C   UNL     1     -44.193 -54.158  13.461  1.00  0.00     0.084 A 
HETATM   20  C   UNL     1     -45.556 -54.164  13.629  1.00  0.00     0.076 A 
HETATM   21  C   UNL     1     -46.493 -54.922  14.472  1.00  0.00     0.079 C 
HETATM   22  O   UNL     1     -46.107 -53.247  12.796  1.00  0.00    -0.241 OA
HETATM   23  N   UNL     1     -45.111 -52.637  12.068  1.00  0.00    -0.245 N 
ATOM     24  HN  UNL     1     -45.230 -51.907  11.365  1.00  0.00     0.196 HD
ENDBRANCH   1  18
TORSDOF 6
ENDMDL
MODEL 7
REMARK VINA RESULT:      -5.6      3.983      5.175
REMARK  6 active torsions:
REMARK  status: ('A' for Active; 'I' for Inactive)
REMARK    1  A    between atoms: C_4  and  N_5 
REMARK       I    between atoms: N_5  and  C_6 
REMARK       I    between atoms: C_6  and  N_8 
REMARK    2  A    between atoms: N_8  and  C_9 
REMARK    3  A    between atoms: C_9  and  C_10 
REMARK    4  A    between atoms: N_13  and  C_14 
REMARK    5  A    between atoms: C_14  and  C_15 
REMARK    6  A    between atoms: C_15  and  O_16 
ROOT
HETATM    1  N   UNL     1     -42.369 -51.765  11.890  1.00  0.00    -0.293 N 
HETATM    2  C   UNL     1     -41.856 -50.635  12.481  1.00  0.00     0.321 C 
HETATM    3  O   UNL     1     -41.793 -50.403  13.681  1.00  0.00    -0.247 OA
HETATM    4  N   UNL     1     -41.379 -49.738  11.541  1.00  0.00    -0.342 N 
HETATM    5  H   UNL     1     -42.373 -51.832  10.886  1.00  0.00     0.172 HD
HETATM    6  H   UNL     1     -41.575 -49.885  10.564  1.00  0.00     0.164 HD
ENDROOT
BRANCH   4   7
HETATM    7  C   UNL     1     -40.888 -48.440  11.951  1.00  0.00     0.129 C 
BRANCH   7   8
HETATM    8  C   UNL     1     -41.045 -47.368  10.858  1.00  0.00     0.007 C 
HETATM    9  C   UNL     1     -39.924 -46.315  10.861  1.00  0.00     0.036 C 
HETATM   10  C   UNL     1     -40.021 -45.339  12.042  1.00  0.00     0.273 C 
HETATM   11  N   UNL     1     -41.351 -44.715  12.214  1.00  0.00     0.090 N 
HETATM   12  C   UNL     1     -42.399 -45.744  12.251  1.00  0.00     0.273 C 
HETATM   13  C   UNL     1     -42.396 -46.657  11.022  1.00  0.00     0.036 C 
BRANCH  11  14
HETATM   14  C   UNL     1     -41.589 -43.651  11.215  1.00  0.00     0.298 C 
BRANCH  14  15
HETATM   15  C   UNL     1     -43.020 -43.085  11.265  1.00  0.00     0.194 C 
BRANCH  15  16
HETATM   16  O   UNL     1     -43.731 -43.419  10.077  1.00  0.00    -0.399 OA
HETATM   17  H   UNL     1     -43.101 -43.256   9.346  1.00  0.00     0.209 HD
ENDBRANCH  15  16
ENDBRANCH  14  15
ENDBRANCH  11  14
ENDBRANCH   7   8
ENDBRANCH   4   7
BRANCH   1  18
HETATM   18  C   UNL     1     -42.906 -52.825  12.599  1.00  0.00     0.132 A 
HETATM   19  C   UNL     1     -44.255 -53.238  12.492  1.00  0.00     0.084 A 
HETATM   20  C   UNL     1     -44.365 -54.291  13.366  1.00  0.00     0.076 A 
HETATM   21  C   UNL     1     -45.460 -55.180  13.786  1.00  0.00     0.079 C 
HETATM   22  O   UNL     1     -43.161 -54.508  13.950  1.00  0.00    -0.241 OA
HETATM   23  N   UNL     1     -42.251 -53.594  13.470  1.00  0.00    -0.245 N 
ATOM     24  HN  UNL     1     -41.267 -53.519  13.729  1.00  0.00     0.196 HD
ENDBRANCH   1  18
TORSDOF 6
ENDMDL
MODEL 8
REMARK VINA RESULT:      -5.5      3.732      7.845
REMARK  6 active torsions:
REMARK  status: ('A' for Active; 'I' for Inactive)
REMARK    1  A    between atoms: C_4  and  N_5 
REMARK       I    between atoms: N_5  and  C_6 
REMARK       I    between atoms: C_6  and  N_8 
REMARK    2  A    between atoms: N_8  and  C_9 
REMARK    3  A    between atoms: C_9  and  C_10 
REMARK    4  A    between atoms: N_13  and  C_14 
REMARK    5  A    between atoms: C_14  and  C_15 
REMARK    6  A    between atoms: C_15  and  O_16 
ROOT
HETATM    1  N   UNL     1     -41.607 -47.617  10.778  1.00  0.00    -0.293 N 
HETATM    2  C   UNL     1     -40.915 -48.639  11.382  1.00  0.00     0.321 C 
HETATM    3  O   UNL     1     -39.823 -48.557  11.930  1.00  0.00    -0.247 OA
HETATM    4  N   UNL     1     -41.611 -49.833  11.322  1.00  0.00    -0.342 N 
HETATM    5  H   UNL     1     -42.497 -47.814  10.352  1.00  0.00     0.172 HD
HETATM    6  H   UNL     1     -42.432 -49.906  10.743  1.00  0.00     0.164 HD
ENDROOT
BRANCH   4   7
HETATM    7  C   UNL     1     -41.012 -51.056  11.813  1.00  0.00     0.129 C 
BRANCH   7   8
HETATM    8  C   UNL     1     -41.481 -51.424  13.232  1.00  0.00     0.007 C 
HETATM    9  C   UNL     1     -40.858 -52.724  13.769  1.00  0.00     0.036 C 
HETATM   10  C   UNL     1     -41.422 -53.983  13.094  1.00  0.00     0.273 C 
HETATM   11  N   UNL     1     -42.899 -54.057  13.073  1.00  0.00     0.090 N 
HETATM   12  C   UNL     1     -43.467 -52.822  12.515  1.00  0.00     0.273 C 
HETATM   13  C   UNL     1     -43.010 -51.560  13.252  1.00  0.00     0.036 C 
BRANCH  11  14
HETATM   14  C   UNL     1     -43.446 -54.427  14.395  1.00  0.00     0.298 C 
BRANCH  14  15
HETATM   15  C   UNL     1     -44.987 -54.433  14.431  1.00  0.00     0.194 C 
BRANCH  15  16
HETATM   16  O   UNL     1     -45.492 -55.678  13.956  1.00  0.00    -0.399 OA
HETATM   17  H   UNL     1     -44.764 -56.318  14.088  1.00  0.00     0.209 HD
ENDBRANCH  15  16
ENDBRANCH  14  15
ENDBRANCH  11  14
ENDBRANCH   7   8
ENDBRANCH   4   7
BRANCH   1  18
HETATM   18  C   UNL     1     -41.142 -46.315  10.703  1.00  0.00     0.132 A 
HETATM   19  C   UNL     1     -41.754 -45.224  11.366  1.00  0.00     0.084 A 
HETATM   20  C   UNL     1     -40.997 -44.135  11.010  1.00  0.00     0.076 A 
HETATM   21  C   UNL     1     -41.053 -42.694  11.302  1.00  0.00     0.079 C 
HETATM   22  O   UNL     1     -39.990 -44.543  10.200  1.00  0.00    -0.241 OA
HETATM   23  N   UNL     1     -40.081 -45.904  10.009  1.00  0.00    -0.245 N 
ATOM     24  HN  UNL     1     -39.457 -46.484   9.448  1.00  0.00     0.196 HD
ENDBRANCH   1  18
TORSDOF 6
ENDMDL
MODEL 9
REMARK VINA RESULT:      -5.4      2.987      7.693
REMARK  6 active torsions:
REMARK  status: ('A' for Active; 'I' for Inactive)
REMARK    1  A    between atoms: C_4  and  N_5 
REMARK       I    between atoms: N_5  and  C_6 
REMARK       I    between atoms: C_6  and  N_8 
REMARK    2  A    between atoms: N_8  and  C_9 
REMARK    3  A    between atoms: C_9  and  C_10 
REMARK    4  A    between atoms: N_13  and  C_14 
REMARK    5  A    between atoms: C_14  and  C_15 
REMARK    6  A    between atoms: C_15  and  O_16 
ROOT
HETATM    1  N   UNL     1     -42.241 -51.196  12.071  1.00  0.00    -0.293 N 
HETATM    2  C   UNL     1     -42.950 -52.222  12.648  1.00  0.00     0.321 C 
HETATM    3  O   UNL     1     -42.491 -53.160  13.286  1.00  0.00    -0.247 OA
HETATM    4  N   UNL     1     -44.311 -52.082  12.440  1.00  0.00    -0.342 N 
HETATM    5  H   UNL     1     -42.737 -50.485  11.561  1.00  0.00     0.172 HD
HETATM    6  H   UNL     1     -44.651 -51.388  11.793  1.00  0.00     0.164 HD
ENDROOT
BRANCH   4   7
HETATM    7  C   UNL     1     -45.229 -53.110  12.881  1.00  0.00     0.129 C 
BRANCH   7   8
HETATM    8  C   UNL     1     -46.402 -52.552  13.706  1.00  0.00     0.007 C 
HETATM    9  C   UNL     1     -46.043 -51.292  14.513  1.00  0.00     0.036 C 
HETATM   10  C   UNL     1     -45.140 -51.589  15.719  1.00  0.00     0.273 C 
HETATM   11  N   UNL     1     -45.627 -52.674  16.597  1.00  0.00     0.090 N 
HETATM   12  C   UNL     1     -45.920 -53.879  15.809  1.00  0.00     0.273 C 
HETATM   13  C   UNL     1     -46.915 -53.630  14.671  1.00  0.00     0.036 C 
BRANCH  11  14
HETATM   14  C   UNL     1     -46.748 -52.225  17.450  1.00  0.00     0.298 C 
BRANCH  14  15
HETATM   15  C   UNL     1     -46.404 -50.985  18.296  1.00  0.00     0.194 C 
BRANCH  15  16
HETATM   16  O   UNL     1     -47.343 -49.941  18.056  1.00  0.00    -0.399 OA
HETATM   17  H   UNL     1     -46.946 -49.397  17.346  1.00  0.00     0.209 HD
ENDBRANCH  15  16
ENDBRANCH  14  15
ENDBRANCH  11  14
ENDBRANCH   7   8
ENDBRANCH   4   7
BRANCH   1  18
HETATM   18  C   UNL     1     -40.862 -51.087  12.134  1.00  0.00     0.132 A 
HETATM   19  C   UNL     1     -40.125 -50.069  11.482  1.00  0.00     0.084 A 
HETATM   20  C   UNL     1     -38.815 -50.342  11.786  1.00  0.00     0.076 A 
HETATM   21  C   UNL     1     -37.522 -49.731  11.442  1.00  0.00     0.079 C 
HETATM   22  O   UNL     1     -38.765 -51.441  12.579  1.00  0.00    -0.241 OA
HETATM   23  N   UNL     1     -40.044 -51.904  12.797  1.00  0.00    -0.245 N 
ATOM     24  HN  UNL     1     -40.312 -52.714  13.356  1.00  0.00     0.196 HD
ENDBRANCH   1  18
TORSDOF 6
ENDMDL
