MODEL 1
REMARK VINA RESULT:      -6.1      0.000      0.000
REMARK  4 active torsions:
REMARK  status: ('A' for Active; 'I' for Inactive)
REMARK    1  A    between atoms: C_2  and  N_7 
REMARK       I    between atoms: N_7  and  C_8 
REMARK       I    between atoms: C_8  and  N_10 
REMARK    2  A    between atoms: N_10  and  C_11 
REMARK    3  A    between atoms: N_15  and  C_16 
REMARK    4  A    between atoms: C_16  and  C_17 
ROOT
HETATM    1  N   UNL     1     -41.710 -48.269   9.793  1.00  0.00    -0.332 N 
HETATM    2  C   UNL     1     -41.192 -48.818  10.950  1.00  0.00     0.321 C 
HETATM    3  O   UNL     1     -41.338 -48.289  12.044  1.00  0.00    -0.247 OA
HETATM    4  N   UNL     1     -40.561 -50.023  10.735  1.00  0.00    -0.306 N 
HETATM    5  H   UNL     1     -41.151 -48.401   8.959  1.00  0.00     0.165 HD
HETATM    6  H   UNL     1     -40.779 -50.531   9.890  1.00  0.00     0.171 HD
ENDROOT
BRANCH   4   7
HETATM    7  C   UNL     1     -39.964 -50.717  11.778  1.00  0.00     0.070 A 
HETATM    8  C   UNL     1     -38.654 -50.614  12.306  1.00  0.00     0.138 A 
HETATM    9  N   UNL     1     -38.462 -51.406  13.360  1.00  0.00    -0.308 N 
HETATM   10  N   UNL     1     -39.643 -52.024  13.511  1.00  0.00    -0.293 N 
ATOM     11  HN  UNL     1     -37.616 -51.516  13.919  1.00  0.00     0.186 HD
HETATM   12  C   UNL     1     -40.568 -51.676  12.560  1.00  0.00     0.141 A 
BRANCH  10  13
HETATM   13  C   UNL     1     -39.853 -52.823  14.694  1.00  0.00     0.265 C 
BRANCH  13  14
HETATM   14  C   UNL     1     -40.004 -54.293  14.396  1.00  0.00     0.405 C 
HETATM   15  F   UNL     1     -39.861 -55.097  15.469  1.00  0.00    -0.169 F 
HETATM   16  F   UNL     1     -41.207 -54.561  13.836  1.00  0.00    -0.169 F 
HETATM   17  F   UNL     1     -39.062 -54.674  13.494  1.00  0.00    -0.169 F 
ENDBRANCH  13  14
ENDBRANCH  10  13
ENDBRANCH   4   7
BRANCH   1  18
HETATM   18  C   UNL     1     -42.553 -47.054   9.846  1.00  0.00     0.054 C 
HETATM   19  C   UNL     1     -41.712 -45.850  10.298  1.00  0.00     0.041 C 
HETATM   20  C   UNL     1     -43.283 -46.796   8.529  1.00  0.00     0.059 C 
HETATM   21  C   UNL     1     -44.643 -47.446   8.696  1.00  0.00     0.170 C 
HETATM   22  O   UNL     1     -44.788 -47.845  10.062  1.00  0.00    -0.389 OA
HETATM   23  C   UNL     1     -43.727 -47.248  10.816  1.00  0.00     0.198 C 
ENDBRANCH   1  18
TORSDOF 4
ENDMDL
MODEL 2
REMARK VINA RESULT:      -6.0      4.225      6.098
REMARK  4 active torsions:
REMARK  status: ('A' for Active; 'I' for Inactive)
REMARK    1  A    between atoms: C_2  and  N_7 
REMARK       I    between atoms: N_7  and  C_8 
REMARK       I    between atoms: C_8  and  N_10 
REMARK    2  A    between atoms: N_10  and  C_11 
REMARK    3  A    between atoms: N_15  and  C_16 
REMARK    4  A    between atoms: C_16  and  C_17 
ROOT
HETATM    1  N   UNL     1     -40.238 -51.034  11.531  1.00  0.00    -0.332 N 
HETATM    2  C   UNL     1     -41.176 -51.539  12.409  1.00  0.00     0.321 C 
HETATM    3  O   UNL     1     -41.182 -51.245  13.597  1.00  0.00    -0.247 OA
HETATM    4  N   UNL     1     -42.109 -52.345  11.792  1.00  0.00    -0.306 N 
HETATM    5  H   UNL     1     -39.946 -51.664  10.793  1.00  0.00     0.165 HD
HETATM    6  H   UNL     1     -42.224 -52.259  10.792  1.00  0.00     0.171 HD
ENDROOT
BRANCH   4   7
HETATM    7  C   UNL     1     -43.122 -52.955  12.516  1.00  0.00     0.070 A 
HETATM    8  C   UNL     1     -43.070 -54.069  13.388  1.00  0.00     0.138 A 
HETATM    9  N   UNL     1     -44.246 -54.330  13.959  1.00  0.00    -0.308 N 
HETATM   10  N   UNL     1     -45.058 -53.389  13.452  1.00  0.00    -0.293 N 
ATOM     11  HN  UNL     1     -44.474 -55.070  14.623  1.00  0.00     0.186 HD
HETATM   12  C   UNL     1     -44.442 -52.563  12.549  1.00  0.00     0.141 A 
BRANCH  10  13
HETATM   13  C   UNL     1     -46.383 -53.254  14.009  1.00  0.00     0.265 C 
BRANCH  13  14
HETATM   14  C   UNL     1     -46.620 -51.912  14.652  1.00  0.00     0.405 C 
HETATM   15  F   UNL     1     -45.538 -51.386  15.262  1.00  0.00    -0.169 F 
HETATM   16  F   UNL     1     -47.067 -51.006  13.751  1.00  0.00    -0.169 F 
HETATM   17  F   UNL     1     -47.586 -52.026  15.601  1.00  0.00    -0.169 F 
ENDBRANCH  13  14
ENDBRANCH  10  13
ENDBRANCH   4   7
BRANCH   1  18
HETATM   18  C   UNL     1     -39.248 -50.030  11.981  1.00  0.00     0.054 C 
HETATM   19  C   UNL     1     -39.837 -48.617  11.852  1.00  0.00     0.041 C 
HETATM   20  C   UNL     1     -38.725 -50.320  13.387  1.00  0.00     0.059 C 
HETATM   21  C   UNL     1     -37.452 -51.118  13.180  1.00  0.00     0.170 C 
HETATM   22  O   UNL     1     -37.130 -51.100  11.786  1.00  0.00    -0.389 OA
HETATM   23  C   UNL     1     -37.962 -50.123  11.148  1.00  0.00     0.198 C 
ENDBRANCH   1  18
TORSDOF 4
ENDMDL
MODEL 3
REMARK VINA RESULT:      -5.9      2.764      3.487
REMARK  4 active torsions:
REMARK  status: ('A' for Active; 'I' for Inactive)
REMARK    1  A    between atoms: C_2  and  N_7 
REMARK       I    between atoms: N_7  and  C_8 
REMARK       I    between atoms: C_8  and  N_10 
REMARK    2  A    between atoms: N_10  and  C_11 
REMARK    3  A    between atoms: N_15  and  C_16 
REMARK    4  A    between atoms: C_16  and  C_17 
ROOT
HETATM    1  N   UNL     1     -44.549 -47.649  10.420  1.00  0.00    -0.332 N 
HETATM    2  C   UNL     1     -43.227 -47.958  10.675  1.00  0.00     0.321 C 
HETATM    3  O   UNL     1     -42.354 -47.838   9.826  1.00  0.00    -0.247 OA
HETATM    4  N   UNL     1     -43.011 -48.351  11.978  1.00  0.00    -0.306 N 
HETATM    5  H   UNL     1     -45.232 -48.232  10.888  1.00  0.00     0.165 HD
HETATM    6  H   UNL     1     -43.700 -48.101  12.672  1.00  0.00     0.171 HD
ENDROOT
BRANCH   4   7
HETATM    7  C   UNL     1     -41.746 -48.717  12.417  1.00  0.00     0.070 A 
HETATM    8  C   UNL     1     -40.858 -48.043  13.290  1.00  0.00     0.138 A 
HETATM    9  N   UNL     1     -39.748 -48.740  13.530  1.00  0.00    -0.308 N 
HETATM   10  N   UNL     1     -39.915 -49.859  12.810  1.00  0.00    -0.293 N 
ATOM     11  HN  UNL     1     -38.958 -48.483  14.122  1.00  0.00     0.186 HD
HETATM   12  C   UNL     1     -41.081 -49.877  12.089  1.00  0.00     0.141 A 
BRANCH  10  13
HETATM   13  C   UNL     1     -38.975 -50.939  12.991  1.00  0.00     0.265 C 
BRANCH  13  14
HETATM   14  C   UNL     1     -37.543 -50.518  12.782  1.00  0.00     0.405 C 
HETATM   15  F   UNL     1     -37.375 -49.555  11.853  1.00  0.00    -0.169 F 
HETATM   16  F   UNL     1     -36.985 -50.082  13.936  1.00  0.00    -0.169 F 
HETATM   17  F   UNL     1     -36.808 -51.586  12.375  1.00  0.00    -0.169 F 
ENDBRANCH  13  14
ENDBRANCH  10  13
ENDBRANCH   4   7
BRANCH   1  18
HETATM   18  C   UNL     1     -44.949 -47.063   9.122  1.00  0.00     0.054 C 
HETATM   19  C   UNL     1     -44.186 -45.751   8.879  1.00  0.00     0.041 C 
HETATM   20  C   UNL     1     -44.795 -48.051   7.967  1.00  0.00     0.059 C 
HETATM   21  C   UNL     1     -46.159 -48.698   7.814  1.00  0.00     0.170 C 
HETATM   22  O   UNL     1     -47.088 -47.992   8.642  1.00  0.00    -0.389 OA
HETATM   23  C   UNL     1     -46.459 -46.786   9.092  1.00  0.00     0.198 C 
ENDBRANCH   1  18
TORSDOF 4
ENDMDL
MODEL 4
REMARK VINA RESULT:      -5.7      1.829      2.562
REMARK  4 active torsions:
REMARK  status: ('A' for Active; 'I' for Inactive)
REMARK    1  A    between atoms: C_2  and  N_7 
REMARK       I    between atoms: N_7  and  C_8 
REMARK       I    between atoms: C_8  and  N_10 
REMARK    2  A    between atoms: N_10  and  C_11 
REMARK    3  A    between atoms: N_15  and  C_16 
REMARK    4  A    between atoms: C_16  and  C_17 
ROOT
HETATM    1  N   UNL     1     -41.809 -48.135  10.417  1.00  0.00    -0.332 N 
HETATM    2  C   UNL     1     -41.686 -49.119  11.379  1.00  0.00     0.321 C 
HETATM    3  O   UNL     1     -42.341 -49.105  12.413  1.00  0.00    -0.247 OA
HETATM    4  N   UNL     1     -40.807 -50.115  11.017  1.00  0.00    -0.306 N 
HETATM    5  H   UNL     1     -40.956 -47.896   9.925  1.00  0.00     0.165 HD
HETATM    6  H   UNL     1     -40.581 -50.218  10.038  1.00  0.00     0.171 HD
ENDROOT
BRANCH   4   7
HETATM    7  C   UNL     1     -40.542 -51.182  11.863  1.00  0.00     0.070 A 
HETATM    8  C   UNL     1     -39.630 -51.281  12.941  1.00  0.00     0.138 A 
HETATM    9  N   UNL     1     -39.701 -52.455  13.568  1.00  0.00    -0.308 N 
HETATM   10  N   UNL     1     -40.654 -53.115  12.893  1.00  0.00    -0.293 N 
ATOM     11  HN  UNL     1     -39.160 -52.775  14.371  1.00  0.00     0.186 HD
HETATM   12  C   UNL     1     -41.163 -52.411  11.833  1.00  0.00     0.141 A 
BRANCH  10  13
HETATM   13  C   UNL     1     -41.132 -54.368  13.429  1.00  0.00     0.265 C 
BRANCH  13  14
HETATM   14  C   UNL     1     -42.545 -54.290  13.946  1.00  0.00     0.405 C 
HETATM   15  F   UNL     1     -43.491 -54.297  12.985  1.00  0.00    -0.169 F 
HETATM   16  F   UNL     1     -42.814 -55.307  14.798  1.00  0.00    -0.169 F 
HETATM   17  F   UNL     1     -42.710 -53.139  14.649  1.00  0.00    -0.169 F 
ENDBRANCH  13  14
ENDBRANCH  10  13
ENDBRANCH   4   7
BRANCH   1  18
HETATM   18  C   UNL     1     -42.819 -47.063  10.560  1.00  0.00     0.054 C 
HETATM   19  C   UNL     1     -44.230 -47.641  10.370  1.00  0.00     0.041 C 
HETATM   20  C   UNL     1     -42.673 -46.299  11.875  1.00  0.00     0.059 C 
HETATM   21  C   UNL     1     -41.807 -45.099  11.542  1.00  0.00     0.170 C 
HETATM   22  O   UNL     1     -41.653 -45.034  10.122  1.00  0.00    -0.389 OA
HETATM   23  C   UNL     1     -42.581 -45.950   9.530  1.00  0.00     0.198 C 
ENDBRANCH   1  18
TORSDOF 4
ENDMDL
MODEL 5
REMARK VINA RESULT:      -5.7      4.735      7.551
REMARK  4 active torsions:
REMARK  status: ('A' for Active; 'I' for Inactive)
REMARK    1  A    between atoms: C_2  and  N_7 
REMARK       I    between atoms: N_7  and  C_8 
REMARK       I    between atoms: C_8  and  N_10 
REMARK    2  A    between atoms: N_10  and  C_11 
REMARK    3  A    between atoms: N_15  and  C_16 
REMARK    4  A    between atoms: C_16  and  C_17 
ROOT
HETATM    1  N   UNL     1     -41.078 -51.793  11.752  1.00  0.00    -0.332 N 
HETATM    2  C   UNL     1     -41.552 -50.496  11.710  1.00  0.00     0.321 C 
HETATM    3  O   UNL     1     -42.435 -50.100  12.459  1.00  0.00    -0.247 OA
HETATM    4  N   UNL     1     -40.889 -49.713  10.789  1.00  0.00    -0.306 N 
HETATM    5  H   UNL     1     -40.808 -52.189  10.859  1.00  0.00     0.165 HD
HETATM    6  H   UNL     1     -39.981 -50.018  10.471  1.00  0.00     0.171 HD
ENDROOT
BRANCH   4   7
HETATM    7  C   UNL     1     -41.237 -48.385  10.594  1.00  0.00     0.070 A 
HETATM    8  C   UNL     1     -42.238 -47.821   9.767  1.00  0.00     0.138 A 
HETATM    9  N   UNL     1     -42.319 -46.496   9.890  1.00  0.00    -0.308 N 
HETATM   10  N   UNL     1     -41.369 -46.204  10.791  1.00  0.00    -0.293 N 
ATOM     11  HN  UNL     1     -42.954 -45.856   9.412  1.00  0.00     0.186 HD
HETATM   12  C   UNL     1     -40.662 -47.299  11.215  1.00  0.00     0.141 A 
BRANCH  10  13
HETATM   13  C   UNL     1     -41.308 -44.859  11.312  1.00  0.00     0.265 C 
BRANCH  13  14
HETATM   14  C   UNL     1     -40.004 -44.167  11.010  1.00  0.00     0.405 C 
HETATM   15  F   UNL     1     -39.012 -44.441  11.881  1.00  0.00    -0.169 F 
HETATM   16  F   UNL     1     -39.561 -44.472   9.768  1.00  0.00    -0.169 F 
HETATM   17  F   UNL     1     -40.186 -42.820  11.038  1.00  0.00    -0.169 F 
ENDBRANCH  13  14
ENDBRANCH  10  13
ENDBRANCH   4   7
BRANCH   1  18
HETATM   18  C   UNL     1     -41.562 -52.739  12.782  1.00  0.00     0.054 C 
HETATM   19  C   UNL     1     -43.065 -52.997  12.595  1.00  0.00     0.041 C 
HETATM   20  C   UNL     1     -40.747 -54.031  12.812  1.00  0.00     0.059 C 
HETATM   21  C   UNL     1     -39.685 -53.804  13.872  1.00  0.00     0.170 C 
HETATM   22  O   UNL     1     -39.990 -52.590  14.564  1.00  0.00    -0.389 OA
HETATM   23  C   UNL     1     -41.312 -52.183  14.191  1.00  0.00     0.198 C 
ENDBRANCH   1  18
TORSDOF 4
ENDMDL
MODEL 6
REMARK VINA RESULT:      -5.6      5.407      7.385
REMARK  4 active torsions:
REMARK  status: ('A' for Active; 'I' for Inactive)
REMARK    1  A    between atoms: C_2  and  N_7 
REMARK       I    between atoms: N_7  and  C_8 
REMARK       I    between atoms: C_8  and  N_10 
REMARK    2  A    between atoms: N_10  and  C_11 
REMARK    3  A    between atoms: N_15  and  C_16 
REMARK    4  A    between atoms: C_16  and  C_17 
ROOT
HETATM    1  N   UNL     1     -44.382 -51.739  14.699  1.00  0.00    -0.332 N 
HETATM    2  C   UNL     1     -44.093 -51.044  13.541  1.00  0.00     0.321 C 
HETATM    3  O   UNL     1     -44.856 -51.025  12.584  1.00  0.00    -0.247 OA
HETATM    4  N   UNL     1     -42.904 -50.350  13.616  1.00  0.00    -0.306 N 
HETATM    5  H   UNL     1     -43.588 -52.155  15.169  1.00  0.00     0.165 HD
HETATM    6  H   UNL     1     -42.525 -50.154  14.530  1.00  0.00     0.171 HD
ENDROOT
BRANCH   4   7
HETATM    7  C   UNL     1     -42.440 -49.605  12.542  1.00  0.00     0.070 A 
HETATM    8  C   UNL     1     -41.455 -49.923  11.575  1.00  0.00     0.138 A 
HETATM    9  N   UNL     1     -41.321 -48.975  10.648  1.00  0.00    -0.308 N 
HETATM   10  N   UNL     1     -42.214 -48.044  11.018  1.00  0.00    -0.293 N 
ATOM     11  HN  UNL     1     -40.689 -48.960   9.848  1.00  0.00     0.186 HD
HETATM   12  C   UNL     1     -42.884 -48.356  12.172  1.00  0.00     0.141 A 
BRANCH  10  13
HETATM   13  C   UNL     1     -42.477 -46.948  10.115  1.00  0.00     0.265 C 
BRANCH  13  14
HETATM   14  C   UNL     1     -43.468 -47.296   9.035  1.00  0.00     0.405 C 
HETATM   15  F   UNL     1     -43.007 -48.167   8.114  1.00  0.00    -0.169 F 
HETATM   16  F   UNL     1     -44.606 -47.811   9.557  1.00  0.00    -0.169 F 
HETATM   17  F   UNL     1     -43.823 -46.170   8.362  1.00  0.00    -0.169 F 
ENDBRANCH  13  14
ENDBRANCH  10  13
ENDBRANCH   4   7
BRANCH   1  18
HETATM   18  C   UNL     1     -45.686 -52.419  14.864  1.00  0.00     0.054 C 
HETATM   19  C   UNL     1     -46.796 -51.381  15.095  1.00  0.00     0.041 C 
HETATM   20  C   UNL     1     -46.001 -53.362  13.704  1.00  0.00     0.059 C 
HETATM   21  C   UNL     1     -45.513 -54.724  14.157  1.00  0.00     0.170 C 
HETATM   22  O   UNL     1     -45.159 -54.640  15.540  1.00  0.00    -0.389 OA
HETATM   23  C   UNL     1     -45.646 -53.393  16.050  1.00  0.00     0.198 C 
ENDBRANCH   1  18
TORSDOF 4
ENDMDL
MODEL 7
REMARK VINA RESULT:      -5.6      5.151      6.927
REMARK  4 active torsions:
REMARK  status: ('A' for Active; 'I' for Inactive)
REMARK    1  A    between atoms: C_2  and  N_7 
REMARK       I    between atoms: N_7  and  C_8 
REMARK       I    between atoms: C_8  and  N_10 
REMARK    2  A    between atoms: N_10  and  C_11 
REMARK    3  A    between atoms: N_15  and  C_16 
REMARK    4  A    between atoms: C_16  and  C_17 
ROOT
HETATM    1  N   UNL     1     -43.094 -51.726  12.345  1.00  0.00    -0.332 N 
HETATM    2  C   UNL     1     -42.575 -50.449  12.435  1.00  0.00     0.321 C 
HETATM    3  O   UNL     1     -42.894 -49.677  13.330  1.00  0.00    -0.247 OA
HETATM    4  N   UNL     1     -41.640 -50.181  11.459  1.00  0.00    -0.306 N 
HETATM    5  H   UNL     1     -43.237 -52.074  11.405  1.00  0.00     0.165 HD
HETATM    6  H   UNL     1     -41.203 -50.962  10.990  1.00  0.00     0.171 HD
ENDROOT
BRANCH   4   7
HETATM    7  C   UNL     1     -41.019 -48.942  11.380  1.00  0.00     0.070 A 
HETATM    8  C   UNL     1     -39.714 -48.555  11.767  1.00  0.00     0.138 A 
HETATM    9  N   UNL     1     -39.449 -47.281  11.476  1.00  0.00    -0.308 N 
HETATM   10  N   UNL     1     -40.583 -46.846  10.907  1.00  0.00    -0.293 N 
ATOM     11  HN  UNL     1     -38.588 -46.762  11.646  1.00  0.00     0.186 HD
HETATM   12  C   UNL     1     -41.573 -47.793  10.862  1.00  0.00     0.141 A 
BRANCH  10  13
HETATM   13  C   UNL     1     -40.582 -45.542  10.286  1.00  0.00     0.265 C 
BRANCH  13  14
HETATM   14  C   UNL     1     -41.269 -44.490  11.119  1.00  0.00     0.405 C 
HETATM   15  F   UNL     1     -42.555 -44.266  10.784  1.00  0.00    -0.169 F 
HETATM   16  F   UNL     1     -41.233 -44.803  12.435  1.00  0.00    -0.169 F 
HETATM   17  F   UNL     1     -40.618 -43.305  10.983  1.00  0.00    -0.169 F 
ENDBRANCH  13  14
ENDBRANCH  10  13
ENDBRANCH   4   7
BRANCH   1  18
HETATM   18  C   UNL     1     -43.998 -52.248  13.395  1.00  0.00     0.054 C 
HETATM   19  C   UNL     1     -43.211 -52.491  14.692  1.00  0.00     0.041 C 
HETATM   20  C   UNL     1     -45.216 -51.352  13.610  1.00  0.00     0.059 C 
HETATM   21  C   UNL     1     -46.302 -51.942  12.730  1.00  0.00     0.170 C 
HETATM   22  O   UNL     1     -45.840 -53.199  12.226  1.00  0.00    -0.389 OA
HETATM   23  C   UNL     1     -44.654 -53.559  12.944  1.00  0.00     0.198 C 
ENDBRANCH   1  18
TORSDOF 4
ENDMDL
MODEL 8
REMARK VINA RESULT:      -5.5      4.878      7.408
REMARK  4 active torsions:
REMARK  status: ('A' for Active; 'I' for Inactive)
REMARK    1  A    between atoms: C_2  and  N_7 
REMARK       I    between atoms: N_7  and  C_8 
REMARK       I    between atoms: C_8  and  N_10 
REMARK    2  A    between atoms: N_10  and  C_11 
REMARK    3  A    between atoms: N_15  and  C_16 
REMARK    4  A    between atoms: C_16  and  C_17 
ROOT
HETATM    1  N   UNL     1     -43.290 -52.167  13.997  1.00  0.00    -0.332 N 
HETATM    2  C   UNL     1     -42.755 -51.426  12.962  1.00  0.00     0.321 C 
HETATM    3  O   UNL     1     -42.267 -51.950  11.969  1.00  0.00    -0.247 OA
HETATM    4  N   UNL     1     -42.887 -50.067  13.152  1.00  0.00    -0.306 N 
HETATM    5  H   UNL     1     -43.167 -51.777  14.923  1.00  0.00     0.165 HD
HETATM    6  H   UNL     1     -43.581 -49.744  13.810  1.00  0.00     0.171 HD
ENDROOT
BRANCH   4   7
HETATM    7  C   UNL     1     -42.394 -49.162  12.224  1.00  0.00     0.070 A 
HETATM    8  C   UNL     1     -41.210 -49.209  11.449  1.00  0.00     0.138 A 
HETATM    9  N   UNL     1     -41.103 -48.177  10.612  1.00  0.00    -0.308 N 
HETATM   10  N   UNL     1     -42.214 -47.463  10.848  1.00  0.00    -0.293 N 
ATOM     11  HN  UNL     1     -40.355 -47.979   9.948  1.00  0.00     0.186 HD
HETATM   12  C   UNL     1     -43.004 -47.989  11.837  1.00  0.00     0.141 A 
BRANCH  10  13
HETATM   13  C   UNL     1     -42.523 -46.363   9.966  1.00  0.00     0.265 C 
BRANCH  13  14
HETATM   14  C   UNL     1     -43.501 -46.731   8.880  1.00  0.00     0.405 C 
HETATM   15  F   UNL     1     -43.669 -48.058   8.707  1.00  0.00    -0.169 F 
HETATM   16  F   UNL     1     -44.719 -46.187   9.108  1.00  0.00    -0.169 F 
HETATM   17  F   UNL     1     -43.069 -46.235   7.690  1.00  0.00    -0.169 F 
ENDBRANCH  13  14
ENDBRANCH  10  13
ENDBRANCH   4   7
BRANCH   1  18
HETATM   18  C   UNL     1     -43.379 -53.642  13.901  1.00  0.00     0.054 C 
HETATM   19  C   UNL     1     -41.971 -54.256  13.930  1.00  0.00     0.041 C 
HETATM   20  C   UNL     1     -44.299 -54.238  14.965  1.00  0.00     0.059 C 
HETATM   21  C   UNL     1     -45.654 -54.360  14.293  1.00  0.00     0.170 C 
HETATM   22  O   UNL     1     -45.493 -54.083  12.899  1.00  0.00    -0.389 OA
HETATM   23  C   UNL     1     -44.091 -54.061  12.607  1.00  0.00     0.198 C 
ENDBRANCH   1  18
TORSDOF 4
ENDMDL
MODEL 9
REMARK VINA RESULT:      -5.3      3.546      4.239
REMARK  4 active torsions:
REMARK  status: ('A' for Active; 'I' for Inactive)
REMARK    1  A    between atoms: C_2  and  N_7 
REMARK       I    between atoms: N_7  and  C_8 
REMARK       I    between atoms: C_8  and  N_10 
REMARK    2  A    between atoms: N_10  and  C_11 
REMARK    3  A    between atoms: N_15  and  C_16 
REMARK    4  A    between atoms: C_16  and  C_17 
ROOT
HETATM    1  N   UNL     1     -41.682 -49.595  11.390  1.00  0.00    -0.332 N 
HETATM    2  C   UNL     1     -42.234 -50.504  12.271  1.00  0.00     0.321 C 
HETATM    3  O   UNL     1     -42.749 -50.160  13.326  1.00  0.00    -0.247 OA
HETATM    4  N   UNL     1     -42.186 -51.800  11.803  1.00  0.00    -0.306 N 
HETATM    5  H   UNL     1     -40.864 -49.916  10.886  1.00  0.00     0.165 HD
HETATM    6  H   UNL     1     -42.059 -51.944  10.812  1.00  0.00     0.171 HD
ENDROOT
BRANCH   4   7
HETATM    7  C   UNL     1     -42.680 -52.854  12.558  1.00  0.00     0.070 A 
HETATM    8  C   UNL     1     -42.025 -53.673  13.510  1.00  0.00     0.138 A 
HETATM    9  N   UNL     1     -42.848 -54.552  14.083  1.00  0.00    -0.308 N 
HETATM   10  N   UNL     1     -44.031 -54.304  13.499  1.00  0.00    -0.293 N 
ATOM     11  HN  UNL     1     -42.630 -55.247  14.796  1.00  0.00     0.186 HD
HETATM   12  C   UNL     1     -43.975 -53.321  12.545  1.00  0.00     0.141 A 
BRANCH  10  13
HETATM   13  C   UNL     1     -45.207 -54.953  14.027  1.00  0.00     0.265 C 
BRANCH  13  14
HETATM   14  C   UNL     1     -46.002 -54.071  14.955  1.00  0.00     0.405 C 
HETATM   15  F   UNL     1     -46.642 -54.733  15.941  1.00  0.00    -0.169 F 
HETATM   16  F   UNL     1     -45.220 -53.128  15.530  1.00  0.00    -0.169 F 
HETATM   17  F   UNL     1     -46.955 -53.408  14.248  1.00  0.00    -0.169 F 
ENDBRANCH  13  14
ENDBRANCH  10  13
ENDBRANCH   4   7
BRANCH   1  18
HETATM   18  C   UNL     1     -41.778 -48.141  11.649  1.00  0.00     0.054 C 
HETATM   19  C   UNL     1     -40.857 -47.753  12.817  1.00  0.00     0.041 C 
HETATM   20  C   UNL     1     -41.515 -47.309  10.396  1.00  0.00     0.059 C 
HETATM   21  C   UNL     1     -42.885 -47.042   9.802  1.00  0.00     0.170 C 
HETATM   22  O   UNL     1     -43.875 -47.474  10.740  1.00  0.00    -0.389 OA
HETATM   23  C   UNL     1     -43.222 -47.742  11.986  1.00  0.00     0.198 C 
ENDBRANCH   1  18
TORSDOF 4
ENDMDL
