MODEL 1
REMARK VINA RESULT:      -6.7      0.000      0.000
REMARK  5 active torsions:
REMARK  status: ('A' for Active; 'I' for Inactive)
REMARK    1  A    between atoms: C_2  and  C_5 
REMARK    2  A    between atoms: N_10  and  C_11 
REMARK    3  A    between atoms: C_11  and  C_12 
REMARK       I    between atoms: C_12  and  N_14 
REMARK    4  A    between atoms: N_14  and  C_15 
REMARK    5  A    between atoms: C_15  and  C_16 
ROOT
HETATM    1  C   UNL     1     -45.293 -47.358   9.234  1.00  0.00     0.063 A 
HETATM    2  C   UNL     1     -45.298 -45.941   8.920  1.00  0.00     0.023 A 
HETATM    3  C   UNL     1     -44.225 -45.175   9.163  1.00  0.00     0.075 A 
HETATM    4  C   UNL     1     -42.998 -45.764   9.761  1.00  0.00     0.247 A 
HETATM    5  O   UNL     1     -42.030 -45.050  10.013  1.00  0.00    -0.268 OA
HETATM    6  N   UNL     1     -43.036 -47.135   9.989  1.00  0.00    -0.315 N 
HETATM    7  C   UNL     1     -44.173 -47.895   9.750  1.00  0.00     0.110 A 
ENDROOT
BRANCH   6   8
HETATM    8  C   UNL     1     -41.799 -47.805  10.385  1.00  0.00     0.234 C 
BRANCH   8   9
HETATM    9  C   UNL     1     -41.941 -48.801  11.534  1.00  0.00     0.235 C 
HETATM   10  O   UNL     1     -42.477 -48.472  12.593  1.00  0.00    -0.272 OA
HETATM   11  N   UNL     1     -41.541 -50.100  11.279  1.00  0.00    -0.359 N 
HETATM   12  H   UNL     1     -41.237 -50.339  10.336  1.00  0.00     0.162 HD
BRANCH  11  13
HETATM   13  C   UNL     1     -41.865 -51.128  12.249  1.00  0.00     0.129 C 
BRANCH  13  14
HETATM   14  C   UNL     1     -40.889 -52.293  12.313  1.00  0.00     0.029 C 
HETATM   15  C   UNL     1     -41.445 -53.562  12.933  1.00  0.00     0.034 C 
HETATM   16  C   UNL     1     -40.265 -54.176  13.670  1.00  0.00     0.168 C 
HETATM   17  O   UNL     1     -39.180 -53.244  13.615  1.00  0.00    -0.391 OA
HETATM   18  C   UNL     1     -39.719 -51.978  13.232  1.00  0.00     0.173 C 
ENDBRANCH  13  14
ENDBRANCH  11  13
ENDBRANCH   8   9
ENDBRANCH   6   8
BRANCH   1  19
HETATM   19  C   UNL     1     -46.500 -48.201   8.921  1.00  0.00     0.418 C 
HETATM   20  F   UNL     1     -46.646 -49.252   9.769  1.00  0.00    -0.166 F 
HETATM   21  F   UNL     1     -46.444 -48.714   7.667  1.00  0.00    -0.166 F 
HETATM   22  F   UNL     1     -47.646 -47.476   8.998  1.00  0.00    -0.166 F 
ENDBRANCH   1  19
TORSDOF 5
ENDMDL
MODEL 2
REMARK VINA RESULT:      -6.4      5.845      7.098
REMARK  5 active torsions:
REMARK  status: ('A' for Active; 'I' for Inactive)
REMARK    1  A    between atoms: C_2  and  C_5 
REMARK    2  A    between atoms: N_10  and  C_11 
REMARK    3  A    between atoms: C_11  and  C_12 
REMARK       I    between atoms: C_12  and  N_14 
REMARK    4  A    between atoms: N_14  and  C_15 
REMARK    5  A    between atoms: C_15  and  C_16 
ROOT
HETATM    1  C   UNL     1     -46.631 -51.998  15.566  1.00  0.00     0.063 A 
HETATM    2  C   UNL     1     -46.830 -51.276  14.323  1.00  0.00     0.023 A 
HETATM    3  C   UNL     1     -46.309 -51.724  13.172  1.00  0.00     0.075 A 
HETATM    4  C   UNL     1     -45.512 -52.980  13.143  1.00  0.00     0.247 A 
HETATM    5  O   UNL     1     -45.008 -53.367  12.091  1.00  0.00    -0.268 OA
HETATM    6  N   UNL     1     -45.403 -53.652  14.355  1.00  0.00    -0.315 N 
HETATM    7  C   UNL     1     -45.933 -53.147  15.534  1.00  0.00     0.110 A 
ENDROOT
BRANCH   6   8
HETATM    8  C   UNL     1     -44.807 -54.986  14.354  1.00  0.00     0.234 C 
BRANCH   8   9
HETATM    9  C   UNL     1     -43.372 -55.056  14.875  1.00  0.00     0.235 C 
HETATM   10  O   UNL     1     -43.075 -55.800  15.810  1.00  0.00    -0.272 OA
HETATM   11  N   UNL     1     -42.425 -54.332  14.174  1.00  0.00    -0.359 N 
HETATM   12  H   UNL     1     -42.712 -53.849  13.324  1.00  0.00     0.162 HD
BRANCH  11  13
HETATM   13  C   UNL     1     -41.024 -54.544  14.483  1.00  0.00     0.129 C 
BRANCH  13  14
HETATM   14  C   UNL     1     -40.044 -53.726  13.654  1.00  0.00     0.029 C 
HETATM   15  C   UNL     1     -39.295 -52.653  14.423  1.00  0.00     0.034 C 
HETATM   16  C   UNL     1     -39.133 -51.513  13.429  1.00  0.00     0.168 C 
HETATM   17  O   UNL     1     -39.879 -51.847  12.254  1.00  0.00    -0.391 OA
HETATM   18  C   UNL     1     -40.771 -52.909  12.597  1.00  0.00     0.173 C 
ENDBRANCH  13  14
ENDBRANCH  11  13
ENDBRANCH   8   9
ENDBRANCH   6   8
BRANCH   1  19
HETATM   19  C   UNL     1     -47.254 -51.489  16.838  1.00  0.00     0.418 C 
HETATM   20  F   UNL     1     -46.618 -50.399  17.341  1.00  0.00    -0.166 F 
HETATM   21  F   UNL     1     -47.247 -52.431  17.814  1.00  0.00    -0.166 F 
HETATM   22  F   UNL     1     -48.551 -51.130  16.648  1.00  0.00    -0.166 F 
ENDBRANCH   1  19
TORSDOF 5
ENDMDL
MODEL 3
REMARK VINA RESULT:      -6.3      3.245      7.409
REMARK  5 active torsions:
REMARK  status: ('A' for Active; 'I' for Inactive)
REMARK    1  A    between atoms: C_2  and  C_5 
REMARK    2  A    between atoms: N_10  and  C_11 
REMARK    3  A    between atoms: C_11  and  C_12 
REMARK       I    between atoms: C_12  and  N_14 
REMARK    4  A    between atoms: N_14  and  C_15 
REMARK    5  A    between atoms: C_15  and  C_16 
ROOT
HETATM    1  C   UNL     1     -43.661 -54.052  13.645  1.00  0.00     0.063 A 
HETATM    2  C   UNL     1     -42.785 -54.718  14.592  1.00  0.00     0.023 A 
HETATM    3  C   UNL     1     -41.457 -54.547  14.543  1.00  0.00     0.075 A 
HETATM    4  C   UNL     1     -40.847 -53.664  13.514  1.00  0.00     0.247 A 
HETATM    5  O   UNL     1     -39.626 -53.538  13.453  1.00  0.00    -0.268 OA
HETATM    6  N   UNL     1     -41.742 -53.013  12.671  1.00  0.00    -0.315 N 
HETATM    7  C   UNL     1     -43.111 -53.233  12.732  1.00  0.00     0.110 A 
ENDROOT
BRANCH   6   8
HETATM    8  C   UNL     1     -41.222 -51.983  11.775  1.00  0.00     0.234 C 
BRANCH   8   9
HETATM    9  C   UNL     1     -41.384 -50.548  12.273  1.00  0.00     0.235 C 
HETATM   10  O   UNL     1     -40.801 -50.161  13.286  1.00  0.00    -0.272 OA
HETATM   11  N   UNL     1     -42.122 -49.696  11.472  1.00  0.00    -0.359 N 
HETATM   12  H   UNL     1     -42.461 -50.042  10.574  1.00  0.00     0.162 HD
BRANCH  11  13
HETATM   13  C   UNL     1     -42.114 -48.278  11.777  1.00  0.00     0.129 C 
BRANCH  13  14
HETATM   14  C   UNL     1     -41.405 -47.397  10.758  1.00  0.00     0.029 C 
HETATM   15  C   UNL     1     -40.092 -46.801  11.231  1.00  0.00     0.034 C 
HETATM   16  C   UNL     1     -40.037 -45.430  10.575  1.00  0.00     0.168 C 
HETATM   17  O   UNL     1     -41.293 -45.204   9.926  1.00  0.00    -0.391 OA
HETATM   18  C   UNL     1     -42.223 -46.155  10.445  1.00  0.00     0.173 C 
ENDBRANCH  13  14
ENDBRANCH  11  13
ENDBRANCH   8   9
ENDBRANCH   6   8
BRANCH   1  19
HETATM   19  C   UNL     1     -45.152 -54.237  13.742  1.00  0.00     0.418 C 
HETATM   20  F   UNL     1     -45.837 -53.516  12.818  1.00  0.00    -0.166 F 
HETATM   21  F   UNL     1     -45.626 -53.869  14.958  1.00  0.00    -0.166 F 
HETATM   22  F   UNL     1     -45.504 -55.537  13.560  1.00  0.00    -0.166 F 
ENDBRANCH   1  19
TORSDOF 5
ENDMDL
MODEL 4
REMARK VINA RESULT:      -6.3      2.859      6.596
REMARK  5 active torsions:
REMARK  status: ('A' for Active; 'I' for Inactive)
REMARK    1  A    between atoms: C_2  and  C_5 
REMARK    2  A    between atoms: N_10  and  C_11 
REMARK    3  A    between atoms: C_11  and  C_12 
REMARK       I    between atoms: C_12  and  N_14 
REMARK    4  A    between atoms: N_14  and  C_15 
REMARK    5  A    between atoms: C_15  and  C_16 
ROOT
HETATM    1  C   UNL     1     -44.985 -51.895  13.377  1.00  0.00     0.063 A 
HETATM    2  C   UNL     1     -44.648 -53.178  12.789  1.00  0.00     0.023 A 
HETATM    3  C   UNL     1     -43.436 -53.401  12.262  1.00  0.00     0.075 A 
HETATM    4  C   UNL     1     -42.402 -52.332  12.271  1.00  0.00     0.247 A 
HETATM    5  O   UNL     1     -41.304 -52.530  11.756  1.00  0.00    -0.268 OA
HETATM    6  N   UNL     1     -42.767 -51.145  12.896  1.00  0.00    -0.315 N 
HETATM    7  C   UNL     1     -44.041 -50.938  13.409  1.00  0.00     0.110 A 
ENDROOT
BRANCH   6   8
HETATM    8  C   UNL     1     -41.736 -50.133  13.116  1.00  0.00     0.234 C 
BRANCH   8   9
HETATM    9  C   UNL     1     -41.929 -48.832  12.340  1.00  0.00     0.235 C 
HETATM   10  O   UNL     1     -41.653 -47.745  12.849  1.00  0.00    -0.272 OA
HETATM   11  N   UNL     1     -42.320 -48.953  11.019  1.00  0.00    -0.359 N 
HETATM   12  H   UNL     1     -42.396 -49.886  10.617  1.00  0.00     0.162 HD
BRANCH  11  13
HETATM   13  C   UNL     1     -42.295 -47.771  10.178  1.00  0.00     0.129 C 
BRANCH  13  14
HETATM   14  C   UNL     1     -43.586 -46.966  10.149  1.00  0.00     0.029 C 
HETATM   15  C   UNL     1     -44.843 -47.778   9.895  1.00  0.00     0.034 C 
HETATM   16  C   UNL     1     -45.733 -46.858   9.075  1.00  0.00     0.168 C 
HETATM   17  O   UNL     1     -44.973 -45.690   8.747  1.00  0.00    -0.391 OA
HETATM   18  C   UNL     1     -43.597 -45.992   8.981  1.00  0.00     0.173 C 
ENDBRANCH  13  14
ENDBRANCH  11  13
ENDBRANCH   8   9
ENDBRANCH   6   8
BRANCH   1  19
HETATM   19  C   UNL     1     -46.343 -51.682  13.990  1.00  0.00     0.418 C 
HETATM   20  F   UNL     1     -46.922 -52.837  14.409  1.00  0.00    -0.166 F 
HETATM   21  F   UNL     1     -47.205 -51.106  13.116  1.00  0.00    -0.166 F 
HETATM   22  F   UNL     1     -46.278 -50.865  15.074  1.00  0.00    -0.166 F 
ENDBRANCH   1  19
TORSDOF 5
ENDMDL
MODEL 5
REMARK VINA RESULT:      -6.3      2.330      2.650
REMARK  5 active torsions:
REMARK  status: ('A' for Active; 'I' for Inactive)
REMARK    1  A    between atoms: C_2  and  C_5 
REMARK    2  A    between atoms: N_10  and  C_11 
REMARK    3  A    between atoms: C_11  and  C_12 
REMARK       I    between atoms: C_12  and  N_14 
REMARK    4  A    between atoms: N_14  and  C_15 
REMARK    5  A    between atoms: C_15  and  C_16 
ROOT
HETATM    1  C   UNL     1     -45.080 -47.457   9.434  1.00  0.00     0.063 A 
HETATM    2  C   UNL     1     -44.382 -46.481   8.618  1.00  0.00     0.023 A 
HETATM    3  C   UNL     1     -43.227 -45.936   9.027  1.00  0.00     0.075 A 
HETATM    4  C   UNL     1     -42.631 -46.324  10.333  1.00  0.00     0.247 A 
HETATM    5  O   UNL     1     -41.590 -45.796  10.718  1.00  0.00    -0.268 OA
HETATM    6  N   UNL     1     -43.319 -47.302  11.043  1.00  0.00    -0.315 N 
HETATM    7  C   UNL     1     -44.527 -47.827  10.602  1.00  0.00     0.110 A 
ENDROOT
BRANCH   6   8
HETATM    8  C   UNL     1     -42.685 -47.869  12.231  1.00  0.00     0.234 C 
BRANCH   8   9
HETATM    9  C   UNL     1     -42.531 -49.389  12.221  1.00  0.00     0.235 C 
HETATM   10  O   UNL     1     -41.559 -49.922  11.686  1.00  0.00    -0.272 OA
HETATM   11  N   UNL     1     -43.473 -50.109  12.932  1.00  0.00    -0.359 N 
HETATM   12  H   UNL     1     -44.173 -49.598  13.470  1.00  0.00     0.162 HD
BRANCH  11  13
HETATM   13  C   UNL     1     -43.246 -51.525  13.146  1.00  0.00     0.129 C 
BRANCH  13  14
HETATM   14  C   UNL     1     -44.458 -52.419  12.929  1.00  0.00     0.029 C 
HETATM   15  C   UNL     1     -45.293 -52.680  14.170  1.00  0.00     0.034 C 
HETATM   16  C   UNL     1     -45.790 -54.107  14.003  1.00  0.00     0.168 C 
HETATM   17  O   UNL     1     -45.148 -54.663  12.851  1.00  0.00    -0.391 OA
HETATM   18  C   UNL     1     -44.037 -53.825  12.530  1.00  0.00     0.173 C 
ENDBRANCH  13  14
ENDBRANCH  11  13
ENDBRANCH   8   9
ENDBRANCH   6   8
BRANCH   1  19
HETATM   19  C   UNL     1     -46.358 -48.076   8.936  1.00  0.00     0.418 C 
HETATM   20  F   UNL     1     -46.765 -49.130   9.689  1.00  0.00    -0.166 F 
HETATM   21  F   UNL     1     -46.236 -48.527   7.663  1.00  0.00    -0.166 F 
HETATM   22  F   UNL     1     -47.379 -47.179   8.939  1.00  0.00    -0.166 F 
ENDBRANCH   1  19
TORSDOF 5
ENDMDL
MODEL 6
REMARK VINA RESULT:      -6.2      2.656      6.885
REMARK  5 active torsions:
REMARK  status: ('A' for Active; 'I' for Inactive)
REMARK    1  A    between atoms: C_2  and  C_5 
REMARK    2  A    between atoms: N_10  and  C_11 
REMARK    3  A    between atoms: C_11  and  C_12 
REMARK       I    between atoms: C_12  and  N_14 
REMARK    4  A    between atoms: N_14  and  C_15 
REMARK    5  A    between atoms: C_15  and  C_16 
ROOT
HETATM    1  C   UNL     1     -44.571 -52.994  13.289  1.00  0.00     0.063 A 
HETATM    2  C   UNL     1     -44.190 -54.012  14.251  1.00  0.00     0.023 A 
HETATM    3  C   UNL     1     -42.928 -54.458  14.324  1.00  0.00     0.075 A 
HETATM    4  C   UNL     1     -41.883 -53.914  13.416  1.00  0.00     0.247 A 
HETATM    5  O   UNL     1     -40.735 -54.350  13.464  1.00  0.00    -0.268 OA
HETATM    6  N   UNL     1     -42.298 -52.904  12.555  1.00  0.00    -0.315 N 
HETATM    7  C   UNL     1     -43.619 -52.484  12.487  1.00  0.00     0.110 A 
ENDROOT
BRANCH   6   8
HETATM    8  C   UNL     1     -41.281 -52.192  11.784  1.00  0.00     0.234 C 
BRANCH   8   9
HETATM    9  C   UNL     1     -41.166 -50.699  12.086  1.00  0.00     0.235 C 
HETATM   10  O   UNL     1     -40.987 -50.299  13.236  1.00  0.00    -0.272 OA
HETATM   11  N   UNL     1     -41.162 -49.847  10.996  1.00  0.00    -0.359 N 
HETATM   12  H   UNL     1     -41.172 -50.253  10.061  1.00  0.00     0.162 HD
BRANCH  11  13
HETATM   13  C   UNL     1     -40.826 -48.453  11.209  1.00  0.00     0.129 C 
BRANCH  13  14
HETATM   14  C   UNL     1     -41.946 -47.463  10.925  1.00  0.00     0.029 C 
HETATM   15  C   UNL     1     -42.772 -47.768   9.688  1.00  0.00     0.034 C 
HETATM   16  C   UNL     1     -43.132 -46.403   9.123  1.00  0.00     0.168 C 
HETATM   17  O   UNL     1     -42.423 -45.414   9.878  1.00  0.00    -0.391 OA
HETATM   18  C   UNL     1     -41.390 -46.085  10.602  1.00  0.00     0.173 C 
ENDBRANCH  13  14
ENDBRANCH  11  13
ENDBRANCH   8   9
ENDBRANCH   6   8
BRANCH   1  19
HETATM   19  C   UNL     1     -45.988 -52.490  13.250  1.00  0.00     0.418 C 
HETATM   20  F   UNL     1     -46.107 -51.211  13.691  1.00  0.00    -0.166 F 
HETATM   21  F   UNL     1     -46.813 -53.247  14.015  1.00  0.00    -0.166 F 
HETATM   22  F   UNL     1     -46.491 -52.515  11.988  1.00  0.00    -0.166 F 
ENDBRANCH   1  19
TORSDOF 5
ENDMDL
MODEL 7
REMARK VINA RESULT:      -6.0      4.319      7.072
REMARK  5 active torsions:
REMARK  status: ('A' for Active; 'I' for Inactive)
REMARK    1  A    between atoms: C_2  and  C_5 
REMARK    2  A    between atoms: N_10  and  C_11 
REMARK    3  A    between atoms: C_11  and  C_12 
REMARK       I    between atoms: C_12  and  N_14 
REMARK    4  A    between atoms: N_14  and  C_15 
REMARK    5  A    between atoms: C_15  and  C_16 
ROOT
HETATM    1  C   UNL     1     -43.852 -54.436  13.981  1.00  0.00     0.063 A 
HETATM    2  C   UNL     1     -43.058 -54.831  15.130  1.00  0.00     0.023 A 
HETATM    3  C   UNL     1     -41.733 -54.632  15.158  1.00  0.00     0.075 A 
HETATM    4  C   UNL     1     -41.042 -53.997  14.004  1.00  0.00     0.247 A 
HETATM    5  O   UNL     1     -39.822 -53.848  14.021  1.00  0.00    -0.268 OA
HETATM    6  N   UNL     1     -41.863 -53.593  12.958  1.00  0.00    -0.315 N 
HETATM    7  C   UNL     1     -43.230 -53.837  12.950  1.00  0.00     0.110 A 
ENDROOT
BRANCH   6   8
HETATM    8  C   UNL     1     -41.276 -52.786  11.890  1.00  0.00     0.234 C 
BRANCH   8   9
HETATM    9  C   UNL     1     -41.440 -51.276  12.053  1.00  0.00     0.235 C 
HETATM   10  O   UNL     1     -41.983 -50.804  13.052  1.00  0.00    -0.272 OA
HETATM   11  N   UNL     1     -40.855 -50.483  11.083  1.00  0.00    -0.359 N 
HETATM   12  H   UNL     1     -40.298 -50.933  10.356  1.00  0.00     0.162 HD
BRANCH  11  13
HETATM   13  C   UNL     1     -40.782 -49.053  11.309  1.00  0.00     0.129 C 
BRANCH  13  14
HETATM   14  C   UNL     1     -39.462 -48.549  11.875  1.00  0.00     0.029 C 
HETATM   15  C   UNL     1     -38.352 -49.584  11.930  1.00  0.00     0.034 C 
HETATM   16  C   UNL     1     -37.573 -49.241  13.189  1.00  0.00     0.168 C 
HETATM   17  O   UNL     1     -38.284 -48.208  13.878  1.00  0.00    -0.391 OA
HETATM   18  C   UNL     1     -39.606 -48.161  13.338  1.00  0.00     0.173 C 
ENDBRANCH  13  14
ENDBRANCH  11  13
ENDBRANCH   8   9
ENDBRANCH   6   8
BRANCH   1  19
HETATM   19  C   UNL     1     -45.342 -54.642  13.990  1.00  0.00     0.418 C 
HETATM   20  F   UNL     1     -45.897 -54.447  15.214  1.00  0.00    -0.166 F 
HETATM   21  F   UNL     1     -45.679 -55.897  13.603  1.00  0.00    -0.166 F 
HETATM   22  F   UNL     1     -45.968 -53.787  13.138  1.00  0.00    -0.166 F 
ENDBRANCH   1  19
TORSDOF 5
ENDMDL
MODEL 8
REMARK VINA RESULT:      -5.9      2.058      2.828
REMARK  5 active torsions:
REMARK  status: ('A' for Active; 'I' for Inactive)
REMARK    1  A    between atoms: C_2  and  C_5 
REMARK    2  A    between atoms: N_10  and  C_11 
REMARK    3  A    between atoms: C_11  and  C_12 
REMARK       I    between atoms: C_12  and  N_14 
REMARK    4  A    between atoms: N_14  and  C_15 
REMARK    5  A    between atoms: C_15  and  C_16 
ROOT
HETATM    1  C   UNL     1     -42.616 -46.884   9.806  1.00  0.00     0.063 A 
HETATM    2  C   UNL     1     -41.843 -45.742  10.262  1.00  0.00     0.023 A 
HETATM    3  C   UNL     1     -40.766 -45.903  11.043  1.00  0.00     0.075 A 
HETATM    4  C   UNL     1     -40.335 -47.264  11.461  1.00  0.00     0.247 A 
HETATM    5  O   UNL     1     -39.367 -47.403  12.205  1.00  0.00    -0.268 OA
HETATM    6  N   UNL     1     -41.083 -48.318  10.949  1.00  0.00    -0.315 N 
HETATM    7  C   UNL     1     -42.210 -48.114  10.163  1.00  0.00     0.110 A 
ENDROOT
BRANCH   6   8
HETATM    8  C   UNL     1     -40.594 -49.679  11.157  1.00  0.00     0.234 C 
BRANCH   8   9
HETATM    9  C   UNL     1     -41.445 -50.538  12.090  1.00  0.00     0.235 C 
HETATM   10  O   UNL     1     -41.919 -50.068  13.125  1.00  0.00    -0.272 OA
HETATM   11  N   UNL     1     -41.738 -51.817  11.656  1.00  0.00    -0.359 N 
HETATM   12  H   UNL     1     -41.432 -52.097  10.724  1.00  0.00     0.162 HD
BRANCH  11  13
HETATM   13  C   UNL     1     -42.724 -52.589  12.387  1.00  0.00     0.129 C 
BRANCH  13  14
HETATM   14  C   UNL     1     -42.173 -53.766  13.179  1.00  0.00     0.029 C 
HETATM   15  C   UNL     1     -42.368 -53.676  14.682  1.00  0.00     0.034 C 
HETATM   16  C   UNL     1     -41.125 -54.326  15.268  1.00  0.00     0.168 C 
HETATM   17  O   UNL     1     -40.225 -54.604  14.190  1.00  0.00    -0.391 OA
HETATM   18  C   UNL     1     -40.659 -53.845  13.060  1.00  0.00     0.173 C 
ENDBRANCH  13  14
ENDBRANCH  11  13
ENDBRANCH   8   9
ENDBRANCH   6   8
BRANCH   1  19
HETATM   19  C   UNL     1     -43.803 -46.676   8.904  1.00  0.00     0.418 C 
HETATM   20  F   UNL     1     -43.636 -47.228   7.674  1.00  0.00    -0.166 F 
HETATM   21  F   UNL     1     -44.063 -45.359   8.711  1.00  0.00    -0.166 F 
HETATM   22  F   UNL     1     -44.929 -47.226   9.429  1.00  0.00    -0.166 F 
ENDBRANCH   1  19
TORSDOF 5
ENDMDL
MODEL 9
REMARK VINA RESULT:      -5.9      2.862      3.837
REMARK  5 active torsions:
REMARK  status: ('A' for Active; 'I' for Inactive)
REMARK    1  A    between atoms: C_2  and  C_5 
REMARK    2  A    between atoms: N_10  and  C_11 
REMARK    3  A    between atoms: C_11  and  C_12 
REMARK       I    between atoms: C_12  and  N_14 
REMARK    4  A    between atoms: N_14  and  C_15 
REMARK    5  A    between atoms: C_15  and  C_16 
ROOT
HETATM    1  C   UNL     1     -42.563 -47.099   9.853  1.00  0.00     0.063 A 
HETATM    2  C   UNL     1     -41.939 -45.859  10.276  1.00  0.00     0.023 A 
HETATM    3  C   UNL     1     -40.898 -45.860  11.120  1.00  0.00     0.075 A 
HETATM    4  C   UNL     1     -40.353 -47.142  11.643  1.00  0.00     0.247 A 
HETATM    5  O   UNL     1     -39.420 -47.136  12.443  1.00  0.00    -0.268 OA
HETATM    6  N   UNL     1     -40.958 -48.296  11.159  1.00  0.00    -0.315 N 
HETATM    7  C   UNL     1     -42.053 -48.258  10.305  1.00  0.00     0.110 A 
ENDROOT
BRANCH   6   8
HETATM    8  C   UNL     1     -40.344 -49.584  11.476  1.00  0.00     0.234 C 
BRANCH   8   9
HETATM    9  C   UNL     1     -41.297 -50.637  12.037  1.00  0.00     0.235 C 
HETATM   10  O   UNL     1     -41.178 -51.824  11.733  1.00  0.00    -0.272 OA
HETATM   11  N   UNL     1     -42.214 -50.201  12.976  1.00  0.00    -0.359 N 
HETATM   12  H   UNL     1     -42.168 -49.232  13.289  1.00  0.00     0.162 HD
BRANCH  11  13
HETATM   13  C   UNL     1     -42.982 -51.192  13.705  1.00  0.00     0.129 C 
BRANCH  13  14
HETATM   14  C   UNL     1     -44.345 -51.524  13.113  1.00  0.00     0.029 C 
HETATM   15  C   UNL     1     -45.504 -51.447  14.090  1.00  0.00     0.034 C 
HETATM   16  C   UNL     1     -46.448 -52.554  13.650  1.00  0.00     0.168 C 
HETATM   17  O   UNL     1     -45.796 -53.304  12.620  1.00  0.00    -0.391 OA
HETATM   18  C   UNL     1     -44.406 -52.975  12.662  1.00  0.00     0.173 C 
ENDBRANCH  13  14
ENDBRANCH  11  13
ENDBRANCH   8   9
ENDBRANCH   6   8
BRANCH   1  19
HETATM   19  C   UNL     1     -43.711 -47.070   8.880  1.00  0.00     0.418 C 
HETATM   20  F   UNL     1     -43.959 -45.827   8.391  1.00  0.00    -0.166 F 
HETATM   21  F   UNL     1     -44.863 -47.505   9.448  1.00  0.00    -0.166 F 
HETATM   22  F   UNL     1     -43.474 -47.870   7.808  1.00  0.00    -0.166 F 
ENDBRANCH   1  19
TORSDOF 5
ENDMDL
