MODEL 1
REMARK VINA RESULT:      -6.9      0.000      0.000
REMARK  7 active torsions:
REMARK  status: ('A' for Active; 'I' for Inactive)
REMARK    1  A    between atoms: O_1  and  C_2 
REMARK    2  A    between atoms: C_2  and  C_3 
REMARK    3  A    between atoms: C_2  and  C_13 
REMARK    4  A    between atoms: C_3  and  O_4 
REMARK    5  A    between atoms: O_4  and  C_5 
REMARK    6  A    between atoms: C_5  and  C_6 
REMARK    7  A    between atoms: C_13  and  N_14 
ROOT
HETATM    1  C   UNL     1     -40.763 -50.176  11.619  1.00  0.00     0.160 C 
ENDROOT
BRANCH   1   2
HETATM    2  O   UNL     1     -40.217 -50.060  10.298  1.00  0.00    -0.392 OA
HETATM    3  H   UNL     1     -39.653 -50.839  10.149  1.00  0.00     0.210 HD
ENDBRANCH   1   2
BRANCH   1   4
HETATM    4  C   UNL     1     -39.779 -50.974  12.489  1.00  0.00     0.201 C 
BRANCH   4   5
HETATM    5  O   UNL     1     -40.043 -52.365  12.374  1.00  0.00    -0.384 OA
BRANCH   5   6
HETATM    6  C   UNL     1     -41.441 -52.648  12.292  1.00  0.00     0.208 C 
BRANCH   6   7
HETATM    7  C   UNL     1     -41.884 -53.553  13.418  1.00  0.00    -0.013 A 
HETATM    8  C   UNL     1     -40.976 -54.000  14.395  1.00  0.00     0.011 A 
HETATM    9  C   UNL     1     -41.387 -54.845  15.429  1.00  0.00     0.001 A 
HETATM   10  C   UNL     1     -42.712 -55.257  15.508  1.00  0.00     0.002 A 
HETATM   11  C   UNL     1     -43.630 -54.822  14.555  1.00  0.00     0.024 A 
HETATM   12  C   UNL     1     -43.221 -53.976  13.518  1.00  0.00     0.042 A 
HETATM   13 CL   UNL     1     -44.415 -53.478  12.370  1.00  0.00    -0.084 Cl
ENDBRANCH   6   7
ENDBRANCH   5   6
ENDBRANCH   4   5
ENDBRANCH   1   4
BRANCH   1  14
HETATM   14  C   UNL     1     -40.990 -48.772  12.215  1.00  0.00     0.167 C 
BRANCH  14  15
HETATM   15  N   UNL     1     -41.679 -47.848  11.301  1.00  0.00    -0.305 N 
HETATM   16  C   UNL     1     -43.010 -48.069  10.995  1.00  0.00     0.125 A 
HETATM   17  C   UNL     1     -43.681 -47.305  10.128  1.00  0.00     0.117 A 
HETATM   18 CL   UNL     1     -45.323 -47.598   9.732  1.00  0.00    -0.077 Cl
HETATM   19  C   UNL     1     -42.968 -46.179   9.479  1.00  0.00     0.272 A 
HETATM   20  O   UNL     1     -43.483 -45.452   8.636  1.00  0.00    -0.266 OA
HETATM   21  N   UNL     1     -41.668 -45.997   9.877  1.00  0.00    -0.274 N 
HETATM   22  C   UNL     1     -40.972 -46.778  10.764  1.00  0.00     0.329 A 
HETATM   23  H   UNL     1     -41.162 -45.240   9.449  1.00  0.00     0.173 HD
HETATM   24  O   UNL     1     -39.801 -46.522  11.031  1.00  0.00    -0.246 OA
ENDBRANCH  14  15
ENDBRANCH   1  14
TORSDOF 7
ENDMDL
MODEL 2
REMARK VINA RESULT:      -6.5      2.402      3.592
REMARK  7 active torsions:
REMARK  status: ('A' for Active; 'I' for Inactive)
REMARK    1  A    between atoms: O_1  and  C_2 
REMARK    2  A    between atoms: C_2  and  C_3 
REMARK    3  A    between atoms: C_2  and  C_13 
REMARK    4  A    between atoms: C_3  and  O_4 
REMARK    5  A    between atoms: O_4  and  C_5 
REMARK    6  A    between atoms: C_5  and  C_6 
REMARK    7  A    between atoms: C_13  and  N_14 
ROOT
HETATM    1  C   UNL     1     -41.104 -52.904  12.413  1.00  0.00     0.160 C 
ENDROOT
BRANCH   1   2
HETATM    2  O   UNL     1     -40.545 -53.352  11.170  1.00  0.00    -0.392 OA
HETATM    3  H   UNL     1     -39.758 -53.886  11.383  1.00  0.00     0.210 HD
ENDBRANCH   1   2
BRANCH   1   4
HETATM    4  C   UNL     1     -41.229 -54.108  13.359  1.00  0.00     0.201 C 
BRANCH   4   5
HETATM    5  O   UNL     1     -42.588 -54.304  13.725  1.00  0.00    -0.384 OA
BRANCH   5   6
HETATM    6  C   UNL     1     -43.492 -53.692  12.803  1.00  0.00     0.208 C 
BRANCH   6   7
HETATM    7  C   UNL     1     -44.681 -53.091  13.519  1.00  0.00    -0.013 A 
HETATM    8  C   UNL     1     -44.781 -51.703  13.727  1.00  0.00     0.011 A 
HETATM    9  C   UNL     1     -45.874 -51.153  14.398  1.00  0.00     0.001 A 
HETATM   10  C   UNL     1     -46.890 -51.976  14.871  1.00  0.00     0.002 A 
HETATM   11  C   UNL     1     -46.815 -53.353  14.670  1.00  0.00     0.024 A 
HETATM   12  C   UNL     1     -45.719 -53.907  13.999  1.00  0.00     0.042 A 
HETATM   13 CL   UNL     1     -45.693 -55.624  13.787  1.00  0.00    -0.084 Cl
ENDBRANCH   6   7
ENDBRANCH   5   6
ENDBRANCH   4   5
ENDBRANCH   1   4
BRANCH   1  14
HETATM   14  C   UNL     1     -40.197 -51.823  13.034  1.00  0.00     0.167 C 
BRANCH  14  15
HETATM   15  N   UNL     1     -40.371 -50.491  12.434  1.00  0.00    -0.305 N 
HETATM   16  C   UNL     1     -41.608 -49.875  12.507  1.00  0.00     0.125 A 
HETATM   17  C   UNL     1     -41.852 -48.692  11.935  1.00  0.00     0.117 A 
HETATM   18 CL   UNL     1     -43.393 -47.943  12.007  1.00  0.00    -0.077 Cl
HETATM   19  C   UNL     1     -40.753 -48.022  11.200  1.00  0.00     0.272 A 
HETATM   20  O   UNL     1     -40.893 -46.960  10.602  1.00  0.00    -0.266 OA
HETATM   21  N   UNL     1     -39.548 -48.674  11.220  1.00  0.00    -0.274 N 
HETATM   22  C   UNL     1     -39.289 -49.889  11.803  1.00  0.00     0.329 A 
HETATM   23  H   UNL     1     -38.786 -48.240  10.725  1.00  0.00     0.173 HD
HETATM   24  O   UNL     1     -38.165 -50.381  11.740  1.00  0.00    -0.246 OA
ENDBRANCH  14  15
ENDBRANCH   1  14
TORSDOF 7
ENDMDL
MODEL 3
REMARK VINA RESULT:      -6.4      1.860      2.407
REMARK  7 active torsions:
REMARK  status: ('A' for Active; 'I' for Inactive)
REMARK    1  A    between atoms: O_1  and  C_2 
REMARK    2  A    between atoms: C_2  and  C_3 
REMARK    3  A    between atoms: C_2  and  C_13 
REMARK    4  A    between atoms: C_3  and  O_4 
REMARK    5  A    between atoms: O_4  and  C_5 
REMARK    6  A    between atoms: C_5  and  C_6 
REMARK    7  A    between atoms: C_13  and  N_14 
ROOT
HETATM    1  C   UNL     1     -40.719 -50.191  11.370  1.00  0.00     0.160 C 
ENDROOT
BRANCH   1   2
HETATM    2  O   UNL     1     -39.336 -50.166  10.990  1.00  0.00    -0.392 OA
HETATM    3  H   UNL     1     -39.260 -50.642  10.143  1.00  0.00     0.210 HD
ENDBRANCH   1   2
BRANCH   1   4
HETATM    4  C   UNL     1     -40.953 -51.395  12.295  1.00  0.00     0.201 C 
BRANCH   4   5
HETATM    5  O   UNL     1     -42.249 -51.323  12.873  1.00  0.00    -0.384 OA
BRANCH   5   6
HETATM    6  C   UNL     1     -43.046 -52.469  12.567  1.00  0.00     0.208 C 
BRANCH   6   7
HETATM    7  C   UNL     1     -44.344 -52.457  13.342  1.00  0.00    -0.013 A 
HETATM    8  C   UNL     1     -45.277 -51.416  13.185  1.00  0.00     0.011 A 
HETATM    9  C   UNL     1     -46.470 -51.403  13.910  1.00  0.00     0.001 A 
HETATM   10  C   UNL     1     -46.756 -52.430  14.803  1.00  0.00     0.002 A 
HETATM   11  C   UNL     1     -45.848 -53.474  14.970  1.00  0.00     0.024 A 
HETATM   12  C   UNL     1     -44.652 -53.489  14.245  1.00  0.00     0.042 A 
HETATM   13 CL   UNL     1     -43.573 -54.816  14.505  1.00  0.00    -0.084 Cl
ENDBRANCH   6   7
ENDBRANCH   5   6
ENDBRANCH   4   5
ENDBRANCH   1   4
BRANCH   1  14
HETATM   14  C   UNL     1     -41.086 -48.879  12.092  1.00  0.00     0.167 C 
BRANCH  14  15
HETATM   15  N   UNL     1     -41.765 -47.901  11.228  1.00  0.00    -0.305 N 
HETATM   16  C   UNL     1     -43.098 -48.092  10.912  1.00  0.00     0.125 A 
HETATM   17  C   UNL     1     -43.762 -47.276  10.088  1.00  0.00     0.117 A 
HETATM   18 CL   UNL     1     -45.407 -47.531   9.678  1.00  0.00    -0.077 Cl
HETATM   19  C   UNL     1     -43.037 -46.125   9.498  1.00  0.00     0.272 A 
HETATM   20  O   UNL     1     -43.545 -45.349   8.695  1.00  0.00    -0.266 OA
HETATM   21  N   UNL     1     -41.735 -45.978   9.904  1.00  0.00    -0.274 N 
HETATM   22  C   UNL     1     -41.047 -46.812  10.748  1.00  0.00     0.329 A 
HETATM   23  H   UNL     1     -41.221 -45.205   9.515  1.00  0.00     0.173 HD
HETATM   24  O   UNL     1     -39.873 -46.582  11.027  1.00  0.00    -0.246 OA
ENDBRANCH  14  15
ENDBRANCH   1  14
TORSDOF 7
ENDMDL
MODEL 4
REMARK VINA RESULT:      -6.4      2.399      3.539
REMARK  7 active torsions:
REMARK  status: ('A' for Active; 'I' for Inactive)
REMARK    1  A    between atoms: O_1  and  C_2 
REMARK    2  A    between atoms: C_2  and  C_3 
REMARK    3  A    between atoms: C_2  and  C_13 
REMARK    4  A    between atoms: C_3  and  O_4 
REMARK    5  A    between atoms: O_4  and  C_5 
REMARK    6  A    between atoms: C_5  and  C_6 
REMARK    7  A    between atoms: C_13  and  N_14 
ROOT
HETATM    1  C   UNL     1     -41.068 -52.432  12.299  1.00  0.00     0.160 C 
ENDROOT
BRANCH   1   2
HETATM    2  O   UNL     1     -40.640 -53.370  11.301  1.00  0.00    -0.392 OA
HETATM    3  H   UNL     1     -40.867 -54.260  11.626  1.00  0.00     0.210 HD
ENDBRANCH   1   2
BRANCH   1   4
HETATM    4  C   UNL     1     -41.424 -53.204  13.579  1.00  0.00     0.201 C 
BRANCH   4   5
HETATM    5  O   UNL     1     -42.379 -54.215  13.290  1.00  0.00    -0.384 OA
BRANCH   5   6
HETATM    6  C   UNL     1     -43.397 -54.303  14.289  1.00  0.00     0.208 C 
BRANCH   6   7
HETATM    7  C   UNL     1     -44.514 -53.320  14.022  1.00  0.00    -0.013 A 
HETATM    8  C   UNL     1     -45.147 -53.258  12.767  1.00  0.00     0.011 A 
HETATM    9  C   UNL     1     -46.171 -52.341  12.521  1.00  0.00     0.001 A 
HETATM   10  C   UNL     1     -46.584 -51.470  13.522  1.00  0.00     0.002 A 
HETATM   11  C   UNL     1     -45.975 -51.517  14.775  1.00  0.00     0.024 A 
HETATM   12  C   UNL     1     -44.948 -52.435  15.024  1.00  0.00     0.042 A 
HETATM   13 CL   UNL     1     -44.238 -52.435  16.601  1.00  0.00    -0.084 Cl
ENDBRANCH   6   7
ENDBRANCH   5   6
ENDBRANCH   4   5
ENDBRANCH   1   4
BRANCH   1  14
HETATM   14  C   UNL     1     -39.941 -51.418  12.579  1.00  0.00     0.167 C 
BRANCH  14  15
HETATM   15  N   UNL     1     -40.234 -50.062  12.090  1.00  0.00    -0.305 N 
HETATM   16  C   UNL     1     -41.552 -49.669  11.941  1.00  0.00     0.125 A 
HETATM   17  C   UNL     1     -41.891 -48.474  11.449  1.00  0.00     0.117 A 
HETATM   18 CL   UNL     1     -43.526 -48.001  11.242  1.00  0.00    -0.077 Cl
HETATM   19  C   UNL     1     -40.809 -47.540  11.053  1.00  0.00     0.272 A 
HETATM   20  O   UNL     1     -41.020 -46.442  10.548  1.00  0.00    -0.266 OA
HETATM   21  N   UNL     1     -39.533 -47.986  11.283  1.00  0.00    -0.274 N 
HETATM   22  C   UNL     1     -39.177 -49.211  11.786  1.00  0.00     0.329 A 
HETATM   23  H   UNL     1     -38.781 -47.370  11.020  1.00  0.00     0.173 HD
HETATM   24  O   UNL     1     -37.993 -49.502  11.932  1.00  0.00    -0.246 OA
ENDBRANCH  14  15
ENDBRANCH   1  14
TORSDOF 7
ENDMDL
MODEL 5
REMARK VINA RESULT:      -6.4      2.804      3.032
REMARK  7 active torsions:
REMARK  status: ('A' for Active; 'I' for Inactive)
REMARK    1  A    between atoms: O_1  and  C_2 
REMARK    2  A    between atoms: C_2  and  C_3 
REMARK    3  A    between atoms: C_2  and  C_13 
REMARK    4  A    between atoms: C_3  and  O_4 
REMARK    5  A    between atoms: O_4  and  C_5 
REMARK    6  A    between atoms: C_5  and  C_6 
REMARK    7  A    between atoms: C_13  and  N_14 
ROOT
HETATM    1  C   UNL     1     -41.503 -49.900  11.990  1.00  0.00     0.160 C 
ENDROOT
BRANCH   1   2
HETATM    2  O   UNL     1     -40.638 -50.620  11.100  1.00  0.00    -0.392 OA
HETATM    3  H   UNL     1     -40.483 -51.498  11.495  1.00  0.00     0.210 HD
ENDBRANCH   1   2
BRANCH   1   4
HETATM    4  C   UNL     1     -41.436 -50.555  13.378  1.00  0.00     0.201 C 
BRANCH   4   5
HETATM    5  O   UNL     1     -42.539 -51.432  13.558  1.00  0.00    -0.384 OA
BRANCH   5   6
HETATM    6  C   UNL     1     -43.781 -50.827  13.193  1.00  0.00     0.208 C 
BRANCH   6   7
HETATM    7  C   UNL     1     -44.797 -50.944  14.306  1.00  0.00    -0.013 A 
HETATM    8  C   UNL     1     -44.457 -50.641  15.638  1.00  0.00     0.011 A 
HETATM    9  C   UNL     1     -45.395 -50.760  16.665  1.00  0.00     0.001 A 
HETATM   10  C   UNL     1     -46.690 -51.182  16.383  1.00  0.00     0.002 A 
HETATM   11  C   UNL     1     -47.049 -51.482  15.071  1.00  0.00     0.024 A 
HETATM   12  C   UNL     1     -46.111 -51.364  14.040  1.00  0.00     0.042 A 
HETATM   13 CL   UNL     1     -46.629 -51.755  12.436  1.00  0.00    -0.084 Cl
ENDBRANCH   6   7
ENDBRANCH   5   6
ENDBRANCH   4   5
ENDBRANCH   1   4
BRANCH   1  14
HETATM   14  C   UNL     1     -41.060 -48.425  12.069  1.00  0.00     0.167 C 
BRANCH  14  15
HETATM   15  N   UNL     1     -41.867 -47.522  11.234  1.00  0.00    -0.305 N 
HETATM   16  C   UNL     1     -42.337 -47.973  10.013  1.00  0.00     0.125 A 
HETATM   17  C   UNL     1     -43.026 -47.189   9.178  1.00  0.00     0.117 A 
HETATM   18 CL   UNL     1     -43.585 -47.744   7.655  1.00  0.00    -0.077 Cl
HETATM   19  C   UNL     1     -43.294 -45.789   9.584  1.00  0.00     0.272 A 
HETATM   20  O   UNL     1     -43.876 -44.980   8.867  1.00  0.00    -0.266 OA
HETATM   21  N   UNL     1     -42.841 -45.439  10.829  1.00  0.00    -0.274 N 
HETATM   22  C   UNL     1     -42.131 -46.236  11.691  1.00  0.00     0.329 A 
HETATM   23  H   UNL     1     -43.009 -44.491  11.127  1.00  0.00     0.173 HD
HETATM   24  O   UNL     1     -41.764 -45.802  12.780  1.00  0.00    -0.246 OA
ENDBRANCH  14  15
ENDBRANCH   1  14
TORSDOF 7
ENDMDL
MODEL 6
REMARK VINA RESULT:      -6.3      1.929      2.344
REMARK  7 active torsions:
REMARK  status: ('A' for Active; 'I' for Inactive)
REMARK    1  A    between atoms: O_1  and  C_2 
REMARK    2  A    between atoms: C_2  and  C_3 
REMARK    3  A    between atoms: C_2  and  C_13 
REMARK    4  A    between atoms: C_3  and  O_4 
REMARK    5  A    between atoms: O_4  and  C_5 
REMARK    6  A    between atoms: C_5  and  C_6 
REMARK    7  A    between atoms: C_13  and  N_14 
ROOT
HETATM    1  C   UNL     1     -41.063 -50.334  11.475  1.00  0.00     0.160 C 
ENDROOT
BRANCH   1   2
HETATM    2  O   UNL     1     -40.371 -49.957  10.276  1.00  0.00    -0.392 OA
HETATM    3  H   UNL     1     -39.444 -50.239  10.377  1.00  0.00     0.210 HD
ENDBRANCH   1   2
BRANCH   1   4
HETATM    4  C   UNL     1     -40.026 -50.740  12.534  1.00  0.00     0.201 C 
BRANCH   4   5
HETATM    5  O   UNL     1     -39.866 -52.152  12.545  1.00  0.00    -0.384 OA
BRANCH   5   6
HETATM    6  C   UNL     1     -41.070 -52.838  12.196  1.00  0.00     0.208 C 
BRANCH   6   7
HETATM    7  C   UNL     1     -41.596 -53.646  13.360  1.00  0.00    -0.013 A 
HETATM    8  C   UNL     1     -40.736 -54.121  14.367  1.00  0.00     0.011 A 
HETATM    9  C   UNL     1     -41.225 -54.877  15.435  1.00  0.00     0.001 A 
HETATM   10  C   UNL     1     -42.582 -55.170  15.520  1.00  0.00     0.002 A 
HETATM   11  C   UNL     1     -43.453 -54.704  14.537  1.00  0.00     0.024 A 
HETATM   12  C   UNL     1     -42.965 -53.948  13.465  1.00  0.00     0.042 A 
HETATM   13 CL   UNL     1     -44.104 -53.405  12.282  1.00  0.00    -0.084 Cl
ENDBRANCH   6   7
ENDBRANCH   5   6
ENDBRANCH   4   5
ENDBRANCH   1   4
BRANCH   1  14
HETATM   14  C   UNL     1     -41.913 -49.151  11.981  1.00  0.00     0.167 C 
BRANCH  14  15
HETATM   15  N   UNL     1     -41.442 -47.841  11.506  1.00  0.00    -0.305 N 
HETATM   16  C   UNL     1     -40.559 -47.118  12.289  1.00  0.00     0.125 A 
HETATM   17  C   UNL     1     -40.136 -45.898  11.947  1.00  0.00     0.117 A 
HETATM   18 CL   UNL     1     -39.062 -44.994  12.933  1.00  0.00    -0.077 Cl
HETATM   19  C   UNL     1     -40.631 -45.306  10.682  1.00  0.00     0.272 A 
HETATM   20  O   UNL     1     -40.338 -44.175  10.307  1.00  0.00    -0.266 OA
HETATM   21  N   UNL     1     -41.460 -46.109   9.941  1.00  0.00    -0.274 N 
HETATM   22  C   UNL     1     -41.900 -47.361  10.285  1.00  0.00     0.329 A 
HETATM   23  H   UNL     1     -41.811 -45.728   9.077  1.00  0.00     0.173 HD
HETATM   24  O   UNL     1     -42.657 -47.980   9.541  1.00  0.00    -0.246 OA
ENDBRANCH  14  15
ENDBRANCH   1  14
TORSDOF 7
ENDMDL
MODEL 7
REMARK VINA RESULT:      -5.9      4.108      4.990
REMARK  7 active torsions:
REMARK  status: ('A' for Active; 'I' for Inactive)
REMARK    1  A    between atoms: O_1  and  C_2 
REMARK    2  A    between atoms: C_2  and  C_3 
REMARK    3  A    between atoms: C_2  and  C_13 
REMARK    4  A    between atoms: C_3  and  O_4 
REMARK    5  A    between atoms: O_4  and  C_5 
REMARK    6  A    between atoms: C_5  and  C_6 
REMARK    7  A    between atoms: C_13  and  N_14 
ROOT
HETATM    1  C   UNL     1     -40.954 -52.820  12.623  1.00  0.00     0.160 C 
ENDROOT
BRANCH   1   2
HETATM    2  O   UNL     1     -40.510 -53.441  11.409  1.00  0.00    -0.392 OA
HETATM    3  H   UNL     1     -41.303 -53.763  10.942  1.00  0.00     0.210 HD
ENDBRANCH   1   2
BRANCH   1   4
HETATM    4  C   UNL     1     -42.054 -53.693  13.248  1.00  0.00     0.201 C 
BRANCH   4   5
HETATM    5  O   UNL     1     -42.037 -53.561  14.663  1.00  0.00    -0.384 OA
BRANCH   5   6
HETATM    6  C   UNL     1     -43.224 -54.074  15.271  1.00  0.00     0.208 C 
BRANCH   6   7
HETATM    7  C   UNL     1     -44.409 -53.173  15.007  1.00  0.00    -0.013 A 
HETATM    8  C   UNL     1     -44.412 -51.830  15.428  1.00  0.00     0.011 A 
HETATM    9  C   UNL     1     -45.513 -51.004  15.191  1.00  0.00     0.001 A 
HETATM   10  C   UNL     1     -46.629 -51.501  14.527  1.00  0.00     0.002 A 
HETATM   11  C   UNL     1     -46.644 -52.826  14.096  1.00  0.00     0.024 A 
HETATM   12  C   UNL     1     -45.543 -53.656  14.333  1.00  0.00     0.042 A 
HETATM   13 CL   UNL     1     -45.634 -55.289  13.769  1.00  0.00    -0.084 Cl
ENDBRANCH   6   7
ENDBRANCH   5   6
ENDBRANCH   4   5
ENDBRANCH   1   4
BRANCH   1  14
HETATM   14  C   UNL     1     -39.768 -52.671  13.597  1.00  0.00     0.167 C 
BRANCH  14  15
HETATM   15  N   UNL     1     -39.306 -51.283  13.754  1.00  0.00    -0.305 N 
HETATM   16  C   UNL     1     -40.073 -50.396  14.489  1.00  0.00     0.125 A 
HETATM   17  C   UNL     1     -39.743 -49.108  14.624  1.00  0.00     0.117 A 
HETATM   18 CL   UNL     1     -40.710 -48.006  15.515  1.00  0.00    -0.077 Cl
HETATM   19  C   UNL     1     -38.508 -48.621  13.964  1.00  0.00     0.272 A 
HETATM   20  O   UNL     1     -38.148 -47.449  13.991  1.00  0.00    -0.266 OA
HETATM   21  N   UNL     1     -37.779 -49.575  13.301  1.00  0.00    -0.274 N 
HETATM   22  C   UNL     1     -38.112 -50.898  13.156  1.00  0.00     0.329 A 
HETATM   23  H   UNL     1     -36.937 -49.268  12.842  1.00  0.00     0.173 HD
HETATM   24  O   UNL     1     -37.381 -51.656  12.523  1.00  0.00    -0.246 OA
ENDBRANCH  14  15
ENDBRANCH   1  14
TORSDOF 7
ENDMDL
MODEL 8
REMARK VINA RESULT:      -5.9      3.736      6.517
REMARK  7 active torsions:
REMARK  status: ('A' for Active; 'I' for Inactive)
REMARK    1  A    between atoms: O_1  and  C_2 
REMARK    2  A    between atoms: C_2  and  C_3 
REMARK    3  A    between atoms: C_2  and  C_13 
REMARK    4  A    between atoms: C_3  and  O_4 
REMARK    5  A    between atoms: O_4  and  C_5 
REMARK    6  A    between atoms: C_5  and  C_6 
REMARK    7  A    between atoms: C_13  and  N_14 
ROOT
HETATM    1  C   UNL     1     -40.066 -53.218  13.591  1.00  0.00     0.160 C 
ENDROOT
BRANCH   1   2
HETATM    2  O   UNL     1     -39.479 -54.467  13.201  1.00  0.00    -0.392 OA
HETATM    3  H   UNL     1     -39.856 -55.156  13.777  1.00  0.00     0.210 HD
ENDBRANCH   1   2
BRANCH   1   4
HETATM    4  C   UNL     1     -38.941 -52.244  13.974  1.00  0.00     0.201 C 
BRANCH   4   5
HETATM    5  O   UNL     1     -38.170 -51.912  12.827  1.00  0.00    -0.384 OA
BRANCH   5   6
HETATM    6  C   UNL     1     -37.307 -50.796  13.055  1.00  0.00     0.208 C 
BRANCH   6   7
HETATM    7  C   UNL     1     -38.067 -49.492  12.982  1.00  0.00    -0.013 A 
HETATM    8  C   UNL     1     -38.926 -49.207  11.905  1.00  0.00     0.011 A 
HETATM    9  C   UNL     1     -39.617 -47.996  11.836  1.00  0.00     0.001 A 
HETATM   10  C   UNL     1     -39.468 -47.048  12.842  1.00  0.00     0.002 A 
HETATM   11  C   UNL     1     -38.627 -47.311  13.921  1.00  0.00     0.024 A 
HETATM   12  C   UNL     1     -37.931 -48.523  13.992  1.00  0.00     0.042 A 
HETATM   13 CL   UNL     1     -36.905 -48.780  15.360  1.00  0.00    -0.084 Cl
ENDBRANCH   6   7
ENDBRANCH   5   6
ENDBRANCH   4   5
ENDBRANCH   1   4
BRANCH   1  14
HETATM   14  C   UNL     1     -40.899 -52.646  12.426  1.00  0.00     0.167 C 
BRANCH  14  15
HETATM   15  N   UNL     1     -42.333 -52.532  12.728  1.00  0.00    -0.305 N 
HETATM   16  C   UNL     1     -43.050 -53.674  13.037  1.00  0.00     0.125 A 
HETATM   17  C   UNL     1     -44.366 -53.653  13.265  1.00  0.00     0.117 A 
HETATM   18 CL   UNL     1     -45.255 -55.075  13.624  1.00  0.00    -0.077 Cl
HETATM   19  C   UNL     1     -45.077 -52.354  13.185  1.00  0.00     0.272 A 
HETATM   20  O   UNL     1     -46.290 -52.240  13.331  1.00  0.00    -0.266 OA
HETATM   21  N   UNL     1     -44.285 -51.265  12.926  1.00  0.00    -0.274 N 
HETATM   22  C   UNL     1     -42.934 -51.279  12.689  1.00  0.00     0.329 A 
HETATM   23  H   UNL     1     -44.745 -50.371  12.864  1.00  0.00     0.173 HD
HETATM   24  O   UNL     1     -42.335 -50.233  12.451  1.00  0.00    -0.246 OA
ENDBRANCH  14  15
ENDBRANCH   1  14
TORSDOF 7
ENDMDL
MODEL 9
REMARK VINA RESULT:      -5.8      2.171      2.633
REMARK  7 active torsions:
REMARK  status: ('A' for Active; 'I' for Inactive)
REMARK    1  A    between atoms: O_1  and  C_2 
REMARK    2  A    between atoms: C_2  and  C_3 
REMARK    3  A    between atoms: C_2  and  C_13 
REMARK    4  A    between atoms: C_3  and  O_4 
REMARK    5  A    between atoms: O_4  and  C_5 
REMARK    6  A    between atoms: C_5  and  C_6 
REMARK    7  A    between atoms: C_13  and  N_14 
ROOT
HETATM    1  C   UNL     1     -39.941 -50.906  12.412  1.00  0.00     0.160 C 
ENDROOT
BRANCH   1   2
HETATM    2  O   UNL     1     -38.731 -51.178  11.691  1.00  0.00    -0.392 OA
HETATM    3  H   UNL     1     -38.043 -51.385  12.349  1.00  0.00     0.210 HD
ENDBRANCH   1   2
BRANCH   1   4
HETATM    4  C   UNL     1     -40.184 -52.047  13.412  1.00  0.00     0.201 C 
BRANCH   4   5
HETATM    5  O   UNL     1     -41.122 -52.972  12.880  1.00  0.00    -0.384 OA
BRANCH   5   6
HETATM    6  C   UNL     1     -42.175 -52.326  12.160  1.00  0.00     0.208 C 
BRANCH   6   7
HETATM    7  C   UNL     1     -43.521 -52.611  12.785  1.00  0.00    -0.013 A 
HETATM    8  C   UNL     1     -44.078 -53.903  12.761  1.00  0.00     0.011 A 
HETATM    9  C   UNL     1     -45.327 -54.160  13.330  1.00  0.00     0.001 A 
HETATM   10  C   UNL     1     -46.043 -53.133  13.936  1.00  0.00     0.002 A 
HETATM   11  C   UNL     1     -45.508 -51.847  13.975  1.00  0.00     0.024 A 
HETATM   12  C   UNL     1     -44.257 -51.587  13.405  1.00  0.00     0.042 A 
HETATM   13 CL   UNL     1     -43.658 -49.967  13.492  1.00  0.00    -0.084 Cl
ENDBRANCH   6   7
ENDBRANCH   5   6
ENDBRANCH   4   5
ENDBRANCH   1   4
BRANCH   1  14
HETATM   14  C   UNL     1     -39.818 -49.559  13.152  1.00  0.00     0.167 C 
BRANCH  14  15
HETATM   15  N   UNL     1     -40.248 -48.404  12.350  1.00  0.00    -0.305 N 
HETATM   16  C   UNL     1     -41.200 -48.587  11.361  1.00  0.00     0.125 A 
HETATM   17  C   UNL     1     -41.595 -47.595  10.558  1.00  0.00     0.117 A 
HETATM   18 CL   UNL     1     -42.756 -47.832   9.317  1.00  0.00    -0.077 Cl
HETATM   19  C   UNL     1     -40.990 -46.254  10.740  1.00  0.00     0.272 A 
HETATM   20  O   UNL     1     -41.252 -45.294  10.022  1.00  0.00    -0.266 OA
HETATM   21  N   UNL     1     -40.096 -46.146  11.774  1.00  0.00    -0.274 N 
HETATM   22  C   UNL     1     -39.684 -47.159  12.602  1.00  0.00     0.329 A 
HETATM   23  H   UNL     1     -39.670 -45.245  11.916  1.00  0.00     0.173 HD
HETATM   24  O   UNL     1     -38.862 -46.941  13.488  1.00  0.00    -0.246 OA
ENDBRANCH  14  15
ENDBRANCH   1  14
TORSDOF 7
ENDMDL
