MODEL 1
REMARK VINA RESULT:      -6.7      0.000      0.000
REMARK  8 active torsions:
REMARK  status: ('A' for Active; 'I' for Inactive)
REMARK    1  A    between atoms: N_2  and  C_11 
REMARK    2  A    between atoms: C_6  and  N_10 
REMARK    3  A    between atoms: C_7  and  N_10 
REMARK    4  A    between atoms: C_13  and  O_24 
REMARK    5  A    between atoms: C_18  and  C_26 
REMARK    6  A    between atoms: C_18  and  C_27 
REMARK    7  A    between atoms: C_26  and  O_28 
REMARK    8  A    between atoms: C_27  and  O_29 
ROOT
HETATM    1  C   UNL     1     -42.090 -50.340  12.778  1.00  0.00     0.122 A 
HETATM    2  N   UNL     1     -41.413 -48.542  11.759  1.00  0.00    -0.322 N 
HETATM    3  C   UNL     1     -40.952 -49.749  12.231  1.00  0.00     0.140 A 
HETATM    4  N   UNL     1     -43.218 -49.577  12.526  1.00  0.00    -0.346 N 
ATOM      5  HN  UNL     1     -44.184 -49.799  12.767  1.00  0.00     0.167 HD
HETATM    6  C   UNL     1     -41.933 -51.532  13.532  1.00  0.00     0.135 C 
HETATM    7  C   UNL     1     -42.778 -48.514  11.911  1.00  0.00     0.185 A 
HETATM    8  N   UNL     1     -39.705 -50.260  12.230  1.00  0.00    -0.336 N 
ATOM      9  HN  UNL     1     -38.892 -49.810  11.808  1.00  0.00     0.168 HD
HETATM   10  N   UNL     1     -40.686 -52.090  13.514  1.00  0.00    -0.337 N 
ATOM     11  HN  UNL     1     -40.514 -52.979  13.985  1.00  0.00     0.168 HD
HETATM   12  C   UNL     1     -39.682 -51.453  12.867  1.00  0.00     0.183 C 
ENDROOT
BRANCH   6  13
HETATM   13  N   UNL     1     -42.981 -52.113  14.318  1.00  0.00    -0.364 N 
HETATM   14  C   UNL     1     -42.749 -51.888  15.745  1.00  0.00     0.152 C 
BRANCH  13  15
HETATM   15  C   UNL     1     -43.702 -53.312  13.909  1.00  0.00     0.099 C 
HETATM   16  C   UNL     1     -45.241 -53.306  13.975  1.00  0.00     0.007 C 
HETATM   17  C   UNL     1     -45.289 -52.578  12.648  1.00  0.00     0.133 C 
HETATM   18  C   UNL     1     -45.889 -54.694  14.056  1.00  0.00     0.014 C 
HETATM   19  C   UNL     1     -46.137 -52.833  15.098  1.00  0.00     0.014 C 
HETATM   20  C   UNL     1     -43.937 -53.286  12.354  1.00  0.00     0.059 C 
HETATM   21  C   UNL     1     -46.318 -54.318  15.492  1.00  0.00     0.002 C 
BRANCH  17  22
HETATM   22  O   UNL     1     -46.367 -52.852  11.733  1.00  0.00    -0.390 OA
HETATM   23  C   UNL     1     -47.142 -51.708  11.395  1.00  0.00     0.202 C 
ENDBRANCH  17  22
ENDBRANCH  13  15
ENDBRANCH   6  13
BRANCH   2  24
HETATM   24  C   UNL     1     -40.737 -47.404  11.216  1.00  0.00     0.094 C 
HETATM   25  C   UNL     1     -40.626 -46.201  12.182  1.00  0.00     0.039 C 
HETATM   26  C   UNL     1     -40.681 -45.282  10.914  1.00  0.00     0.006 C 
HETATM   27  C   UNL     1     -41.543 -46.445  10.295  1.00  0.00     0.039 C 
BRANCH  26  28
HETATM   28  C   UNL     1     -41.433 -43.972  11.116  1.00  0.00     0.175 C 
BRANCH  28  29
HETATM   29  O   UNL     1     -40.620 -42.889  10.664  1.00  0.00    -0.400 OA
HETATM   30  H   UNL     1     -39.821 -43.279  10.264  1.00  0.00     0.209 HD
ENDBRANCH  28  29
ENDBRANCH  26  28
BRANCH  26  31
HETATM   31  C   UNL     1     -39.335 -45.049  10.202  1.00  0.00     0.175 C 
BRANCH  31  32
HETATM   32  O   UNL     1     -39.560 -44.617   8.866  1.00  0.00    -0.400 OA
HETATM   33  H   UNL     1     -40.322 -44.003   8.897  1.00  0.00     0.209 HD
ENDBRANCH  31  32
ENDBRANCH  26  31
ENDBRANCH   2  24
TORSDOF 8
ENDMDL
MODEL 2
REMARK VINA RESULT:      -6.4      2.336      3.106
REMARK  8 active torsions:
REMARK  status: ('A' for Active; 'I' for Inactive)
REMARK    1  A    between atoms: N_2  and  C_11 
REMARK    2  A    between atoms: C_6  and  N_10 
REMARK    3  A    between atoms: C_7  and  N_10 
REMARK    4  A    between atoms: C_13  and  O_24 
REMARK    5  A    between atoms: C_18  and  C_26 
REMARK    6  A    between atoms: C_18  and  C_27 
REMARK    7  A    between atoms: C_26  and  O_28 
REMARK    8  A    between atoms: C_27  and  O_29 
ROOT
HETATM    1  C   UNL     1     -41.771 -50.983  13.608  1.00  0.00     0.122 A 
HETATM    2  N   UNL     1     -42.311 -49.218  12.457  1.00  0.00    -0.322 N 
HETATM    3  C   UNL     1     -41.265 -50.086  12.668  1.00  0.00     0.140 A 
HETATM    4  N   UNL     1     -43.113 -50.743  13.853  1.00  0.00    -0.346 N 
ATOM      5  HN  UNL     1     -43.739 -51.278  14.456  1.00  0.00     0.167 HD
HETATM    6  C   UNL     1     -40.878 -51.914  14.198  1.00  0.00     0.135 C 
HETATM    7  C   UNL     1     -43.404 -49.686  13.146  1.00  0.00     0.185 A 
HETATM    8  N   UNL     1     -40.021 -50.085  12.151  1.00  0.00    -0.336 N 
ATOM      9  HN  UNL     1     -39.682 -49.423  11.451  1.00  0.00     0.168 HD
HETATM   10  N   UNL     1     -39.622 -51.958  13.664  1.00  0.00    -0.337 N 
ATOM     11  HN  UNL     1     -38.944 -52.644  13.999  1.00  0.00     0.168 HD
HETATM   12  C   UNL     1     -39.284 -51.084  12.687  1.00  0.00     0.183 C 
ENDROOT
BRANCH   6  13
HETATM   13  N   UNL     1     -41.222 -52.736  15.321  1.00  0.00    -0.364 N 
HETATM   14  C   UNL     1     -40.724 -52.152  16.567  1.00  0.00     0.152 C 
BRANCH  13  15
HETATM   15  C   UNL     1     -41.347 -54.186  15.230  1.00  0.00     0.099 C 
HETATM   16  C   UNL     1     -42.495 -54.876  15.988  1.00  0.00     0.007 C 
HETATM   17  C   UNL     1     -43.444 -54.521  14.863  1.00  0.00     0.133 C 
HETATM   18  C   UNL     1     -42.266 -56.362  16.291  1.00  0.00     0.014 C 
HETATM   19  C   UNL     1     -42.948 -54.665  17.416  1.00  0.00     0.014 C 
HETATM   20  C   UNL     1     -42.184 -54.568  13.955  1.00  0.00     0.059 C 
HETATM   21  C   UNL     1     -42.185 -55.961  17.781  1.00  0.00     0.002 C 
BRANCH  17  22
HETATM   22  O   UNL     1     -44.510 -55.429  14.526  1.00  0.00    -0.390 OA
HETATM   23  C   UNL     1     -45.700 -54.786  14.089  1.00  0.00     0.202 C 
ENDBRANCH  17  22
ENDBRANCH  13  15
ENDBRANCH   6  13
BRANCH   2  24
HETATM   24  C   UNL     1     -42.408 -47.993  11.724  1.00  0.00     0.094 C 
HETATM   25  C   UNL     1     -43.766 -47.771  11.019  1.00  0.00     0.039 C 
HETATM   26  C   UNL     1     -42.975 -46.980   9.922  1.00  0.00     0.006 C 
HETATM   27  C   UNL     1     -41.788 -47.943  10.300  1.00  0.00     0.039 C 
BRANCH  26  28
HETATM   28  C   UNL     1     -43.511 -47.157   8.506  1.00  0.00     0.175 C 
BRANCH  28  29
HETATM   29  O   UNL     1     -42.792 -46.298   7.621  1.00  0.00    -0.400 OA
HETATM   30  H   UNL     1     -42.064 -46.824   7.240  1.00  0.00     0.209 HD
ENDBRANCH  28  29
ENDBRANCH  26  28
BRANCH  26  31
HETATM   31  C   UNL     1     -42.705 -45.496  10.236  1.00  0.00     0.175 C 
BRANCH  31  32
HETATM   32  O   UNL     1     -43.696 -44.682   9.621  1.00  0.00    -0.400 OA
HETATM   33  H   UNL     1     -44.469 -45.260   9.457  1.00  0.00     0.209 HD
ENDBRANCH  31  32
ENDBRANCH  26  31
ENDBRANCH   2  24
TORSDOF 8
ENDMDL
MODEL 3
REMARK VINA RESULT:      -6.1      2.689      4.016
REMARK  8 active torsions:
REMARK  status: ('A' for Active; 'I' for Inactive)
REMARK    1  A    between atoms: N_2  and  C_11 
REMARK    2  A    between atoms: C_6  and  N_10 
REMARK    3  A    between atoms: C_7  and  N_10 
REMARK    4  A    between atoms: C_13  and  O_24 
REMARK    5  A    between atoms: C_18  and  C_26 
REMARK    6  A    between atoms: C_18  and  C_27 
REMARK    7  A    between atoms: C_26  and  O_28 
REMARK    8  A    between atoms: C_27  and  O_29 
ROOT
HETATM    1  C   UNL     1     -40.338 -50.541  12.773  1.00  0.00     0.122 A 
HETATM    2  N   UNL     1     -41.544 -49.128  11.642  1.00  0.00    -0.322 N 
HETATM    3  C   UNL     1     -40.269 -49.640  11.712  1.00  0.00     0.140 A 
HETATM    4  N   UNL     1     -41.637 -50.665  13.238  1.00  0.00    -0.346 N 
ATOM      5  HN  UNL     1     -41.977 -51.290  13.970  1.00  0.00     0.167 HD
HETATM    6  C   UNL     1     -39.131 -51.118  13.246  1.00  0.00     0.135 C 
HETATM    7  C   UNL     1     -42.331 -49.812  12.537  1.00  0.00     0.185 A 
HETATM    8  N   UNL     1     -39.175 -49.342  10.984  1.00  0.00    -0.336 N 
ATOM      9  HN  UNL     1     -39.158 -48.688  10.201  1.00  0.00     0.168 HD
HETATM   10  N   UNL     1     -38.014 -50.861  12.503  1.00  0.00    -0.337 N 
ATOM     11  HN  UNL     1     -37.122 -51.290  12.749  1.00  0.00     0.168 HD
HETATM   12  C   UNL     1     -38.103 -50.032  11.436  1.00  0.00     0.183 C 
ENDROOT
BRANCH   6  13
HETATM   13  N   UNL     1     -39.041 -51.882  14.456  1.00  0.00    -0.364 N 
HETATM   14  C   UNL     1     -38.315 -51.143  15.489  1.00  0.00     0.152 C 
BRANCH  13  15
HETATM   15  C   UNL     1     -38.978 -53.339  14.466  1.00  0.00     0.099 C 
HETATM   16  C   UNL     1     -39.712 -54.101  15.584  1.00  0.00     0.007 C 
HETATM   17  C   UNL     1     -41.012 -53.959  14.820  1.00  0.00     0.133 C 
HETATM   18  C   UNL     1     -39.188 -55.517  15.851  1.00  0.00     0.014 C 
HETATM   19  C   UNL     1     -39.710 -53.830  17.072  1.00  0.00     0.014 C 
HETATM   20  C   UNL     1     -40.116 -53.926  13.551  1.00  0.00     0.059 C 
HETATM   21  C   UNL     1     -38.693 -54.987  17.215  1.00  0.00     0.002 C 
BRANCH  17  22
HETATM   22  O   UNL     1     -41.988 -55.017  14.886  1.00  0.00    -0.390 OA
HETATM   23  C   UNL     1     -43.309 -54.568  15.154  1.00  0.00     0.202 C 
ENDBRANCH  17  22
ENDBRANCH  13  15
ENDBRANCH   6  13
BRANCH   2  24
HETATM   24  C   UNL     1     -42.108 -48.063  10.872  1.00  0.00     0.094 C 
HETATM   25  C   UNL     1     -41.204 -46.816  10.740  1.00  0.00     0.039 C 
HETATM   26  C   UNL     1     -42.521 -45.969  10.674  1.00  0.00     0.006 C 
HETATM   27  C   UNL     1     -43.123 -47.114  11.569  1.00  0.00     0.039 C 
BRANCH  26  28
HETATM   28  C   UNL     1     -42.432 -44.608  11.356  1.00  0.00     0.175 C 
BRANCH  28  29
HETATM   29  O   UNL     1     -41.715 -43.706  10.513  1.00  0.00    -0.400 OA
HETATM   30  H   UNL     1     -42.376 -43.220   9.986  1.00  0.00     0.209 HD
ENDBRANCH  28  29
ENDBRANCH  26  28
BRANCH  26  31
HETATM   31  C   UNL     1     -43.167 -45.853   9.280  1.00  0.00     0.175 C 
BRANCH  31  32
HETATM   32  O   UNL     1     -43.983 -44.690   9.218  1.00  0.00    -0.400 OA
HETATM   33  H   UNL     1     -44.880 -44.992   8.964  1.00  0.00     0.209 HD
ENDBRANCH  31  32
ENDBRANCH  26  31
ENDBRANCH   2  24
TORSDOF 8
ENDMDL
MODEL 4
REMARK VINA RESULT:      -6.0      3.372      8.765
REMARK  8 active torsions:
REMARK  status: ('A' for Active; 'I' for Inactive)
REMARK    1  A    between atoms: N_2  and  C_11 
REMARK    2  A    between atoms: C_6  and  N_10 
REMARK    3  A    between atoms: C_7  and  N_10 
REMARK    4  A    between atoms: C_13  and  O_24 
REMARK    5  A    between atoms: C_18  and  C_26 
REMARK    6  A    between atoms: C_18  and  C_27 
REMARK    7  A    between atoms: C_26  and  O_28 
REMARK    8  A    between atoms: C_27  and  O_29 
ROOT
HETATM    1  C   UNL     1     -40.815 -47.052  11.097  1.00  0.00     0.122 A 
HETATM    2  N   UNL     1     -40.738 -49.183  11.528  1.00  0.00    -0.322 N 
HETATM    3  C   UNL     1     -41.496 -48.246  10.863  1.00  0.00     0.140 A 
HETATM    4  N   UNL     1     -39.622 -47.281  11.762  1.00  0.00    -0.346 N 
ATOM      5  HN  UNL     1     -38.910 -46.594  12.012  1.00  0.00     0.167 HD
HETATM    6  C   UNL     1     -41.435 -45.837  10.706  1.00  0.00     0.135 C 
HETATM    7  C   UNL     1     -39.605 -48.563  11.999  1.00  0.00     0.185 A 
HETATM    8  N   UNL     1     -42.648 -48.392  10.179  1.00  0.00    -0.336 N 
ATOM      9  HN  UNL     1     -43.116 -49.283  10.011  1.00  0.00     0.168 HD
HETATM   10  N   UNL     1     -42.584 -45.959   9.978  1.00  0.00    -0.337 N 
ATOM     11  HN  UNL     1     -43.053 -45.130   9.613  1.00  0.00     0.168 HD
HETATM   12  C   UNL     1     -43.095 -47.192   9.745  1.00  0.00     0.183 C 
ENDROOT
BRANCH   6  13
HETATM   13  N   UNL     1     -40.943 -44.544  11.081  1.00  0.00    -0.364 N 
HETATM   14  C   UNL     1     -39.784 -44.170  10.270  1.00  0.00     0.152 C 
BRANCH  13  15
HETATM   15  C   UNL     1     -41.039 -44.027  12.441  1.00  0.00     0.099 C 
HETATM   16  C   UNL     1     -41.283 -42.520  12.642  1.00  0.00     0.007 C 
HETATM   17  C   UNL     1     -42.763 -42.734  12.401  1.00  0.00     0.133 C 
HETATM   18  C   UNL     1     -40.850 -41.973  14.007  1.00  0.00     0.014 C 
HETATM   19  C   UNL     1     -40.598 -41.353  11.967  1.00  0.00     0.014 C 
HETATM   20  C   UNL     1     -42.519 -44.164  12.958  1.00  0.00     0.059 C 
HETATM   21  C   UNL     1     -39.752 -41.191  13.253  1.00  0.00     0.002 C 
BRANCH  17  22
HETATM   22  O   UNL     1     -43.718 -41.924  13.115  1.00  0.00    -0.390 OA
HETATM   23  C   UNL     1     -44.346 -40.932  12.314  1.00  0.00     0.202 C 
ENDBRANCH  17  22
ENDBRANCH  13  15
ENDBRANCH   6  13
BRANCH   2  24
HETATM   24  C   UNL     1     -40.954 -50.570  11.804  1.00  0.00     0.094 C 
HETATM   25  C   UNL     1     -41.833 -50.849  13.045  1.00  0.00     0.039 C 
HETATM   26  C   UNL     1     -41.002 -52.163  13.237  1.00  0.00     0.006 C 
HETATM   27  C   UNL     1     -39.839 -51.347  12.559  1.00  0.00     0.039 C 
BRANCH  26  28
HETATM   28  C   UNL     1     -40.748 -52.543  14.691  1.00  0.00     0.175 C 
BRANCH  28  29
HETATM   29  O   UNL     1     -41.319 -53.826  14.948  1.00  0.00    -0.400 OA
HETATM   30  H   UNL     1     -40.619 -54.487  14.790  1.00  0.00     0.209 HD
ENDBRANCH  28  29
ENDBRANCH  26  28
BRANCH  26  31
HETATM   31  C   UNL     1     -41.479 -53.378  12.418  1.00  0.00     0.175 C 
BRANCH  31  32
HETATM   32  O   UNL     1     -40.425 -54.325  12.293  1.00  0.00    -0.400 OA
HETATM   33  H   UNL     1     -39.601 -53.809  12.174  1.00  0.00     0.209 HD
ENDBRANCH  31  32
ENDBRANCH  26  31
ENDBRANCH   2  24
TORSDOF 8
ENDMDL
MODEL 5
REMARK VINA RESULT:      -5.8      1.990      3.160
REMARK  8 active torsions:
REMARK  status: ('A' for Active; 'I' for Inactive)
REMARK    1  A    between atoms: N_2  and  C_11 
REMARK    2  A    between atoms: C_6  and  N_10 
REMARK    3  A    between atoms: C_7  and  N_10 
REMARK    4  A    between atoms: C_13  and  O_24 
REMARK    5  A    between atoms: C_18  and  C_26 
REMARK    6  A    between atoms: C_18  and  C_27 
REMARK    7  A    between atoms: C_26  and  O_28 
REMARK    8  A    between atoms: C_27  and  O_29 
ROOT
HETATM    1  C   UNL     1     -43.375 -49.351  13.852  1.00  0.00     0.122 A 
HETATM    2  N   UNL     1     -42.643 -47.586  12.812  1.00  0.00    -0.322 N 
HETATM    3  C   UNL     1     -42.900 -48.060  14.078  1.00  0.00     0.140 A 
HETATM    4  N   UNL     1     -43.281 -49.688  12.512  1.00  0.00    -0.346 N 
ATOM      5  HN  UNL     1     -43.511 -50.584  12.080  1.00  0.00     0.167 HD
HETATM    6  C   UNL     1     -43.920 -50.069  14.948  1.00  0.00     0.135 C 
HETATM    7  C   UNL     1     -42.836 -48.614  11.921  1.00  0.00     0.185 A 
HETATM    8  N   UNL     1     -42.781 -47.448  15.273  1.00  0.00    -0.336 N 
ATOM      9  HN  UNL     1     -42.415 -46.505  15.409  1.00  0.00     0.168 HD
HETATM   10  N   UNL     1     -43.777 -49.486  16.175  1.00  0.00    -0.337 N 
ATOM     11  HN  UNL     1     -44.092 -49.972  17.015  1.00  0.00     0.168 HD
HETATM   12  C   UNL     1     -43.214 -48.258  16.265  1.00  0.00     0.183 C 
ENDROOT
BRANCH   6  13
HETATM   13  N   UNL     1     -44.630 -51.306  14.806  1.00  0.00    -0.364 N 
HETATM   14  C   UNL     1     -46.072 -51.100  14.953  1.00  0.00     0.152 C 
BRANCH  13  15
HETATM   15  C   UNL     1     -44.065 -52.591  15.202  1.00  0.00     0.099 C 
HETATM   16  C   UNL     1     -43.883 -53.678  14.127  1.00  0.00     0.007 C 
HETATM   17  C   UNL     1     -42.595 -53.018  13.684  1.00  0.00     0.133 C 
HETATM   18  C   UNL     1     -43.806 -55.112  14.667  1.00  0.00     0.014 C 
HETATM   19  C   UNL     1     -44.865 -54.139  13.073  1.00  0.00     0.014 C 
HETATM   20  C   UNL     1     -42.494 -52.517  15.152  1.00  0.00     0.059 C 
HETATM   21  C   UNL     1     -45.167 -55.356  13.979  1.00  0.00     0.002 C 
BRANCH  17  22
HETATM   22  O   UNL     1     -41.508 -53.837  13.212  1.00  0.00    -0.390 OA
HETATM   23  C   UNL     1     -40.698 -53.210  12.226  1.00  0.00     0.202 C 
ENDBRANCH  17  22
ENDBRANCH  13  15
ENDBRANCH   6  13
BRANCH   2  24
HETATM   24  C   UNL     1     -42.275 -46.291  12.330  1.00  0.00     0.094 C 
HETATM   25  C   UNL     1     -41.818 -46.260  10.853  1.00  0.00     0.039 C 
HETATM   26  C   UNL     1     -40.882 -45.068  11.253  1.00  0.00     0.006 C 
HETATM   27  C   UNL     1     -40.851 -45.764  12.664  1.00  0.00     0.039 C 
BRANCH  26  28
HETATM   28  C   UNL     1     -39.543 -45.045  10.525  1.00  0.00     0.175 C 
BRANCH  28  29
HETATM   29  O   UNL     1     -39.768 -44.824   9.133  1.00  0.00    -0.400 OA
HETATM   30  H   UNL     1     -40.565 -44.268   9.057  1.00  0.00     0.209 HD
ENDBRANCH  28  29
ENDBRANCH  26  28
BRANCH  26  31
HETATM   31  C   UNL     1     -41.541 -43.676  11.252  1.00  0.00     0.175 C 
BRANCH  31  32
HETATM   32  O   UNL     1     -40.695 -42.737  10.599  1.00  0.00    -0.400 OA
HETATM   33  H   UNL     1     -39.850 -42.732  11.095  1.00  0.00     0.209 HD
ENDBRANCH  31  32
ENDBRANCH  26  31
ENDBRANCH   2  24
TORSDOF 8
ENDMDL
MODEL 6
REMARK VINA RESULT:      -5.8      1.940      8.223
REMARK  8 active torsions:
REMARK  status: ('A' for Active; 'I' for Inactive)
REMARK    1  A    between atoms: N_2  and  C_11 
REMARK    2  A    between atoms: C_6  and  N_10 
REMARK    3  A    between atoms: C_7  and  N_10 
REMARK    4  A    between atoms: C_13  and  O_24 
REMARK    5  A    between atoms: C_18  and  C_26 
REMARK    6  A    between atoms: C_18  and  C_27 
REMARK    7  A    between atoms: C_26  and  O_28 
REMARK    8  A    between atoms: C_27  and  O_29 
ROOT
HETATM    1  C   UNL     1     -41.581 -48.814  13.111  1.00  0.00     0.122 A 
HETATM    2  N   UNL     1     -42.949 -50.462  13.489  1.00  0.00    -0.322 N 
HETATM    3  C   UNL     1     -41.964 -50.060  12.617  1.00  0.00     0.140 A 
HETATM    4  N   UNL     1     -42.217 -48.537  14.310  1.00  0.00    -0.346 N 
ATOM      5  HN  UNL     1     -42.083 -47.722  14.909  1.00  0.00     0.167 HD
HETATM    6  C   UNL     1     -40.701 -48.021  12.330  1.00  0.00     0.135 C 
HETATM    7  C   UNL     1     -43.022 -49.544  14.509  1.00  0.00     0.185 A 
HETATM    8  N   UNL     1     -41.484 -50.667  11.514  1.00  0.00    -0.336 N 
ATOM      9  HN  UNL     1     -41.773 -51.588  11.184  1.00  0.00     0.168 HD
HETATM   10  N   UNL     1     -40.171 -48.628  11.227  1.00  0.00    -0.337 N 
ATOM     11  HN  UNL     1     -39.486 -48.140  10.650  1.00  0.00     0.168 HD
HETATM   12  C   UNL     1     -40.564 -49.883  10.905  1.00  0.00     0.183 C 
ENDROOT
BRANCH   6  13
HETATM   13  N   UNL     1     -40.407 -46.649  12.619  1.00  0.00    -0.364 N 
HETATM   14  C   UNL     1     -39.342 -46.542  13.618  1.00  0.00     0.152 C 
BRANCH  13  15
HETATM   15  C   UNL     1     -41.413 -45.596  12.557  1.00  0.00     0.099 C 
HETATM   16  C   UNL     1     -41.383 -44.616  11.370  1.00  0.00     0.007 C 
HETATM   17  C   UNL     1     -42.105 -45.637  10.516  1.00  0.00     0.133 C 
HETATM   18  C   UNL     1     -42.078 -43.273  11.624  1.00  0.00     0.014 C 
HETATM   19  C   UNL     1     -40.200 -43.880  10.781  1.00  0.00     0.014 C 
HETATM   20  C   UNL     1     -42.711 -46.142  11.855  1.00  0.00     0.059 C 
HETATM   21  C   UNL     1     -40.676 -42.628  11.553  1.00  0.00     0.002 C 
BRANCH  17  22
HETATM   22  O   UNL     1     -43.042 -45.186   9.519  1.00  0.00    -0.390 OA
HETATM   23  C   UNL     1     -43.399 -46.182   8.570  1.00  0.00     0.202 C 
ENDBRANCH  17  22
ENDBRANCH  13  15
ENDBRANCH   6  13
BRANCH   2  24
HETATM   24  C   UNL     1     -43.850 -51.574  13.472  1.00  0.00     0.094 C 
HETATM   25  C   UNL     1     -44.702 -51.731  14.752  1.00  0.00     0.039 C 
HETATM   26  C   UNL     1     -44.676 -53.274  14.483  1.00  0.00     0.006 C 
HETATM   27  C   UNL     1     -43.282 -52.980  13.813  1.00  0.00     0.039 C 
BRANCH  26  28
HETATM   28  C   UNL     1     -44.609 -54.134  15.740  1.00  0.00     0.175 C 
BRANCH  28  29
HETATM   29  O   UNL     1     -45.931 -54.506  16.125  1.00  0.00    -0.400 OA
HETATM   30  H   UNL     1     -46.546 -54.035  15.531  1.00  0.00     0.209 HD
ENDBRANCH  28  29
ENDBRANCH  26  28
BRANCH  26  31
HETATM   31  C   UNL     1     -45.745 -53.797  13.505  1.00  0.00     0.175 C 
BRANCH  31  32
HETATM   32  O   UNL     1     -45.698 -55.217  13.446  1.00  0.00    -0.400 OA
HETATM   33  H   UNL     1     -46.244 -55.545  14.190  1.00  0.00     0.209 HD
ENDBRANCH  31  32
ENDBRANCH  26  31
ENDBRANCH   2  24
TORSDOF 8
ENDMDL
MODEL 7
REMARK VINA RESULT:      -5.8      2.977      4.139
REMARK  8 active torsions:
REMARK  status: ('A' for Active; 'I' for Inactive)
REMARK    1  A    between atoms: N_2  and  C_11 
REMARK    2  A    between atoms: C_6  and  N_10 
REMARK    3  A    between atoms: C_7  and  N_10 
REMARK    4  A    between atoms: C_13  and  O_24 
REMARK    5  A    between atoms: C_18  and  C_26 
REMARK    6  A    between atoms: C_18  and  C_27 
REMARK    7  A    between atoms: C_26  and  O_28 
REMARK    8  A    between atoms: C_27  and  O_29 
ROOT
HETATM    1  C   UNL     1     -42.634 -51.655  13.235  1.00  0.00     0.122 A 
HETATM    2  N   UNL     1     -42.390 -49.646  12.439  1.00  0.00    -0.322 N 
HETATM    3  C   UNL     1     -41.963 -50.939  12.244  1.00  0.00     0.140 A 
HETATM    4  N   UNL     1     -43.531 -50.847  13.912  1.00  0.00    -0.346 N 
ATOM      5  HN  UNL     1     -44.183 -51.124  14.647  1.00  0.00     0.167 HD
HETATM    6  C   UNL     1     -42.275 -53.012  13.444  1.00  0.00     0.135 C 
HETATM    7  C   UNL     1     -43.364 -49.656  13.408  1.00  0.00     0.185 A 
HETATM    8  N   UNL     1     -41.079 -51.435  11.357  1.00  0.00    -0.336 N 
ATOM      9  HN  UNL     1     -40.613 -50.889  10.631  1.00  0.00     0.168 HD
HETATM   10  N   UNL     1     -41.409 -53.548  12.534  1.00  0.00    -0.337 N 
ATOM     11  HN  UNL     1     -41.152 -54.534  12.587  1.00  0.00     0.168 HD
HETATM   12  C   UNL     1     -40.895 -52.759  11.561  1.00  0.00     0.183 C 
ENDROOT
BRANCH   6  13
HETATM   13  N   UNL     1     -42.730 -53.786  14.561  1.00  0.00    -0.364 N 
HETATM   14  C   UNL     1     -44.099 -54.258  14.346  1.00  0.00     0.152 C 
BRANCH  13  15
HETATM   15  C   UNL     1     -42.284 -53.540  15.927  1.00  0.00     0.099 C 
HETATM   16  C   UNL     1     -41.642 -54.697  16.713  1.00  0.00     0.007 C 
HETATM   17  C   UNL     1     -40.323 -54.431  16.018  1.00  0.00     0.133 C 
HETATM   18  C   UNL     1     -41.691 -54.546  18.239  1.00  0.00     0.014 C 
HETATM   19  C   UNL     1     -42.118 -56.126  16.849  1.00  0.00     0.014 C 
HETATM   20  C   UNL     1     -40.820 -52.963  15.911  1.00  0.00     0.059 C 
HETATM   21  C   UNL     1     -42.670 -55.742  18.242  1.00  0.00     0.002 C 
BRANCH  17  22
HETATM   22  O   UNL     1     -39.092 -54.640  16.736  1.00  0.00    -0.390 OA
HETATM   23  C   UNL     1     -38.234 -55.606  16.144  1.00  0.00     0.202 C 
ENDBRANCH  17  22
ENDBRANCH  13  15
ENDBRANCH   6  13
BRANCH   2  24
HETATM   24  C   UNL     1     -41.981 -48.404  11.858  1.00  0.00     0.094 C 
HETATM   25  C   UNL     1     -43.069 -47.305  11.857  1.00  0.00     0.039 C 
HETATM   26  C   UNL     1     -42.413 -46.772  10.538  1.00  0.00     0.006 C 
HETATM   27  C   UNL     1     -42.009 -48.276  10.310  1.00  0.00     0.039 C 
BRANCH  26  28
HETATM   28  C   UNL     1     -43.404 -46.218   9.520  1.00  0.00     0.175 C 
BRANCH  28  29
HETATM   29  O   UNL     1     -42.711 -45.910   8.310  1.00  0.00    -0.400 OA
HETATM   30  H   UNL     1     -43.367 -45.944   7.588  1.00  0.00     0.209 HD
ENDBRANCH  28  29
ENDBRANCH  26  28
BRANCH  26  31
HETATM   31  C   UNL     1     -41.217 -45.821  10.727  1.00  0.00     0.175 C 
BRANCH  31  32
HETATM   32  O   UNL     1     -41.618 -44.478  10.481  1.00  0.00    -0.400 OA
HETATM   33  H   UNL     1     -40.955 -44.097   9.869  1.00  0.00     0.209 HD
ENDBRANCH  31  32
ENDBRANCH  26  31
ENDBRANCH   2  24
TORSDOF 8
ENDMDL
MODEL 8
REMARK VINA RESULT:      -5.7      2.249      3.168
REMARK  8 active torsions:
REMARK  status: ('A' for Active; 'I' for Inactive)
REMARK    1  A    between atoms: N_2  and  C_11 
REMARK    2  A    between atoms: C_6  and  N_10 
REMARK    3  A    between atoms: C_7  and  N_10 
REMARK    4  A    between atoms: C_13  and  O_24 
REMARK    5  A    between atoms: C_18  and  C_26 
REMARK    6  A    between atoms: C_18  and  C_27 
REMARK    7  A    between atoms: C_26  and  O_28 
REMARK    8  A    between atoms: C_27  and  O_29 
ROOT
HETATM    1  C   UNL     1     -40.660 -49.957  12.173  1.00  0.00     0.122 A 
HETATM    2  N   UNL     1     -40.650 -47.904  11.456  1.00  0.00    -0.322 N 
HETATM    3  C   UNL     1     -39.890 -48.794  12.178  1.00  0.00     0.140 A 
HETATM    4  N   UNL     1     -41.776 -49.812  11.367  1.00  0.00    -0.346 N 
ATOM      5  HN  UNL     1     -42.478 -50.519  11.146  1.00  0.00     0.167 HD
HETATM    6  C   UNL     1     -40.254 -51.036  13.000  1.00  0.00     0.135 C 
HETATM    7  C   UNL     1     -41.737 -48.577  10.950  1.00  0.00     0.185 A 
HETATM    8  N   UNL     1     -38.707 -48.620  12.798  1.00  0.00    -0.336 N 
ATOM      9  HN  UNL     1     -38.158 -47.760  12.771  1.00  0.00     0.168 HD
HETATM   10  N   UNL     1     -39.039 -50.898  13.609  1.00  0.00    -0.337 N 
ATOM     11  HN  UNL     1     -38.656 -51.658  14.171  1.00  0.00     0.168 HD
HETATM   12  C   UNL     1     -38.348 -49.743  13.459  1.00  0.00     0.183 C 
ENDROOT
BRANCH   6  13
HETATM   13  N   UNL     1     -41.067 -52.191  13.248  1.00  0.00    -0.364 N 
HETATM   14  C   UNL     1     -40.880 -53.195  12.201  1.00  0.00     0.152 C 
BRANCH  13  15
HETATM   15  C   UNL     1     -42.357 -52.117  13.922  1.00  0.00     0.099 C 
HETATM   16  C   UNL     1     -42.747 -53.246  14.894  1.00  0.00     0.007 C 
HETATM   17  C   UNL     1     -41.915 -52.592  15.977  1.00  0.00     0.133 C 
HETATM   18  C   UNL     1     -44.254 -53.395  15.139  1.00  0.00     0.014 C 
HETATM   19  C   UNL     1     -42.641 -54.742  14.697  1.00  0.00     0.014 C 
HETATM   20  C   UNL     1     -42.222 -51.262  15.235  1.00  0.00     0.059 C 
HETATM   21  C   UNL     1     -44.157 -54.744  14.392  1.00  0.00     0.002 C 
BRANCH  17  22
HETATM   22  O   UNL     1     -42.350 -52.676  17.348  1.00  0.00    -0.390 OA
HETATM   23  C   UNL     1     -41.395 -53.262  18.223  1.00  0.00     0.202 C 
ENDBRANCH  17  22
ENDBRANCH  13  15
ENDBRANCH   6  13
BRANCH   2  24
HETATM   24  C   UNL     1     -40.507 -46.502  11.207  1.00  0.00     0.094 C 
HETATM   25  C   UNL     1     -41.038 -45.591  12.338  1.00  0.00     0.039 C 
HETATM   26  C   UNL     1     -41.377 -44.543  11.223  1.00  0.00     0.006 C 
HETATM   27  C   UNL     1     -41.564 -45.807  10.304  1.00  0.00     0.039 C 
BRANCH  26  28
HETATM   28  C   UNL     1     -42.651 -43.745  11.473  1.00  0.00     0.175 C 
BRANCH  28  29
HETATM   29  O   UNL     1     -42.971 -42.992  10.304  1.00  0.00    -0.400 OA
HETATM   30  H   UNL     1     -42.384 -42.212  10.297  1.00  0.00     0.209 HD
ENDBRANCH  28  29
ENDBRANCH  26  28
BRANCH  26  31
HETATM   31  C   UNL     1     -40.216 -43.624  10.800  1.00  0.00     0.175 C 
BRANCH  31  32
HETATM   32  O   UNL     1     -40.474 -42.289  11.221  1.00  0.00    -0.400 OA
HETATM   33  H   UNL     1     -39.622 -41.931  11.546  1.00  0.00     0.209 HD
ENDBRANCH  31  32
ENDBRANCH  26  31
ENDBRANCH   2  24
TORSDOF 8
ENDMDL
MODEL 9
REMARK VINA RESULT:      -5.6      4.438      5.558
REMARK  8 active torsions:
REMARK  status: ('A' for Active; 'I' for Inactive)
REMARK    1  A    between atoms: N_2  and  C_11 
REMARK    2  A    between atoms: C_6  and  N_10 
REMARK    3  A    between atoms: C_7  and  N_10 
REMARK    4  A    between atoms: C_13  and  O_24 
REMARK    5  A    between atoms: C_18  and  C_26 
REMARK    6  A    between atoms: C_18  and  C_27 
REMARK    7  A    between atoms: C_26  and  O_28 
REMARK    8  A    between atoms: C_27  and  O_29 
ROOT
HETATM    1  C   UNL     1     -40.267 -51.163  14.227  1.00  0.00     0.122 A 
HETATM    2  N   UNL     1     -38.784 -49.985  15.298  1.00  0.00    -0.322 N 
HETATM    3  C   UNL     1     -39.229 -50.255  14.024  1.00  0.00     0.140 A 
HETATM    4  N   UNL     1     -40.525 -51.330  15.577  1.00  0.00    -0.346 N 
ATOM      5  HN  UNL     1     -41.260 -51.895  16.003  1.00  0.00     0.167 HD
HETATM    6  C   UNL     1     -40.833 -51.802  13.094  1.00  0.00     0.135 C 
HETATM    7  C   UNL     1     -39.625 -50.609  16.187  1.00  0.00     0.185 A 
HETATM    8  N   UNL     1     -38.774 -49.810  12.836  1.00  0.00    -0.336 N 
ATOM      9  HN  UNL     1     -38.021 -49.132  12.718  1.00  0.00     0.168 HD
HETATM   10  N   UNL     1     -40.416 -51.342  11.878  1.00  0.00    -0.337 N 
ATOM     11  HN  UNL     1     -40.823 -51.714  11.020  1.00  0.00     0.168 HD
HETATM   12  C   UNL     1     -39.458 -50.387  11.821  1.00  0.00     0.183 C 
ENDROOT
BRANCH   6  13
HETATM   13  N   UNL     1     -41.747 -52.903  13.183  1.00  0.00    -0.364 N 
HETATM   14  C   UNL     1     -41.065 -54.171  12.922  1.00  0.00     0.152 C 
BRANCH  13  15
HETATM   15  C   UNL     1     -43.159 -52.786  12.838  1.00  0.00     0.099 C 
HETATM   16  C   UNL     1     -44.210 -53.218  13.876  1.00  0.00     0.007 C 
HETATM   17  C   UNL     1     -44.061 -51.882  14.574  1.00  0.00     0.133 C 
HETATM   18  C   UNL     1     -45.584 -53.574  13.295  1.00  0.00     0.014 C 
HETATM   19  C   UNL     1     -44.250 -54.476  14.714  1.00  0.00     0.014 C 
HETATM   20  C   UNL     1     -43.669 -51.336  13.173  1.00  0.00     0.059 C 
HETATM   21  C   UNL     1     -45.292 -55.031  13.714  1.00  0.00     0.002 C 
BRANCH  17  22
HETATM   22  O   UNL     1     -45.212 -51.280  15.197  1.00  0.00    -0.390 OA
HETATM   23  C   UNL     1     -44.984 -50.841  16.530  1.00  0.00     0.202 C 
ENDBRANCH  17  22
ENDBRANCH  13  15
ENDBRANCH   6  13
BRANCH   2  24
HETATM   24  C   UNL     1     -37.658 -49.249  15.784  1.00  0.00     0.094 C 
HETATM   25  C   UNL     1     -36.496 -50.123  16.308  1.00  0.00     0.039 C 
HETATM   26  C   UNL     1     -36.182 -48.961  17.312  1.00  0.00     0.006 C 
HETATM   27  C   UNL     1     -37.728 -48.675  17.227  1.00  0.00     0.039 C 
BRANCH  26  28
HETATM   28  C   UNL     1     -35.696 -49.423  18.681  1.00  0.00     0.175 C 
BRANCH  28  29
HETATM   29  O   UNL     1     -34.410 -50.027  18.543  1.00  0.00    -0.400 OA
HETATM   30  H   UNL     1     -33.983 -49.618  17.767  1.00  0.00     0.209 HD
ENDBRANCH  28  29
ENDBRANCH  26  28
BRANCH  26  31
HETATM   31  C   UNL     1     -35.300 -47.826  16.760  1.00  0.00     0.175 C 
BRANCH  31  32
HETATM   32  O   UNL     1     -34.457 -47.321  17.789  1.00  0.00    -0.400 OA
HETATM   33  H   UNL     1     -34.721 -46.389  17.932  1.00  0.00     0.209 HD
ENDBRANCH  31  32
ENDBRANCH  26  31
ENDBRANCH   2  24
TORSDOF 8
ENDMDL
