MODEL 1
REMARK VINA RESULT:      -5.8      0.000      0.000
REMARK  6 active torsions:
REMARK  status: ('A' for Active; 'I' for Inactive)
REMARK    1  A    between atoms: C_4  and  N_5 
REMARK       I    between atoms: N_5  and  C_6 
REMARK       I    between atoms: C_6  and  N_8 
REMARK    2  A    between atoms: N_8  and  C_9 
REMARK    3  A    between atoms: N_12  and  C_13 
REMARK    4  A    between atoms: C_13  and  C_14 
REMARK    5  A    between atoms: C_14  and  C_15 
REMARK    6  A    between atoms: C_15  and  N_16 
ROOT
HETATM    1  C   UNL     1     -40.533 -44.007  11.015  1.00  0.00     0.070 C 
HETATM    2  C   UNL     1     -41.057 -45.392  10.908  1.00  0.00     0.025 A 
HETATM    3  C   UNL     1     -40.336 -46.609  10.876  1.00  0.00     0.076 A 
HETATM    4  C   UNL     1     -41.289 -47.581  10.680  1.00  0.00     0.127 A 
HETATM    5  N   UNL     1     -42.494 -46.927  10.626  1.00  0.00    -0.276 N 
HETATM    6  N   UNL     1     -42.374 -45.598  10.814  1.00  0.00    -0.301 N 
ATOM      7  HN  UNL     1     -43.121 -44.905  10.872  1.00  0.00     0.187 HD
ENDROOT
BRANCH   4   8
HETATM    8  N   UNL     1     -41.015 -48.931  10.523  1.00  0.00    -0.293 N 
HETATM    9  C   UNL     1     -40.829 -49.722  11.696  1.00  0.00     0.322 C 
HETATM   10  O   UNL     1     -40.710 -49.191  12.783  1.00  0.00    -0.247 OA
HETATM   11  N   UNL     1     -40.812 -51.056  11.402  1.00  0.00    -0.338 N 
HETATM   12  H   UNL     1     -40.849 -51.380  10.450  1.00  0.00     0.164 HD
HETATM   13  H   UNL     1     -41.228 -49.357   9.636  1.00  0.00     0.172 HD
BRANCH  11  14
HETATM   14  C   UNL     1     -40.567 -52.031  12.421  1.00  0.00     0.086 A 
HETATM   15  C   UNL     1     -41.081 -53.438  12.292  1.00  0.00     0.027 A 
HETATM   16  C   UNL     1     -41.664 -52.520  13.325  1.00  0.00     0.027 A 
ENDBRANCH  11  14
ENDBRANCH   4   8
BRANCH   5  17
HETATM   17  C   UNL     1     -43.821 -47.502  10.520  1.00  0.00     0.163 C 
BRANCH  17  18
HETATM   18  C   UNL     1     -44.497 -47.215   9.182  1.00  0.00     0.126 C 
BRANCH  18  19
HETATM   19  C   UNL     1     -43.663 -47.814   8.062  1.00  0.00    -0.076 C 
BRANCH  19  20
HETATM   20  N   UNL     1     -42.972 -48.312   7.132  1.00  0.00    -0.370 N 
ATOM     21  HN2 UNL     1     -43.535 -47.942   7.899  1.00  0.00     0.165 HD
ATOM     22  HN1 UNL     1     -42.413 -48.713   6.379  1.00  0.00     0.165 HD
ENDBRANCH  19  20
ENDBRANCH  18  19
ENDBRANCH  17  18
ENDBRANCH   5  17
TORSDOF 6
ENDMDL
MODEL 2
REMARK VINA RESULT:      -5.8      1.876      2.284
REMARK  6 active torsions:
REMARK  status: ('A' for Active; 'I' for Inactive)
REMARK    1  A    between atoms: C_4  and  N_5 
REMARK       I    between atoms: N_5  and  C_6 
REMARK       I    between atoms: C_6  and  N_8 
REMARK    2  A    between atoms: N_8  and  C_9 
REMARK    3  A    between atoms: N_12  and  C_13 
REMARK    4  A    between atoms: C_13  and  C_14 
REMARK    5  A    between atoms: C_14  and  C_15 
REMARK    6  A    between atoms: C_15  and  N_16 
ROOT
HETATM    1  C   UNL     1     -42.560 -42.574  11.143  1.00  0.00     0.070 C 
HETATM    2  C   UNL     1     -42.195 -44.008  11.032  1.00  0.00     0.025 A 
HETATM    3  C   UNL     1     -40.907 -44.589  10.957  1.00  0.00     0.076 A 
HETATM    4  C   UNL     1     -41.134 -45.934  10.779  1.00  0.00     0.127 A 
HETATM    5  N   UNL     1     -42.497 -46.092  10.775  1.00  0.00    -0.276 N 
HETATM    6  N   UNL     1     -43.157 -44.935  10.980  1.00  0.00    -0.301 N 
ATOM      7  HN  UNL     1     -44.163 -44.797  11.073  1.00  0.00     0.187 HD
ENDROOT
BRANCH   4   8
HETATM    8  N   UNL     1     -40.140 -46.881  10.592  1.00  0.00    -0.293 N 
HETATM    9  C   UNL     1     -39.673 -47.602  11.731  1.00  0.00     0.322 C 
HETATM   10  O   UNL     1     -39.987 -47.252  12.852  1.00  0.00    -0.247 OA
HETATM   11  N   UNL     1     -38.883 -48.656  11.367  1.00  0.00    -0.338 N 
HETATM   12  H   UNL     1     -38.630 -48.809  10.405  1.00  0.00     0.164 HD
HETATM   13  H   UNL     1     -39.982 -47.223   9.658  1.00  0.00     0.172 HD
BRANCH  11  14
HETATM   14  C   UNL     1     -38.248 -49.475  12.354  1.00  0.00     0.086 A 
HETATM   15  C   UNL     1     -37.419 -50.667  11.961  1.00  0.00     0.027 A 
HETATM   16  C   UNL     1     -38.733 -50.866  12.656  1.00  0.00     0.027 A 
ENDBRANCH  11  14
ENDBRANCH   4   8
BRANCH   5  17
HETATM   17  C   UNL     1     -43.255 -47.327  10.705  1.00  0.00     0.163 C 
BRANCH  17  18
HETATM   18  C   UNL     1     -44.287 -47.337   9.581  1.00  0.00     0.126 C 
BRANCH  18  19
HETATM   19  C   UNL     1     -43.592 -47.655   8.267  1.00  0.00    -0.076 C 
BRANCH  19  20
HETATM   20  N   UNL     1     -43.015 -47.920   7.177  1.00  0.00    -0.370 N 
ATOM     21  HN2 UNL     1     -43.473 -47.671   8.055  1.00  0.00     0.165 HD
ATOM     22  HN1 UNL     1     -42.548 -48.134   6.296  1.00  0.00     0.165 HD
ENDBRANCH  19  20
ENDBRANCH  18  19
ENDBRANCH  17  18
ENDBRANCH   5  17
TORSDOF 6
ENDMDL
MODEL 3
REMARK VINA RESULT:      -5.7      4.024      6.295
REMARK  6 active torsions:
REMARK  status: ('A' for Active; 'I' for Inactive)
REMARK    1  A    between atoms: C_4  and  N_5 
REMARK       I    between atoms: N_5  and  C_6 
REMARK       I    between atoms: C_6  and  N_8 
REMARK    2  A    between atoms: N_8  and  C_9 
REMARK    3  A    between atoms: N_12  and  C_13 
REMARK    4  A    between atoms: C_13  and  C_14 
REMARK    5  A    between atoms: C_14  and  C_15 
REMARK    6  A    between atoms: C_15  and  N_16 
ROOT
HETATM    1  C   UNL     1     -43.377 -55.416  14.955  1.00  0.00     0.070 C 
HETATM    2  C   UNL     1     -43.264 -54.203  14.109  1.00  0.00     0.025 A 
HETATM    3  C   UNL     1     -42.253 -53.865  13.178  1.00  0.00     0.076 A 
HETATM    4  C   UNL     1     -42.581 -52.604  12.738  1.00  0.00     0.127 A 
HETATM    5  N   UNL     1     -43.740 -52.265  13.389  1.00  0.00    -0.276 N 
HETATM    6  N   UNL     1     -44.197 -53.249  14.188  1.00  0.00    -0.301 N 
ATOM      7  HN  UNL     1     -45.060 -53.263  14.732  1.00  0.00     0.187 HD
ENDROOT
BRANCH   4   8
HETATM    8  N   UNL     1     -41.819 -51.856  11.854  1.00  0.00    -0.293 N 
HETATM    9  C   UNL     1     -40.741 -51.085  12.380  1.00  0.00     0.322 C 
HETATM   10  O   UNL     1     -40.625 -50.927  13.579  1.00  0.00    -0.247 OA
HETATM   11  N   UNL     1     -39.939 -50.602  11.384  1.00  0.00    -0.338 N 
HETATM   12  H   UNL     1     -40.174 -50.738  10.415  1.00  0.00     0.164 HD
HETATM   13  H   UNL     1     -41.865 -52.089  10.876  1.00  0.00     0.172 HD
BRANCH  11  14
HETATM   14  C   UNL     1     -38.834 -49.742  11.680  1.00  0.00     0.086 A 
HETATM   15  C   UNL     1     -37.539 -49.847  10.923  1.00  0.00     0.027 A 
HETATM   16  C   UNL     1     -37.598 -50.254  12.365  1.00  0.00     0.027 A 
ENDBRANCH  11  14
ENDBRANCH   4   8
BRANCH   5  17
HETATM   17  C   UNL     1     -44.549 -51.073  13.215  1.00  0.00     0.163 C 
BRANCH  17  18
HETATM   18  C   UNL     1     -46.035 -51.312  13.464  1.00  0.00     0.126 C 
BRANCH  18  19
HETATM   19  C   UNL     1     -46.706 -51.696  12.156  1.00  0.00    -0.076 C 
BRANCH  19  20
HETATM   20  N   UNL     1     -47.263 -52.013  11.069  1.00  0.00    -0.370 N 
ATOM     21  HN2 UNL     1     -46.845 -51.748  11.962  1.00  0.00     0.165 HD
ATOM     22  HN1 UNL     1     -47.712 -52.270  10.190  1.00  0.00     0.165 HD
ENDBRANCH  19  20
ENDBRANCH  18  19
ENDBRANCH  17  18
ENDBRANCH   5  17
TORSDOF 6
ENDMDL
MODEL 4
REMARK VINA RESULT:      -5.7      1.562      3.128
REMARK  6 active torsions:
REMARK  status: ('A' for Active; 'I' for Inactive)
REMARK    1  A    between atoms: C_4  and  N_5 
REMARK       I    between atoms: N_5  and  C_6 
REMARK       I    between atoms: C_6  and  N_8 
REMARK    2  A    between atoms: N_8  and  C_9 
REMARK    3  A    between atoms: N_12  and  C_13 
REMARK    4  A    between atoms: C_13  and  C_14 
REMARK    5  A    between atoms: C_14  and  C_15 
REMARK    6  A    between atoms: C_15  and  N_16 
ROOT
HETATM    1  C   UNL     1     -44.652 -45.714   9.014  1.00  0.00     0.070 C 
HETATM    2  C   UNL     1     -43.420 -46.381   9.503  1.00  0.00     0.025 A 
HETATM    3  C   UNL     1     -43.081 -47.754   9.457  1.00  0.00     0.076 A 
HETATM    4  C   UNL     1     -41.879 -47.845  10.119  1.00  0.00     0.127 A 
HETATM    5  N   UNL     1     -41.557 -46.567  10.500  1.00  0.00    -0.276 N 
HETATM    6  N   UNL     1     -42.461 -45.657  10.087  1.00  0.00    -0.301 N 
ATOM      7  HN  UNL     1     -42.421 -44.643  10.196  1.00  0.00     0.187 HD
ENDROOT
BRANCH   4   8
HETATM    8  N   UNL     1     -41.205 -49.031  10.367  1.00  0.00    -0.293 N 
HETATM    9  C   UNL     1     -41.525 -49.752  11.555  1.00  0.00     0.322 C 
HETATM   10  O   UNL     1     -42.211 -49.241  12.419  1.00  0.00    -0.247 OA
HETATM   11  N   UNL     1     -40.972 -51.002  11.546  1.00  0.00    -0.338 N 
HETATM   12  H   UNL     1     -40.358 -51.294  10.805  1.00  0.00     0.164 HD
HETATM   13  H   UNL     1     -40.735 -49.478   9.597  1.00  0.00     0.172 HD
BRANCH  11  14
HETATM   14  C   UNL     1     -41.107 -51.875  12.673  1.00  0.00     0.086 A 
HETATM   15  C   UNL     1     -39.900 -52.437  13.371  1.00  0.00     0.027 A 
HETATM   16  C   UNL     1     -40.793 -53.342  12.576  1.00  0.00     0.027 A 
ENDBRANCH  11  14
ENDBRANCH   4   8
BRANCH   5  17
HETATM   17  C   UNL     1     -40.347 -46.105  11.153  1.00  0.00     0.163 C 
BRANCH  17  18
HETATM   18  C   UNL     1     -39.958 -44.682  10.762  1.00  0.00     0.126 C 
BRANCH  18  19
HETATM   19  C   UNL     1     -39.101 -44.725   9.508  1.00  0.00    -0.076 C 
BRANCH  19  20
HETATM   20  N   UNL     1     -38.388 -44.759   8.468  1.00  0.00    -0.370 N 
ATOM     21  HN2 UNL     1     -38.946 -44.702   9.321  1.00  0.00     0.165 HD
ATOM     22  HN1 UNL     1     -37.813 -44.788   7.626  1.00  0.00     0.165 HD
ENDBRANCH  19  20
ENDBRANCH  18  19
ENDBRANCH  17  18
ENDBRANCH   5  17
TORSDOF 6
ENDMDL
MODEL 5
REMARK VINA RESULT:      -5.6      2.022      5.629
REMARK  6 active torsions:
REMARK  status: ('A' for Active; 'I' for Inactive)
REMARK    1  A    between atoms: C_4  and  N_5 
REMARK       I    between atoms: N_5  and  C_6 
REMARK       I    between atoms: C_6  and  N_8 
REMARK    2  A    between atoms: N_8  and  C_9 
REMARK    3  A    between atoms: N_12  and  C_13 
REMARK    4  A    between atoms: C_13  and  C_14 
REMARK    5  A    between atoms: C_14  and  C_15 
REMARK    6  A    between atoms: C_15  and  N_16 
ROOT
HETATM    1  C   UNL     1     -37.439 -49.958  14.459  1.00  0.00     0.070 C 
HETATM    2  C   UNL     1     -38.422 -50.235  13.382  1.00  0.00     0.025 A 
HETATM    3  C   UNL     1     -38.761 -49.432  12.268  1.00  0.00     0.076 A 
HETATM    4  C   UNL     1     -39.780 -50.109  11.639  1.00  0.00     0.127 A 
HETATM    5  N   UNL     1     -39.983 -51.253  12.369  1.00  0.00    -0.276 N 
HETATM    6  N   UNL     1     -39.128 -51.370  13.404  1.00  0.00    -0.301 N 
ATOM      7  HN  UNL     1     -39.040 -52.148  14.058  1.00  0.00     0.187 HD
ENDROOT
BRANCH   4   8
HETATM    8  N   UNL     1     -40.461 -49.646  10.525  1.00  0.00    -0.293 N 
HETATM    9  C   UNL     1     -41.587 -48.795  10.729  1.00  0.00     0.322 C 
HETATM   10  O   UNL     1     -42.055 -48.650  11.842  1.00  0.00    -0.247 OA
HETATM   11  N   UNL     1     -42.004 -48.226   9.558  1.00  0.00    -0.338 N 
HETATM   12  H   UNL     1     -41.582 -48.476   8.680  1.00  0.00     0.164 HD
HETATM   13  H   UNL     1     -39.995 -49.688   9.633  1.00  0.00     0.172 HD
BRANCH  11  14
HETATM   14  C   UNL     1     -43.164 -47.389   9.518  1.00  0.00     0.086 A 
HETATM   15  C   UNL     1     -44.232 -47.586   8.479  1.00  0.00     0.027 A 
HETATM   16  C   UNL     1     -43.361 -46.366   8.435  1.00  0.00     0.027 A 
ENDBRANCH  11  14
ENDBRANCH   4   8
BRANCH   5  17
HETATM   17  C   UNL     1     -40.886 -52.351  12.080  1.00  0.00     0.163 C 
BRANCH  17  18
HETATM   18  C   UNL     1     -41.914 -52.590  13.182  1.00  0.00     0.126 C 
BRANCH  18  19
HETATM   19  C   UNL     1     -43.076 -51.628  12.998  1.00  0.00    -0.076 C 
BRANCH  19  20
HETATM   20  N   UNL     1     -44.041 -50.829  12.845  1.00  0.00    -0.370 N 
ATOM     21  HN2 UNL     1     -43.238 -51.447  12.967  1.00  0.00     0.165 HD
ATOM     22  HN1 UNL     1     -44.821 -50.184  12.721  1.00  0.00     0.165 HD
ENDBRANCH  19  20
ENDBRANCH  18  19
ENDBRANCH  17  18
ENDBRANCH   5  17
TORSDOF 6
ENDMDL
MODEL 6
REMARK VINA RESULT:      -5.5      4.093      6.610
REMARK  6 active torsions:
REMARK  status: ('A' for Active; 'I' for Inactive)
REMARK    1  A    between atoms: C_4  and  N_5 
REMARK       I    between atoms: N_5  and  C_6 
REMARK       I    between atoms: C_6  and  N_8 
REMARK    2  A    between atoms: N_8  and  C_9 
REMARK    3  A    between atoms: N_12  and  C_13 
REMARK    4  A    between atoms: C_13  and  C_14 
REMARK    5  A    between atoms: C_14  and  C_15 
REMARK    6  A    between atoms: C_15  and  N_16 
ROOT
HETATM    1  C   UNL     1     -46.234 -51.460  14.603  1.00  0.00     0.070 C 
HETATM    2  C   UNL     1     -44.904 -51.725  14.001  1.00  0.00     0.025 A 
HETATM    3  C   UNL     1     -44.116 -50.874  13.189  1.00  0.00     0.076 A 
HETATM    4  C   UNL     1     -43.027 -51.634  12.831  1.00  0.00     0.127 A 
HETATM    5  N   UNL     1     -43.198 -52.853  13.437  1.00  0.00    -0.276 N 
HETATM    6  N   UNL     1     -44.311 -52.907  14.195  1.00  0.00    -0.301 N 
ATOM      7  HN  UNL     1     -44.629 -53.676  14.785  1.00  0.00     0.187 HD
ENDROOT
BRANCH   4   8
HETATM    8  N   UNL     1     -42.019 -51.211  11.978  1.00  0.00    -0.293 N 
HETATM    9  C   UNL     1     -40.822 -50.694  12.555  1.00  0.00     0.322 C 
HETATM   10  O   UNL     1     -40.770 -50.442  13.743  1.00  0.00    -0.247 OA
HETATM   11  N   UNL     1     -39.838 -50.549  11.618  1.00  0.00    -0.338 N 
HETATM   12  H   UNL     1     -40.017 -50.723  10.644  1.00  0.00     0.164 HD
HETATM   13  H   UNL     1     -42.043 -51.529  11.023  1.00  0.00     0.172 HD
BRANCH  11  14
HETATM   14  C   UNL     1     -38.571 -49.978  11.963  1.00  0.00     0.086 A 
HETATM   15  C   UNL     1     -37.375 -50.133  11.065  1.00  0.00     0.027 A 
HETATM   16  C   UNL     1     -37.411 -50.834  12.390  1.00  0.00     0.027 A 
ENDBRANCH  11  14
ENDBRANCH   4   8
BRANCH   5  17
HETATM   17  C   UNL     1     -42.288 -53.983  13.449  1.00  0.00     0.163 C 
BRANCH  17  18
HETATM   18  C   UNL     1     -41.249 -53.907  14.564  1.00  0.00     0.126 C 
BRANCH  18  19
HETATM   19  C   UNL     1     -39.921 -54.437  14.047  1.00  0.00    -0.076 C 
BRANCH  19  20
HETATM   20  N   UNL     1     -38.820 -54.877  13.618  1.00  0.00    -0.370 N 
ATOM     21  HN2 UNL     1     -39.723 -54.555  13.967  1.00  0.00     0.165 HD
ATOM     22  HN1 UNL     1     -37.929 -55.233  13.270  1.00  0.00     0.165 HD
ENDBRANCH  19  20
ENDBRANCH  18  19
ENDBRANCH  17  18
ENDBRANCH   5  17
TORSDOF 6
ENDMDL
MODEL 7
REMARK VINA RESULT:      -5.5      4.875      7.014
REMARK  6 active torsions:
REMARK  status: ('A' for Active; 'I' for Inactive)
REMARK    1  A    between atoms: C_4  and  N_5 
REMARK       I    between atoms: N_5  and  C_6 
REMARK       I    between atoms: C_6  and  N_8 
REMARK    2  A    between atoms: N_8  and  C_9 
REMARK    3  A    between atoms: N_12  and  C_13 
REMARK    4  A    between atoms: C_13  and  C_14 
REMARK    5  A    between atoms: C_14  and  C_15 
REMARK    6  A    between atoms: C_15  and  N_16 
ROOT
HETATM    1  C   UNL     1     -38.653 -55.024  15.401  1.00  0.00     0.070 C 
HETATM    2  C   UNL     1     -39.485 -54.160  14.528  1.00  0.00     0.025 A 
HETATM    3  C   UNL     1     -40.762 -54.427  13.980  1.00  0.00     0.076 A 
HETATM    4  C   UNL     1     -41.040 -53.342  13.182  1.00  0.00     0.127 A 
HETATM    5  N   UNL     1     -39.965 -52.498  13.300  1.00  0.00    -0.276 N 
HETATM    6  N   UNL     1     -39.032 -52.959  14.157  1.00  0.00    -0.301 N 
ATOM      7  HN  UNL     1     -38.174 -52.495  14.455  1.00  0.00     0.187 HD
ENDROOT
BRANCH   4   8
HETATM    8  N   UNL     1     -42.175 -53.213  12.397  1.00  0.00    -0.293 N 
HETATM    9  C   UNL     1     -43.440 -53.127  13.050  1.00  0.00     0.322 C 
HETATM   10  O   UNL     1     -43.536 -53.367  14.238  1.00  0.00    -0.247 OA
HETATM   11  N   UNL     1     -44.429 -52.761  12.181  1.00  0.00    -0.338 N 
HETATM   12  H   UNL     1     -44.245 -52.658  11.197  1.00  0.00     0.164 HD
HETATM   13  H   UNL     1     -42.059 -52.909  11.444  1.00  0.00     0.172 HD
BRANCH  11  14
HETATM   14  C   UNL     1     -45.793 -52.683  12.608  1.00  0.00     0.086 A 
HETATM   15  C   UNL     1     -46.756 -51.722  11.967  1.00  0.00     0.027 A 
HETATM   16  C   UNL     1     -46.310 -51.503  13.382  1.00  0.00     0.027 A 
ENDBRANCH  11  14
ENDBRANCH   4   8
BRANCH   5  17
HETATM   17  C   UNL     1     -39.798 -51.175  12.729  1.00  0.00     0.163 C 
BRANCH  17  18
HETATM   18  C   UNL     1     -38.389 -50.615  12.910  1.00  0.00     0.126 C 
BRANCH  18  19
HETATM   19  C   UNL     1     -37.816 -50.254  11.549  1.00  0.00    -0.076 C 
BRANCH  19  20
HETATM   20  N   UNL     1     -37.340 -49.954  10.420  1.00  0.00    -0.370 N 
ATOM     21  HN2 UNL     1     -37.692 -50.196  11.348  1.00  0.00     0.165 HD
ATOM     22  HN1 UNL     1     -36.956 -49.712   9.507  1.00  0.00     0.165 HD
ENDBRANCH  19  20
ENDBRANCH  18  19
ENDBRANCH  17  18
ENDBRANCH   5  17
TORSDOF 6
ENDMDL
MODEL 8
REMARK VINA RESULT:      -5.4      3.576      7.038
REMARK  6 active torsions:
REMARK  status: ('A' for Active; 'I' for Inactive)
REMARK    1  A    between atoms: C_4  and  N_5 
REMARK       I    between atoms: N_5  and  C_6 
REMARK       I    between atoms: C_6  and  N_8 
REMARK    2  A    between atoms: N_8  and  C_9 
REMARK    3  A    between atoms: N_12  and  C_13 
REMARK    4  A    between atoms: C_13  and  C_14 
REMARK    5  A    between atoms: C_14  and  C_15 
REMARK    6  A    between atoms: C_15  and  N_16 
ROOT
HETATM    1  C   UNL     1     -42.233 -55.783  16.170  1.00  0.00     0.070 C 
HETATM    2  C   UNL     1     -42.667 -54.994  14.991  1.00  0.00     0.025 A 
HETATM    3  C   UNL     1     -41.884 -54.195  14.125  1.00  0.00     0.076 A 
HETATM    4  C   UNL     1     -42.785 -53.619  13.260  1.00  0.00     0.127 A 
HETATM    5  N   UNL     1     -44.018 -54.097  13.623  1.00  0.00    -0.276 N 
HETATM    6  N   UNL     1     -43.958 -54.976  14.643  1.00  0.00    -0.301 N 
ATOM      7  HN  UNL     1     -44.724 -55.508  15.057  1.00  0.00     0.187 HD
ENDROOT
BRANCH   4   8
HETATM    8  N   UNL     1     -42.454 -52.702  12.274  1.00  0.00    -0.293 N 
HETATM    9  C   UNL     1     -42.416 -51.320  12.624  1.00  0.00     0.322 C 
HETATM   10  O   UNL     1     -42.859 -50.944  13.692  1.00  0.00    -0.247 OA
HETATM   11  N   UNL     1     -41.846 -50.569  11.636  1.00  0.00    -0.338 N 
HETATM   12  H   UNL     1     -41.578 -50.981  10.758  1.00  0.00     0.164 HD
HETATM   13  H   UNL     1     -41.992 -53.043  11.447  1.00  0.00     0.172 HD
BRANCH  11  14
HETATM   14  C   UNL     1     -41.768 -49.144  11.745  1.00  0.00     0.086 A 
HETATM   15  C   UNL     1     -41.693 -48.271  10.524  1.00  0.00     0.027 A 
HETATM   16  C   UNL     1     -40.504 -48.396  11.428  1.00  0.00     0.027 A 
ENDBRANCH  11  14
ENDBRANCH   4   8
BRANCH   5  17
HETATM   17  C   UNL     1     -45.295 -53.866  12.974  1.00  0.00     0.163 C 
BRANCH  17  18
HETATM   18  C   UNL     1     -45.920 -52.521  13.336  1.00  0.00     0.126 C 
BRANCH  18  19
HETATM   19  C   UNL     1     -46.597 -51.938  12.107  1.00  0.00    -0.076 C 
BRANCH  19  20
HETATM   20  N   UNL     1     -47.159 -51.454  11.087  1.00  0.00    -0.370 N 
ATOM     21  HN2 UNL     1     -46.728 -51.827  11.933  1.00  0.00     0.165 HD
ATOM     22  HN1 UNL     1     -47.613 -51.063  10.261  1.00  0.00     0.165 HD
ENDBRANCH  19  20
ENDBRANCH  18  19
ENDBRANCH  17  18
ENDBRANCH   5  17
TORSDOF 6
ENDMDL
MODEL 9
REMARK VINA RESULT:      -5.3      2.165      6.538
REMARK  6 active torsions:
REMARK  status: ('A' for Active; 'I' for Inactive)
REMARK    1  A    between atoms: C_4  and  N_5 
REMARK       I    between atoms: N_5  and  C_6 
REMARK       I    between atoms: C_6  and  N_8 
REMARK    2  A    between atoms: N_8  and  C_9 
REMARK    3  A    between atoms: N_12  and  C_13 
REMARK    4  A    between atoms: C_13  and  C_14 
REMARK    5  A    between atoms: C_14  and  C_15 
REMARK    6  A    between atoms: C_15  and  N_16 
ROOT
HETATM    1  C   UNL     1     -41.124 -54.549  14.004  1.00  0.00     0.070 C 
HETATM    2  C   UNL     1     -40.778 -53.239  13.398  1.00  0.00     0.025 A 
HETATM    3  C   UNL     1     -41.420 -52.560  12.336  1.00  0.00     0.076 A 
HETATM    4  C   UNL     1     -40.651 -51.441  12.114  1.00  0.00     0.127 A 
HETATM    5  N   UNL     1     -39.633 -51.491  13.032  1.00  0.00    -0.276 N 
HETATM    6  N   UNL     1     -39.726 -52.554  13.856  1.00  0.00    -0.301 N 
ATOM      7  HN  UNL     1     -39.128 -52.783  14.650  1.00  0.00     0.187 HD
ENDROOT
BRANCH   4   8
HETATM    8  N   UNL     1     -40.882 -50.514  11.109  1.00  0.00    -0.293 N 
HETATM    9  C   UNL     1     -41.675 -49.370  11.417  1.00  0.00     0.322 C 
HETATM   10  O   UNL     1     -42.296 -49.314  12.461  1.00  0.00    -0.247 OA
HETATM   11  N   UNL     1     -41.615 -48.436  10.421  1.00  0.00    -0.338 N 
HETATM   12  H   UNL     1     -41.123 -48.622   9.564  1.00  0.00     0.164 HD
HETATM   13  H   UNL     1     -40.276 -50.527  10.305  1.00  0.00     0.172 HD
BRANCH  11  14
HETATM   14  C   UNL     1     -42.392 -47.236  10.489  1.00  0.00     0.086 A 
HETATM   15  C   UNL     1     -42.898 -46.564   9.243  1.00  0.00     0.027 A 
HETATM   16  C   UNL     1     -41.830 -45.908  10.066  1.00  0.00     0.027 A 
ENDBRANCH  11  14
ENDBRANCH   4   8
BRANCH   5  17
HETATM   17  C   UNL     1     -38.599 -50.504  13.277  1.00  0.00     0.163 C 
BRANCH  17  18
HETATM   18  C   UNL     1     -37.257 -50.869  12.648  1.00  0.00     0.126 C 
BRANCH  18  19
HETATM   19  C   UNL     1     -37.232 -50.383  11.208  1.00  0.00    -0.076 C 
BRANCH  19  20
HETATM   20  N   UNL     1     -37.212 -49.980  10.013  1.00  0.00    -0.370 N 
ATOM     21  HN2 UNL     1     -37.194 -50.316  10.976  1.00  0.00     0.165 HD
ATOM     22  HN1 UNL     1     -37.197 -49.654   9.046  1.00  0.00     0.165 HD
ENDBRANCH  19  20
ENDBRANCH  18  19
ENDBRANCH  17  18
ENDBRANCH   5  17
TORSDOF 6
ENDMDL
