MODEL 1
REMARK VINA RESULT:      -5.9      0.000      0.000
REMARK  3 active torsions:
REMARK  status: ('A' for Active; 'I' for Inactive)
REMARK    1  A    between atoms: N_6  and  C_10 
REMARK    2  A    between atoms: C_12  and  C_17 
REMARK    3  A    between atoms: C_17  and  O_19 
ROOT
HETATM    1  C   UNL     2     -43.273 -53.388  12.836  1.00  0.00     0.104 A 
HETATM    2  C   UNL     2     -42.275 -54.104  13.539  1.00  0.00     0.066 A 
HETATM    3  C   UNL     2     -40.910 -53.836  13.322  1.00  0.00     0.042 A 
HETATM    4  C   UNL     2     -40.566 -52.843  12.389  1.00  0.00     0.035 A 
HETATM    5  C   UNL     2     -41.565 -52.159  11.703  1.00  0.00     0.090 A 
HETATM    6  N   UNL     2     -42.871 -52.442  11.939  1.00  0.00    -0.352 N 
ATOM      7  HN  UNL     2     -43.583 -51.926  11.423  1.00  0.00     0.166 HD
ENDROOT
BRANCH   1   8
HETATM    8  N   UNL     2     -44.686 -53.600  13.047  1.00  0.00    -0.363 N 
HETATM    9  C   UNL     2     -45.194 -54.800  13.697  1.00  0.00     0.155 C 
HETATM   10  C   UNL     2     -46.080 -54.393  14.893  1.00  0.00     0.135 C 
HETATM   11  C   UNL     2     -45.264 -53.899  16.094  1.00  0.00     0.041 C 
HETATM   12  O   UNL     2     -47.089 -53.459  14.507  1.00  0.00    -0.383 OA
HETATM   13  C   UNL     2     -46.552 -52.305  13.876  1.00  0.00     0.188 C 
HETATM   14  C   UNL     2     -45.736 -52.677  12.638  1.00  0.00     0.150 C 
ENDBRANCH   1   8
BRANCH   3  15
HETATM   15  C   UNL     2     -39.827 -54.564  14.058  1.00  0.00     0.176 C 
HETATM   16  O   UNL     2     -40.007 -54.887  15.222  1.00  0.00    -0.646 OA
BRANCH  15  17
HETATM   17  O   UNL     2     -38.643 -54.893  13.489  1.00  0.00    -0.773 OA
HETATM   18  H   UNL     2     -37.983 -55.480  13.880  1.00  0.00     0.167 HD
ENDBRANCH  15  17
ENDBRANCH   3  15
TORSDOF 3
ENDMDL
MODEL 2
REMARK VINA RESULT:      -5.6      1.764      5.907
REMARK  3 active torsions:
REMARK  status: ('A' for Active; 'I' for Inactive)
REMARK    1  A    between atoms: N_6  and  C_10 
REMARK    2  A    between atoms: C_12  and  C_17 
REMARK    3  A    between atoms: C_17  and  O_19 
ROOT
HETATM    1  C   UNL     2     -42.808 -53.658  13.195  1.00  0.00     0.104 A 
HETATM    2  C   UNL     2     -43.852 -52.863  12.665  1.00  0.00     0.066 A 
HETATM    3  C   UNL     2     -45.192 -53.100  13.029  1.00  0.00     0.042 A 
HETATM    4  C   UNL     2     -45.464 -54.146  13.927  1.00  0.00     0.035 A 
HETATM    5  C   UNL     2     -44.421 -54.919  14.428  1.00  0.00     0.090 A 
HETATM    6  N   UNL     2     -43.141 -54.662  14.056  1.00  0.00    -0.352 N 
ATOM      7  HN  UNL     2     -42.396 -55.244  14.438  1.00  0.00     0.166 HD
ENDROOT
BRANCH   1   8
HETATM    8  N   UNL     2     -41.417 -53.435  12.881  1.00  0.00    -0.363 N 
HETATM    9  C   UNL     2     -40.998 -52.425  11.918  1.00  0.00     0.155 C 
HETATM   10  C   UNL     2     -39.981 -51.476  12.586  1.00  0.00     0.135 C 
HETATM   11  C   UNL     2     -40.640 -50.495  13.564  1.00  0.00     0.041 C 
HETATM   12  O   UNL     2     -38.907 -52.198  13.190  1.00  0.00    -0.383 OA
HETATM   13  C   UNL     2     -39.357 -53.172  14.120  1.00  0.00     0.188 C 
HETATM   14  C   UNL     2     -40.304 -54.174  13.462  1.00  0.00     0.150 C 
ENDBRANCH   1   8
BRANCH   3  15
HETATM   15  C   UNL     2     -46.321 -52.271  12.498  1.00  0.00     0.176 C 
HETATM   16  O   UNL     2     -46.789 -51.382  13.192  1.00  0.00    -0.646 OA
BRANCH  15  17
HETATM   17  O   UNL     2     -46.856 -52.455  11.268  1.00  0.00    -0.773 OA
HETATM   18  H   UNL     2     -46.571 -52.002  10.464  1.00  0.00     0.167 HD
ENDBRANCH  15  17
ENDBRANCH   3  15
TORSDOF 3
ENDMDL
MODEL 3
REMARK VINA RESULT:      -5.3      2.241      2.694
REMARK  3 active torsions:
REMARK  status: ('A' for Active; 'I' for Inactive)
REMARK    1  A    between atoms: N_6  and  C_10 
REMARK    2  A    between atoms: C_12  and  C_17 
REMARK    3  A    between atoms: C_17  and  O_19 
ROOT
HETATM    1  C   UNL     2     -43.298 -53.150  12.833  1.00  0.00     0.104 A 
HETATM    2  C   UNL     2     -42.776 -51.905  12.409  1.00  0.00     0.066 A 
HETATM    3  C   UNL     2     -41.395 -51.741  12.188  1.00  0.00     0.042 A 
HETATM    4  C   UNL     2     -40.550 -52.844  12.402  1.00  0.00     0.035 A 
HETATM    5  C   UNL     2     -41.086 -54.056  12.829  1.00  0.00     0.090 A 
HETATM    6  N   UNL     2     -42.422 -54.178  13.030  1.00  0.00    -0.352 N 
ATOM      7  HN  UNL     2     -42.789 -55.077  13.342  1.00  0.00     0.166 HD
ENDROOT
BRANCH   1   8
HETATM    8  N   UNL     2     -44.708 -53.380  13.040  1.00  0.00    -0.363 N 
HETATM    9  C   UNL     2     -45.209 -54.626  13.605  1.00  0.00     0.155 C 
HETATM   10  C   UNL     2     -46.086 -54.309  14.835  1.00  0.00     0.135 C 
HETATM   11  C   UNL     2     -45.260 -53.902  16.062  1.00  0.00     0.041 C 
HETATM   12  O   UNL     2     -47.099 -53.351  14.526  1.00  0.00    -0.383 OA
HETATM   13  C   UNL     2     -46.569 -52.153  13.977  1.00  0.00     0.188 C 
HETATM   14  C   UNL     2     -45.763 -52.432  12.709  1.00  0.00     0.150 C 
ENDBRANCH   1   8
BRANCH   3  15
HETATM   15  C   UNL     2     -40.809 -50.442  11.727  1.00  0.00     0.176 C 
HETATM   16  O   UNL     2     -40.631 -49.545  12.536  1.00  0.00    -0.646 OA
BRANCH  15  17
HETATM   17  O   UNL     2     -40.456 -50.209  10.441  1.00  0.00    -0.773 OA
HETATM   18  H   UNL     2     -40.305 -50.890   9.773  1.00  0.00     0.167 HD
ENDBRANCH  15  17
ENDBRANCH   3  15
TORSDOF 3
ENDMDL
MODEL 4
REMARK VINA RESULT:      -5.3      7.004      8.008
REMARK  3 active torsions:
REMARK  status: ('A' for Active; 'I' for Inactive)
REMARK    1  A    between atoms: N_6  and  C_10 
REMARK    2  A    between atoms: C_12  and  C_17 
REMARK    3  A    between atoms: C_17  and  O_19 
ROOT
HETATM    1  C   UNL     2     -39.617 -47.545  12.727  1.00  0.00     0.104 A 
HETATM    2  C   UNL     2     -38.987 -48.493  11.886  1.00  0.00     0.066 A 
HETATM    3  C   UNL     2     -38.056 -49.411  12.407  1.00  0.00     0.042 A 
HETATM    4  C   UNL     2     -37.767 -49.359  13.782  1.00  0.00     0.035 A 
HETATM    5  C   UNL     2     -38.392 -48.412  14.587  1.00  0.00     0.090 A 
HETATM    6  N   UNL     2     -39.286 -47.544  14.050  1.00  0.00    -0.352 N 
ATOM      7  HN  UNL     2     -39.731 -46.860  14.663  1.00  0.00     0.166 HD
ENDROOT
BRANCH   1   8
HETATM    8  N   UNL     2     -40.604 -46.606  12.248  1.00  0.00    -0.363 N 
HETATM    9  C   UNL     2     -40.382 -45.167  12.296  1.00  0.00     0.155 C 
HETATM   10  C   UNL     2     -40.572 -44.576  10.884  1.00  0.00     0.135 C 
HETATM   11  C   UNL     2     -39.395 -44.884   9.950  1.00  0.00     0.041 C 
HETATM   12  O   UNL     2     -41.824 -44.962  10.316  1.00  0.00    -0.383 OA
HETATM   13  C   UNL     2     -42.001 -46.371  10.289  1.00  0.00     0.188 C 
HETATM   14  C   UNL     2     -41.899 -46.971  11.691  1.00  0.00     0.150 C 
ENDBRANCH   1   8
BRANCH   3  15
HETATM   15  C   UNL     2     -37.380 -50.436  11.550  1.00  0.00     0.176 C 
HETATM   16  O   UNL     2     -36.938 -51.452  12.066  1.00  0.00    -0.646 OA
BRANCH  15  17
HETATM   17  O   UNL     2     -37.234 -50.297  10.211  1.00  0.00    -0.773 OA
HETATM   18  H   UNL     2     -37.354 -51.002   9.562  1.00  0.00     0.167 HD
ENDBRANCH  15  17
ENDBRANCH   3  15
TORSDOF 3
ENDMDL
MODEL 5
REMARK VINA RESULT:      -5.3      1.505      5.508
REMARK  3 active torsions:
REMARK  status: ('A' for Active; 'I' for Inactive)
REMARK    1  A    between atoms: N_6  and  C_10 
REMARK    2  A    between atoms: C_12  and  C_17 
REMARK    3  A    between atoms: C_17  and  O_19 
ROOT
HETATM    1  C   UNL     2     -43.365 -52.719  13.206  1.00  0.00     0.104 A 
HETATM    2  C   UNL     2     -44.071 -53.670  13.981  1.00  0.00     0.066 A 
HETATM    3  C   UNL     2     -45.419 -53.457  14.329  1.00  0.00     0.042 A 
HETATM    4  C   UNL     2     -46.042 -52.277  13.890  1.00  0.00     0.035 A 
HETATM    5  C   UNL     2     -45.324 -51.352  13.137  1.00  0.00     0.090 A 
HETATM    6  N   UNL     2     -44.027 -51.591  12.819  1.00  0.00    -0.352 N 
ATOM      7  HN  UNL     2     -43.524 -50.897  12.266  1.00  0.00     0.166 HD
ENDROOT
BRANCH   1   8
HETATM    8  N   UNL     2     -41.994 -52.906  12.794  1.00  0.00    -0.363 N 
HETATM    9  C   UNL     2     -41.230 -51.840  12.161  1.00  0.00     0.155 C 
HETATM   10  C   UNL     2     -39.926 -51.610  12.953  1.00  0.00     0.135 C 
HETATM   11  C   UNL     2     -40.160 -50.870  14.276  1.00  0.00     0.041 C 
HETATM   12  O   UNL     2     -39.201 -52.826  13.138  1.00  0.00    -0.383 OA
HETATM   13  C   UNL     2     -39.982 -53.839  13.756  1.00  0.00     0.188 C 
HETATM   14  C   UNL     2     -41.241 -54.144  12.945  1.00  0.00     0.150 C 
ENDBRANCH   1   8
BRANCH   3  15
HETATM   15  C   UNL     2     -46.201 -54.448  15.136  1.00  0.00     0.176 C 
HETATM   16  O   UNL     2     -46.041 -54.493  16.346  1.00  0.00    -0.646 OA
BRANCH  15  17
HETATM   17  O   UNL     2     -47.093 -55.305  14.587  1.00  0.00    -0.773 OA
HETATM   18  H   UNL     2     -47.495 -55.207  13.714  1.00  0.00     0.167 HD
ENDBRANCH  15  17
ENDBRANCH   3  15
TORSDOF 3
ENDMDL
MODEL 6
REMARK VINA RESULT:      -5.2      2.616      5.572
REMARK  3 active torsions:
REMARK  status: ('A' for Active; 'I' for Inactive)
REMARK    1  A    between atoms: N_6  and  C_10 
REMARK    2  A    between atoms: C_12  and  C_17 
REMARK    3  A    between atoms: C_17  and  O_19 
ROOT
HETATM    1  C   UNL     2     -41.623 -53.609  13.818  1.00  0.00     0.104 A 
HETATM    2  C   UNL     2     -42.954 -53.773  13.363  1.00  0.00     0.066 A 
HETATM    3  C   UNL     2     -43.852 -54.610  14.053  1.00  0.00     0.042 A 
HETATM    4  C   UNL     2     -43.392 -55.279  15.200  1.00  0.00     0.035 A 
HETATM    5  C   UNL     2     -42.077 -55.110  15.622  1.00  0.00     0.090 A 
HETATM    6  N   UNL     2     -41.240 -54.293  14.934  1.00  0.00    -0.352 N 
ATOM      7  HN  UNL     2     -40.281 -54.186  15.265  1.00  0.00     0.166 HD
ENDROOT
BRANCH   1   8
HETATM    8  N   UNL     2     -40.675 -52.736  13.169  1.00  0.00    -0.363 N 
HETATM    9  C   UNL     2     -40.890 -52.236  11.818  1.00  0.00     0.155 C 
HETATM   10  C   UNL     2     -40.807 -50.696  11.827  1.00  0.00     0.135 C 
HETATM   11  C   UNL     2     -42.052 -50.039  12.436  1.00  0.00     0.041 C 
HETATM   12  O   UNL     2     -39.602 -50.237  12.440  1.00  0.00    -0.383 OA
HETATM   13  C   UNL     2     -39.429 -50.748  13.754  1.00  0.00     0.188 C 
HETATM   14  C   UNL     2     -39.426 -52.276  13.761  1.00  0.00     0.150 C 
ENDBRANCH   1   8
BRANCH   3  15
HETATM   15  C   UNL     2     -45.270 -54.797  13.608  1.00  0.00     0.176 C 
HETATM   16  O   UNL     2     -45.870 -55.811  13.931  1.00  0.00    -0.646 OA
BRANCH  15  17
HETATM   17  O   UNL     2     -45.934 -53.884  12.860  1.00  0.00    -0.773 OA
HETATM   18  H   UNL     2     -45.889 -53.815  11.898  1.00  0.00     0.167 HD
ENDBRANCH  15  17
ENDBRANCH   3  15
TORSDOF 3
ENDMDL
MODEL 7
REMARK VINA RESULT:      -5.2      1.709      2.595
REMARK  3 active torsions:
REMARK  status: ('A' for Active; 'I' for Inactive)
REMARK    1  A    between atoms: N_6  and  C_10 
REMARK    2  A    between atoms: C_12  and  C_17 
REMARK    3  A    between atoms: C_17  and  O_19 
ROOT
HETATM    1  C   UNL     2     -43.268 -54.398  14.776  1.00  0.00     0.104 A 
HETATM    2  C   UNL     2     -42.099 -54.113  14.030  1.00  0.00     0.066 A 
HETATM    3  C   UNL     2     -40.823 -54.385  14.560  1.00  0.00     0.042 A 
HETATM    4  C   UNL     2     -40.741 -54.944  15.846  1.00  0.00     0.035 A 
HETATM    5  C   UNL     2     -41.904 -55.207  16.564  1.00  0.00     0.090 A 
HETATM    6  N   UNL     2     -43.117 -54.933  16.021  1.00  0.00    -0.352 N 
ATOM      7  HN  UNL     2     -43.954 -55.136  16.569  1.00  0.00     0.166 HD
ENDROOT
BRANCH   1   8
HETATM    8  N   UNL     2     -44.599 -54.170  14.265  1.00  0.00    -0.363 N 
HETATM    9  C   UNL     2     -45.753 -54.065  15.148  1.00  0.00     0.155 C 
HETATM   10  C   UNL     2     -46.484 -52.735  14.871  1.00  0.00     0.135 C 
HETATM   11  C   UNL     2     -45.741 -51.521  15.442  1.00  0.00     0.041 C 
HETATM   12  O   UNL     2     -46.785 -52.578  13.484  1.00  0.00    -0.383 OA
HETATM   13  C   UNL     2     -45.634 -52.689  12.659  1.00  0.00     0.188 C 
HETATM   14  C   UNL     2     -44.937 -54.034  12.855  1.00  0.00     0.150 C 
ENDBRANCH   1   8
BRANCH   3  15
HETATM   15  C   UNL     2     -39.566 -54.109  13.794  1.00  0.00     0.176 C 
HETATM   16  O   UNL     2     -39.276 -52.955  13.515  1.00  0.00    -0.646 OA
BRANCH  15  17
HETATM   17  O   UNL     2     -38.717 -55.084  13.393  1.00  0.00    -0.773 OA
HETATM   18  H   UNL     2     -38.759 -56.007  13.674  1.00  0.00     0.167 HD
ENDBRANCH  15  17
ENDBRANCH   3  15
TORSDOF 3
ENDMDL
MODEL 8
REMARK VINA RESULT:      -4.9      3.184      5.872
REMARK  3 active torsions:
REMARK  status: ('A' for Active; 'I' for Inactive)
REMARK    1  A    between atoms: N_6  and  C_10 
REMARK    2  A    between atoms: C_12  and  C_17 
REMARK    3  A    between atoms: C_17  and  O_19 
ROOT
HETATM    1  C   UNL     2     -40.995 -51.833  12.738  1.00  0.00     0.104 A 
HETATM    2  C   UNL     2     -42.354 -52.079  12.427  1.00  0.00     0.066 A 
HETATM    3  C   UNL     2     -42.978 -53.276  12.828  1.00  0.00     0.042 A 
HETATM    4  C   UNL     2     -42.217 -54.218  13.541  1.00  0.00     0.035 A 
HETATM    5  C   UNL     2     -40.880 -53.957  13.827  1.00  0.00     0.090 A 
HETATM    6  N   UNL     2     -40.312 -52.792  13.426  1.00  0.00    -0.352 N 
ATOM      7  HN  UNL     2     -39.330 -52.626  13.649  1.00  0.00     0.166 HD
ENDROOT
BRANCH   1   8
HETATM    8  N   UNL     2     -40.319 -50.608  12.380  1.00  0.00    -0.363 N 
HETATM    9  C   UNL     2     -40.526 -49.965  11.090  1.00  0.00     0.155 C 
HETATM   10  C   UNL     2     -40.959 -48.501  11.317  1.00  0.00     0.135 C 
HETATM   11  C   UNL     2     -42.414 -48.380  11.786  1.00  0.00     0.041 C 
HETATM   12  O   UNL     2     -40.055 -47.813  12.182  1.00  0.00    -0.383 OA
HETATM   13  C   UNL     2     -39.880 -48.473  13.427  1.00  0.00     0.188 C 
HETATM   14  C   UNL     2     -39.372 -49.901  13.232  1.00  0.00     0.150 C 
ENDBRANCH   1   8
BRANCH   3  15
HETATM   15  C   UNL     2     -44.417 -53.564  12.528  1.00  0.00     0.176 C 
HETATM   16  O   UNL     2     -44.893 -54.640  12.857  1.00  0.00    -0.646 OA
BRANCH  15  17
HETATM   17  O   UNL     2     -45.232 -52.680  11.907  1.00  0.00    -0.773 OA
HETATM   18  H   UNL     2     -45.013 -52.191  11.103  1.00  0.00     0.167 HD
ENDBRANCH  15  17
ENDBRANCH   3  15
TORSDOF 3
ENDMDL
MODEL 9
REMARK VINA RESULT:      -4.9      6.458      8.614
REMARK  3 active torsions:
REMARK  status: ('A' for Active; 'I' for Inactive)
REMARK    1  A    between atoms: N_6  and  C_10 
REMARK    2  A    between atoms: C_12  and  C_17 
REMARK    3  A    between atoms: C_17  and  O_19 
ROOT
HETATM    1  C   UNL     2     -39.884 -47.722  12.069  1.00  0.00     0.104 A 
HETATM    2  C   UNL     2     -39.785 -46.703  11.091  1.00  0.00     0.066 A 
HETATM    3  C   UNL     2     -40.102 -45.368  11.408  1.00  0.00     0.042 A 
HETATM    4  C   UNL     2     -40.520 -45.075  12.717  1.00  0.00     0.035 A 
HETATM    5  C   UNL     2     -40.618 -46.096  13.659  1.00  0.00     0.090 A 
HETATM    6  N   UNL     2     -40.303 -47.371  13.318  1.00  0.00    -0.352 N 
ATOM      7  HN  UNL     2     -40.383 -48.099  14.028  1.00  0.00     0.166 HD
ENDROOT
BRANCH   1   8
HETATM    8  N   UNL     2     -39.537 -49.098  11.805  1.00  0.00    -0.363 N 
HETATM    9  C   UNL     2     -38.157 -49.519  11.608  1.00  0.00     0.155 C 
HETATM   10  C   UNL     2     -37.827 -50.656  12.598  1.00  0.00     0.135 C 
HETATM   11  C   UNL     2     -37.633 -50.153  14.034  1.00  0.00     0.041 C 
HETATM   12  O   UNL     2     -38.783 -51.714  12.523  1.00  0.00    -0.383 OA
HETATM   13  C   UNL     2     -40.115 -51.261  12.718  1.00  0.00     0.188 C 
HETATM   14  C   UNL     2     -40.495 -50.191  11.696  1.00  0.00     0.150 C 
ENDBRANCH   1   8
BRANCH   3  15
HETATM   15  C   UNL     2     -39.998 -44.263  10.402  1.00  0.00     0.176 C 
HETATM   16  O   UNL     2     -39.430 -44.471   9.341  1.00  0.00    -0.646 OA
BRANCH  15  17
HETATM   17  O   UNL     2     -40.511 -43.028  10.609  1.00  0.00    -0.773 OA
HETATM   18  H   UNL     2     -41.296 -42.833  11.137  1.00  0.00     0.167 HD
ENDBRANCH  15  17
ENDBRANCH   3  15
TORSDOF 3
ENDMDL
